MODEL 1
REMARK VINA RESULT:     -13.0      0.000      0.000
REMARK SMILES Nc1cc(C(=O)NCCCCNC(=O)c2ccc(-c3c4nc(c(-c5cc(S(=O)(=O)[O-])ccc5F)c5ccc([nH]5)c(-c5cc(S(=O)(=O)[O-])ccc5F)c5nc(c(-c6cc(S(=O)(=O)[O-])ccc6F)c6ccc3[nH]6)C=C5)C=C4)cc2)ccc1N1CC2(CCOCC2)C1
REMARK SMILES IDX 10 1 9 2 8 3 7 4 5 5 6 6 4 8 2 9 3 10 80 11 79 12 78 13 1 14
REMARK SMILES IDX 81 17 82 18 89 19 83 20 84 21 88 22 85 23 87 24 86 25 11 26
REMARK SMILES IDX 12 27 13 28 14 30 15 31 16 32 77 33 17 34 76 35 18 36 19 37
REMARK SMILES IDX 20 38 70 39 21 40 75 41 69 42 71 43 22 44 74 45 68 46 67 47
REMARK SMILES IDX 23 49 55 50 35 51 54 52 36 53 39 54 53 55 72 56 37 57 38 58
REMARK SMILES IDX 52 60 73 61 40 62 24 63 25 64 33 65 26 66 32 67 34 68 31 69
REMARK SMILES IDX 27 70 28 71 29 72 30 73 56 74 57 75 65 76 58 77 64 78 66 79
REMARK SMILES IDX 63 80 59 81 60 82 61 83 62 84 41 85 42 86 50 87 43 88 49 89
REMARK SMILES IDX 51 90 48 91 44 92 45 93 46 94 47 95
REMARK H PARENT 7 7 1 15 1 16 12 29 71 48 39 59
REMARK Flexibility Score: inf
ROOT
ATOM      1  C   UNL A   1      35.749  22.471  24.040  1.00  0.00     0.023 C 
ENDROOT
BRANCH   1   2
ATOM      2  C   UNL A   1      34.305  22.991  24.036  1.00  0.00     0.023 C 
BRANCH   2   3
ATOM      3  C   UNL A   1      34.121  24.324  24.764  1.00  0.00     0.116 C 
BRANCH   3   4
ATOM      4  N   UNL A   1      33.186  24.174  25.858  1.00  0.00    -0.352 N 
ATOM      5  C   UNL A   1      31.994  24.775  26.158  1.00  0.00     0.251 C 
ATOM      6  O   UNL A   1      31.465  24.438  27.221  1.00  0.00    -0.269 OA
ATOM      7  H   UNL A   1      33.464  23.501  26.521  1.00  0.00     0.163 HD
BRANCH   5   8
ATOM      8  C   UNL A   1      31.282  25.758  25.282  1.00  0.00     0.041 A 
ATOM      9  C   UNL A   1      31.055  28.138  24.733  1.00  0.00     0.056 A 
ATOM     10  C   UNL A   1      31.652  27.102  25.458  1.00  0.00     0.041 A 
ATOM     11  C   UNL A   1      30.001  27.843  23.842  1.00  0.00     0.060 A 
ATOM     12  C   UNL A   1      29.642  26.508  23.646  1.00  0.00     0.029 A 
ATOM     13  C   UNL A   1      30.302  25.474  24.329  1.00  0.00     0.016 A 
BRANCH   9  14
ATOM     14  N   UNL A   1      31.393  29.454  25.049  1.00  0.00    -0.397 N 
ATOM     15  H   UNL A   1      32.339  29.707  25.157  1.00  0.00     0.156 HD
ATOM     16  H   UNL A   1      30.687  30.131  25.165  1.00  0.00     0.156 HD
ENDBRANCH   9  14
BRANCH  11  17
ATOM     17  N   UNL A   1      29.307  28.878  23.201  1.00  0.00    -0.369 N 
ATOM     18  C   UNL A   1      29.770  29.892  22.313  1.00  0.00     0.125 C 
ATOM     19  C   UNL A   1      27.942  29.019  22.816  1.00  0.00     0.125 C 
ATOM     20  C   UNL A   1      28.327  30.462  22.386  1.00  0.00     0.010 C 
ATOM     21  C   UNL A   1      27.718  30.967  21.083  1.00  0.00     0.039 C 
ATOM     22  C   UNL A   1      28.125  31.510  23.497  1.00  0.00     0.039 C 
ATOM     23  C   UNL A   1      28.325  32.328  20.753  1.00  0.00     0.161 C 
ATOM     24  C   UNL A   1      28.719  32.834  23.035  1.00  0.00     0.161 C 
ATOM     25  O   UNL A   1      28.097  33.256  21.820  1.00  0.00    -0.381 OA
ENDBRANCH  11  17
ENDBRANCH   5   8
ENDBRANCH   3   4
ENDBRANCH   2   3
ENDBRANCH   1   2
BRANCH   1  26
ATOM     26  C   UNL A   1      36.319  22.159  25.422  1.00  0.00     0.116 C 
BRANCH  26  27
ATOM     27  N   UNL A   1      37.243  21.038  25.421  1.00  0.00    -0.352 N 
ATOM     28  C   UNL A   1      38.574  21.021  25.774  1.00  0.00     0.251 C 
ATOM     29  H   UNL A   1      36.868  20.175  25.128  1.00  0.00     0.163 HD
ATOM     30  O   UNL A   1      39.238  20.012  25.611  1.00  0.00    -0.269 OA
BRANCH  28  31
ATOM     31  C   UNL A   1      39.189  22.259  26.303  1.00  0.00     0.039 A 
ATOM     32  C   UNL A   1      40.295  22.146  27.148  1.00  0.00     0.014 A 
ATOM     33  C   UNL A   1      38.701  23.515  25.937  1.00  0.00     0.014 A 
ATOM     34  C   UNL A   1      40.957  23.299  27.571  1.00  0.00     0.010 A 
ATOM     35  C   UNL A   1      39.398  24.660  26.310  1.00  0.00     0.010 A 
ATOM     36  C   UNL A   1      40.536  24.563  27.126  1.00  0.00    -0.014 A 
BRANCH  36  37
ATOM     37  C   UNL A   1      41.277  25.794  27.498  1.00  0.00     0.031 A 
ATOM     38  C   UNL A   1      40.608  26.849  28.335  1.00  0.00     0.074 A 
ATOM     39  C   UNL A   1      42.521  25.990  27.021  1.00  0.00     0.049 A 
ATOM     40  N   UNL A   1      41.054  28.025  28.696  1.00  0.00    -0.248 NA
ATOM     41  C   UNL A   1      39.245  26.552  28.798  1.00  0.00     0.031 C 
ATOM     42  C   UNL A   1      43.253  25.057  26.160  1.00  0.00     0.029 A 
ATOM     43  N   UNL A   1      43.387  27.042  27.180  1.00  0.00    -0.354 N 
ATOM     44  C   UNL A   1      40.021  28.614  29.418  1.00  0.00     0.074 A 
ATOM     45  C   UNL A   1      38.909  27.688  29.388  1.00  0.00     0.031 C 
ATOM     46  C   UNL A   1      44.462  25.572  25.883  1.00  0.00     0.029 A 
ATOM     47  C   UNL A   1      44.578  26.883  26.511  1.00  0.00     0.049 A 
ATOM     48  H   UNL A   1      43.175  27.836  27.722  1.00  0.00     0.167 HD
ATOM     49  C   UNL A   1      40.012  29.807  30.063  1.00  0.00     0.034 A 
ATOM     50  C   UNL A   1      45.640  27.707  26.408  1.00  0.00     0.034 A 
ATOM     51  C   UNL A   1      41.137  30.711  30.092  1.00  0.00     0.049 A 
ATOM     52  C   UNL A   1      45.604  29.032  27.124  1.00  0.00     0.074 A 
ATOM     53  C   UNL A   1      41.260  31.916  30.761  1.00  0.00     0.029 A 
ATOM     54  N   UNL A   1      42.334  30.512  29.413  1.00  0.00    -0.354 N 
ATOM     55  N   UNL A   1      44.641  29.554  27.849  1.00  0.00    -0.248 NA
ATOM     56  C   UNL A   1      46.803  29.872  27.020  1.00  0.00     0.031 C 
ATOM     57  C   UNL A   1      42.503  32.473  30.441  1.00  0.00     0.029 A 
ATOM     58  C   UNL A   1      43.187  31.584  29.626  1.00  0.00     0.049 A 
ATOM     59  H   UNL A   1      42.544  29.725  28.861  1.00  0.00     0.167 HD
ATOM     60  C   UNL A   1      45.129  30.772  28.307  1.00  0.00     0.074 A 
ATOM     61  C   UNL A   1      46.477  30.901  27.791  1.00  0.00     0.031 C 
ATOM     62  C   UNL A   1      44.522  31.701  29.089  1.00  0.00     0.034 A 
BRANCH  49  63
ATOM     63  C   UNL A   1      38.734  30.203  30.765  1.00  0.00     0.023 A 
ATOM     64  C   UNL A   1      37.710  30.897  30.097  1.00  0.00     0.031 A 
ATOM     65  C   UNL A   1      38.554  29.920  32.131  1.00  0.00     0.131 A 
ATOM     66  C   UNL A   1      36.595  31.360  30.811  1.00  0.00     0.055 A 
ATOM     67  C   UNL A   1      37.402  30.310  32.817  1.00  0.00     0.041 A 
ATOM     68  F   UNL A   1      39.504  29.276  32.828  1.00  0.00    -0.206 F 
ATOM     69  C   UNL A   1      36.421  31.050  32.162  1.00  0.00     0.022 A 
BRANCH  66  70
ATOM     70  S   UNL A   1      35.455  32.504  29.985  1.00  0.00     0.124 S 
ATOM     71  O   UNL A   1      36.316  33.660  29.750  1.00  0.00    -0.237 OA
ATOM     72  O   UNL A   1      35.056  31.752  28.803  1.00  0.00    -0.237 OA
ATOM     73  O   UNL A   1      34.402  32.713  30.978  1.00  0.00    -0.744 OA
ENDBRANCH  66  70
ENDBRANCH  49  63
BRANCH  50  74
ATOM     74  C   UNL A   1      46.823  27.313  25.592  1.00  0.00     0.023 A 
ATOM     75  C   UNL A   1      46.985  27.788  24.280  1.00  0.00     0.031 A 
ATOM     76  C   UNL A   1      47.790  26.428  26.099  1.00  0.00     0.131 A 
ATOM     77  C   UNL A   1      48.067  27.342  23.505  1.00  0.00     0.055 A 
ATOM     78  C   UNL A   1      48.889  26.024  25.340  1.00  0.00     0.041 A 
ATOM     79  F   UNL A   1      47.685  25.953  27.350  1.00  0.00    -0.206 F 
ATOM     80  C   UNL A   1      49.026  26.473  24.030  1.00  0.00     0.022 A 
BRANCH  77  81
ATOM     81  S   UNL A   1      48.163  27.864  21.771  1.00  0.00     0.124 S 
ATOM     82  O   UNL A   1      46.865  28.502  21.580  1.00  0.00    -0.237 OA
ATOM     83  O   UNL A   1      49.319  28.752  21.785  1.00  0.00    -0.237 OA
ATOM     84  O   UNL A   1      48.353  26.607  21.048  1.00  0.00    -0.744 OA
ENDBRANCH  77  81
ENDBRANCH  50  74
BRANCH  62  85
ATOM     85  C   UNL A   1      45.337  32.915  29.461  1.00  0.00     0.023 A 
ATOM     86  C   UNL A   1      45.304  34.091  28.691  1.00  0.00     0.031 A 
ATOM     87  C   UNL A   1      46.169  32.887  30.594  1.00  0.00     0.131 A 
ATOM     88  C   UNL A   1      46.129  35.173  29.034  1.00  0.00     0.055 A 
ATOM     89  C   UNL A   1      46.944  33.987  30.963  1.00  0.00     0.041 A 
ATOM     90  F   UNL A   1      46.239  31.789  31.364  1.00  0.00    -0.206 F 
ATOM     91  C   UNL A   1      46.938  35.134  30.173  1.00  0.00     0.022 A 
BRANCH  88  92
ATOM     92  S   UNL A   1      46.198  36.604  27.921  1.00  0.00     0.124 S 
ATOM     93  O   UNL A   1      45.173  36.273  26.936  1.00  0.00    -0.237 OA
ATOM     94  O   UNL A   1      45.885  37.712  28.819  1.00  0.00    -0.237 OA
ATOM     95  O   UNL A   1      47.571  36.584  27.420  1.00  0.00    -0.744 OA
ENDBRANCH  88  92
ENDBRANCH  62  85
ENDBRANCH  36  37
ENDBRANCH  28  31
ENDBRANCH  26  27
ENDBRANCH   1  26
TORSDOF 16
ENDMDL
MODEL 2
REMARK VINA RESULT:     -12.9      0.614      7.483
REMARK SMILES Nc1cc(C(=O)NCCCCNC(=O)c2ccc(-c3c4nc(c(-c5cc(S(=O)(=O)[O-])ccc5F)c5ccc([nH]5)c(-c5cc(S(=O)(=O)[O-])ccc5F)c5nc(c(-c6cc(S(=O)(=O)[O-])ccc6F)c6ccc3[nH]6)C=C5)C=C4)cc2)ccc1N1CC2(CCOCC2)C1
REMARK SMILES IDX 10 1 9 2 8 3 7 4 5 5 6 6 4 8 2 9 3 10 80 11 79 12 78 13 1 14
REMARK SMILES IDX 81 17 82 18 89 19 83 20 84 21 88 22 85 23 87 24 86 25 11 26
REMARK SMILES IDX 12 27 13 28 14 30 15 31 16 32 77 33 17 34 76 35 18 36 19 37
REMARK SMILES IDX 20 38 70 39 21 40 75 41 69 42 71 43 22 44 74 45 68 46 67 47
REMARK SMILES IDX 23 49 55 50 35 51 54 52 36 53 39 54 53 55 72 56 37 57 38 58
REMARK SMILES IDX 52 60 73 61 40 62 24 63 25 64 33 65 26 66 32 67 34 68 31 69
REMARK SMILES IDX 27 70 28 71 29 72 30 73 56 74 57 75 65 76 58 77 64 78 66 79
REMARK SMILES IDX 63 80 59 81 60 82 61 83 62 84 41 85 42 86 50 87 43 88 49 89
REMARK SMILES IDX 51 90 48 91 44 92 45 93 46 94 47 95
REMARK H PARENT 7 7 1 15 1 16 12 29 71 48 39 59
REMARK Flexibility Score: inf
ROOT
ATOM      1  C   UNL A   1      35.891  22.352  25.207  1.00  0.00     0.023 C 
ENDROOT
BRANCH   1   2
ATOM      2  C   UNL A   1      35.482  23.823  25.355  1.00  0.00     0.023 C 
BRANCH   2   3
ATOM      3  C   UNL A   1      34.068  24.130  24.858  1.00  0.00     0.116 C 
BRANCH   3   4
ATOM      4  N   UNL A   1      33.115  23.989  25.937  1.00  0.00    -0.352 N 
ATOM      5  C   UNL A   1      31.926  24.604  26.220  1.00  0.00     0.251 C 
ATOM      6  O   UNL A   1      31.377  24.272  27.274  1.00  0.00    -0.269 OA
ATOM      7  H   UNL A   1      33.374  23.313  26.604  1.00  0.00     0.163 HD
BRANCH   5   8
ATOM      8  C   UNL A   1      31.239  25.597  25.335  1.00  0.00     0.041 A 
ATOM      9  C   UNL A   1      31.006  27.985  24.824  1.00  0.00     0.056 A 
ATOM     10  C   UNL A   1      31.585  26.941  25.553  1.00  0.00     0.041 A 
ATOM     11  C   UNL A   1      29.994  27.696  23.884  1.00  0.00     0.060 A 
ATOM     12  C   UNL A   1      29.660  26.361  23.647  1.00  0.00     0.029 A 
ATOM     13  C   UNL A   1      30.303  25.321  24.336  1.00  0.00     0.016 A 
BRANCH   9  14
ATOM     14  N   UNL A   1      31.315  29.298  25.181  1.00  0.00    -0.397 N 
ATOM     15  H   UNL A   1      31.997  29.474  25.869  1.00  0.00     0.156 HD
ATOM     16  H   UNL A   1      30.852  30.050  24.744  1.00  0.00     0.156 HD
ENDBRANCH   9  14
BRANCH  11  17
ATOM     17  N   UNL A   1      29.316  28.736  23.236  1.00  0.00    -0.369 N 
ATOM     18  C   UNL A   1      29.800  29.760  22.370  1.00  0.00     0.125 C 
ATOM     19  C   UNL A   1      27.961  28.879  22.816  1.00  0.00     0.125 C 
ATOM     20  C   UNL A   1      28.354  30.326  22.410  1.00  0.00     0.010 C 
ATOM     21  C   UNL A   1      27.778  30.843  21.097  1.00  0.00     0.039 C 
ATOM     22  C   UNL A   1      28.120  31.363  23.526  1.00  0.00     0.039 C 
ATOM     23  C   UNL A   1      28.390  32.209  20.797  1.00  0.00     0.161 C 
ATOM     24  C   UNL A   1      28.724  32.693  23.093  1.00  0.00     0.161 C 
ATOM     25  O   UNL A   1      28.133  33.125  21.866  1.00  0.00    -0.381 OA
ENDBRANCH  11  17
ENDBRANCH   5   8
ENDBRANCH   3   4
ENDBRANCH   2   3
ENDBRANCH   1   2
BRANCH   1  26
ATOM     26  C   UNL A   1      37.284  22.124  24.623  1.00  0.00     0.116 C 
BRANCH  26  27
ATOM     27  N   UNL A   1      38.003  21.037  25.265  1.00  0.00    -0.352 N 
ATOM     28  C   UNL A   1      39.071  21.105  26.131  1.00  0.00     0.251 C 
ATOM     29  H   UNL A   1      37.684  20.129  25.051  1.00  0.00     0.163 HD
ATOM     30  O   UNL A   1      39.629  20.085  26.496  1.00  0.00    -0.269 OA
BRANCH  28  31
ATOM     31  C   UNL A   1      39.556  22.434  26.566  1.00  0.00     0.039 A 
ATOM     32  C   UNL A   1      40.643  22.496  27.439  1.00  0.00     0.014 A 
ATOM     33  C   UNL A   1      38.964  23.605  26.084  1.00  0.00     0.014 A 
ATOM     34  C   UNL A   1      41.185  23.737  27.776  1.00  0.00     0.010 A 
ATOM     35  C   UNL A   1      39.543  24.837  26.373  1.00  0.00     0.010 A 
ATOM     36  C   UNL A   1      40.662  24.914  27.217  1.00  0.00    -0.014 A 
BRANCH  36  37
ATOM     37  C   UNL A   1      41.276  26.236  27.498  1.00  0.00     0.031 A 
ATOM     38  C   UNL A   1      42.655  26.548  26.987  1.00  0.00     0.074 A 
ATOM     39  C   UNL A   1      40.620  27.122  28.272  1.00  0.00     0.049 A 
ATOM     40  N   UNL A   1      43.394  27.607  27.193  1.00  0.00    -0.248 NA
ATOM     41  C   UNL A   1      43.297  25.514  26.162  1.00  0.00     0.031 C 
ATOM     42  C   UNL A   1      39.297  26.910  28.863  1.00  0.00     0.029 A 
ATOM     43  N   UNL A   1      40.980  28.373  28.706  1.00  0.00    -0.354 N 
ATOM     44  C   UNL A   1      44.596  27.363  26.535  1.00  0.00     0.074 A 
ATOM     45  C   UNL A   1      44.503  26.030  25.977  1.00  0.00     0.031 C 
ATOM     46  C   UNL A   1      38.950  28.000  29.567  1.00  0.00     0.029 A 
ATOM     47  C   UNL A   1      40.038  28.970  29.511  1.00  0.00     0.049 A 
ATOM     48  H   UNL A   1      41.832  28.801  28.465  1.00  0.00     0.167 HD
ATOM     49  C   UNL A   1      45.665  28.184  26.391  1.00  0.00     0.034 A 
ATOM     50  C   UNL A   1      40.055  30.162  30.140  1.00  0.00     0.034 A 
ATOM     51  C   UNL A   1      45.733  29.515  26.944  1.00  0.00     0.049 A 
ATOM     52  C   UNL A   1      41.258  31.054  29.975  1.00  0.00     0.074 A 
ATOM     53  C   UNL A   1      46.740  30.455  26.812  1.00  0.00     0.029 A 
ATOM     54  N   UNL A   1      44.755  30.094  27.744  1.00  0.00    -0.354 N 
ATOM     55  N   UNL A   1      42.365  30.832  29.304  1.00  0.00    -0.248 NA
ATOM     56  C   UNL A   1      41.208  32.362  30.641  1.00  0.00     0.031 C 
ATOM     57  C   UNL A   1      46.400  31.576  27.578  1.00  0.00     0.029 A 
ATOM     58  C   UNL A   1      45.147  31.365  28.134  1.00  0.00     0.049 A 
ATOM     59  H   UNL A   1      43.906  29.663  27.997  1.00  0.00     0.167 HD
ATOM     60  C   UNL A   1      43.131  31.984  29.448  1.00  0.00     0.074 A 
ATOM     61  C   UNL A   1      42.355  32.902  30.255  1.00  0.00     0.031 C 
ATOM     62  C   UNL A   1      44.365  32.262  28.952  1.00  0.00     0.034 A 
BRANCH  49  63
ATOM     63  C   UNL A   1      46.851  27.646  25.625  1.00  0.00     0.023 A 
ATOM     64  C   UNL A   1      47.111  28.036  24.299  1.00  0.00     0.031 A 
ATOM     65  C   UNL A   1      47.708  26.698  26.210  1.00  0.00     0.131 A 
ATOM     66  C   UNL A   1      48.143  27.421  23.576  1.00  0.00     0.055 A 
ATOM     67  C   UNL A   1      48.787  26.152  25.513  1.00  0.00     0.041 A 
ATOM     68  F   UNL A   1      47.501  26.272  27.467  1.00  0.00    -0.206 F 
ATOM     69  C   UNL A   1      49.000  26.499  24.181  1.00  0.00     0.022 A 
BRANCH  66  70
ATOM     70  S   UNL A   1      48.251  27.729  21.792  1.00  0.00     0.124 S 
ATOM     71  O   UNL A   1      49.339  28.702  21.727  1.00  0.00    -0.237 OA
ATOM     72  O   UNL A   1      48.545  26.404  21.261  1.00  0.00    -0.237 OA
ATOM     73  O   UNL A   1      46.931  28.260  21.455  1.00  0.00    -0.744 OA
ENDBRANCH  66  70
ENDBRANCH  49  63
BRANCH  50  74
ATOM     74  C   UNL A   1      38.904  30.583  30.988  1.00  0.00     0.023 A 
ATOM     75  C   UNL A   1      37.790  31.225  30.425  1.00  0.00     0.031 A 
ATOM     76  C   UNL A   1      38.918  30.381  32.379  1.00  0.00     0.131 A 
ATOM     77  C   UNL A   1      36.753  31.680  31.254  1.00  0.00     0.055 A 
ATOM     78  C   UNL A   1      37.863  30.793  33.194  1.00  0.00     0.041 A 
ATOM     79  F   UNL A   1      39.956  29.763  32.965  1.00  0.00    -0.206 F 
ATOM     80  C   UNL A   1      36.777  31.458  32.633  1.00  0.00     0.022 A 
BRANCH  77  81
ATOM     81  S   UNL A   1      35.401  32.632  30.508  1.00  0.00     0.124 S 
ATOM     82  O   UNL A   1      34.357  32.510  31.520  1.00  0.00    -0.237 OA
ATOM     83  O   UNL A   1      36.004  33.952  30.364  1.00  0.00    -0.237 OA
ATOM     84  O   UNL A   1      35.142  31.927  29.254  1.00  0.00    -0.744 OA
ENDBRANCH  77  81
ENDBRANCH  50  74
BRANCH  62  85
ATOM     85  C   UNL A   1      44.922  33.633  29.243  1.00  0.00     0.023 A 
ATOM     86  C   UNL A   1      44.744  34.707  28.355  1.00  0.00     0.031 A 
ATOM     87  C   UNL A   1      45.655  33.861  30.422  1.00  0.00     0.131 A 
ATOM     88  C   UNL A   1      45.338  35.948  28.632  1.00  0.00     0.055 A 
ATOM     89  C   UNL A   1      46.195  35.113  30.719  1.00  0.00     0.041 A 
ATOM     90  F   UNL A   1      45.856  32.869  31.305  1.00  0.00    -0.206 F 
ATOM     91  C   UNL A   1      46.049  36.162  29.815  1.00  0.00     0.022 A 
BRANCH  88  92
ATOM     92  S   UNL A   1      45.241  37.259  27.381  1.00  0.00     0.124 S 
ATOM     93  O   UNL A   1      43.824  37.245  27.034  1.00  0.00    -0.237 OA
ATOM     94  O   UNL A   1      45.705  38.429  28.120  1.00  0.00    -0.237 OA
ATOM     95  O   UNL A   1      46.143  36.795  26.328  1.00  0.00    -0.744 OA
ENDBRANCH  88  92
ENDBRANCH  62  85
ENDBRANCH  36  37
ENDBRANCH  28  31
ENDBRANCH  26  27
ENDBRANCH   1  26
TORSDOF 16
ENDMDL
MODEL 3
REMARK VINA RESULT:     -12.8      5.244      8.735
REMARK SMILES Nc1cc(C(=O)NCCCCNC(=O)c2ccc(-c3c4nc(c(-c5cc(S(=O)(=O)[O-])ccc5F)c5ccc([nH]5)c(-c5cc(S(=O)(=O)[O-])ccc5F)c5nc(c(-c6cc(S(=O)(=O)[O-])ccc6F)c6ccc3[nH]6)C=C5)C=C4)cc2)ccc1N1CC2(CCOCC2)C1
REMARK SMILES IDX 10 1 9 2 8 3 7 4 5 5 6 6 4 8 2 9 3 10 80 11 79 12 78 13 1 14
REMARK SMILES IDX 81 17 82 18 89 19 83 20 84 21 88 22 85 23 87 24 86 25 11 26
REMARK SMILES IDX 12 27 13 28 14 30 15 31 16 32 77 33 17 34 76 35 18 36 19 37
REMARK SMILES IDX 20 38 70 39 21 40 75 41 69 42 71 43 22 44 74 45 68 46 67 47
REMARK SMILES IDX 23 49 55 50 35 51 54 52 36 53 39 54 53 55 72 56 37 57 38 58
REMARK SMILES IDX 52 60 73 61 40 62 24 63 25 64 33 65 26 66 32 67 34 68 31 69
REMARK SMILES IDX 27 70 28 71 29 72 30 73 56 74 57 75 65 76 58 77 64 78 66 79
REMARK SMILES IDX 63 80 59 81 60 82 61 83 62 84 41 85 42 86 50 87 43 88 49 89
REMARK SMILES IDX 51 90 48 91 44 92 45 93 46 94 47 95
REMARK H PARENT 7 7 1 15 1 16 12 29 71 48 39 59
REMARK Flexibility Score: inf
ROOT
ATOM      1  C   UNL A   1      32.486  28.472  26.431  1.00  0.00     0.023 C 
ENDROOT
BRANCH   1   2
ATOM      2  C   UNL A   1      31.529  28.218  25.258  1.00  0.00     0.023 C 
BRANCH   2   3
ATOM      3  C   UNL A   1      31.666  26.830  24.630  1.00  0.00     0.116 C 
BRANCH   3   4
ATOM      4  N   UNL A   1      32.544  26.883  23.481  1.00  0.00    -0.352 N 
ATOM      5  C   UNL A   1      33.355  25.959  22.881  1.00  0.00     0.251 C 
ATOM      6  O   UNL A   1      34.021  26.359  21.922  1.00  0.00    -0.269 OA
ATOM      7  H   UNL A   1      32.559  27.763  23.040  1.00  0.00     0.163 HD
BRANCH   5   8
ATOM      8  C   UNL A   1      33.454  24.518  23.273  1.00  0.00     0.041 A 
ATOM      9  C   UNL A   1      32.674  22.252  22.750  1.00  0.00     0.056 A 
ATOM     10  C   UNL A   1      32.705  23.626  22.489  1.00  0.00     0.041 A 
ATOM     11  C   UNL A   1      33.361  21.744  23.873  1.00  0.00     0.060 A 
ATOM     12  C   UNL A   1      34.126  22.622  24.644  1.00  0.00     0.029 A 
ATOM     13  C   UNL A   1      34.204  23.986  24.325  1.00  0.00     0.016 A 
BRANCH   9  14
ATOM     14  N   UNL A   1      31.813  21.451  22.000  1.00  0.00    -0.397 N 
ATOM     15  H   UNL A   1      31.340  21.828  21.222  1.00  0.00     0.156 HD
ATOM     16  H   UNL A   1      31.678  20.506  22.246  1.00  0.00     0.156 HD
ENDBRANCH   9  14
BRANCH  11  17
ATOM     17  N   UNL A   1      33.241  20.393  24.222  1.00  0.00    -0.369 N 
ATOM     18  C   UNL A   1      34.230  19.449  24.627  1.00  0.00     0.125 C 
ATOM     19  C   UNL A   1      32.154  19.633  24.744  1.00  0.00     0.125 C 
ATOM     20  C   UNL A   1      33.085  18.399  24.591  1.00  0.00     0.010 C 
ATOM     21  C   UNL A   1      33.051  17.377  25.722  1.00  0.00     0.039 C 
ATOM     22  C   UNL A   1      32.938  17.683  23.235  1.00  0.00     0.039 C 
ATOM     23  C   UNL A   1      34.130  16.328  25.468  1.00  0.00     0.161 C 
ATOM     24  C   UNL A   1      34.030  16.627  23.118  1.00  0.00     0.161 C 
ATOM     25  O   UNL A   1      33.933  15.696  24.199  1.00  0.00    -0.381 OA
ENDBRANCH  11  17
ENDBRANCH   5   8
ENDBRANCH   3   4
ENDBRANCH   2   3
ENDBRANCH   1   2
BRANCH   1  26
ATOM     26  C   UNL A   1      33.688  29.355  26.104  1.00  0.00     0.116 C 
BRANCH  26  27
ATOM     27  N   UNL A   1      33.597  30.683  26.685  1.00  0.00    -0.352 N 
ATOM     28  C   UNL A   1      34.417  31.268  27.623  1.00  0.00     0.251 C 
ATOM     29  H   UNL A   1      32.848  31.239  26.367  1.00  0.00     0.163 HD
ATOM     30  O   UNL A   1      34.136  32.360  28.088  1.00  0.00    -0.269 OA
BRANCH  28  31
ATOM     31  C   UNL A   1      35.612  30.529  28.091  1.00  0.00     0.039 A 
ATOM     32  C   UNL A   1      36.841  30.796  27.485  1.00  0.00     0.014 A 
ATOM     33  C   UNL A   1      35.521  29.613  29.141  1.00  0.00     0.014 A 
ATOM     34  C   UNL A   1      37.997  30.191  27.982  1.00  0.00     0.010 A 
ATOM     35  C   UNL A   1      36.681  29.059  29.673  1.00  0.00     0.010 A 
ATOM     36  C   UNL A   1      37.931  29.347  29.102  1.00  0.00    -0.014 A 
BRANCH  36  37
ATOM     37  C   UNL A   1      39.158  28.761  29.696  1.00  0.00     0.031 A 
ATOM     38  C   UNL A   1      39.728  29.335  30.963  1.00  0.00     0.074 A 
ATOM     39  C   UNL A   1      39.795  27.763  29.053  1.00  0.00     0.049 A 
ATOM     40  N   UNL A   1      40.831  29.020  31.592  1.00  0.00    -0.248 NA
ATOM     41  C   UNL A   1      38.971  30.431  31.584  1.00  0.00     0.031 C 
ATOM     42  C   UNL A   1      39.362  27.158  27.792  1.00  0.00     0.029 A 
ATOM     43  N   UNL A   1      40.949  27.089  29.365  1.00  0.00    -0.354 N 
ATOM     44  C   UNL A   1      40.908  29.888  32.677  1.00  0.00     0.074 A 
ATOM     45  C   UNL A   1      39.770  30.779  32.580  1.00  0.00     0.031 C 
ATOM     46  C   UNL A   1      40.228  26.192  27.447  1.00  0.00     0.029 A 
ATOM     47  C   UNL A   1      41.297  26.133  28.439  1.00  0.00     0.049 A 
ATOM     48  H   UNL A   1      41.477  27.272  30.174  1.00  0.00     0.167 HD
ATOM     49  C   UNL A   1      41.829  29.922  33.671  1.00  0.00     0.034 A 
ATOM     50  C   UNL A   1      42.363  25.310  28.390  1.00  0.00     0.034 A 
ATOM     51  C   UNL A   1      42.949  29.015  33.757  1.00  0.00     0.049 A 
ATOM     52  C   UNL A   1      43.380  25.372  29.500  1.00  0.00     0.074 A 
ATOM     53  C   UNL A   1      43.909  28.920  34.748  1.00  0.00     0.029 A 
ATOM     54  N   UNL A   1      43.264  28.050  32.807  1.00  0.00    -0.354 N 
ATOM     55  N   UNL A   1      43.411  26.161  30.549  1.00  0.00    -0.248 NA
ATOM     56  C   UNL A   1      44.497  24.422  29.426  1.00  0.00     0.031 C 
ATOM     57  C   UNL A   1      44.837  27.941  34.372  1.00  0.00     0.029 A 
ATOM     58  C   UNL A   1      44.418  27.376  33.177  1.00  0.00     0.049 A 
ATOM     59  H   UNL A   1      42.744  27.872  31.991  1.00  0.00     0.167 HD
ATOM     60  C   UNL A   1      44.538  25.785  31.272  1.00  0.00     0.074 A 
ATOM     61  C   UNL A   1      45.150  24.689  30.549  1.00  0.00     0.031 C 
ATOM     62  C   UNL A   1      45.022  26.295  32.434  1.00  0.00     0.034 A 
BRANCH  49  63
ATOM     63  C   UNL A   1      41.668  30.991  34.726  1.00  0.00     0.023 A 
ATOM     64  C   UNL A   1      40.571  30.999  35.606  1.00  0.00     0.031 A 
ATOM     65  C   UNL A   1      42.598  32.041  34.826  1.00  0.00     0.131 A 
ATOM     66  C   UNL A   1      40.386  32.075  36.486  1.00  0.00     0.055 A 
ATOM     67  C   UNL A   1      42.452  33.066  35.763  1.00  0.00     0.041 A 
ATOM     68  F   UNL A   1      43.656  32.099  34.001  1.00  0.00    -0.206 F 
ATOM     69  C   UNL A   1      41.332  33.097  36.589  1.00  0.00     0.022 A 
BRANCH  66  70
ATOM     70  S   UNL A   1      38.813  32.198  37.382  1.00  0.00     0.124 S 
ATOM     71  O   UNL A   1      39.270  32.332  38.763  1.00  0.00    -0.237 OA
ATOM     72  O   UNL A   1      38.206  33.383  36.791  1.00  0.00    -0.237 OA
ATOM     73  O   UNL A   1      38.145  30.934  37.075  1.00  0.00    -0.744 OA
ENDBRANCH  66  70
ENDBRANCH  49  63
BRANCH  50  74
ATOM     74  C   UNL A   1      42.532  24.363  27.252  1.00  0.00     0.023 A 
ATOM     75  C   UNL A   1      41.965  23.079  27.293  1.00  0.00     0.031 A 
ATOM     76  C   UNL A   1      43.293  24.714  26.123  1.00  0.00     0.131 A 
ATOM     77  C   UNL A   1      42.203  22.177  26.243  1.00  0.00     0.055 A 
ATOM     78  C   UNL A   1      43.487  23.831  25.061  1.00  0.00     0.041 A 
ATOM     79  F   UNL A   1      43.848  25.933  26.033  1.00  0.00    -0.206 F 
ATOM     80  C   UNL A   1      42.950  22.548  25.123  1.00  0.00     0.022 A 
BRANCH  77  81
ATOM     81  S   UNL A   1      41.576  20.482  26.399  1.00  0.00     0.124 S 
ATOM     82  O   UNL A   1      41.927  20.160  27.778  1.00  0.00    -0.237 OA
ATOM     83  O   UNL A   1      40.155  20.658  26.123  1.00  0.00    -0.237 OA
ATOM     84  O   UNL A   1      42.321  19.749  25.377  1.00  0.00    -0.744 OA
ENDBRANCH  77  81
ENDBRANCH  50  74
BRANCH  62  85
ATOM     85  C   UNL A   1      46.253  25.637  33.005  1.00  0.00     0.023 A 
ATOM     86  C   UNL A   1      46.167  24.538  33.878  1.00  0.00     0.031 A 
ATOM     87  C   UNL A   1      47.531  26.128  32.682  1.00  0.00     0.131 A 
ATOM     88  C   UNL A   1      47.334  23.999  34.440  1.00  0.00     0.055 A 
ATOM     89  C   UNL A   1      48.691  25.551  33.199  1.00  0.00     0.041 A 
ATOM     90  F   UNL A   1      47.671  27.176  31.854  1.00  0.00    -0.206 F 
ATOM     91  C   UNL A   1      48.596  24.489  34.094  1.00  0.00     0.022 A 
BRANCH  88  92
ATOM     92  S   UNL A   1      47.177  22.702  35.698  1.00  0.00     0.124 S 
ATOM     93  O   UNL A   1      47.686  21.530  34.992  1.00  0.00    -0.237 OA
ATOM     94  O   UNL A   1      48.017  23.211  36.777  1.00  0.00    -0.237 OA
ATOM     95  O   UNL A   1      45.745  22.677  35.989  1.00  0.00    -0.744 OA
ENDBRANCH  88  92
ENDBRANCH  62  85
ENDBRANCH  36  37
ENDBRANCH  28  31
ENDBRANCH  26  27
ENDBRANCH   1  26
TORSDOF 16
ENDMDL
