MODEL 1
REMARK VINA RESULT:     -13.0      0.000      0.000
REMARK SMILES CCc1nc2sc(C(=O)NCC(=O)NCCCCNC(=O)c3ccc(-c4c5nc(c(-c6cc(S(=O)(=O)[O-])ccc6F)c6ccc([nH]6)c(-c6cc(S(=O)(=O)[O-])ccc6F)c6nc(c(-c7cc(S(=O)(=O)[O-])ccc7F)c7ccc4[nH]7)C=C6)C=C5)cc3)c(N)c2c(C(F)(F)F)c1C
REMARK SMILES IDX 16 1 15 2 14 3 12 4 13 5 11 7 10 8 8 9 9 10 7 12 3 13 4 14
REMARK SMILES IDX 93 15 5 16 88 17 94 18 6 19 87 20 85 21 2 22 1 23 89 24
REMARK SMILES IDX 90 25 91 26 92 27 86 28 17 31 18 32 19 33 20 34 21 36 22 37
REMARK SMILES IDX 23 38 84 39 24 40 83 41 25 42 26 43 27 44 77 45 28 46 82 47
REMARK SMILES IDX 76 48 78 49 29 50 81 51 75 52 74 53 30 55 62 56 42 57 61 58
REMARK SMILES IDX 43 59 46 60 60 61 79 62 44 63 45 64 59 66 80 67 47 68 31 69
REMARK SMILES IDX 32 70 40 71 33 72 39 73 41 74 38 75 34 76 35 77 36 78 37 79
REMARK SMILES IDX 63 80 64 81 72 82 65 83 71 84 73 85 70 86 66 87 67 88 68 89
REMARK SMILES IDX 69 90 48 91 49 92 57 93 50 94 56 95 58 96 55 97 51 98 52 99
REMARK SMILES IDX 53 100 54 101
REMARK H PARENT 14 6 10 11 86 29 86 30 19 35 78 54 46 65
REMARK Flexibility Score: inf
ROOT
ATOM      1  C   UNL A   1      36.810  22.638  23.742  1.00  0.00     0.023 C 
ENDROOT
BRANCH   1   2
ATOM      2  C   UNL A   1      35.353  22.967  23.431  1.00  0.00     0.116 C 
BRANCH   2   3
ATOM      3  N   UNL A   1      34.421  21.963  23.907  1.00  0.00    -0.355 N 
ATOM      4  C   UNL A   1      33.062  21.905  23.914  1.00  0.00     0.239 C 
ATOM      5  O   UNL A   1      32.563  20.859  24.347  1.00  0.00    -0.273 OA
ATOM      6  H   UNL A   1      34.854  21.173  24.301  1.00  0.00     0.163 HD
BRANCH   4   7
ATOM      7  C   UNL A   1      32.132  22.985  23.324  1.00  0.00     0.216 C 
BRANCH   7   8
ATOM      8  N   UNL A   1      32.470  23.711  22.120  1.00  0.00    -0.342 N 
ATOM      9  C   UNL A   1      32.807  25.016  21.853  1.00  0.00     0.264 C 
ATOM     10  O   UNL A   1      33.252  25.155  20.707  1.00  0.00    -0.268 OA
ATOM     11  H   UNL A   1      32.455  23.146  21.313  1.00  0.00     0.164 HD
BRANCH   9  12
ATOM     12  C   UNL A   1      32.605  26.149  22.766  1.00  0.00     0.118 A 
ATOM     13  C   UNL A   1      33.182  29.555  26.009  1.00  0.00     0.045 A 
ATOM     14  N   UNL A   1      33.769  28.411  25.605  1.00  0.00    -0.242 NA
ATOM     15  C   UNL A   1      31.983  30.048  25.461  1.00  0.00    -0.017 A 
ATOM     16  C   UNL A   1      33.161  27.759  24.600  1.00  0.00     0.127 A 
ATOM     17  C   UNL A   1      31.368  29.337  24.391  1.00  0.00     0.073 A 
ATOM     18  C   UNL A   1      31.341  31.309  25.991  1.00  0.00     0.047 C 
ATOM     19  S   UNL A   1      33.821  26.321  23.997  1.00  0.00    -0.108 S 
ATOM     20  C   UNL A   1      32.000  28.133  23.952  1.00  0.00     0.048 A 
ATOM     21  C   UNL A   1      31.697  27.192  22.891  1.00  0.00     0.066 A 
BRANCH  13  22
ATOM     22  C   UNL A   1      33.866  30.288  27.151  1.00  0.00     0.053 C 
ATOM     23  C   UNL A   1      34.901  29.495  27.937  1.00  0.00     0.011 C 
ENDBRANCH  13  22
BRANCH  17  24
ATOM     24  C   UNL A   1      30.111  29.821  23.702  1.00  0.00     0.417 C 
ATOM     25  F   UNL A   1      29.627  30.970  24.255  1.00  0.00    -0.166 F 
ATOM     26  F   UNL A   1      30.336  30.121  22.385  1.00  0.00    -0.166 F 
ATOM     27  F   UNL A   1      29.063  28.958  23.680  1.00  0.00    -0.166 F 
ENDBRANCH  17  24
BRANCH  21  28
ATOM     28  N   UNL A   1      30.637  27.404  22.082  1.00  0.00    -0.397 N 
ATOM     29  H   UNL A   1      30.778  27.615  21.131  1.00  0.00     0.156 HD
ATOM     30  H   UNL A   1      29.724  27.350  22.444  1.00  0.00     0.156 HD
ENDBRANCH  21  28
ENDBRANCH   9  12
ENDBRANCH   7   8
ENDBRANCH   4   7
ENDBRANCH   2   3
ENDBRANCH   1   2
BRANCH   1  31
ATOM     31  C   UNL A   1      37.101  22.362  25.223  1.00  0.00     0.023 C 
BRANCH  31  32
ATOM     32  C   UNL A   1      38.254  23.176  25.803  1.00  0.00     0.116 C 
BRANCH  32  33
ATOM     33  N   UNL A   1      39.065  22.416  26.750  1.00  0.00    -0.352 N 
ATOM     34  C   UNL A   1      40.160  22.861  27.459  1.00  0.00     0.251 C 
ATOM     35  H   UNL A   1      38.798  21.480  26.898  1.00  0.00     0.163 HD
ATOM     36  O   UNL A   1      40.990  22.053  27.881  1.00  0.00    -0.269 OA
BRANCH  34  37
ATOM     37  C   UNL A   1      40.324  24.305  27.712  1.00  0.00     0.039 A 
ATOM     38  C   UNL A   1      39.335  25.220  27.339  1.00  0.00     0.014 A 
ATOM     39  C   UNL A   1      41.501  24.740  28.324  1.00  0.00     0.014 A 
ATOM     40  C   UNL A   1      39.505  26.568  27.656  1.00  0.00     0.010 A 
ATOM     41  C   UNL A   1      41.627  26.053  28.720  1.00  0.00     0.010 A 
ATOM     42  C   UNL A   1      40.646  26.975  28.364  1.00  0.00    -0.014 A 
BRANCH  42  43
ATOM     43  C   UNL A   1      40.737  28.324  28.925  1.00  0.00     0.031 A 
ATOM     44  C   UNL A   1      41.872  29.114  28.369  1.00  0.00     0.074 A 
ATOM     45  C   UNL A   1      39.747  28.888  29.653  1.00  0.00     0.049 A 
ATOM     46  N   UNL A   1      42.918  29.551  28.990  1.00  0.00    -0.248 NA
ATOM     47  C   UNL A   1      41.942  29.299  26.905  1.00  0.00     0.031 C 
ATOM     48  C   UNL A   1      38.451  28.299  30.006  1.00  0.00     0.029 A 
ATOM     49  N   UNL A   1      39.631  30.158  30.137  1.00  0.00    -0.354 N 
ATOM     50  C   UNL A   1      43.634  30.290  28.052  1.00  0.00     0.074 A 
ATOM     51  C   UNL A   1      43.125  29.900  26.766  1.00  0.00     0.031 C 
ATOM     52  C   UNL A   1      37.609  29.269  30.430  1.00  0.00     0.029 A 
ATOM     53  C   UNL A   1      38.337  30.523  30.522  1.00  0.00     0.049 A 
ATOM     54  H   UNL A   1      40.398  30.769  30.211  1.00  0.00     0.167 HD
ATOM     55  C   UNL A   1      44.377  31.368  28.427  1.00  0.00     0.034 A 
ATOM     56  C   UNL A   1      37.892  31.767  30.865  1.00  0.00     0.034 A 
ATOM     57  C   UNL A   1      44.640  31.343  29.848  1.00  0.00     0.049 A 
ATOM     58  C   UNL A   1      39.099  32.530  31.276  1.00  0.00     0.074 A 
ATOM     59  C   UNL A   1      45.230  30.432  30.703  1.00  0.00     0.029 A 
ATOM     60  N   UNL A   1      43.895  32.177  30.651  1.00  0.00    -0.354 N 
ATOM     61  N   UNL A   1      39.838  32.208  32.303  1.00  0.00    -0.248 NA
ATOM     62  C   UNL A   1      39.756  33.339  30.262  1.00  0.00     0.031 C 
ATOM     63  C   UNL A   1      44.411  30.445  31.869  1.00  0.00     0.029 A 
ATOM     64  C   UNL A   1      43.435  31.430  31.706  1.00  0.00     0.049 A 
ATOM     65  H   UNL A   1      43.725  33.134  30.498  1.00  0.00     0.167 HD
ATOM     66  C   UNL A   1      41.142  32.389  31.869  1.00  0.00     0.074 A 
ATOM     67  C   UNL A   1      41.027  33.165  30.634  1.00  0.00     0.031 C 
ATOM     68  C   UNL A   1      42.171  31.654  32.383  1.00  0.00     0.034 A 
BRANCH  55  69
ATOM     69  C   UNL A   1      44.530  32.631  27.605  1.00  0.00     0.023 A 
ATOM     70  C   UNL A   1      43.801  33.765  28.011  1.00  0.00     0.031 A 
ATOM     71  C   UNL A   1      45.109  32.705  26.316  1.00  0.00     0.131 A 
ATOM     72  C   UNL A   1      43.608  34.853  27.139  1.00  0.00     0.055 A 
ATOM     73  C   UNL A   1      44.967  33.814  25.478  1.00  0.00     0.041 A 
ATOM     74  F   UNL A   1      45.761  31.683  25.750  1.00  0.00    -0.206 F 
ATOM     75  C   UNL A   1      44.189  34.886  25.875  1.00  0.00     0.022 A 
BRANCH  72  76
ATOM     76  S   UNL A   1      42.463  36.165  27.632  1.00  0.00     0.124 S 
ATOM     77  O   UNL A   1      42.982  36.527  28.947  1.00  0.00    -0.237 OA
ATOM     78  O   UNL A   1      42.653  37.146  26.570  1.00  0.00    -0.237 OA
ATOM     79  O   UNL A   1      41.164  35.497  27.635  1.00  0.00    -0.744 OA
ENDBRANCH  72  76
ENDBRANCH  55  69
BRANCH  56  80
ATOM     80  C   UNL A   1      36.576  32.421  30.566  1.00  0.00     0.023 A 
ATOM     81  C   UNL A   1      35.749  32.973  31.578  1.00  0.00     0.031 A 
ATOM     82  C   UNL A   1      36.228  32.753  29.237  1.00  0.00     0.131 A 
ATOM     83  C   UNL A   1      34.658  33.814  31.244  1.00  0.00     0.055 A 
ATOM     84  C   UNL A   1      35.150  33.584  28.914  1.00  0.00     0.041 A 
ATOM     85  F   UNL A   1      36.977  32.354  28.199  1.00  0.00    -0.206 F 
ATOM     86  C   UNL A   1      34.367  34.130  29.916  1.00  0.00     0.022 A 
BRANCH  83  87
ATOM     87  S   UNL A   1      33.653  34.620  32.541  1.00  0.00     0.124 S 
ATOM     88  O   UNL A   1      34.627  35.498  33.180  1.00  0.00    -0.237 OA
ATOM     89  O   UNL A   1      32.599  35.270  31.771  1.00  0.00    -0.237 OA
ATOM     90  O   UNL A   1      33.203  33.499  33.366  1.00  0.00    -0.744 OA
ENDBRANCH  83  87
ENDBRANCH  56  80
BRANCH  68  91
ATOM     91  C   UNL A   1      41.958  30.860  33.655  1.00  0.00     0.023 A 
ATOM     92  C   UNL A   1      41.757  29.462  33.726  1.00  0.00     0.031 A 
ATOM     93  C   UNL A   1      42.187  31.555  34.856  1.00  0.00     0.131 A 
ATOM     94  C   UNL A   1      41.813  28.813  34.980  1.00  0.00     0.055 A 
ATOM     95  C   UNL A   1      42.266  30.906  36.085  1.00  0.00     0.041 A 
ATOM     96  F   UNL A   1      42.411  32.879  34.839  1.00  0.00    -0.206 F 
ATOM     97  C   UNL A   1      42.084  29.530  36.151  1.00  0.00     0.022 A 
BRANCH  94  98
ATOM     98  S   UNL A   1      41.591  27.005  35.112  1.00  0.00     0.124 S 
ATOM     99  O   UNL A   1      40.496  26.740  34.186  1.00  0.00    -0.237 OA
ATOM    100  O   UNL A   1      42.900  26.486  34.724  1.00  0.00    -0.237 OA
ATOM    101  O   UNL A   1      41.254  26.801  36.523  1.00  0.00    -0.744 OA
ENDBRANCH  94  98
ENDBRANCH  68  91
ENDBRANCH  42  43
ENDBRANCH  34  37
ENDBRANCH  32  33
ENDBRANCH  31  32
ENDBRANCH   1  31
TORSDOF 19
ENDMDL
MODEL 2
REMARK VINA RESULT:     -12.4      3.966      8.737
REMARK SMILES CCc1nc2sc(C(=O)NCC(=O)NCCCCNC(=O)c3ccc(-c4c5nc(c(-c6cc(S(=O)(=O)[O-])ccc6F)c6ccc([nH]6)c(-c6cc(S(=O)(=O)[O-])ccc6F)c6nc(c(-c7cc(S(=O)(=O)[O-])ccc7F)c7ccc4[nH]7)C=C6)C=C5)cc3)c(N)c2c(C(F)(F)F)c1C
REMARK SMILES IDX 16 1 15 2 14 3 12 4 13 5 11 7 10 8 8 9 9 10 7 12 3 13 4 14
REMARK SMILES IDX 93 15 5 16 88 17 94 18 6 19 87 20 85 21 2 22 1 23 89 24
REMARK SMILES IDX 90 25 91 26 92 27 86 28 17 31 18 32 19 33 20 34 21 36 22 37
REMARK SMILES IDX 23 38 84 39 24 40 83 41 25 42 26 43 27 44 77 45 28 46 82 47
REMARK SMILES IDX 76 48 78 49 29 50 81 51 75 52 74 53 30 55 62 56 42 57 61 58
REMARK SMILES IDX 43 59 46 60 60 61 79 62 44 63 45 64 59 66 80 67 47 68 31 69
REMARK SMILES IDX 32 70 40 71 33 72 39 73 41 74 38 75 34 76 35 77 36 78 37 79
REMARK SMILES IDX 63 80 64 81 72 82 65 83 71 84 73 85 70 86 66 87 67 88 68 89
REMARK SMILES IDX 69 90 48 91 49 92 57 93 50 94 56 95 58 96 55 97 51 98 52 99
REMARK SMILES IDX 53 100 54 101
REMARK H PARENT 14 6 10 11 86 29 86 30 19 35 78 54 46 65
REMARK Flexibility Score: inf
ROOT
ATOM      1  C   UNL A   1      33.302  28.580  27.491  1.00  0.00     0.023 C 
ENDROOT
BRANCH   1   2
ATOM      2  C   UNL A   1      31.782  28.715  27.479  1.00  0.00     0.116 C 
BRANCH   2   3
ATOM      3  N   UNL A   1      31.107  27.582  26.876  1.00  0.00    -0.355 N 
ATOM      4  C   UNL A   1      30.984  27.170  25.585  1.00  0.00     0.239 C 
ATOM      5  O   UNL A   1      30.381  26.105  25.407  1.00  0.00    -0.273 OA
ATOM      6  H   UNL A   1      30.650  27.000  27.523  1.00  0.00     0.163 HD
BRANCH   4   7
ATOM      7  C   UNL A   1      31.633  27.870  24.373  1.00  0.00     0.216 C 
BRANCH   7   8
ATOM      8  N   UNL A   1      31.399  27.426  23.017  1.00  0.00    -0.342 N 
ATOM      9  C   UNL A   1      31.616  26.246  22.347  1.00  0.00     0.264 C 
ATOM     10  O   UNL A   1      31.044  26.225  21.249  1.00  0.00    -0.268 OA
ATOM     11  H   UNL A   1      30.995  28.122  22.448  1.00  0.00     0.164 HD
BRANCH   9  12
ATOM     12  C   UNL A   1      32.478  25.152  22.811  1.00  0.00     0.118 A 
ATOM     13  C   UNL A   1      35.966  22.600  24.753  1.00  0.00     0.045 A 
ATOM     14  N   UNL A   1      35.716  23.864  24.357  1.00  0.00    -0.242 NA
ATOM     15  C   UNL A   1      35.059  21.538  24.581  1.00  0.00    -0.017 A 
ATOM     16  C   UNL A   1      34.510  24.081  23.806  1.00  0.00     0.127 A 
ATOM     17  C   UNL A   1      33.786  21.804  24.000  1.00  0.00     0.073 A 
ATOM     18  C   UNL A   1      35.416  20.129  24.994  1.00  0.00     0.047 C 
ATOM     19  S   UNL A   1      34.078  25.635  23.291  1.00  0.00    -0.108 S 
ATOM     20  C   UNL A   1      33.514  23.147  23.596  1.00  0.00     0.048 A 
ATOM     21  C   UNL A   1      32.345  23.786  23.024  1.00  0.00     0.066 A 
BRANCH  13  22
ATOM     22  C   UNL A   1      37.333  22.353  25.369  1.00  0.00     0.053 C 
ATOM     23  C   UNL A   1      37.965  23.530  26.101  1.00  0.00     0.011 C 
ENDBRANCH  13  22
BRANCH  17  24
ATOM     24  C   UNL A   1      32.726  20.738  23.828  1.00  0.00     0.417 C 
ATOM     25  F   UNL A   1      31.700  20.881  24.716  1.00  0.00    -0.166 F 
ATOM     26  F   UNL A   1      32.143  20.794  22.590  1.00  0.00    -0.166 F 
ATOM     27  F   UNL A   1      33.138  19.450  23.952  1.00  0.00    -0.166 F 
ENDBRANCH  17  24
BRANCH  21  28
ATOM     28  N   UNL A   1      31.225  23.067  22.799  1.00  0.00    -0.397 N 
ATOM     29  H   UNL A   1      31.176  22.462  22.024  1.00  0.00     0.156 HD
ATOM     30  H   UNL A   1      30.456  23.149  23.408  1.00  0.00     0.156 HD
ENDBRANCH  21  28
ENDBRANCH   9  12
ENDBRANCH   7   8
ENDBRANCH   4   7
ENDBRANCH   2   3
ENDBRANCH   1   2
BRANCH   1  31
ATOM     31  C   UNL A   1      34.059  29.841  27.056  1.00  0.00     0.023 C 
BRANCH  31  32
ATOM     32  C   UNL A   1      35.481  29.944  27.600  1.00  0.00     0.116 C 
BRANCH  32  33
ATOM     33  N   UNL A   1      35.522  30.261  29.024  1.00  0.00    -0.352 N 
ATOM     34  C   UNL A   1      36.364  29.728  29.977  1.00  0.00     0.251 C 
ATOM     35  H   UNL A   1      34.874  30.933  29.339  1.00  0.00     0.163 HD
ATOM     36  O   UNL A   1      36.039  29.747  31.165  1.00  0.00    -0.269 OA
BRANCH  34  37
ATOM     37  C   UNL A   1      37.653  29.145  29.561  1.00  0.00     0.039 A 
ATOM     38  C   UNL A   1      38.278  29.545  28.376  1.00  0.00     0.014 A 
ATOM     39  C   UNL A   1      38.232  28.170  30.376  1.00  0.00     0.014 A 
ATOM     40  C   UNL A   1      39.527  29.013  28.056  1.00  0.00     0.010 A 
ATOM     41  C   UNL A   1      39.504  27.716  30.110  1.00  0.00     0.010 A 
ATOM     42  C   UNL A   1      40.144  28.112  28.938  1.00  0.00    -0.014 A 
BRANCH  42  43
ATOM     43  C   UNL A   1      41.545  27.730  28.758  1.00  0.00     0.031 A 
ATOM     44  C   UNL A   1      41.712  26.423  28.061  1.00  0.00     0.074 A 
ATOM     45  C   UNL A   1      42.574  28.587  28.950  1.00  0.00     0.049 A 
ATOM     46  N   UNL A   1      42.210  25.328  28.531  1.00  0.00    -0.248 NA
ATOM     47  C   UNL A   1      41.093  26.260  26.730  1.00  0.00     0.031 C 
ATOM     48  C   UNL A   1      42.499  29.997  29.349  1.00  0.00     0.029 A 
ATOM     49  N   UNL A   1      43.906  28.422  28.713  1.00  0.00    -0.354 N 
ATOM     50  C   UNL A   1      42.211  24.427  27.470  1.00  0.00     0.074 A 
ATOM     51  C   UNL A   1      41.310  24.966  26.489  1.00  0.00     0.031 C 
ATOM     52  C   UNL A   1      43.681  30.605  29.101  1.00  0.00     0.029 A 
ATOM     53  C   UNL A   1      44.645  29.609  28.664  1.00  0.00     0.049 A 
ATOM     54  H   UNL A   1      44.316  27.537  28.587  1.00  0.00     0.167 HD
ATOM     55  C   UNL A   1      43.172  23.467  27.365  1.00  0.00     0.034 A 
ATOM     56  C   UNL A   1      45.943  29.764  28.271  1.00  0.00     0.034 A 
ATOM     57  C   UNL A   1      43.841  23.268  28.631  1.00  0.00     0.049 A 
ATOM     58  C   UNL A   1      46.575  28.429  28.423  1.00  0.00     0.074 A 
ATOM     59  C   UNL A   1      43.418  22.937  29.903  1.00  0.00     0.029 A 
ATOM     60  N   UNL A   1      45.090  23.827  28.789  1.00  0.00    -0.354 N 
ATOM     61  N   UNL A   1      46.706  27.823  29.572  1.00  0.00    -0.248 NA
ATOM     62  C   UNL A   1      46.606  27.566  27.254  1.00  0.00     0.031 C 
ATOM     63  C   UNL A   1      44.182  23.771  30.769  1.00  0.00     0.029 A 
ATOM     64  C   UNL A   1      45.097  24.485  29.992  1.00  0.00     0.049 A 
ATOM     65  H   UNL A   1      45.840  23.765  28.155  1.00  0.00     0.167 HD
ATOM     66  C   UNL A   1      46.396  26.497  29.308  1.00  0.00     0.074 A 
ATOM     67  C   UNL A   1      46.424  26.384  27.850  1.00  0.00     0.031 C 
ATOM     68  C   UNL A   1      45.863  25.686  30.268  1.00  0.00     0.034 A 
BRANCH  55  69
ATOM     69  C   UNL A   1      43.772  22.995  26.057  1.00  0.00     0.023 A 
ATOM     70  C   UNL A   1      43.748  21.612  25.789  1.00  0.00     0.031 A 
ATOM     71  C   UNL A   1      44.600  23.768  25.208  1.00  0.00     0.131 A 
ATOM     72  C   UNL A   1      44.568  21.054  24.791  1.00  0.00     0.055 A 
ATOM     73  C   UNL A   1      45.364  23.216  24.177  1.00  0.00     0.041 A 
ATOM     74  F   UNL A   1      44.797  25.080  25.381  1.00  0.00    -0.206 F 
ATOM     75  C   UNL A   1      45.375  21.847  23.981  1.00  0.00     0.022 A 
BRANCH  72  76
ATOM     76  S   UNL A   1      44.671  19.251  24.665  1.00  0.00     0.124 S 
ATOM     77  O   UNL A   1      44.932  19.072  23.241  1.00  0.00    -0.237 OA
ATOM     78  O   UNL A   1      45.776  18.948  25.568  1.00  0.00    -0.237 OA
ATOM     79  O   UNL A   1      43.357  18.805  25.121  1.00  0.00    -0.744 OA
ENDBRANCH  72  76
ENDBRANCH  55  69
BRANCH  56  80
ATOM     80  C   UNL A   1      46.571  30.881  27.491  1.00  0.00     0.023 A 
ATOM     81  C   UNL A   1      45.808  31.895  26.859  1.00  0.00     0.031 A 
ATOM     82  C   UNL A   1      47.961  31.120  27.578  1.00  0.00     0.131 A 
ATOM     83  C   UNL A   1      46.429  33.072  26.368  1.00  0.00     0.055 A 
ATOM     84  C   UNL A   1      48.569  32.283  27.092  1.00  0.00     0.041 A 
ATOM     85  F   UNL A   1      48.777  30.271  28.220  1.00  0.00    -0.206 F 
ATOM     86  C   UNL A   1      47.805  33.271  26.496  1.00  0.00     0.022 A 
BRANCH  83  87
ATOM     87  S   UNL A   1      45.444  34.434  25.652  1.00  0.00     0.124 S 
ATOM     88  O   UNL A   1      44.489  34.713  26.718  1.00  0.00    -0.237 OA
ATOM     89  O   UNL A   1      46.451  35.457  25.397  1.00  0.00    -0.237 OA
ATOM     90  O   UNL A   1      44.864  33.836  24.448  1.00  0.00    -0.744 OA
ENDBRANCH  83  87
ENDBRANCH  56  80
BRANCH  68  91
ATOM     91  C   UNL A   1      45.900  26.124  31.718  1.00  0.00     0.023 A 
ATOM     92  C   UNL A   1      44.811  26.672  32.437  1.00  0.00     0.031 A 
ATOM     93  C   UNL A   1      47.049  25.757  32.439  1.00  0.00     0.131 A 
ATOM     94  C   UNL A   1      44.904  26.812  33.840  1.00  0.00     0.055 A 
ATOM     95  C   UNL A   1      47.124  25.874  33.825  1.00  0.00     0.041 A 
ATOM     96  F   UNL A   1      48.098  25.207  31.807  1.00  0.00    -0.206 F 
ATOM     97  C   UNL A   1      46.048  26.398  34.531  1.00  0.00     0.022 A 
BRANCH  94  98
ATOM     98  S   UNL A   1      43.511  27.485  34.810  1.00  0.00     0.124 S 
ATOM     99  O   UNL A   1      43.626  28.923  34.597  1.00  0.00    -0.237 OA
ATOM    100  O   UNL A   1      42.350  26.837  34.205  1.00  0.00    -0.237 OA
ATOM    101  O   UNL A   1      43.801  27.049  36.178  1.00  0.00    -0.744 OA
ENDBRANCH  94  98
ENDBRANCH  68  91
ENDBRANCH  42  43
ENDBRANCH  34  37
ENDBRANCH  32  33
ENDBRANCH  31  32
ENDBRANCH   1  31
TORSDOF 19
ENDMDL
MODEL 3
REMARK VINA RESULT:     -12.4      7.738     13.766
REMARK SMILES CCc1nc2sc(C(=O)NCC(=O)NCCCCNC(=O)c3ccc(-c4c5nc(c(-c6cc(S(=O)(=O)[O-])ccc6F)c6ccc([nH]6)c(-c6cc(S(=O)(=O)[O-])ccc6F)c6nc(c(-c7cc(S(=O)(=O)[O-])ccc7F)c7ccc4[nH]7)C=C6)C=C5)cc3)c(N)c2c(C(F)(F)F)c1C
REMARK SMILES IDX 16 1 15 2 14 3 12 4 13 5 11 7 10 8 8 9 9 10 7 12 3 13 4 14
REMARK SMILES IDX 93 15 5 16 88 17 94 18 6 19 87 20 85 21 2 22 1 23 89 24
REMARK SMILES IDX 90 25 91 26 92 27 86 28 17 31 18 32 19 33 20 34 21 36 22 37
REMARK SMILES IDX 23 38 84 39 24 40 83 41 25 42 26 43 27 44 77 45 28 46 82 47
REMARK SMILES IDX 76 48 78 49 29 50 81 51 75 52 74 53 30 55 62 56 42 57 61 58
REMARK SMILES IDX 43 59 46 60 60 61 79 62 44 63 45 64 59 66 80 67 47 68 31 69
REMARK SMILES IDX 32 70 40 71 33 72 39 73 41 74 38 75 34 76 35 77 36 78 37 79
REMARK SMILES IDX 63 80 64 81 72 82 65 83 71 84 73 85 70 86 66 87 67 88 68 89
REMARK SMILES IDX 69 90 48 91 49 92 57 93 50 94 56 95 58 96 55 97 51 98 52 99
REMARK SMILES IDX 53 100 54 101
REMARK H PARENT 14 6 10 11 86 29 86 30 19 35 78 54 46 65
REMARK Flexibility Score: inf
ROOT
ATOM      1  C   UNL A   1      42.889  40.536  26.155  1.00  0.00     0.023 C 
ENDROOT
BRANCH   1   2
ATOM      2  C   UNL A   1      42.790  41.693  25.166  1.00  0.00     0.116 C 
BRANCH   2   3
ATOM      3  N   UNL A   1      44.004  42.482  25.078  1.00  0.00    -0.355 N 
ATOM      4  C   UNL A   1      44.702  42.975  24.020  1.00  0.00     0.239 C 
ATOM      5  O   UNL A   1      45.685  43.675  24.293  1.00  0.00    -0.273 OA
ATOM      6  H   UNL A   1      44.399  42.702  25.952  1.00  0.00     0.163 HD
BRANCH   4   7
ATOM      7  C   UNL A   1      44.287  42.817  22.543  1.00  0.00     0.216 C 
BRANCH   7   8
ATOM      8  N   UNL A   1      45.240  42.462  21.514  1.00  0.00    -0.342 N 
ATOM      9  C   UNL A   1      45.650  43.056  20.345  1.00  0.00     0.264 C 
ATOM     10  O   UNL A   1      46.667  42.521  19.884  1.00  0.00    -0.268 OA
ATOM     11  H   UNL A   1      45.695  41.607  21.690  1.00  0.00     0.164 HD
BRANCH   9  12
ATOM     12  C   UNL A   1      44.948  44.146  19.654  1.00  0.00     0.118 A 
ATOM     13  C   UNL A   1      43.663  48.354  17.895  1.00  0.00     0.045 A 
ATOM     14  N   UNL A   1      44.479  47.840  18.837  1.00  0.00    -0.242 NA
ATOM     15  C   UNL A   1      42.797  47.572  17.108  1.00  0.00    -0.017 A 
ATOM     16  C   UNL A   1      44.457  46.503  18.971  1.00  0.00     0.127 A 
ATOM     17  C   UNL A   1      42.802  46.158  17.270  1.00  0.00     0.073 A 
ATOM     18  C   UNL A   1      41.863  48.209  16.105  1.00  0.00     0.047 C 
ATOM     19  S   UNL A   1      45.456  45.745  20.108  1.00  0.00    -0.108 S 
ATOM     20  C   UNL A   1      43.680  45.611  18.256  1.00  0.00     0.048 A 
ATOM     21  C   UNL A   1      43.982  44.252  18.662  1.00  0.00     0.066 A 
BRANCH  13  22
ATOM     22  C   UNL A   1      43.684  49.866  17.748  1.00  0.00     0.053 C 
ATOM     23  C   UNL A   1      45.050  50.533  17.836  1.00  0.00     0.011 C 
ENDBRANCH  13  22
BRANCH  17  24
ATOM     24  C   UNL A   1      41.949  45.233  16.429  1.00  0.00     0.417 C 
ATOM     25  F   UNL A   1      42.698  44.349  15.710  1.00  0.00    -0.166 F 
ATOM     26  F   UNL A   1      41.121  44.462  17.200  1.00  0.00    -0.166 F 
ATOM     27  F   UNL A   1      41.121  45.826  15.530  1.00  0.00    -0.166 F 
ENDBRANCH  17  24
BRANCH  21  28
ATOM     28  N   UNL A   1      43.384  43.214  18.042  1.00  0.00    -0.397 N 
ATOM     29  H   UNL A   1      43.872  42.368  17.917  1.00  0.00     0.156 HD
ATOM     30  H   UNL A   1      42.460  43.302  17.713  1.00  0.00     0.156 HD
ENDBRANCH  21  28
ENDBRANCH   9  12
ENDBRANCH   7   8
ENDBRANCH   4   7
ENDBRANCH   2   3
ENDBRANCH   1   2
BRANCH   1  31
ATOM     31  C   UNL A   1      44.287  39.916  26.276  1.00  0.00     0.023 C 
BRANCH  31  32
ATOM     32  C   UNL A   1      44.367  38.718  27.218  1.00  0.00     0.116 C 
BRANCH  32  33
ATOM     33  N   UNL A   1      44.992  37.552  26.600  1.00  0.00    -0.352 N 
ATOM     34  C   UNL A   1      44.989  36.255  27.067  1.00  0.00     0.251 C 
ATOM     35  H   UNL A   1      45.471  37.712  25.755  1.00  0.00     0.163 HD
ATOM     36  O   UNL A   1      45.869  35.470  26.710  1.00  0.00    -0.269 OA
BRANCH  34  37
ATOM     37  C   UNL A   1      43.922  35.817  27.986  1.00  0.00     0.039 A 
ATOM     38  C   UNL A   1      42.584  35.798  27.583  1.00  0.00     0.014 A 
ATOM     39  C   UNL A   1      44.280  35.433  29.281  1.00  0.00     0.014 A 
ATOM     40  C   UNL A   1      41.616  35.316  28.465  1.00  0.00     0.010 A 
ATOM     41  C   UNL A   1      43.342  34.870  30.116  1.00  0.00     0.010 A 
ATOM     42  C   UNL A   1      42.006  34.835  29.726  1.00  0.00    -0.014 A 
BRANCH  42  43
ATOM     43  C   UNL A   1      41.063  34.100  30.570  1.00  0.00     0.031 A 
ATOM     44  C   UNL A   1      41.528  33.957  31.979  1.00  0.00     0.074 A 
ATOM     45  C   UNL A   1      39.794  33.825  30.192  1.00  0.00     0.049 A 
ATOM     46  N   UNL A   1      41.841  32.873  32.607  1.00  0.00    -0.248 NA
ATOM     47  C   UNL A   1      41.849  35.184  32.736  1.00  0.00     0.031 C 
ATOM     48  C   UNL A   1      39.138  34.190  28.932  1.00  0.00     0.029 A 
ATOM     49  N   UNL A   1      38.773  33.264  30.900  1.00  0.00    -0.354 N 
ATOM     50  C   UNL A   1      42.137  33.263  33.911  1.00  0.00     0.074 A 
ATOM     51  C   UNL A   1      42.358  34.681  33.861  1.00  0.00     0.031 C 
ATOM     52  C   UNL A   1      37.798  34.055  29.059  1.00  0.00     0.029 A 
ATOM     53  C   UNL A   1      37.501  33.458  30.350  1.00  0.00     0.049 A 
ATOM     54  H   UNL A   1      38.918  32.760  31.732  1.00  0.00     0.167 HD
ATOM     55  C   UNL A   1      41.888  32.435  34.964  1.00  0.00     0.034 A 
ATOM     56  C   UNL A   1      36.296  33.172  30.922  1.00  0.00     0.034 A 
ATOM     57  C   UNL A   1      41.717  31.071  34.518  1.00  0.00     0.049 A 
ATOM     58  C   UNL A   1      36.574  32.151  31.964  1.00  0.00     0.074 A 
ATOM     59  C   UNL A   1      42.498  30.188  33.798  1.00  0.00     0.029 A 
ATOM     60  N   UNL A   1      40.434  30.579  34.443  1.00  0.00    -0.354 N 
ATOM     61  N   UNL A   1      37.041  30.962  31.698  1.00  0.00    -0.248 NA
ATOM     62  C   UNL A   1      36.802  32.624  33.320  1.00  0.00     0.031 C 
ATOM     63  C   UNL A   1      41.588  29.532  32.919  1.00  0.00     0.029 A 
ATOM     64  C   UNL A   1      40.297  29.971  33.220  1.00  0.00     0.049 A 
ATOM     65  H   UNL A   1      39.741  30.649  35.138  1.00  0.00     0.167 HD
ATOM     66  C   UNL A   1      37.984  30.724  32.686  1.00  0.00     0.074 A 
ATOM     67  C   UNL A   1      37.734  31.747  33.703  1.00  0.00     0.031 C 
ATOM     68  C   UNL A   1      39.061  29.916  32.463  1.00  0.00     0.034 A 
BRANCH  55  69
ATOM     69  C   UNL A   1      41.411  32.901  36.324  1.00  0.00     0.023 A 
ATOM     70  C   UNL A   1      42.248  32.649  37.430  1.00  0.00     0.031 A 
ATOM     71  C   UNL A   1      40.094  33.312  36.636  1.00  0.00     0.131 A 
ATOM     72  C   UNL A   1      41.753  32.727  38.745  1.00  0.00     0.055 A 
ATOM     73  C   UNL A   1      39.626  33.449  37.945  1.00  0.00     0.041 A 
ATOM     74  F   UNL A   1      39.154  33.511  35.705  1.00  0.00    -0.206 F 
ATOM     75  C   UNL A   1      40.447  33.129  39.010  1.00  0.00     0.022 A 
BRANCH  72  76
ATOM     76  S   UNL A   1      42.806  32.155  40.101  1.00  0.00     0.124 S 
ATOM     77  O   UNL A   1      41.815  31.788  41.106  1.00  0.00    -0.237 OA
ATOM     78  O   UNL A   1      43.531  31.054  39.476  1.00  0.00    -0.237 OA
ATOM     79  O   UNL A   1      43.616  33.329  40.419  1.00  0.00    -0.744 OA
ENDBRANCH  72  76
ENDBRANCH  55  69
BRANCH  56  80
ATOM     80  C   UNL A   1      35.006  33.935  30.850  1.00  0.00     0.023 A 
ATOM     81  C   UNL A   1      34.617  34.875  31.838  1.00  0.00     0.031 A 
ATOM     82  C   UNL A   1      34.248  33.945  29.657  1.00  0.00     0.131 A 
ATOM     83  C   UNL A   1      33.540  35.768  31.606  1.00  0.00     0.055 A 
ATOM     84  C   UNL A   1      33.186  34.829  29.434  1.00  0.00     0.041 A 
ATOM     85  F   UNL A   1      34.565  33.156  28.621  1.00  0.00    -0.206 F 
ATOM     86  C   UNL A   1      32.834  35.753  30.402  1.00  0.00     0.022 A 
BRANCH  83  87
ATOM     87  S   UNL A   1      33.101  37.057  32.825  1.00  0.00     0.124 S 
ATOM     88  O   UNL A   1      34.062  36.807  33.893  1.00  0.00    -0.237 OA
ATOM     89  O   UNL A   1      33.279  38.289  32.065  1.00  0.00    -0.237 OA
ATOM     90  O   UNL A   1      31.711  36.744  33.163  1.00  0.00    -0.744 OA
ENDBRANCH  83  87
ENDBRANCH  56  80
BRANCH  68  91
ATOM     91  C   UNL A   1      39.075  29.013  31.247  1.00  0.00     0.023 A 
ATOM     92  C   UNL A   1      39.692  29.312  30.010  1.00  0.00     0.031 A 
ATOM     93  C   UNL A   1      38.615  27.701  31.454  1.00  0.00     0.131 A 
ATOM     94  C   UNL A   1      39.843  28.293  29.042  1.00  0.00     0.055 A 
ATOM     95  C   UNL A   1      38.789  26.695  30.507  1.00  0.00     0.041 A 
ATOM     96  F   UNL A   1      38.047  27.359  32.622  1.00  0.00    -0.206 F 
ATOM     97  C   UNL A   1      39.409  26.987  29.298  1.00  0.00     0.022 A 
BRANCH  94  98
ATOM     98  S   UNL A   1      40.661  28.629  27.445  1.00  0.00     0.124 S 
ATOM     99  O   UNL A   1      41.006  27.295  26.965  1.00  0.00    -0.237 OA
ATOM    100  O   UNL A   1      39.629  29.335  26.691  1.00  0.00    -0.237 OA
ATOM    101  O   UNL A   1      41.812  29.456  27.815  1.00  0.00    -0.744 OA
ENDBRANCH  94  98
ENDBRANCH  68  91
ENDBRANCH  42  43
ENDBRANCH  34  37
ENDBRANCH  32  33
ENDBRANCH  31  32
ENDBRANCH   1  31
TORSDOF 19
ENDMDL
