MODEL 1
REMARK VINA RESULT:     -11.9      0.000      0.000
REMARK SMILES CC(C)(C)c1ccc(C(=O)C[C@H](C(=O)NCCCCNC(=O)c2ccc(-c3c4nc(c(-c5cc(S(=O)(=O)[O-])ccc5F)c5ccc([nH]5)c(-c5cc(S(=O)(=O)[O-])ccc5F)c5nc(c(-c6cc(S(=O)(=O)[O-])ccc6F)c6ccc3[nH]6)C=C5)C=C4)cc2)[NH+]2CCCC2)cc1
REMARK SMILES IDX 17 1 16 2 15 3 13 4 14 5 12 7 11 8 9 9 10 10 8 11 5 12 6 13
REMARK SMILES IDX 92 14 7 15 91 16 2 17 1 18 3 19 4 20 86 21 87 22 90 23 88 25
REMARK SMILES IDX 89 26 18 27 19 28 20 29 21 30 22 32 23 33 24 34 85 35 25 36
REMARK SMILES IDX 84 37 26 38 27 39 28 40 78 41 29 42 83 43 77 44 79 45 30 46
REMARK SMILES IDX 82 47 76 48 75 49 31 51 63 52 43 53 62 54 44 55 47 56 61 57
REMARK SMILES IDX 80 58 45 59 46 60 60 62 81 63 48 64 32 65 33 66 41 67 34 68
REMARK SMILES IDX 40 69 42 70 39 71 35 72 36 73 37 74 38 75 64 76 65 77 73 78
REMARK SMILES IDX 66 79 72 80 74 81 71 82 67 83 68 84 69 85 70 86 49 87 50 88
REMARK SMILES IDX 58 89 51 90 57 91 59 92 56 93 52 94 53 95 54 96 55 97
REMARK H PARENT 15 6 86 24 20 31 79 50 47 61
REMARK Flexibility Score: inf
ROOT
ATOM      1  C   UNL A   1      31.778  29.725  26.906  1.00  0.00     0.023 C 
ENDROOT
BRANCH   1   2
ATOM      2  C   UNL A   1      32.664  28.781  26.098  1.00  0.00     0.116 C 
BRANCH   2   3
ATOM      3  N   UNL A   1      32.472  27.394  26.472  1.00  0.00    -0.351 N 
ATOM      4  C   UNL A   1      32.636  26.246  25.763  1.00  0.00     0.278 C 
ATOM      5  O   UNL A   1      32.559  25.193  26.403  1.00  0.00    -0.268 OA
ATOM      6  H   UNL A   1      32.169  27.261  27.400  1.00  0.00     0.163 HD
BRANCH   4   7
ATOM      7  C   UNL A   1      32.939  26.275  24.247  1.00  0.00     0.281 C 
BRANCH   7   8
ATOM      8  C   UNL A   1      34.067  25.260  23.982  1.00  0.00     0.156 C 
BRANCH   8   9
ATOM      9  C   UNL A   1      33.675  24.168  22.997  1.00  0.00     0.169 C 
ATOM     10  O   UNL A   1      33.493  24.419  21.805  1.00  0.00    -0.294 OA
BRANCH   9  11
ATOM     11  C   UNL A   1      33.453  22.780  23.493  1.00  0.00     0.018 A 
ATOM     12  C   UNL A   1      33.348  20.008  24.061  1.00  0.00    -0.043 A 
ATOM     13  C   UNL A   1      34.289  20.844  24.688  1.00  0.00     0.005 A 
ATOM     14  C   UNL A   1      32.372  20.630  23.268  1.00  0.00     0.005 A 
ATOM     15  C   UNL A   1      34.352  22.214  24.398  1.00  0.00     0.012 A 
ATOM     16  C   UNL A   1      32.407  22.001  23.013  1.00  0.00     0.012 A 
BRANCH  12  17
ATOM     17  C   UNL A   1      33.340  18.482  24.244  1.00  0.00    -0.013 C 
ATOM     18  C   UNL A   1      32.603  18.036  25.527  1.00  0.00     0.016 C 
ATOM     19  C   UNL A   1      34.772  17.899  24.354  1.00  0.00     0.016 C 
ATOM     20  C   UNL A   1      32.643  17.861  23.021  1.00  0.00     0.016 C 
ENDBRANCH  12  17
ENDBRANCH   9  11
ENDBRANCH   8   9
ENDBRANCH   7   8
BRANCH   7  21
ATOM     21  N   UNL A   1      31.718  26.095  23.412  1.00  0.00    -0.324 N 
ATOM     22  C   UNL A   1      31.354  27.291  22.644  1.00  0.00     0.263 C 
ATOM     23  C   UNL A   1      30.496  25.643  24.097  1.00  0.00     0.263 C 
ATOM     24  H   UNL A   1      32.030  25.335  22.807  1.00  0.00     0.348 HD
ATOM     25  C   UNL A   1      30.189  27.921  23.382  1.00  0.00     0.067 C 
ATOM     26  C   UNL A   1      29.444  26.732  23.943  1.00  0.00     0.067 C 
ENDBRANCH   7  21
ENDBRANCH   4   7
ENDBRANCH   2   3
ENDBRANCH   1   2
BRANCH   1  27
ATOM     27  C   UNL A   1      31.898  31.210  26.542  1.00  0.00     0.023 C 
BRANCH  27  28
ATOM     28  C   UNL A   1      33.040  31.974  27.208  1.00  0.00     0.116 C 
BRANCH  28  29
ATOM     29  N   UNL A   1      32.712  33.362  27.483  1.00  0.00    -0.352 N 
ATOM     30  C   UNL A   1      33.245  34.219  28.415  1.00  0.00     0.251 C 
ATOM     31  H   UNL A   1      32.001  33.745  26.919  1.00  0.00     0.163 HD
ATOM     32  O   UNL A   1      32.727  35.322  28.584  1.00  0.00    -0.269 OA
BRANCH  30  33
ATOM     33  C   UNL A   1      34.405  33.809  29.239  1.00  0.00     0.039 A 
ATOM     34  C   UNL A   1      34.187  32.958  30.325  1.00  0.00     0.014 A 
ATOM     35  C   UNL A   1      35.700  34.247  28.947  1.00  0.00     0.014 A 
ATOM     36  C   UNL A   1      35.274  32.479  31.063  1.00  0.00     0.010 A 
ATOM     37  C   UNL A   1      36.787  33.714  29.639  1.00  0.00     0.010 A 
ATOM     38  C   UNL A   1      36.588  32.812  30.695  1.00  0.00    -0.014 A 
BRANCH  38  39
ATOM     39  C   UNL A   1      37.757  32.190  31.376  1.00  0.00     0.031 A 
ATOM     40  C   UNL A   1      38.503  31.052  30.733  1.00  0.00     0.074 A 
ATOM     41  C   UNL A   1      38.108  32.615  32.608  1.00  0.00     0.049 A 
ATOM     42  N   UNL A   1      39.498  30.344  31.206  1.00  0.00    -0.248 NA
ATOM     43  C   UNL A   1      38.057  30.644  29.393  1.00  0.00     0.031 C 
ATOM     44  C   UNL A   1      37.443  33.688  33.350  1.00  0.00     0.029 A 
ATOM     45  N   UNL A   1      39.103  32.195  33.457  1.00  0.00    -0.354 N 
ATOM     46  C   UNL A   1      39.794  29.403  30.226  1.00  0.00     0.074 A 
ATOM     47  C   UNL A   1      38.834  29.596  29.159  1.00  0.00     0.031 C 
ATOM     48  C   UNL A   1      38.062  33.858  34.529  1.00  0.00     0.029 A 
ATOM     49  C   UNL A   1      39.131  32.873  34.655  1.00  0.00     0.049 A 
ATOM     50  H   UNL A   1      39.736  31.476  33.230  1.00  0.00     0.167 HD
ATOM     51  C   UNL A   1      40.786  28.477  30.210  1.00  0.00     0.034 A 
ATOM     52  C   UNL A   1      39.913  32.709  35.741  1.00  0.00     0.034 A 
ATOM     53  C   UNL A   1      41.735  28.296  31.284  1.00  0.00     0.049 A 
ATOM     54  C   UNL A   1      40.974  31.637  35.720  1.00  0.00     0.074 A 
ATOM     55  C   UNL A   1      42.808  27.422  31.346  1.00  0.00     0.029 A 
ATOM     56  N   UNL A   1      41.719  28.985  32.490  1.00  0.00    -0.354 N 
ATOM     57  N   UNL A   1      41.273  30.789  34.763  1.00  0.00    -0.248 NA
ATOM     58  C   UNL A   1      41.808  31.508  36.922  1.00  0.00     0.031 C 
ATOM     59  C   UNL A   1      43.386  27.524  32.616  1.00  0.00     0.029 A 
ATOM     60  C   UNL A   1      42.735  28.527  33.316  1.00  0.00     0.049 A 
ATOM     61  H   UNL A   1      41.080  29.696  32.724  1.00  0.00     0.167 HD
ATOM     62  C   UNL A   1      42.351  30.046  35.239  1.00  0.00     0.074 A 
ATOM     63  C   UNL A   1      42.659  30.561  36.557  1.00  0.00     0.031 C 
ATOM     64  C   UNL A   1      43.027  29.034  34.637  1.00  0.00     0.034 A 
BRANCH  51  65
ATOM     65  C   UNL A   1      40.875  27.568  29.005  1.00  0.00     0.023 A 
ATOM     66  C   UNL A   1      41.817  27.784  27.983  1.00  0.00     0.031 A 
ATOM     67  C   UNL A   1      40.000  26.477  28.869  1.00  0.00     0.131 A 
ATOM     68  C   UNL A   1      41.812  26.969  26.841  1.00  0.00     0.055 A 
ATOM     69  C   UNL A   1      40.056  25.617  27.770  1.00  0.00     0.041 A 
ATOM     70  F   UNL A   1      39.064  26.230  29.800  1.00  0.00    -0.206 F 
ATOM     71  C   UNL A   1      40.957  25.869  26.739  1.00  0.00     0.022 A 
BRANCH  68  72
ATOM     72  S   UNL A   1      42.838  27.455  25.426  1.00  0.00     0.124 S 
ATOM     73  O   UNL A   1      44.086  27.838  26.085  1.00  0.00    -0.237 OA
ATOM     74  O   UNL A   1      42.883  26.232  24.634  1.00  0.00    -0.237 OA
ATOM     75  O   UNL A   1      42.095  28.562  24.828  1.00  0.00    -0.744 OA
ENDBRANCH  68  72
ENDBRANCH  51  65
BRANCH  52  76
ATOM     76  C   UNL A   1      39.715  33.559  36.952  1.00  0.00     0.023 A 
ATOM     77  C   UNL A   1      40.529  34.676  37.195  1.00  0.00     0.031 A 
ATOM     78  C   UNL A   1      38.737  33.236  37.911  1.00  0.00     0.131 A 
ATOM     79  C   UNL A   1      40.387  35.398  38.391  1.00  0.00     0.055 A 
ATOM     80  C   UNL A   1      38.557  33.997  39.068  1.00  0.00     0.041 A 
ATOM     81  F   UNL A   1      37.929  32.179  37.730  1.00  0.00    -0.206 F 
ATOM     82  C   UNL A   1      39.396  35.077  39.320  1.00  0.00     0.022 A 
BRANCH  79  83
ATOM     83  S   UNL A   1      41.585  36.710  38.759  1.00  0.00     0.124 S 
ATOM     84  O   UNL A   1      42.350  36.114  39.848  1.00  0.00    -0.237 OA
ATOM     85  O   UNL A   1      42.282  36.851  37.485  1.00  0.00    -0.237 OA
ATOM     86  O   UNL A   1      40.742  37.844  39.134  1.00  0.00    -0.744 OA
ENDBRANCH  79  83
ENDBRANCH  52  76
BRANCH  64  87
ATOM     87  C   UNL A   1      44.198  28.446  35.390  1.00  0.00     0.023 A 
ATOM     88  C   UNL A   1      44.033  27.416  36.334  1.00  0.00     0.031 A 
ATOM     89  C   UNL A   1      45.498  28.936  35.170  1.00  0.00     0.131 A 
ATOM     90  C   UNL A   1      45.138  26.954  37.066  1.00  0.00     0.055 A 
ATOM     91  C   UNL A   1      46.604  28.422  35.851  1.00  0.00     0.041 A 
ATOM     92  F   UNL A   1      45.717  29.921  34.285  1.00  0.00    -0.206 F 
ATOM     93  C   UNL A   1      46.425  27.437  36.816  1.00  0.00     0.022 A 
BRANCH  90  94
ATOM     94  S   UNL A   1      44.855  25.787  38.426  1.00  0.00     0.124 S 
ATOM     95  O   UNL A   1      46.214  25.530  38.892  1.00  0.00    -0.237 OA
ATOM     96  O   UNL A   1      44.007  26.558  39.329  1.00  0.00    -0.237 OA
ATOM     97  O   UNL A   1      44.198  24.655  37.776  1.00  0.00    -0.744 OA
ENDBRANCH  90  94
ENDBRANCH  64  87
ENDBRANCH  38  39
ENDBRANCH  30  33
ENDBRANCH  28  29
ENDBRANCH  27  28
ENDBRANCH   1  27
TORSDOF 19
ENDMDL
MODEL 2
REMARK VINA RESULT:     -11.7      6.099     11.162
REMARK SMILES CC(C)(C)c1ccc(C(=O)C[C@H](C(=O)NCCCCNC(=O)c2ccc(-c3c4nc(c(-c5cc(S(=O)(=O)[O-])ccc5F)c5ccc([nH]5)c(-c5cc(S(=O)(=O)[O-])ccc5F)c5nc(c(-c6cc(S(=O)(=O)[O-])ccc6F)c6ccc3[nH]6)C=C5)C=C4)cc2)[NH+]2CCCC2)cc1
REMARK SMILES IDX 17 1 16 2 15 3 13 4 14 5 12 7 11 8 9 9 10 10 8 11 5 12 6 13
REMARK SMILES IDX 92 14 7 15 91 16 2 17 1 18 3 19 4 20 86 21 87 22 90 23 88 25
REMARK SMILES IDX 89 26 18 27 19 28 20 29 21 30 22 32 23 33 24 34 85 35 25 36
REMARK SMILES IDX 84 37 26 38 27 39 28 40 78 41 29 42 83 43 77 44 79 45 30 46
REMARK SMILES IDX 82 47 76 48 75 49 31 51 63 52 43 53 62 54 44 55 47 56 61 57
REMARK SMILES IDX 80 58 45 59 46 60 60 62 81 63 48 64 32 65 33 66 41 67 34 68
REMARK SMILES IDX 40 69 42 70 39 71 35 72 36 73 37 74 38 75 64 76 65 77 73 78
REMARK SMILES IDX 66 79 72 80 74 81 71 82 67 83 68 84 69 85 70 86 49 87 50 88
REMARK SMILES IDX 58 89 51 90 57 91 59 92 56 93 52 94 53 95 54 96 55 97
REMARK H PARENT 15 6 86 24 20 31 79 50 47 61
REMARK Flexibility Score: inf
ROOT
ATOM      1  C   UNL A   1      36.501  21.232  24.823  1.00  0.00     0.023 C 
ENDROOT
BRANCH   1   2
ATOM      2  C   UNL A   1      35.530  21.290  25.999  1.00  0.00     0.116 C 
BRANCH   2   3
ATOM      3  N   UNL A   1      34.305  20.563  25.734  1.00  0.00    -0.351 N 
ATOM      4  C   UNL A   1      33.133  20.962  25.173  1.00  0.00     0.278 C 
ATOM      5  O   UNL A   1      32.317  20.072  24.918  1.00  0.00    -0.268 OA
ATOM      6  H   UNL A   1      34.325  19.617  26.008  1.00  0.00     0.163 HD
BRANCH   4   7
ATOM      7  C   UNL A   1      32.866  22.449  24.844  1.00  0.00     0.281 C 
BRANCH   7   8
ATOM      8  C   UNL A   1      33.060  23.252  26.145  1.00  0.00     0.156 C 
BRANCH   8   9
ATOM      9  C   UNL A   1      31.771  23.866  26.671  1.00  0.00     0.169 C 
ATOM     10  O   UNL A   1      31.150  23.349  27.601  1.00  0.00    -0.294 OA
BRANCH   9  11
ATOM     11  C   UNL A   1      31.219  25.084  26.013  1.00  0.00     0.018 A 
ATOM     12  C   UNL A   1      30.562  27.350  24.445  1.00  0.00    -0.043 A 
ATOM     13  C   UNL A   1      30.033  26.081  24.148  1.00  0.00     0.005 A 
ATOM     14  C   UNL A   1      31.297  27.471  25.634  1.00  0.00     0.005 A 
ATOM     15  C   UNL A   1      30.367  24.956  24.915  1.00  0.00     0.012 A 
ATOM     16  C   UNL A   1      31.595  26.359  26.422  1.00  0.00     0.012 A 
BRANCH  12  17
ATOM     17  C   UNL A   1      30.334  28.576  23.547  1.00  0.00    -0.013 C 
ATOM     18  C   UNL A   1      28.859  28.734  23.113  1.00  0.00     0.016 C 
ATOM     19  C   UNL A   1      31.156  28.501  22.235  1.00  0.00     0.016 C 
ATOM     20  C   UNL A   1      30.764  29.826  24.334  1.00  0.00     0.016 C 
ENDBRANCH  12  17
ENDBRANCH   9  11
ENDBRANCH   8   9
ENDBRANCH   7   8
BRANCH   7  21
ATOM     21  N   UNL A   1      33.659  22.934  23.679  1.00  0.00    -0.324 N 
ATOM     22  C   UNL A   1      34.395  24.175  23.949  1.00  0.00     0.263 C 
ATOM     23  C   UNL A   1      32.937  23.138  22.413  1.00  0.00     0.263 C 
ATOM     24  H   UNL A   1      34.286  22.140  23.551  1.00  0.00     0.348 HD
ATOM     25  C   UNL A   1      33.606  25.282  23.279  1.00  0.00     0.067 C 
ATOM     26  C   UNL A   1      33.037  24.612  22.049  1.00  0.00     0.067 C 
ENDBRANCH   7  21
ENDBRANCH   4   7
ENDBRANCH   2   3
ENDBRANCH   1   2
BRANCH   1  27
ATOM     27  C   UNL A   1      37.607  20.175  24.935  1.00  0.00     0.023 C 
BRANCH  27  28
ATOM     28  C   UNL A   1      38.840  20.578  25.740  1.00  0.00     0.116 C 
BRANCH  28  29
ATOM     29  N   UNL A   1      39.817  19.508  25.856  1.00  0.00    -0.352 N 
ATOM     30  C   UNL A   1      41.167  19.579  26.105  1.00  0.00     0.251 C 
ATOM     31  H   UNL A   1      39.460  18.599  25.738  1.00  0.00     0.163 HD
ATOM     32  O   UNL A   1      41.848  18.558  26.024  1.00  0.00    -0.269 OA
BRANCH  30  33
ATOM     33  C   UNL A   1      41.807  20.875  26.428  1.00  0.00     0.039 A 
ATOM     34  C   UNL A   1      42.076  21.766  25.386  1.00  0.00     0.014 A 
ATOM     35  C   UNL A   1      42.134  21.221  27.742  1.00  0.00     0.014 A 
ATOM     36  C   UNL A   1      42.592  23.034  25.671  1.00  0.00     0.010 A 
ATOM     37  C   UNL A   1      42.581  22.511  28.031  1.00  0.00     0.010 A 
ATOM     38  C   UNL A   1      42.802  23.437  27.000  1.00  0.00    -0.014 A 
BRANCH  38  39
ATOM     39  C   UNL A   1      43.206  24.833  27.325  1.00  0.00     0.031 A 
ATOM     40  C   UNL A   1      42.233  25.782  27.971  1.00  0.00     0.074 A 
ATOM     41  C   UNL A   1      44.438  25.262  26.980  1.00  0.00     0.049 A 
ATOM     42  N   UNL A   1      42.385  27.049  28.263  1.00  0.00    -0.248 NA
ATOM     43  C   UNL A   1      40.910  25.241  28.313  1.00  0.00     0.031 C 
ATOM     44  C   UNL A   1      45.459  24.447  26.319  1.00  0.00     0.029 A 
ATOM     45  N   UNL A   1      45.039  26.488  27.126  1.00  0.00    -0.354 N 
ATOM     46  C   UNL A   1      41.177  27.460  28.816  1.00  0.00     0.074 A 
ATOM     47  C   UNL A   1      40.286  26.319  28.764  1.00  0.00     0.031 C 
ATOM     48  C   UNL A   1      46.566  25.185  26.142  1.00  0.00     0.029 A 
ATOM     49  C   UNL A   1      46.319  26.542  26.622  1.00  0.00     0.049 A 
ATOM     50  H   UNL A   1      44.596  27.257  27.552  1.00  0.00     0.167 HD
ATOM     51  C   UNL A   1      40.849  28.670  29.337  1.00  0.00     0.034 A 
ATOM     52  C   UNL A   1      47.189  27.567  26.533  1.00  0.00     0.034 A 
ATOM     53  C   UNL A   1      41.749  29.798  29.379  1.00  0.00     0.049 A 
ATOM     54  C   UNL A   1      46.781  28.916  27.070  1.00  0.00     0.074 A 
ATOM     55  C   UNL A   1      41.533  31.052  29.928  1.00  0.00     0.029 A 
ATOM     56  N   UNL A   1      43.029  29.821  28.838  1.00  0.00    -0.354 N 
ATOM     57  N   UNL A   1      45.652  29.273  27.638  1.00  0.00    -0.248 NA
ATOM     58  C   UNL A   1      47.769  29.998  26.963  1.00  0.00     0.031 C 
ATOM     59  C   UNL A   1      42.644  31.853  29.647  1.00  0.00     0.029 A 
ATOM     60  C   UNL A   1      43.596  31.077  29.005  1.00  0.00     0.049 A 
ATOM     61  H   UNL A   1      43.470  29.057  28.402  1.00  0.00     0.167 HD
ATOM     62  C   UNL A   1      45.807  30.614  27.982  1.00  0.00     0.074 A 
ATOM     63  C   UNL A   1      47.145  30.993  27.576  1.00  0.00     0.031 C 
ATOM     64  C   UNL A   1      44.925  31.453  28.583  1.00  0.00     0.034 A 
BRANCH  51  65
ATOM     65  C   UNL A   1      39.446  28.842  29.873  1.00  0.00     0.023 A 
ATOM     66  C   UNL A   1      38.400  29.325  29.067  1.00  0.00     0.031 A 
ATOM     67  C   UNL A   1      39.151  28.531  31.212  1.00  0.00     0.131 A 
ATOM     68  C   UNL A   1      37.132  29.551  29.624  1.00  0.00     0.055 A 
ATOM     69  C   UNL A   1      37.866  28.677  31.738  1.00  0.00     0.041 A 
ATOM     70  F   UNL A   1      40.112  28.087  32.038  1.00  0.00    -0.206 F 
ATOM     71  C   UNL A   1      36.850  29.205  30.947  1.00  0.00     0.022 A 
BRANCH  68  72
ATOM     72  S   UNL A   1      35.899  30.441  28.635  1.00  0.00     0.124 S 
ATOM     73  O   UNL A   1      36.742  31.119  27.653  1.00  0.00    -0.237 OA
ATOM     74  O   UNL A   1      35.064  29.361  28.125  1.00  0.00    -0.237 OA
ATOM     75  O   UNL A   1      35.255  31.325  29.606  1.00  0.00    -0.744 OA
ENDBRANCH  68  72
ENDBRANCH  51  65
BRANCH  52  76
ATOM     76  C   UNL A   1      48.524  27.376  25.894  1.00  0.00     0.023 A 
ATOM     77  C   UNL A   1      48.697  27.546  24.511  1.00  0.00     0.031 A 
ATOM     78  C   UNL A   1      49.639  26.972  26.651  1.00  0.00     0.131 A 
ATOM     79  C   UNL A   1      49.939  27.264  23.921  1.00  0.00     0.055 A 
ATOM     80  C   UNL A   1      50.889  26.754  26.068  1.00  0.00     0.041 A 
ATOM     81  F   UNL A   1      49.532  26.794  27.977  1.00  0.00    -0.206 F 
ATOM     82  C   UNL A   1      51.039  26.885  24.692  1.00  0.00     0.022 A 
BRANCH  79  83
ATOM     83  S   UNL A   1      50.069  27.304  22.112  1.00  0.00     0.124 S 
ATOM     84  O   UNL A   1      51.420  26.799  21.902  1.00  0.00    -0.237 OA
ATOM     85  O   UNL A   1      48.981  26.418  21.710  1.00  0.00    -0.237 OA
ATOM     86  O   UNL A   1      49.871  28.716  21.788  1.00  0.00    -0.744 OA
ENDBRANCH  79  83
ENDBRANCH  52  76
BRANCH  64  87
ATOM     87  C   UNL A   1      45.402  32.857  28.876  1.00  0.00     0.023 A 
ATOM     88  C   UNL A   1      45.038  33.949  28.068  1.00  0.00     0.031 A 
ATOM     89  C   UNL A   1      46.248  33.102  29.973  1.00  0.00     0.131 A 
ATOM     90  C   UNL A   1      45.567  35.222  28.331  1.00  0.00     0.055 A 
ATOM     91  C   UNL A   1      46.713  34.384  30.272  1.00  0.00     0.041 A 
ATOM     92  F   UNL A   1      46.633  32.099  30.778  1.00  0.00    -0.206 F 
ATOM     93  C   UNL A   1      46.386  35.450  29.441  1.00  0.00     0.022 A 
BRANCH  90  94
ATOM     94  S   UNL A   1      45.255  36.558  27.144  1.00  0.00     0.124 S 
ATOM     95  O   UNL A   1      44.047  36.091  26.473  1.00  0.00    -0.237 OA
ATOM     96  O   UNL A   1      45.094  37.718  28.014  1.00  0.00    -0.237 OA
ATOM     97  O   UNL A   1      46.460  36.568  26.315  1.00  0.00    -0.744 OA
ENDBRANCH  90  94
ENDBRANCH  64  87
ENDBRANCH  38  39
ENDBRANCH  30  33
ENDBRANCH  28  29
ENDBRANCH  27  28
ENDBRANCH   1  27
TORSDOF 19
ENDMDL
MODEL 3
REMARK VINA RESULT:     -11.7      2.280      2.813
REMARK SMILES CC(C)(C)c1ccc(C(=O)C[C@H](C(=O)NCCCCNC(=O)c2ccc(-c3c4nc(c(-c5cc(S(=O)(=O)[O-])ccc5F)c5ccc([nH]5)c(-c5cc(S(=O)(=O)[O-])ccc5F)c5nc(c(-c6cc(S(=O)(=O)[O-])ccc6F)c6ccc3[nH]6)C=C5)C=C4)cc2)[NH+]2CCCC2)cc1
REMARK SMILES IDX 17 1 16 2 15 3 13 4 14 5 12 7 11 8 9 9 10 10 8 11 5 12 6 13
REMARK SMILES IDX 92 14 7 15 91 16 2 17 1 18 3 19 4 20 86 21 87 22 90 23 88 25
REMARK SMILES IDX 89 26 18 27 19 28 20 29 21 30 22 32 23 33 24 34 85 35 25 36
REMARK SMILES IDX 84 37 26 38 27 39 28 40 78 41 29 42 83 43 77 44 79 45 30 46
REMARK SMILES IDX 82 47 76 48 75 49 31 51 63 52 43 53 62 54 44 55 47 56 61 57
REMARK SMILES IDX 80 58 45 59 46 60 60 62 81 63 48 64 32 65 33 66 41 67 34 68
REMARK SMILES IDX 40 69 42 70 39 71 35 72 36 73 37 74 38 75 64 76 65 77 73 78
REMARK SMILES IDX 66 79 72 80 74 81 71 82 67 83 68 84 69 85 70 86 49 87 50 88
REMARK SMILES IDX 58 89 51 90 57 91 59 92 56 93 52 94 53 95 54 96 55 97
REMARK H PARENT 15 6 86 24 20 31 79 50 47 61
REMARK Flexibility Score: inf
ROOT
ATOM      1  C   UNL A   1      31.451  28.644  25.218  1.00  0.00     0.023 C 
ENDROOT
BRANCH   1   2
ATOM      2  C   UNL A   1      32.710  27.906  25.667  1.00  0.00     0.116 C 
BRANCH   2   3
ATOM      3  N   UNL A   1      32.431  26.542  26.068  1.00  0.00    -0.351 N 
ATOM      4  C   UNL A   1      33.018  25.368  25.712  1.00  0.00     0.278 C 
ATOM      5  O   UNL A   1      32.676  24.370  26.351  1.00  0.00    -0.268 OA
ATOM      6  H   UNL A   1      31.690  26.449  26.709  1.00  0.00     0.163 HD
BRANCH   4   7
ATOM      7  C   UNL A   1      34.080  25.310  24.589  1.00  0.00     0.281 C 
BRANCH   7   8
ATOM      8  C   UNL A   1      35.185  24.339  25.049  1.00  0.00     0.156 C 
BRANCH   8   9
ATOM      9  C   UNL A   1      35.426  23.198  24.071  1.00  0.00     0.169 C 
ATOM     10  O   UNL A   1      35.964  23.395  22.981  1.00  0.00    -0.294 OA
BRANCH   9  11
ATOM     11  C   UNL A   1      34.955  21.826  24.416  1.00  0.00     0.018 A 
ATOM     12  C   UNL A   1      34.178  19.108  24.589  1.00  0.00    -0.043 A 
ATOM     13  C   UNL A   1      35.483  19.515  24.920  1.00  0.00     0.005 A 
ATOM     14  C   UNL A   1      33.244  20.121  24.323  1.00  0.00     0.005 A 
ATOM     15  C   UNL A   1      35.874  20.858  24.822  1.00  0.00     0.012 A 
ATOM     16  C   UNL A   1      33.622  21.463  24.267  1.00  0.00     0.012 A 
BRANCH  12  17
ATOM     17  C   UNL A   1      33.754  17.631  24.548  1.00  0.00    -0.013 C 
ATOM     18  C   UNL A   1      33.174  17.213  23.178  1.00  0.00     0.016 C 
ATOM     19  C   UNL A   1      32.653  17.311  25.590  1.00  0.00     0.016 C 
ATOM     20  C   UNL A   1      34.994  16.774  24.853  1.00  0.00     0.016 C 
ENDBRANCH  12  17
ENDBRANCH   9  11
ENDBRANCH   8   9
ENDBRANCH   7   8
BRANCH   7  21
ATOM     21  N   UNL A   1      33.492  25.011  23.253  1.00  0.00    -0.324 N 
ATOM     22  C   UNL A   1      33.652  26.104  22.287  1.00  0.00     0.263 C 
ATOM     23  C   UNL A   1      32.074  24.619  23.217  1.00  0.00     0.263 C 
ATOM     24  H   UNL A   1      34.044  24.193  22.997  1.00  0.00     0.348 HD
ATOM     25  C   UNL A   1      32.305  26.793  22.208  1.00  0.00     0.067 C 
ATOM     26  C   UNL A   1      31.320  25.662  22.403  1.00  0.00     0.067 C 
ENDBRANCH   7  21
ENDBRANCH   4   7
ENDBRANCH   2   3
ENDBRANCH   1   2
BRANCH   1  27
ATOM     27  C   UNL A   1      31.473  30.164  25.422  1.00  0.00     0.023 C 
BRANCH  27  28
ATOM     28  C   UNL A   1      31.952  30.651  26.787  1.00  0.00     0.116 C 
BRANCH  28  29
ATOM     29  N   UNL A   1      31.935  32.098  26.913  1.00  0.00    -0.352 N 
ATOM     30  C   UNL A   1      32.856  32.937  27.492  1.00  0.00     0.251 C 
ATOM     31  H   UNL A   1      31.146  32.543  26.528  1.00  0.00     0.163 HD
ATOM     32  O   UNL A   1      32.586  34.130  27.621  1.00  0.00    -0.269 OA
BRANCH  30  33
ATOM     33  C   UNL A   1      34.145  32.409  27.994  1.00  0.00     0.039 A 
ATOM     34  C   UNL A   1      35.230  33.284  28.105  1.00  0.00     0.014 A 
ATOM     35  C   UNL A   1      34.292  31.069  28.363  1.00  0.00     0.014 A 
ATOM     36  C   UNL A   1      36.431  32.836  28.663  1.00  0.00     0.010 A 
ATOM     37  C   UNL A   1      35.466  30.643  28.984  1.00  0.00     0.010 A 
ATOM     38  C   UNL A   1      36.544  31.525  29.156  1.00  0.00    -0.014 A 
BRANCH  38  39
ATOM     39  C   UNL A   1      37.762  31.082  29.888  1.00  0.00     0.031 A 
ATOM     40  C   UNL A   1      38.711  30.092  29.268  1.00  0.00     0.074 A 
ATOM     41  C   UNL A   1      37.980  31.529  31.142  1.00  0.00     0.049 A 
ATOM     42  N   UNL A   1      39.782  29.540  29.781  1.00  0.00    -0.248 NA
ATOM     43  C   UNL A   1      38.402  29.649  27.901  1.00  0.00     0.031 C 
ATOM     44  C   UNL A   1      37.116  32.466  31.864  1.00  0.00     0.029 A 
ATOM     45  N   UNL A   1      38.986  31.253  32.035  1.00  0.00    -0.354 N 
ATOM     46  C   UNL A   1      40.272  28.680  28.804  1.00  0.00     0.074 A 
ATOM     47  C   UNL A   1      39.347  28.743  27.692  1.00  0.00     0.031 C 
ATOM     48  C   UNL A   1      37.642  32.706  33.075  1.00  0.00     0.029 A 
ATOM     49  C   UNL A   1      38.847  31.900  33.242  1.00  0.00     0.049 A 
ATOM     50  H   UNL A   1      39.736  30.650  31.831  1.00  0.00     0.167 HD
ATOM     51  C   UNL A   1      41.399  27.925  28.827  1.00  0.00     0.034 A 
ATOM     52  C   UNL A   1      39.590  31.838  34.365  1.00  0.00     0.034 A 
ATOM     53  C   UNL A   1      42.311  27.872  29.945  1.00  0.00     0.049 A 
ATOM     54  C   UNL A   1      40.809  30.950  34.384  1.00  0.00     0.074 A 
ATOM     55  C   UNL A   1      43.505  27.179  30.051  1.00  0.00     0.029 A 
ATOM     56  N   UNL A   1      42.126  28.523  31.159  1.00  0.00    -0.354 N 
ATOM     57  N   UNL A   1      41.287  30.182  33.432  1.00  0.00    -0.248 NA
ATOM     58  C   UNL A   1      41.593  30.927  35.626  1.00  0.00     0.031 C 
ATOM     59  C   UNL A   1      43.997  27.342  31.350  1.00  0.00     0.029 A 
ATOM     60  C   UNL A   1      43.161  28.214  32.030  1.00  0.00     0.049 A 
ATOM     61  H   UNL A   1      41.371  29.118  31.370  1.00  0.00     0.167 HD
ATOM     62  C   UNL A   1      42.445  29.609  33.952  1.00  0.00     0.074 A 
ATOM     63  C   UNL A   1      42.602  30.136  35.292  1.00  0.00     0.031 C 
ATOM     64  C   UNL A   1      43.302  28.730  33.372  1.00  0.00     0.034 A 
BRANCH  51  65
ATOM     65  C   UNL A   1      41.691  27.069  27.615  1.00  0.00     0.023 A 
ATOM     66  C   UNL A   1      41.377  25.698  27.584  1.00  0.00     0.031 A 
ATOM     67  C   UNL A   1      42.301  27.627  26.478  1.00  0.00     0.131 A 
ATOM     68  C   UNL A   1      41.740  24.920  26.475  1.00  0.00     0.055 A 
ATOM     69  C   UNL A   1      42.582  26.864  25.341  1.00  0.00     0.041 A 
ATOM     70  F   UNL A   1      42.644  28.925  26.453  1.00  0.00    -0.206 F 
ATOM     71  C   UNL A   1      42.315  25.499  25.341  1.00  0.00     0.022 A 
BRANCH  68  72
ATOM     72  S   UNL A   1      41.584  23.117  26.593  1.00  0.00     0.124 S 
ATOM     73  O   UNL A   1      40.139  22.937  26.467  1.00  0.00    -0.237 OA
ATOM     74  O   UNL A   1      42.386  22.655  25.468  1.00  0.00    -0.237 OA
ATOM     75  O   UNL A   1      42.127  22.812  27.916  1.00  0.00    -0.744 OA
ENDBRANCH  68  72
ENDBRANCH  51  65
BRANCH  52  76
ATOM     76  C   UNL A   1      39.200  32.618  35.577  1.00  0.00     0.023 A 
ATOM     77  C   UNL A   1      39.653  33.933  35.770  1.00  0.00     0.031 A 
ATOM     78  C   UNL A   1      38.405  32.041  36.585  1.00  0.00     0.131 A 
ATOM     79  C   UNL A   1      39.353  34.607  36.964  1.00  0.00     0.055 A 
ATOM     80  C   UNL A   1      38.057  32.740  37.742  1.00  0.00     0.041 A 
ATOM     81  F   UNL A   1      37.944  30.788  36.452  1.00  0.00    -0.206 F 
ATOM     82  C   UNL A   1      38.545  34.027  37.943  1.00  0.00     0.022 A 
BRANCH  79  83
ATOM     83  S   UNL A   1      40.120  36.224  37.263  1.00  0.00     0.124 S 
ATOM     84  O   UNL A   1      39.991  36.858  35.956  1.00  0.00    -0.237 OA
ATOM     85  O   UNL A   1      39.280  36.766  38.326  1.00  0.00    -0.237 OA
ATOM     86  O   UNL A   1      41.485  35.885  37.661  1.00  0.00    -0.744 OA
ENDBRANCH  79  83
ENDBRANCH  52  76
BRANCH  64  87
ATOM     87  C   UNL A   1      44.514  28.319  34.176  1.00  0.00     0.023 A 
ATOM     88  C   UNL A   1      45.709  29.060  34.150  1.00  0.00     0.031 A 
ATOM     89  C   UNL A   1      44.476  27.157  34.969  1.00  0.00     0.131 A 
ATOM     90  C   UNL A   1      46.834  28.599  34.851  1.00  0.00     0.055 A 
ATOM     91  C   UNL A   1      45.577  26.743  35.721  1.00  0.00     0.041 A 
ATOM     92  F   UNL A   1      43.365  26.407  35.030  1.00  0.00    -0.206 F 
ATOM     93  C   UNL A   1      46.770  27.456  35.653  1.00  0.00     0.022 A 
BRANCH  90  94
ATOM     94  S   UNL A   1      48.416  29.455  34.619  1.00  0.00     0.124 S 
ATOM     95  O   UNL A   1      49.276  28.769  35.578  1.00  0.00    -0.237 OA
ATOM     96  O   UNL A   1      48.705  29.204  33.211  1.00  0.00    -0.237 OA
ATOM     97  O   UNL A   1      48.106  30.845  34.948  1.00  0.00    -0.744 OA
ENDBRANCH  90  94
ENDBRANCH  64  87
ENDBRANCH  38  39
ENDBRANCH  30  33
ENDBRANCH  28  29
ENDBRANCH  27  28
ENDBRANCH   1  27
TORSDOF 19
ENDMDL
