MODEL 1
REMARK VINA RESULT:     -11.7      0.000      0.000
REMARK SMILES COc1cc(OC)nc(Oc2ccccc2C(=O)NCC(=O)NCCCCNC(=O)c2ccc(-c3c4nc(c(-c5cc(S(=O)(=O)[O-])ccc5F)c5ccc([nH]5)c(-c5cc(S(=O)(=O)[O-])ccc5F)c5nc(c(-c6cc(S(=O)(=O)[O-])ccc6F)c6ccc3[nH]6)C=C5)C=C4)cc2)n1
REMARK SMILES IDX 24 1 23 2 21 3 22 4 20 6 19 7 17 8 18 9 16 11 11 12 12 13
REMARK SMILES IDX 13 14 15 15 14 16 10 17 9 18 3 19 4 20 94 21 5 22 8 23 2 24
REMARK SMILES IDX 1 25 6 26 7 27 25 28 26 29 27 30 28 31 29 32 30 34 31 35
REMARK SMILES IDX 32 36 93 37 33 38 92 39 34 40 35 41 36 42 86 43 37 44 91 45
REMARK SMILES IDX 85 46 87 47 38 48 90 49 84 50 83 51 39 53 71 54 51 55 70 56
REMARK SMILES IDX 52 57 55 58 69 59 88 60 53 61 54 62 68 64 89 65 56 66 40 67
REMARK SMILES IDX 41 68 49 69 42 70 48 71 50 72 47 73 43 74 44 75 45 76 46 77
REMARK SMILES IDX 72 78 73 79 81 80 74 81 80 82 82 83 79 84 75 85 76 86 77 87
REMARK SMILES IDX 78 88 57 89 58 90 66 91 59 92 65 93 67 94 64 95 60 96 61 97
REMARK SMILES IDX 62 98 63 99
REMARK H PARENT 23 5 19 10 28 33 87 52 55 63
REMARK Flexibility Score: inf
ROOT
ATOM      1  C   UNL A   1      31.754  29.541  25.347  1.00  0.00     0.116 C 
ENDROOT
BRANCH   1   2
ATOM      2  N   UNL A   1      32.937  29.715  24.540  1.00  0.00    -0.355 N 
ATOM      3  C   UNL A   1      33.363  28.890  23.544  1.00  0.00     0.239 C 
ATOM      4  O   UNL A   1      34.509  29.024  23.111  1.00  0.00    -0.273 OA
ATOM      5  H   UNL A   1      33.489  30.508  24.727  1.00  0.00     0.163 HD
BRANCH   3   6
ATOM      6  C   UNL A   1      32.334  28.028  22.825  1.00  0.00     0.216 C 
BRANCH   6   7
ATOM      7  N   UNL A   1      32.603  26.717  22.267  1.00  0.00    -0.343 N 
ATOM      8  C   UNL A   1      32.118  25.460  22.539  1.00  0.00     0.255 C 
ATOM      9  O   UNL A   1      32.292  24.628  21.640  1.00  0.00    -0.269 OA
ATOM     10  H   UNL A   1      33.271  26.730  21.544  1.00  0.00     0.164 HD
BRANCH   8  11
ATOM     11  C   UNL A   1      31.599  24.963  23.860  1.00  0.00     0.082 A 
ATOM     12  C   UNL A   1      31.432  23.669  24.380  1.00  0.00     0.143 A 
ATOM     13  C   UNL A   1      30.770  23.496  25.620  1.00  0.00     0.048 A 
ATOM     14  C   UNL A   1      30.345  24.574  26.390  1.00  0.00     0.004 A 
ATOM     15  C   UNL A   1      31.183  26.043  24.687  1.00  0.00     0.018 A 
ATOM     16  C   UNL A   1      30.573  25.858  25.931  1.00  0.00     0.001 A 
BRANCH  12  17
ATOM     17  O   UNL A   1      31.737  22.442  23.846  1.00  0.00    -0.423 OA
BRANCH  17  18
ATOM     18  C   UNL A   1      32.574  21.561  24.495  1.00  0.00     0.328 A 
ATOM     19  C   UNL A   1      32.717  19.382  25.124  1.00  0.00     0.223 A 
ATOM     20  C   UNL A   1      34.090  19.444  25.105  1.00  0.00     0.137 A 
ATOM     21  N   UNL A   1      31.946  20.438  24.865  1.00  0.00    -0.159 NA
ATOM     22  C   UNL A   1      34.635  20.681  24.819  1.00  0.00     0.223 A 
ATOM     23  N   UNL A   1      33.892  21.750  24.496  1.00  0.00    -0.159 NA
BRANCH  19  24
ATOM     24  O   UNL A   1      32.020  18.207  25.125  1.00  0.00    -0.481 OA
ATOM     25  C   UNL A   1      32.809  17.030  25.109  1.00  0.00     0.280 C 
ENDBRANCH  19  24
BRANCH  22  26
ATOM     26  O   UNL A   1      35.970  20.948  24.741  1.00  0.00    -0.481 OA
ATOM     27  C   UNL A   1      36.451  22.055  25.484  1.00  0.00     0.280 C 
ENDBRANCH  22  26
ENDBRANCH  17  18
ENDBRANCH  12  17
ENDBRANCH   8  11
ENDBRANCH   6   7
ENDBRANCH   3   6
ENDBRANCH   1   2
BRANCH   1  28
ATOM     28  C   UNL A   1      32.006  30.102  26.742  1.00  0.00     0.023 C 
BRANCH  28  29
ATOM     29  C   UNL A   1      31.791  31.617  26.814  1.00  0.00     0.023 C 
BRANCH  29  30
ATOM     30  C   UNL A   1      32.983  32.383  27.371  1.00  0.00     0.116 C 
BRANCH  30  31
ATOM     31  N   UNL A   1      32.652  33.772  27.643  1.00  0.00    -0.352 N 
ATOM     32  C   UNL A   1      33.152  34.588  28.629  1.00  0.00     0.251 C 
ATOM     33  H   UNL A   1      31.987  34.180  27.044  1.00  0.00     0.163 HD
ATOM     34  O   UNL A   1      32.638  35.671  28.852  1.00  0.00    -0.269 OA
BRANCH  32  35
ATOM     35  C   UNL A   1      34.297  34.105  29.428  1.00  0.00     0.039 A 
ATOM     36  C   UNL A   1      34.042  33.400  30.603  1.00  0.00     0.014 A 
ATOM     37  C   UNL A   1      35.607  34.304  28.983  1.00  0.00     0.014 A 
ATOM     38  C   UNL A   1      35.107  32.845  31.309  1.00  0.00     0.010 A 
ATOM     39  C   UNL A   1      36.660  33.682  29.646  1.00  0.00     0.010 A 
ATOM     40  C   UNL A   1      36.421  32.949  30.817  1.00  0.00    -0.014 A 
BRANCH  40  41
ATOM     41  C   UNL A   1      37.546  32.284  31.521  1.00  0.00     0.031 A 
ATOM     42  C   UNL A   1      38.318  31.184  30.847  1.00  0.00     0.074 A 
ATOM     43  C   UNL A   1      37.843  32.653  32.783  1.00  0.00     0.049 A 
ATOM     44  N   UNL A   1      39.324  30.484  31.302  1.00  0.00    -0.248 NA
ATOM     45  C   UNL A   1      37.884  30.801  29.495  1.00  0.00     0.031 C 
ATOM     46  C   UNL A   1      37.125  33.672  33.556  1.00  0.00     0.029 A 
ATOM     47  N   UNL A   1      38.824  32.222  33.640  1.00  0.00    -0.354 N 
ATOM     48  C   UNL A   1      39.641  29.576  30.298  1.00  0.00     0.074 A 
ATOM     49  C   UNL A   1      38.677  29.772  29.237  1.00  0.00     0.031 C 
ATOM     50  C   UNL A   1      37.712  33.809  34.755  1.00  0.00     0.029 A 
ATOM     51  C   UNL A   1      38.816  32.861  34.858  1.00  0.00     0.049 A 
ATOM     52  H   UNL A   1      39.474  31.521  33.404  1.00  0.00     0.167 HD
ATOM     53  C   UNL A   1      40.657  28.679  30.257  1.00  0.00     0.034 A 
ATOM     54  C   UNL A   1      39.602  32.695  35.940  1.00  0.00     0.034 A 
ATOM     55  C   UNL A   1      41.612  28.505  31.324  1.00  0.00     0.049 A 
ATOM     56  C   UNL A   1      40.716  31.681  35.872  1.00  0.00     0.074 A 
ATOM     57  C   UNL A   1      42.718  27.673  31.363  1.00  0.00     0.029 A 
ATOM     58  N   UNL A   1      41.571  29.163  32.547  1.00  0.00    -0.354 N 
ATOM     59  N   UNL A   1      41.048  30.882  34.884  1.00  0.00    -0.248 NA
ATOM     60  C   UNL A   1      41.570  31.557  37.060  1.00  0.00     0.031 C 
ATOM     61  C   UNL A   1      43.296  27.768  32.633  1.00  0.00     0.029 A 
ATOM     62  C   UNL A   1      42.607  28.727  33.360  1.00  0.00     0.049 A 
ATOM     63  H   UNL A   1      40.904  29.842  32.801  1.00  0.00     0.167 HD
ATOM     64  C   UNL A   1      42.167  30.180  35.325  1.00  0.00     0.074 A 
ATOM     65  C   UNL A   1      42.468  30.673  36.653  1.00  0.00     0.031 C 
ATOM     66  C   UNL A   1      42.881  29.212  34.693  1.00  0.00     0.034 A 
BRANCH  53  67
ATOM     67  C   UNL A   1      40.767  27.801  29.032  1.00  0.00     0.023 A 
ATOM     68  C   UNL A   1      41.676  28.080  27.997  1.00  0.00     0.031 A 
ATOM     69  C   UNL A   1      39.944  26.668  28.896  1.00  0.00     0.131 A 
ATOM     70  C   UNL A   1      41.696  27.278  26.845  1.00  0.00     0.055 A 
ATOM     71  C   UNL A   1      40.025  25.828  27.783  1.00  0.00     0.041 A 
ATOM     72  F   UNL A   1      39.039  26.362  29.838  1.00  0.00    -0.206 F 
ATOM     73  C   UNL A   1      40.896  26.138  26.744  1.00  0.00     0.022 A 
BRANCH  70  74
ATOM     74  S   UNL A   1      42.685  27.822  25.426  1.00  0.00     0.124 S 
ATOM     75  O   UNL A   1      43.947  28.187  26.066  1.00  0.00    -0.237 OA
ATOM     76  O   UNL A   1      42.716  26.629  24.587  1.00  0.00    -0.237 OA
ATOM     77  O   UNL A   1      41.922  28.945  24.886  1.00  0.00    -0.744 OA
ENDBRANCH  70  74
ENDBRANCH  53  67
BRANCH  54  78
ATOM     78  C   UNL A   1      39.365  33.488  37.182  1.00  0.00     0.023 A 
ATOM     79  C   UNL A   1      40.024  34.706  37.405  1.00  0.00     0.031 A 
ATOM     80  C   UNL A   1      38.513  33.007  38.193  1.00  0.00     0.131 A 
ATOM     81  C   UNL A   1      39.868  35.374  38.631  1.00  0.00     0.055 A 
ATOM     82  C   UNL A   1      38.311  33.705  39.385  1.00  0.00     0.041 A 
ATOM     83  F   UNL A   1      37.854  31.848  38.033  1.00  0.00    -0.206 F 
ATOM     84  C   UNL A   1      39.005  34.889  39.616  1.00  0.00     0.022 A 
BRANCH  81  85
ATOM     85  S   UNL A   1      40.895  36.832  38.964  1.00  0.00     0.124 S 
ATOM     86  O   UNL A   1      39.895  37.891  39.029  1.00  0.00    -0.237 OA
ATOM     87  O   UNL A   1      41.532  36.471  40.226  1.00  0.00    -0.237 OA
ATOM     88  O   UNL A   1      41.791  36.887  37.811  1.00  0.00    -0.744 OA
ENDBRANCH  81  85
ENDBRANCH  54  78
BRANCH  66  89
ATOM     89  C   UNL A   1      44.077  28.656  35.430  1.00  0.00     0.023 A 
ATOM     90  C   UNL A   1      43.957  27.576  36.323  1.00  0.00     0.031 A 
ATOM     91  C   UNL A   1      45.347  29.237  35.264  1.00  0.00     0.131 A 
ATOM     92  C   UNL A   1      45.068  27.162  37.072  1.00  0.00     0.055 A 
ATOM     93  C   UNL A   1      46.465  28.770  35.957  1.00  0.00     0.041 A 
ATOM     94  F   UNL A   1      45.522  30.273  34.429  1.00  0.00    -0.206 F 
ATOM     95  C   UNL A   1      46.325  27.738  36.881  1.00  0.00     0.022 A 
BRANCH  92  96
ATOM     96  S   UNL A   1      44.817  25.944  38.393  1.00  0.00     0.124 S 
ATOM     97  O   UNL A   1      46.065  26.051  39.144  1.00  0.00    -0.237 OA
ATOM     98  O   UNL A   1      43.625  26.452  39.064  1.00  0.00    -0.237 OA
ATOM     99  O   UNL A   1      44.634  24.687  37.670  1.00  0.00    -0.744 OA
ENDBRANCH  92  96
ENDBRANCH  66  89
ENDBRANCH  40  41
ENDBRANCH  32  35
ENDBRANCH  30  31
ENDBRANCH  29  30
ENDBRANCH  28  29
ENDBRANCH   1  28
TORSDOF 20
ENDMDL
MODEL 2
REMARK VINA RESULT:     -11.6      2.174      7.746
REMARK SMILES COc1cc(OC)nc(Oc2ccccc2C(=O)NCC(=O)NCCCCNC(=O)c2ccc(-c3c4nc(c(-c5cc(S(=O)(=O)[O-])ccc5F)c5ccc([nH]5)c(-c5cc(S(=O)(=O)[O-])ccc5F)c5nc(c(-c6cc(S(=O)(=O)[O-])ccc6F)c6ccc3[nH]6)C=C5)C=C4)cc2)n1
REMARK SMILES IDX 24 1 23 2 21 3 22 4 20 6 19 7 17 8 18 9 16 11 11 12 12 13
REMARK SMILES IDX 13 14 15 15 14 16 10 17 9 18 3 19 4 20 94 21 5 22 8 23 2 24
REMARK SMILES IDX 1 25 6 26 7 27 25 28 26 29 27 30 28 31 29 32 30 34 31 35
REMARK SMILES IDX 32 36 93 37 33 38 92 39 34 40 35 41 36 42 86 43 37 44 91 45
REMARK SMILES IDX 85 46 87 47 38 48 90 49 84 50 83 51 39 53 71 54 51 55 70 56
REMARK SMILES IDX 52 57 55 58 69 59 88 60 53 61 54 62 68 64 89 65 56 66 40 67
REMARK SMILES IDX 41 68 49 69 42 70 48 71 50 72 47 73 43 74 44 75 45 76 46 77
REMARK SMILES IDX 72 78 73 79 81 80 74 81 80 82 82 83 79 84 75 85 76 86 77 87
REMARK SMILES IDX 78 88 57 89 58 90 66 91 59 92 65 93 67 94 64 95 60 96 61 97
REMARK SMILES IDX 62 98 63 99
REMARK H PARENT 23 5 19 10 28 33 87 52 55 63
REMARK Flexibility Score: inf
ROOT
ATOM      1  C   UNL A   1      30.952  29.443  24.677  1.00  0.00     0.116 C 
ENDROOT
BRANCH   1   2
ATOM      2  N   UNL A   1      30.231  29.892  23.512  1.00  0.00    -0.355 N 
ATOM      3  C   UNL A   1      30.229  29.298  22.287  1.00  0.00     0.239 C 
ATOM      4  O   UNL A   1      29.773  29.920  21.325  1.00  0.00    -0.273 OA
ATOM      5  H   UNL A   1      29.688  30.707  23.611  1.00  0.00     0.163 HD
BRANCH   3   6
ATOM      6  C   UNL A   1      30.529  27.807  22.201  1.00  0.00     0.216 C 
BRANCH   6   7
ATOM      7  N   UNL A   1      31.748  27.242  21.654  1.00  0.00    -0.343 N 
ATOM      8  C   UNL A   1      32.731  26.438  22.177  1.00  0.00     0.255 C 
ATOM      9  O   UNL A   1      33.430  25.856  21.339  1.00  0.00    -0.269 OA
ATOM     10  H   UNL A   1      31.901  27.486  20.712  1.00  0.00     0.164 HD
BRANCH   8  11
ATOM     11  C   UNL A   1      33.158  26.361  23.617  1.00  0.00     0.082 A 
ATOM     12  C   UNL A   1      33.049  25.344  24.580  1.00  0.00     0.143 A 
ATOM     13  C   UNL A   1      33.415  25.611  25.921  1.00  0.00     0.048 A 
ATOM     14  C   UNL A   1      33.958  26.831  26.313  1.00  0.00     0.004 A 
ATOM     15  C   UNL A   1      33.748  27.584  24.044  1.00  0.00     0.018 A 
ATOM     16  C   UNL A   1      34.147  27.817  25.363  1.00  0.00     0.001 A 
BRANCH  12  17
ATOM     17  O   UNL A   1      32.548  24.070  24.484  1.00  0.00    -0.423 OA
BRANCH  17  18
ATOM     18  C   UNL A   1      33.273  22.976  24.905  1.00  0.00     0.328 A 
ATOM     19  C   UNL A   1      33.081  20.735  25.231  1.00  0.00     0.223 A 
ATOM     20  C   UNL A   1      34.432  20.570  25.043  1.00  0.00     0.137 A 
ATOM     21  N   UNL A   1      32.492  21.931  25.208  1.00  0.00    -0.159 NA
ATOM     22  C   UNL A   1      35.160  21.727  24.848  1.00  0.00     0.223 A 
ATOM     23  N   UNL A   1      34.597  22.940  24.759  1.00  0.00    -0.159 NA
BRANCH  19  24
ATOM     24  O   UNL A   1      32.184  19.706  25.173  1.00  0.00    -0.481 OA
ATOM     25  C   UNL A   1      32.490  18.683  24.242  1.00  0.00     0.280 C 
ENDBRANCH  19  24
BRANCH  22  26
ATOM     26  O   UNL A   1      36.507  21.776  24.633  1.00  0.00    -0.481 OA
ATOM     27  C   UNL A   1      37.239  20.583  24.856  1.00  0.00     0.280 C 
ENDBRANCH  22  26
ENDBRANCH  17  18
ENDBRANCH  12  17
ENDBRANCH   8  11
ENDBRANCH   6   7
ENDBRANCH   3   6
ENDBRANCH   1   2
BRANCH   1  28
ATOM     28  C   UNL A   1      31.377  30.651  25.505  1.00  0.00     0.023 C 
BRANCH  28  29
ATOM     29  C   UNL A   1      31.892  30.259  26.894  1.00  0.00     0.023 C 
BRANCH  29  30
ATOM     30  C   UNL A   1      33.186  30.955  27.291  1.00  0.00     0.116 C 
BRANCH  30  31
ATOM     31  N   UNL A   1      33.015  32.394  27.398  1.00  0.00    -0.352 N 
ATOM     32  C   UNL A   1      33.742  33.284  28.151  1.00  0.00     0.251 C 
ATOM     33  H   UNL A   1      32.286  32.781  26.862  1.00  0.00     0.163 HD
ATOM     34  O   UNL A   1      33.359  34.434  28.288  1.00  0.00    -0.269 OA
BRANCH  32  35
ATOM     35  C   UNL A   1      34.971  32.803  28.815  1.00  0.00     0.039 A 
ATOM     36  C   UNL A   1      34.849  32.030  29.968  1.00  0.00     0.014 A 
ATOM     37  C   UNL A   1      36.228  33.073  28.263  1.00  0.00     0.014 A 
ATOM     38  C   UNL A   1      35.993  31.479  30.543  1.00  0.00     0.010 A 
ATOM     39  C   UNL A   1      37.357  32.457  28.792  1.00  0.00     0.010 A 
ATOM     40  C   UNL A   1      37.251  31.657  29.939  1.00  0.00    -0.014 A 
BRANCH  40  41
ATOM     41  C   UNL A   1      38.458  30.998  30.501  1.00  0.00     0.031 A 
ATOM     42  C   UNL A   1      39.010  31.434  31.830  1.00  0.00     0.074 A 
ATOM     43  C   UNL A   1      39.070  30.031  29.790  1.00  0.00     0.049 A 
ATOM     44  N   UNL A   1      40.053  30.984  32.477  1.00  0.00    -0.248 NA
ATOM     45  C   UNL A   1      38.316  32.541  32.506  1.00  0.00     0.031 C 
ATOM     46  C   UNL A   1      38.654  29.565  28.464  1.00  0.00     0.029 A 
ATOM     47  N   UNL A   1      40.169  29.262  30.078  1.00  0.00    -0.354 N 
ATOM     48  C   UNL A   1      40.144  31.752  33.632  1.00  0.00     0.074 A 
ATOM     49  C   UNL A   1      39.089  32.740  33.563  1.00  0.00     0.031 C 
ATOM     50  C   UNL A   1      39.464  28.570  28.072  1.00  0.00     0.029 A 
ATOM     51  C   UNL A   1      40.485  28.356  29.092  1.00  0.00     0.049 A 
ATOM     52  H   UNL A   1      40.684  29.350  30.913  1.00  0.00     0.167 HD
ATOM     53  C   UNL A   1      41.014  31.629  34.665  1.00  0.00     0.034 A 
ATOM     54  C   UNL A   1      41.490  27.460  29.013  1.00  0.00     0.034 A 
ATOM     55  C   UNL A   1      42.055  30.631  34.717  1.00  0.00     0.049 A 
ATOM     56  C   UNL A   1      42.451  27.353  30.171  1.00  0.00     0.074 A 
ATOM     57  C   UNL A   1      42.950  30.373  35.741  1.00  0.00     0.029 A 
ATOM     58  N   UNL A   1      42.352  29.733  33.699  1.00  0.00    -0.354 N 
ATOM     59  N   UNL A   1      42.477  28.038  31.291  1.00  0.00    -0.248 NA
ATOM     60  C   UNL A   1      43.508  26.341  30.059  1.00  0.00     0.031 C 
ATOM     61  C   UNL A   1      43.836  29.379  35.312  1.00  0.00     0.029 A 
ATOM     62  C   UNL A   1      43.440  28.950  34.055  1.00  0.00     0.049 A 
ATOM     63  H   UNL A   1      41.861  29.662  32.848  1.00  0.00     0.167 HD
ATOM     64  C   UNL A   1      43.539  27.520  32.027  1.00  0.00     0.074 A 
ATOM     65  C   UNL A   1      44.105  26.447  31.236  1.00  0.00     0.031 C 
ATOM     66  C   UNL A   1      44.008  27.897  33.245  1.00  0.00     0.034 A 
BRANCH  53  67
ATOM     67  C   UNL A   1      40.893  32.614  35.804  1.00  0.00     0.023 A 
ATOM     68  C   UNL A   1      41.759  33.715  35.930  1.00  0.00     0.031 A 
ATOM     69  C   UNL A   1      39.899  32.445  36.785  1.00  0.00     0.131 A 
ATOM     70  C   UNL A   1      41.656  34.565  37.042  1.00  0.00     0.055 A 
ATOM     71  C   UNL A   1      39.751  33.341  37.846  1.00  0.00     0.041 A 
ATOM     72  F   UNL A   1      39.058  31.400  36.734  1.00  0.00    -0.206 F 
ATOM     73  C   UNL A   1      40.641  34.401  37.986  1.00  0.00     0.022 A 
BRANCH  70  74
ATOM     74  S   UNL A   1      42.951  35.807  37.308  1.00  0.00     0.124 S 
ATOM     75  O   UNL A   1      42.519  36.880  36.414  1.00  0.00    -0.237 OA
ATOM     76  O   UNL A   1      42.837  36.081  38.735  1.00  0.00    -0.237 OA
ATOM     77  O   UNL A   1      44.174  35.120  36.899  1.00  0.00    -0.744 OA
ENDBRANCH  70  74
ENDBRANCH  53  67
BRANCH  54  78
ATOM     78  C   UNL A   1      41.653  26.605  27.802  1.00  0.00     0.023 A 
ATOM     79  C   UNL A   1      41.233  25.266  27.793  1.00  0.00     0.031 A 
ATOM     80  C   UNL A   1      42.288  27.102  26.648  1.00  0.00     0.131 A 
ATOM     81  C   UNL A   1      41.502  24.454  26.679  1.00  0.00     0.055 A 
ATOM     82  C   UNL A   1      42.497  26.308  25.519  1.00  0.00     0.041 A 
ATOM     83  F   UNL A   1      42.709  28.376  26.599  1.00  0.00    -0.206 F 
ATOM     84  C   UNL A   1      42.118  24.970  25.537  1.00  0.00     0.022 A 
BRANCH  81  85
ATOM     85  S   UNL A   1      41.132  22.681  26.787  1.00  0.00     0.124 S 
ATOM     86  O   UNL A   1      41.747  22.174  25.566  1.00  0.00    -0.237 OA
ATOM     87  O   UNL A   1      41.787  22.311  28.037  1.00  0.00    -0.237 OA
ATOM     88  O   UNL A   1      39.671  22.639  26.815  1.00  0.00    -0.744 OA
ENDBRANCH  81  85
ENDBRANCH  54  78
BRANCH  66  89
ATOM     89  C   UNL A   1      45.173  27.110  33.800  1.00  0.00     0.023 A 
ATOM     90  C   UNL A   1      44.979  25.955  34.580  1.00  0.00     0.031 A 
ATOM     91  C   UNL A   1      46.492  27.541  33.577  1.00  0.00     0.131 A 
ATOM     92  C   UNL A   1      46.079  25.318  35.170  1.00  0.00     0.055 A 
ATOM     93  C   UNL A   1      47.588  26.857  34.105  1.00  0.00     0.041 A 
ATOM     94  F   UNL A   1      46.739  28.638  32.844  1.00  0.00    -0.206 F 
ATOM     95  C   UNL A   1      47.384  25.749  34.923  1.00  0.00     0.022 A 
BRANCH  92  96
ATOM     96  S   UNL A   1      45.772  23.994  36.372  1.00  0.00     0.124 S 
ATOM     97  O   UNL A   1      44.833  23.142  35.650  1.00  0.00    -0.237 OA
ATOM     98  O   UNL A   1      47.107  23.442  36.575  1.00  0.00    -0.237 OA
ATOM     99  O   UNL A   1      45.212  24.700  37.524  1.00  0.00    -0.744 OA
ENDBRANCH  92  96
ENDBRANCH  66  89
ENDBRANCH  40  41
ENDBRANCH  32  35
ENDBRANCH  30  31
ENDBRANCH  29  30
ENDBRANCH  28  29
ENDBRANCH   1  28
TORSDOF 20
ENDMDL
MODEL 3
REMARK VINA RESULT:     -11.5      6.038     10.501
REMARK SMILES COc1cc(OC)nc(Oc2ccccc2C(=O)NCC(=O)NCCCCNC(=O)c2ccc(-c3c4nc(c(-c5cc(S(=O)(=O)[O-])ccc5F)c5ccc([nH]5)c(-c5cc(S(=O)(=O)[O-])ccc5F)c5nc(c(-c6cc(S(=O)(=O)[O-])ccc6F)c6ccc3[nH]6)C=C5)C=C4)cc2)n1
REMARK SMILES IDX 24 1 23 2 21 3 22 4 20 6 19 7 17 8 18 9 16 11 11 12 12 13
REMARK SMILES IDX 13 14 15 15 14 16 10 17 9 18 3 19 4 20 94 21 5 22 8 23 2 24
REMARK SMILES IDX 1 25 6 26 7 27 25 28 26 29 27 30 28 31 29 32 30 34 31 35
REMARK SMILES IDX 32 36 93 37 33 38 92 39 34 40 35 41 36 42 86 43 37 44 91 45
REMARK SMILES IDX 85 46 87 47 38 48 90 49 84 50 83 51 39 53 71 54 51 55 70 56
REMARK SMILES IDX 52 57 55 58 69 59 88 60 53 61 54 62 68 64 89 65 56 66 40 67
REMARK SMILES IDX 41 68 49 69 42 70 48 71 50 72 47 73 43 74 44 75 45 76 46 77
REMARK SMILES IDX 72 78 73 79 81 80 74 81 80 82 82 83 79 84 75 85 76 86 77 87
REMARK SMILES IDX 78 88 57 89 58 90 66 91 59 92 65 93 67 94 64 95 60 96 61 97
REMARK SMILES IDX 62 98 63 99
REMARK H PARENT 23 5 19 10 28 33 87 52 55 63
REMARK Flexibility Score: inf
ROOT
ATOM      1  C   UNL A   1      39.585  21.598  26.224  1.00  0.00     0.116 C 
ENDROOT
BRANCH   1   2
ATOM      2  N   UNL A   1      39.419  22.879  26.865  1.00  0.00    -0.355 N 
ATOM      3  C   UNL A   1      38.514  23.839  26.528  1.00  0.00     0.239 C 
ATOM      4  O   UNL A   1      38.648  24.972  26.994  1.00  0.00    -0.273 OA
ATOM      5  H   UNL A   1      40.018  23.079  27.620  1.00  0.00     0.163 HD
BRANCH   3   6
ATOM      6  C   UNL A   1      37.235  23.414  25.819  1.00  0.00     0.216 C 
BRANCH   6   7
ATOM      7  N   UNL A   1      36.110  24.290  25.554  1.00  0.00    -0.343 N 
ATOM      8  C   UNL A   1      34.760  24.074  25.417  1.00  0.00     0.255 C 
ATOM      9  O   UNL A   1      34.053  25.079  25.555  1.00  0.00    -0.269 OA
ATOM     10  H   UNL A   1      36.367  25.235  25.452  1.00  0.00     0.164 HD
BRANCH   8  11
ATOM     11  C   UNL A   1      34.096  22.816  24.926  1.00  0.00     0.082 A 
ATOM     12  C   UNL A   1      33.634  22.427  23.658  1.00  0.00     0.143 A 
ATOM     13  C   UNL A   1      32.905  21.221  23.522  1.00  0.00     0.048 A 
ATOM     14  C   UNL A   1      32.694  20.357  24.592  1.00  0.00     0.004 A 
ATOM     15  C   UNL A   1      33.893  21.895  25.991  1.00  0.00     0.018 A 
ATOM     16  C   UNL A   1      33.211  20.685  25.831  1.00  0.00     0.001 A 
BRANCH  12  17
ATOM     17  O   UNL A   1      33.687  23.072  22.449  1.00  0.00    -0.423 OA
BRANCH  17  18
ATOM     18  C   UNL A   1      33.062  24.285  22.250  1.00  0.00     0.328 A 
ATOM     19  C   UNL A   1      31.262  25.490  22.938  1.00  0.00     0.223 A 
ATOM     20  C   UNL A   1      31.907  26.666  22.637  1.00  0.00     0.137 A 
ATOM     21  N   UNL A   1      31.805  24.294  22.712  1.00  0.00    -0.159 NA
ATOM     22  C   UNL A   1      33.157  26.539  22.061  1.00  0.00     0.223 A 
ATOM     23  N   UNL A   1      33.759  25.355  21.873  1.00  0.00    -0.159 NA
BRANCH  19  24
ATOM     24  O   UNL A   1      30.158  25.425  23.739  1.00  0.00    -0.481 OA
ATOM     25  C   UNL A   1      29.462  26.645  23.918  1.00  0.00     0.280 C 
ENDBRANCH  19  24
BRANCH  22  26
ATOM     26  O   UNL A   1      33.960  27.580  21.700  1.00  0.00    -0.481 OA
ATOM     27  C   UNL A   1      34.191  28.585  22.673  1.00  0.00     0.280 C 
ENDBRANCH  22  26
ENDBRANCH  17  18
ENDBRANCH  12  17
ENDBRANCH   8  11
ENDBRANCH   6   7
ENDBRANCH   3   6
ENDBRANCH   1   2
BRANCH   1  28
ATOM     28  C   UNL A   1      40.687  20.817  26.931  1.00  0.00     0.023 C 
BRANCH  28  29
ATOM     29  C   UNL A   1      41.169  19.613  26.117  1.00  0.00     0.023 C 
BRANCH  29  30
ATOM     30  C   UNL A   1      42.576  19.152  26.471  1.00  0.00     0.116 C 
BRANCH  30  31
ATOM     31  N   UNL A   1      43.402  18.979  25.287  1.00  0.00    -0.352 N 
ATOM     32  C   UNL A   1      44.077  19.939  24.572  1.00  0.00     0.251 C 
ATOM     33  H   UNL A   1      43.488  18.056  24.956  1.00  0.00     0.163 HD
ATOM     34  O   UNL A   1      44.571  19.668  23.491  1.00  0.00    -0.269 OA
BRANCH  32  35
ATOM     35  C   UNL A   1      44.156  21.304  25.130  1.00  0.00     0.039 A 
ATOM     36  C   UNL A   1      44.892  21.508  26.296  1.00  0.00     0.014 A 
ATOM     37  C   UNL A   1      43.550  22.377  24.470  1.00  0.00     0.014 A 
ATOM     38  C   UNL A   1      45.066  22.806  26.774  1.00  0.00     0.010 A 
ATOM     39  C   UNL A   1      43.791  23.676  24.904  1.00  0.00     0.010 A 
ATOM     40  C   UNL A   1      44.548  23.903  26.062  1.00  0.00    -0.014 A 
BRANCH  40  41
ATOM     41  C   UNL A   1      44.807  25.291  26.522  1.00  0.00     0.031 A 
ATOM     42  C   UNL A   1      46.177  25.895  26.378  1.00  0.00     0.074 A 
ATOM     43  C   UNL A   1      43.809  25.989  27.100  1.00  0.00     0.049 A 
ATOM     44  N   UNL A   1      46.594  27.084  26.725  1.00  0.00    -0.248 NA
ATOM     45  C   UNL A   1      47.221  25.039  25.795  1.00  0.00     0.031 C 
ATOM     46  C   UNL A   1      42.454  25.484  27.341  1.00  0.00     0.029 A 
ATOM     47  N   UNL A   1      43.774  27.271  27.589  1.00  0.00    -0.354 N 
ATOM     48  C   UNL A   1      47.948  27.119  26.407  1.00  0.00     0.074 A 
ATOM     49  C   UNL A   1      48.293  25.809  25.902  1.00  0.00     0.031 C 
ATOM     50  C   UNL A   1      41.715  26.456  27.898  1.00  0.00     0.029 A 
ATOM     51  C   UNL A   1      42.549  27.636  28.098  1.00  0.00     0.049 A 
ATOM     52  H   UNL A   1      44.553  27.873  27.577  1.00  0.00     0.167 HD
ATOM     53  C   UNL A   1      48.814  28.157  26.508  1.00  0.00     0.034 A 
ATOM     54  C   UNL A   1      42.145  28.788  28.670  1.00  0.00     0.034 A 
ATOM     55  C   UNL A   1      48.446  29.459  27.009  1.00  0.00     0.049 A 
ATOM     56  C   UNL A   1      43.133  29.922  28.781  1.00  0.00     0.074 A 
ATOM     57  C   UNL A   1      49.224  30.601  27.094  1.00  0.00     0.029 A 
ATOM     58  N   UNL A   1      47.198  29.794  27.522  1.00  0.00    -0.354 N 
ATOM     59  N   UNL A   1      44.392  29.962  28.406  1.00  0.00    -0.248 NA
ATOM     60  C   UNL A   1      42.642  31.169  29.378  1.00  0.00     0.031 C 
ATOM     61  C   UNL A   1      48.476  31.597  27.731  1.00  0.00     0.029 A 
ATOM     62  C   UNL A   1      47.200  31.109  27.962  1.00  0.00     0.049 A 
ATOM     63  H   UNL A   1      46.425  29.185  27.567  1.00  0.00     0.167 HD
ATOM     64  C   UNL A   1      44.833  31.250  28.700  1.00  0.00     0.074 A 
ATOM     65  C   UNL A   1      43.697  31.959  29.254  1.00  0.00     0.031 C 
ATOM     66  C   UNL A   1      46.064  31.797  28.533  1.00  0.00     0.034 A 
BRANCH  53  67
ATOM     67  C   UNL A   1      50.247  27.916  26.095  1.00  0.00     0.023 A 
ATOM     68  C   UNL A   1      50.664  28.030  24.757  1.00  0.00     0.031 A 
ATOM     69  C   UNL A   1      51.212  27.560  27.055  1.00  0.00     0.131 A 
ATOM     70  C   UNL A   1      51.989  27.728  24.407  1.00  0.00     0.055 A 
ATOM     71  C   UNL A   1      52.547  27.339  26.712  1.00  0.00     0.041 A 
ATOM     72  F   UNL A   1      50.871  27.411  28.345  1.00  0.00    -0.206 F 
ATOM     73  C   UNL A   1      52.940  27.410  25.379  1.00  0.00     0.022 A 
BRANCH  70  74
ATOM     74  S   UNL A   1      52.421  27.626  22.648  1.00  0.00     0.124 S 
ATOM     75  O   UNL A   1      53.576  26.732  22.679  1.00  0.00    -0.237 OA
ATOM     76  O   UNL A   1      51.206  27.080  22.056  1.00  0.00    -0.237 OA
ATOM     77  O   UNL A   1      52.724  29.010  22.289  1.00  0.00    -0.744 OA
ENDBRANCH  70  74
ENDBRANCH  53  67
BRANCH  54  78
ATOM     78  C   UNL A   1      40.756  28.931  29.194  1.00  0.00     0.023 A 
ATOM     79  C   UNL A   1      40.492  28.920  30.573  1.00  0.00     0.031 A 
ATOM     80  C   UNL A   1      39.660  29.024  28.316  1.00  0.00     0.131 A 
ATOM     81  C   UNL A   1      39.166  28.942  31.033  1.00  0.00     0.055 A 
ATOM     82  C   UNL A   1      38.346  29.111  28.781  1.00  0.00     0.041 A 
ATOM     83  F   UNL A   1      39.852  29.042  26.988  1.00  0.00    -0.206 F 
ATOM     84  C   UNL A   1      38.092  29.053  30.147  1.00  0.00     0.022 A 
BRANCH  81  85
ATOM     85  S   UNL A   1      38.858  28.716  32.807  1.00  0.00     0.124 S 
ATOM     86  O   UNL A   1      39.897  27.759  33.169  1.00  0.00    -0.237 OA
ATOM     87  O   UNL A   1      39.027  30.072  33.318  1.00  0.00    -0.237 OA
ATOM     88  O   UNL A   1      37.491  28.202  32.852  1.00  0.00    -0.744 OA
ENDBRANCH  81  85
ENDBRANCH  54  78
BRANCH  66  89
ATOM     89  C   UNL A   1      46.225  33.248  28.926  1.00  0.00     0.023 A 
ATOM     90  C   UNL A   1      45.837  34.292  28.067  1.00  0.00     0.031 A 
ATOM     91  C   UNL A   1      46.805  33.590  30.159  1.00  0.00     0.131 A 
ATOM     92  C   UNL A   1      46.105  35.622  28.419  1.00  0.00     0.055 A 
ATOM     93  C   UNL A   1      47.000  34.919  30.537  1.00  0.00     0.041 A 
ATOM     94  F   UNL A   1      47.198  32.637  31.019  1.00  0.00    -0.206 F 
ATOM     95  C   UNL A   1      46.666  35.945  29.656  1.00  0.00     0.022 A 
BRANCH  92  96
ATOM     96  S   UNL A   1      45.829  36.920  27.181  1.00  0.00     0.124 S 
ATOM     97  O   UNL A   1      46.789  36.558  26.143  1.00  0.00    -0.237 OA
ATOM     98  O   UNL A   1      44.422  36.733  26.842  1.00  0.00    -0.237 OA
ATOM     99  O   UNL A   1      46.133  38.154  27.905  1.00  0.00    -0.744 OA
ENDBRANCH  92  96
ENDBRANCH  66  89
ENDBRANCH  40  41
ENDBRANCH  32  35
ENDBRANCH  30  31
ENDBRANCH  29  30
ENDBRANCH  28  29
ENDBRANCH   1  28
TORSDOF 20
ENDMDL
