MODEL 1
REMARK VINA RESULT:     -11.7      0.000      0.000
REMARK SMILES CC(C)[C@H]1CC[C@@H](C)/C(=C/c2ccc(NC(=O)CCC(=O)NCCCCNC(=O)c3ccc(-c4c5nc(c(-c6cc(S(=O)(=O)[O-])ccc6F)c6ccc([nH]6)c(-c6cc(S(=O)(=O)[O-])ccc6F)c6nc(c(-c7cc(S(=O)(=O)[O-])ccc7F)c7ccc4[nH]7)C=C6)C=C5)cc3)cc2)C1=O
REMARK SMILES IDX 23 1 22 2 20 3 21 4 19 6 18 7 16 8 15 9 17 11 14 12 11 13
REMARK SMILES IDX 12 14 94 15 13 16 93 17 10 18 4 19 5 20 95 21 6 22 9 23
REMARK SMILES IDX 96 24 7 25 8 26 2 27 1 28 3 29 24 30 25 31 26 32 27 33 28 34
REMARK SMILES IDX 29 36 30 37 31 38 92 39 32 40 91 41 33 42 34 43 35 44 85 45
REMARK SMILES IDX 36 46 90 47 84 48 86 49 37 50 89 51 83 52 82 53 38 55 70 56
REMARK SMILES IDX 50 57 69 58 51 59 54 60 68 61 87 62 52 63 53 64 67 66 88 67
REMARK SMILES IDX 55 68 39 69 40 70 48 71 41 72 47 73 49 74 46 75 42 76 43 77
REMARK SMILES IDX 44 78 45 79 71 80 72 81 80 82 73 83 79 84 81 85 78 86 74 87
REMARK SMILES IDX 75 88 76 89 77 90 56 91 57 92 65 93 58 94 64 95 66 96 63 97
REMARK SMILES IDX 59 98 60 99 61 100 62 101
REMARK H PARENT 22 5 15 10 27 35 86 54 54 65
REMARK Flexibility Score: inf
ROOT
ATOM      1  C   UNL A   1      40.549  21.897  27.314  1.00  0.00     0.116 C 
ENDROOT
BRANCH   1   2
ATOM      2  N   UNL A   1      41.017  20.609  27.796  1.00  0.00    -0.356 N 
ATOM      3  C   UNL A   1      41.949  19.769  27.265  1.00  0.00     0.220 C 
ATOM      4  O   UNL A   1      42.329  18.802  27.926  1.00  0.00    -0.275 OA
ATOM      5  H   UNL A   1      40.597  20.296  28.630  1.00  0.00     0.163 HD
BRANCH   3   6
ATOM      6  C   UNL A   1      42.501  20.025  25.882  1.00  0.00     0.110 C 
BRANCH   6   7
ATOM      7  C   UNL A   1      43.966  19.647  25.707  1.00  0.00     0.110 C 
BRANCH   7   8
ATOM      8  C   UNL A   1      44.457  19.639  24.273  1.00  0.00     0.224 C 
ATOM      9  N   UNL A   1      44.952  20.753  23.663  1.00  0.00    -0.326 N 
ATOM     10  H   UNL A   1      45.219  20.626  22.724  1.00  0.00     0.169 HD
ATOM     11  O   UNL A   1      44.505  18.570  23.655  1.00  0.00    -0.275 OA
BRANCH   9  12
ATOM     12  C   UNL A   1      45.144  22.049  24.156  1.00  0.00     0.041 A 
ATOM     13  C   UNL A   1      45.346  24.733  24.944  1.00  0.00    -0.025 A 
ATOM     14  C   UNL A   1      46.494  23.951  24.786  1.00  0.00     0.010 A 
ATOM     15  C   UNL A   1      44.095  24.157  24.710  1.00  0.00     0.010 A 
ATOM     16  C   UNL A   1      46.392  22.613  24.396  1.00  0.00     0.027 A 
ATOM     17  C   UNL A   1      43.995  22.806  24.392  1.00  0.00     0.027 A 
BRANCH  13  18
ATOM     18  C   UNL A   1      45.499  26.114  25.412  1.00  0.00     0.015 C 
ATOM     19  C   UNL A   1      43.850  25.998  28.640  1.00  0.00     0.063 C 
ATOM     20  C   UNL A   1      44.112  27.417  29.170  1.00  0.00     0.013 C 
ATOM     21  C   UNL A   1      45.046  25.561  27.797  1.00  0.00     0.162 C 
ATOM     22  C   UNL A   1      44.480  28.394  28.042  1.00  0.00     0.009 C 
ATOM     23  C   UNL A   1      45.408  26.508  26.694  1.00  0.00    -0.001 C 
ATOM     24  O   UNL A   1      45.672  24.520  27.962  1.00  0.00    -0.294 OA
ATOM     25  C   UNL A   1      45.651  27.914  27.170  1.00  0.00     0.020 C 
ATOM     26  C   UNL A   1      46.993  27.976  27.912  1.00  0.00     0.013 C 
BRANCH  19  27
ATOM     27  C   UNL A   1      43.476  24.950  29.718  1.00  0.00    -0.007 C 
ATOM     28  C   UNL A   1      43.158  23.560  29.158  1.00  0.00     0.008 C 
ATOM     29  C   UNL A   1      44.569  24.828  30.785  1.00  0.00     0.008 C 
ENDBRANCH  19  27
ENDBRANCH  13  18
ENDBRANCH   9  12
ENDBRANCH   7   8
ENDBRANCH   6   7
ENDBRANCH   3   6
ENDBRANCH   1   2
BRANCH   1  30
ATOM     30  C   UNL A   1      39.416  21.798  26.295  1.00  0.00     0.023 C 
BRANCH  30  31
ATOM     31  C   UNL A   1      38.444  22.974  26.275  1.00  0.00     0.023 C 
BRANCH  31  32
ATOM     32  C   UNL A   1      39.010  24.274  26.816  1.00  0.00     0.116 C 
BRANCH  32  33
ATOM     33  N   UNL A   1      40.075  24.792  25.976  1.00  0.00    -0.352 N 
ATOM     34  C   UNL A   1      40.716  26.003  26.048  1.00  0.00     0.251 C 
ATOM     35  H   UNL A   1      40.379  24.192  25.257  1.00  0.00     0.163 HD
ATOM     36  O   UNL A   1      41.416  26.379  25.106  1.00  0.00    -0.269 OA
BRANCH  34  37
ATOM     37  C   UNL A   1      40.546  26.854  27.244  1.00  0.00     0.039 A 
ATOM     38  C   UNL A   1      40.069  26.291  28.428  1.00  0.00     0.014 A 
ATOM     39  C   UNL A   1      40.860  28.216  27.189  1.00  0.00     0.014 A 
ATOM     40  C   UNL A   1      39.946  27.087  29.571  1.00  0.00     0.010 A 
ATOM     41  C   UNL A   1      40.837  28.978  28.351  1.00  0.00     0.010 A 
ATOM     42  C   UNL A   1      40.350  28.432  29.547  1.00  0.00    -0.014 A 
BRANCH  42  43
ATOM     43  C   UNL A   1      40.200  29.314  30.732  1.00  0.00     0.031 A 
ATOM     44  C   UNL A   1      41.199  29.212  31.857  1.00  0.00     0.074 A 
ATOM     45  C   UNL A   1      39.146  30.146  30.829  1.00  0.00     0.049 A 
ATOM     46  N   UNL A   1      41.199  29.798  33.026  1.00  0.00    -0.248 NA
ATOM     47  C   UNL A   1      42.325  28.286  31.653  1.00  0.00     0.031 C 
ATOM     48  C   UNL A   1      38.089  30.295  29.827  1.00  0.00     0.029 A 
ATOM     49  N   UNL A   1      38.783  31.020  31.823  1.00  0.00    -0.354 N 
ATOM     50  C   UNL A   1      42.301  29.287  33.706  1.00  0.00     0.074 A 
ATOM     51  C   UNL A   1      42.898  28.289  32.846  1.00  0.00     0.031 C 
ATOM     52  C   UNL A   1      37.215  31.227  30.243  1.00  0.00     0.029 A 
ATOM     53  C   UNL A   1      37.625  31.712  31.558  1.00  0.00     0.049 A 
ATOM     54  H   UNL A   1      39.305  31.140  32.650  1.00  0.00     0.167 HD
ATOM     55  C   UNL A   1      42.789  29.640  34.921  1.00  0.00     0.034 A 
ATOM     56  C   UNL A   1      36.969  32.629  32.295  1.00  0.00     0.034 A 
ATOM     57  C   UNL A   1      42.201  30.669  35.742  1.00  0.00     0.049 A 
ATOM     58  C   UNL A   1      37.543  33.029  33.632  1.00  0.00     0.074 A 
ATOM     59  C   UNL A   1      42.638  31.155  36.962  1.00  0.00     0.029 A 
ATOM     60  N   UNL A   1      41.050  31.377  35.421  1.00  0.00    -0.354 N 
ATOM     61  N   UNL A   1      38.610  32.567  34.244  1.00  0.00    -0.248 NA
ATOM     62  C   UNL A   1      36.836  34.084  34.368  1.00  0.00     0.031 C 
ATOM     63  C   UNL A   1      41.721  32.116  37.403  1.00  0.00     0.029 A 
ATOM     64  C   UNL A   1      40.753  32.283  36.426  1.00  0.00     0.049 A 
ATOM     65  H   UNL A   1      40.523  31.253  34.599  1.00  0.00     0.167 HD
ATOM     66  C   UNL A   1      38.720  33.302  35.421  1.00  0.00     0.074 A 
ATOM     67  C   UNL A   1      37.619  34.244  35.425  1.00  0.00     0.031 C 
ATOM     68  C   UNL A   1      39.648  33.212  36.409  1.00  0.00     0.034 A 
BRANCH  55  69
ATOM     69  C   UNL A   1      44.001  28.892  35.427  1.00  0.00     0.023 A 
ATOM     70  C   UNL A   1      43.880  27.760  36.253  1.00  0.00     0.031 A 
ATOM     71  C   UNL A   1      45.297  29.341  35.119  1.00  0.00     0.131 A 
ATOM     72  C   UNL A   1      45.024  27.176  36.818  1.00  0.00     0.055 A 
ATOM     73  C   UNL A   1      46.436  28.699  35.609  1.00  0.00     0.041 A 
ATOM     74  F   UNL A   1      45.480  30.427  34.351  1.00  0.00    -0.206 F 
ATOM     75  C   UNL A   1      46.303  27.620  36.479  1.00  0.00     0.022 A 
BRANCH  72  76
ATOM     76  S   UNL A   1      44.806  25.936  38.123  1.00  0.00     0.124 S 
ATOM     77  O   UNL A   1      46.128  25.934  38.747  1.00  0.00    -0.237 OA
ATOM     78  O   UNL A   1      43.724  26.502  38.921  1.00  0.00    -0.237 OA
ATOM     79  O   UNL A   1      44.471  24.719  37.387  1.00  0.00    -0.744 OA
ENDBRANCH  72  76
ENDBRANCH  55  69
BRANCH  56  80
ATOM     80  C   UNL A   1      35.709  33.247  31.788  1.00  0.00     0.023 A 
ATOM     81  C   UNL A   1      35.550  33.544  30.425  1.00  0.00     0.031 A 
ATOM     82  C   UNL A   1      34.659  33.580  32.662  1.00  0.00     0.131 A 
ATOM     83  C   UNL A   1      34.391  34.200  29.982  1.00  0.00     0.055 A 
ATOM     84  C   UNL A   1      33.486  34.186  32.207  1.00  0.00     0.041 A 
ATOM     85  F   UNL A   1      34.754  33.310  33.974  1.00  0.00    -0.206 F 
ATOM     86  C   UNL A   1      33.353  34.512  30.861  1.00  0.00     0.022 A 
BRANCH  83  87
ATOM     87  S   UNL A   1      34.298  34.715  28.244  1.00  0.00     0.124 S 
ATOM     88  O   UNL A   1      32.942  34.312  27.888  1.00  0.00    -0.237 OA
ATOM     89  O   UNL A   1      34.536  36.150  28.342  1.00  0.00    -0.237 OA
ATOM     90  O   UNL A   1      35.366  33.950  27.605  1.00  0.00    -0.744 OA
ENDBRANCH  83  87
ENDBRANCH  56  80
BRANCH  68  91
ATOM     91  C   UNL A   1      39.536  34.199  37.544  1.00  0.00     0.023 A 
ATOM     92  C   UNL A   1      39.028  33.826  38.801  1.00  0.00     0.031 A 
ATOM     93  C   UNL A   1      39.942  35.532  37.361  1.00  0.00     0.131 A 
ATOM     94  C   UNL A   1      38.887  34.790  39.809  1.00  0.00     0.055 A 
ATOM     95  C   UNL A   1      39.855  36.474  38.386  1.00  0.00     0.041 A 
ATOM     96  F   UNL A   1      40.435  35.939  36.181  1.00  0.00    -0.206 F 
ATOM     97  C   UNL A   1      39.313  36.107  39.615  1.00  0.00     0.022 A 
BRANCH  94  98
ATOM     98  S   UNL A   1      38.057  34.320  41.351  1.00  0.00     0.124 S 
ATOM     99  O   UNL A   1      36.892  33.592  40.859  1.00  0.00    -0.237 OA
ATOM    100  O   UNL A   1      39.075  33.518  42.021  1.00  0.00    -0.237 OA
ATOM    101  O   UNL A   1      37.763  35.604  41.987  1.00  0.00    -0.744 OA
ENDBRANCH  94  98
ENDBRANCH  68  91
ENDBRANCH  42  43
ENDBRANCH  34  37
ENDBRANCH  32  33
ENDBRANCH  31  32
ENDBRANCH  30  31
ENDBRANCH   1  30
TORSDOF 19
ENDMDL
MODEL 2
REMARK VINA RESULT:     -11.6      4.034      8.687
REMARK SMILES CC(C)[C@H]1CC[C@@H](C)/C(=C/c2ccc(NC(=O)CCC(=O)NCCCCNC(=O)c3ccc(-c4c5nc(c(-c6cc(S(=O)(=O)[O-])ccc6F)c6ccc([nH]6)c(-c6cc(S(=O)(=O)[O-])ccc6F)c6nc(c(-c7cc(S(=O)(=O)[O-])ccc7F)c7ccc4[nH]7)C=C6)C=C5)cc3)cc2)C1=O
REMARK SMILES IDX 23 1 22 2 20 3 21 4 19 6 18 7 16 8 15 9 17 11 14 12 11 13
REMARK SMILES IDX 12 14 94 15 13 16 93 17 10 18 4 19 5 20 95 21 6 22 9 23
REMARK SMILES IDX 96 24 7 25 8 26 2 27 1 28 3 29 24 30 25 31 26 32 27 33 28 34
REMARK SMILES IDX 29 36 30 37 31 38 92 39 32 40 91 41 33 42 34 43 35 44 85 45
REMARK SMILES IDX 36 46 90 47 84 48 86 49 37 50 89 51 83 52 82 53 38 55 70 56
REMARK SMILES IDX 50 57 69 58 51 59 54 60 68 61 87 62 52 63 53 64 67 66 88 67
REMARK SMILES IDX 55 68 39 69 40 70 48 71 41 72 47 73 49 74 46 75 42 76 43 77
REMARK SMILES IDX 44 78 45 79 71 80 72 81 80 82 73 83 79 84 81 85 78 86 74 87
REMARK SMILES IDX 75 88 76 89 77 90 56 91 57 92 65 93 58 94 64 95 66 96 63 97
REMARK SMILES IDX 59 98 60 99 61 100 62 101
REMARK H PARENT 22 5 15 10 27 35 86 54 54 65
REMARK Flexibility Score: inf
ROOT
ATOM      1  C   UNL A   1      45.558  24.057  28.095  1.00  0.00     0.116 C 
ENDROOT
BRANCH   1   2
ATOM      2  N   UNL A   1      44.913  23.928  29.390  1.00  0.00    -0.356 N 
ATOM      3  C   UNL A   1      43.767  23.273  29.729  1.00  0.00     0.220 C 
ATOM      4  O   UNL A   1      43.486  23.136  30.920  1.00  0.00    -0.275 OA
ATOM      5  H   UNL A   1      45.372  24.382  30.133  1.00  0.00     0.163 HD
BRANCH   3   6
ATOM      6  C   UNL A   1      42.858  22.728  28.652  1.00  0.00     0.110 C 
BRANCH   6   7
ATOM      7  C   UNL A   1      41.583  23.531  28.435  1.00  0.00     0.110 C 
BRANCH   7   8
ATOM      8  C   UNL A   1      41.264  23.846  26.988  1.00  0.00     0.224 C 
ATOM      9  N   UNL A   1      40.881  25.088  26.576  1.00  0.00    -0.326 N 
ATOM     10  H   UNL A   1      40.681  25.161  25.615  1.00  0.00     0.169 HD
ATOM     11  O   UNL A   1      41.447  22.980  26.125  1.00  0.00    -0.275 OA
BRANCH   9  12
ATOM     12  C   UNL A   1      40.726  26.276  27.299  1.00  0.00     0.041 A 
ATOM     13  C   UNL A   1      40.584  28.779  28.556  1.00  0.00    -0.025 A 
ATOM     14  C   UNL A   1      40.826  27.622  29.302  1.00  0.00     0.010 A 
ATOM     15  C   UNL A   1      40.407  28.671  27.175  1.00  0.00     0.010 A 
ATOM     16  C   UNL A   1      40.893  26.376  28.676  1.00  0.00     0.027 A 
ATOM     17  C   UNL A   1      40.405  27.420  26.566  1.00  0.00     0.027 A 
BRANCH  13  18
ATOM     18  C   UNL A   1      40.462  30.057  29.265  1.00  0.00     0.015 C 
ATOM     19  C   UNL A   1      37.005  30.943  28.624  1.00  0.00     0.063 C 
ATOM     20  C   UNL A   1      36.855  32.224  29.460  1.00  0.00     0.013 C 
ATOM     21  C   UNL A   1      37.974  30.003  29.335  1.00  0.00     0.162 C 
ATOM     22  C   UNL A   1      38.217  32.855  29.794  1.00  0.00     0.009 C 
ATOM     23  C   UNL A   1      39.304  30.611  29.662  1.00  0.00    -0.001 C 
ATOM     24  O   UNL A   1      37.732  28.834  29.616  1.00  0.00    -0.294 OA
ATOM     25  C   UNL A   1      39.200  31.880  30.463  1.00  0.00     0.020 C 
ATOM     26  C   UNL A   1      38.795  31.542  31.903  1.00  0.00     0.013 C 
BRANCH  19  27
ATOM     27  C   UNL A   1      35.675  30.243  28.247  1.00  0.00    -0.007 C 
ATOM     28  C   UNL A   1      34.510  31.204  27.991  1.00  0.00     0.008 C 
ATOM     29  C   UNL A   1      35.850  29.326  27.031  1.00  0.00     0.008 C 
ENDBRANCH  19  27
ENDBRANCH  13  18
ENDBRANCH   9  12
ENDBRANCH   7   8
ENDBRANCH   6   7
ENDBRANCH   3   6
ENDBRANCH   1   2
BRANCH   1  30
ATOM     30  C   UNL A   1      46.882  24.816  28.140  1.00  0.00     0.023 C 
BRANCH  30  31
ATOM     31  C   UNL A   1      47.665  24.854  26.831  1.00  0.00     0.023 C 
BRANCH  31  32
ATOM     32  C   UNL A   1      46.815  24.723  25.580  1.00  0.00     0.116 C 
BRANCH  32  33
ATOM     33  N   UNL A   1      47.097  25.777  24.620  1.00  0.00    -0.352 N 
ATOM     34  C   UNL A   1      46.671  27.080  24.625  1.00  0.00     0.251 C 
ATOM     35  H   UNL A   1      47.673  25.519  23.865  1.00  0.00     0.163 HD
ATOM     36  O   UNL A   1      46.796  27.765  23.607  1.00  0.00    -0.269 OA
BRANCH  34  37
ATOM     37  C   UNL A   1      46.051  27.648  25.840  1.00  0.00     0.039 A 
ATOM     38  C   UNL A   1      46.842  28.341  26.757  1.00  0.00     0.014 A 
ATOM     39  C   UNL A   1      44.681  27.490  26.071  1.00  0.00     0.014 A 
ATOM     40  C   UNL A   1      46.249  28.913  27.887  1.00  0.00     0.010 A 
ATOM     41  C   UNL A   1      44.079  28.148  27.137  1.00  0.00     0.010 A 
ATOM     42  C   UNL A   1      44.859  28.840  28.074  1.00  0.00    -0.014 A 
BRANCH  42  43
ATOM     43  C   UNL A   1      44.202  29.405  29.280  1.00  0.00     0.031 A 
ATOM     44  C   UNL A   1      43.804  30.859  29.288  1.00  0.00     0.074 A 
ATOM     45  C   UNL A   1      44.026  28.643  30.377  1.00  0.00     0.049 A 
ATOM     46  N   UNL A   1      43.326  31.586  30.265  1.00  0.00    -0.248 NA
ATOM     47  C   UNL A   1      44.022  31.607  28.039  1.00  0.00     0.031 C 
ATOM     48  C   UNL A   1      44.416  27.238  30.504  1.00  0.00     0.029 A 
ATOM     49  N   UNL A   1      43.481  28.946  31.599  1.00  0.00    -0.354 N 
ATOM     50  C   UNL A   1      43.218  32.877  29.757  1.00  0.00     0.074 A 
ATOM     51  C   UNL A   1      43.753  32.846  28.414  1.00  0.00     0.031 C 
ATOM     52  C   UNL A   1      44.069  26.792  31.722  1.00  0.00     0.029 A 
ATOM     53  C   UNL A   1      43.472  27.889  32.479  1.00  0.00     0.049 A 
ATOM     54  H   UNL A   1      43.130  29.838  31.825  1.00  0.00     0.167 HD
ATOM     55  C   UNL A   1      42.691  33.980  30.345  1.00  0.00     0.034 A 
ATOM     56  C   UNL A   1      43.033  27.817  33.751  1.00  0.00     0.034 A 
ATOM     57  C   UNL A   1      42.123  33.977  31.670  1.00  0.00     0.049 A 
ATOM     58  C   UNL A   1      42.425  29.047  34.377  1.00  0.00     0.074 A 
ATOM     59  C   UNL A   1      41.509  35.015  32.349  1.00  0.00     0.029 A 
ATOM     60  N   UNL A   1      42.094  32.875  32.516  1.00  0.00    -0.354 N 
ATOM     61  N   UNL A   1      42.290  30.252  33.871  1.00  0.00    -0.248 NA
ATOM     62  C   UNL A   1      41.894  28.904  35.738  1.00  0.00     0.031 C 
ATOM     63  C   UNL A   1      41.159  34.556  33.625  1.00  0.00     0.029 A 
ATOM     64  C   UNL A   1      41.489  33.213  33.716  1.00  0.00     0.049 A 
ATOM     65  H   UNL A   1      42.453  31.985  32.296  1.00  0.00     0.167 HD
ATOM     66  C   UNL A   1      41.628  30.999  34.840  1.00  0.00     0.074 A 
ATOM     67  C   UNL A   1      41.380  30.106  35.953  1.00  0.00     0.031 C 
ATOM     68  C   UNL A   1      41.253  32.304  34.813  1.00  0.00     0.034 A 
BRANCH  55  69
ATOM     69  C   UNL A   1      42.727  35.271  29.559  1.00  0.00     0.023 A 
ATOM     70  C   UNL A   1      43.816  36.157  29.641  1.00  0.00     0.031 A 
ATOM     71  C   UNL A   1      41.639  35.644  28.751  1.00  0.00     0.131 A 
ATOM     72  C   UNL A   1      43.753  37.409  29.010  1.00  0.00     0.055 A 
ATOM     73  C   UNL A   1      41.623  36.852  28.048  1.00  0.00     0.041 A 
ATOM     74  F   UNL A   1      40.561  34.852  28.645  1.00  0.00    -0.206 F 
ATOM     75  C   UNL A   1      42.677  37.751  28.191  1.00  0.00     0.022 A 
BRANCH  72  76
ATOM     76  S   UNL A   1      45.023  38.641  29.406  1.00  0.00     0.124 S 
ATOM     77  O   UNL A   1      44.207  39.813  29.718  1.00  0.00    -0.237 OA
ATOM     78  O   UNL A   1      45.719  38.029  30.532  1.00  0.00    -0.237 OA
ATOM     79  O   UNL A   1      45.799  38.742  28.172  1.00  0.00    -0.744 OA
ENDBRANCH  72  76
ENDBRANCH  55  69
BRANCH  56  80
ATOM     80  C   UNL A   1      43.134  26.539  34.515  1.00  0.00     0.023 A 
ATOM     81  C   UNL A   1      44.380  26.042  34.927  1.00  0.00     0.031 A 
ATOM     82  C   UNL A   1      41.989  25.780  34.816  1.00  0.00     0.131 A 
ATOM     83  C   UNL A   1      44.460  24.798  35.572  1.00  0.00     0.055 A 
ATOM     84  C   UNL A   1      42.069  24.567  35.504  1.00  0.00     0.041 A 
ATOM     85  F   UNL A   1      40.771  26.213  34.454  1.00  0.00    -0.206 F 
ATOM     86  C   UNL A   1      43.312  24.063  35.874  1.00  0.00     0.022 A 
BRANCH  83  87
ATOM     87  S   UNL A   1      46.101  24.115  35.937  1.00  0.00     0.124 S 
ATOM     88  O   UNL A   1      46.577  23.760  34.604  1.00  0.00    -0.237 OA
ATOM     89  O   UNL A   1      46.764  25.246  36.575  1.00  0.00    -0.237 OA
ATOM     90  O   UNL A   1      45.810  22.986  36.818  1.00  0.00    -0.744 OA
ENDBRANCH  83  87
ENDBRANCH  56  80
BRANCH  68  91
ATOM     91  C   UNL A   1      40.486  32.820  36.005  1.00  0.00     0.023 A 
ATOM     92  C   UNL A   1      41.133  33.422  37.098  1.00  0.00     0.031 A 
ATOM     93  C   UNL A   1      39.086  32.703  36.045  1.00  0.00     0.131 A 
ATOM     94  C   UNL A   1      40.386  33.833  38.210  1.00  0.00     0.055 A 
ATOM     95  C   UNL A   1      38.340  33.168  37.129  1.00  0.00     0.041 A 
ATOM     96  F   UNL A   1      38.418  32.137  35.027  1.00  0.00    -0.206 F 
ATOM     97  C   UNL A   1      38.992  33.725  38.226  1.00  0.00     0.022 A 
BRANCH  94  98
ATOM     98  S   UNL A   1      41.267  34.432  39.678  1.00  0.00     0.124 S 
ATOM     99  O   UNL A   1      41.741  35.740  39.233  1.00  0.00    -0.237 OA
ATOM    100  O   UNL A   1      40.217  34.445  40.690  1.00  0.00    -0.237 OA
ATOM    101  O   UNL A   1      42.313  33.430  39.882  1.00  0.00    -0.744 OA
ENDBRANCH  94  98
ENDBRANCH  68  91
ENDBRANCH  42  43
ENDBRANCH  34  37
ENDBRANCH  32  33
ENDBRANCH  31  32
ENDBRANCH  30  31
ENDBRANCH   1  30
TORSDOF 19
ENDMDL
MODEL 3
REMARK VINA RESULT:     -11.5      5.989     10.757
REMARK SMILES CC(C)[C@H]1CC[C@@H](C)/C(=C/c2ccc(NC(=O)CCC(=O)NCCCCNC(=O)c3ccc(-c4c5nc(c(-c6cc(S(=O)(=O)[O-])ccc6F)c6ccc([nH]6)c(-c6cc(S(=O)(=O)[O-])ccc6F)c6nc(c(-c7cc(S(=O)(=O)[O-])ccc7F)c7ccc4[nH]7)C=C6)C=C5)cc3)cc2)C1=O
REMARK SMILES IDX 23 1 22 2 20 3 21 4 19 6 18 7 16 8 15 9 17 11 14 12 11 13
REMARK SMILES IDX 12 14 94 15 13 16 93 17 10 18 4 19 5 20 95 21 6 22 9 23
REMARK SMILES IDX 96 24 7 25 8 26 2 27 1 28 3 29 24 30 25 31 26 32 27 33 28 34
REMARK SMILES IDX 29 36 30 37 31 38 92 39 32 40 91 41 33 42 34 43 35 44 85 45
REMARK SMILES IDX 36 46 90 47 84 48 86 49 37 50 89 51 83 52 82 53 38 55 70 56
REMARK SMILES IDX 50 57 69 58 51 59 54 60 68 61 87 62 52 63 53 64 67 66 88 67
REMARK SMILES IDX 55 68 39 69 40 70 48 71 41 72 47 73 49 74 46 75 42 76 43 77
REMARK SMILES IDX 44 78 45 79 71 80 72 81 80 82 73 83 79 84 81 85 78 86 74 87
REMARK SMILES IDX 75 88 76 89 77 90 56 91 57 92 65 93 58 94 64 95 66 96 63 97
REMARK SMILES IDX 59 98 60 99 61 100 62 101
REMARK H PARENT 22 5 15 10 27 35 86 54 54 65
REMARK Flexibility Score: inf
ROOT
ATOM      1  C   UNL A   1      37.796  23.420  26.269  1.00  0.00     0.116 C 
ENDROOT
BRANCH   1   2
ATOM      2  N   UNL A   1      37.524  23.532  24.846  1.00  0.00    -0.356 N 
ATOM      3  C   UNL A   1      36.833  22.692  24.026  1.00  0.00     0.220 C 
ATOM      4  O   UNL A   1      36.565  23.060  22.882  1.00  0.00    -0.275 OA
ATOM      5  H   UNL A   1      37.895  24.333  24.411  1.00  0.00     0.163 HD
BRANCH   3   6
ATOM      6  C   UNL A   1      36.406  21.329  24.519  1.00  0.00     0.110 C 
BRANCH   6   7
ATOM      7  C   UNL A   1      35.075  21.313  25.260  1.00  0.00     0.110 C 
BRANCH   7   8
ATOM      8  C   UNL A   1      34.029  20.389  24.673  1.00  0.00     0.224 C 
ATOM      9  N   UNL A   1      32.971  20.849  23.945  1.00  0.00    -0.326 N 
ATOM     10  H   UNL A   1      32.348  20.152  23.636  1.00  0.00     0.169 HD
ATOM     11  O   UNL A   1      34.179  19.165  24.767  1.00  0.00    -0.275 OA
BRANCH   9  12
ATOM     12  C   UNL A   1      32.628  22.152  23.566  1.00  0.00     0.041 A 
ATOM     13  C   UNL A   1      31.672  24.674  22.802  1.00  0.00    -0.025 A 
ATOM     14  C   UNL A   1      32.776  24.109  22.158  1.00  0.00     0.010 A 
ATOM     15  C   UNL A   1      31.054  23.968  23.837  1.00  0.00     0.010 A 
ATOM     16  C   UNL A   1      33.254  22.854  22.542  1.00  0.00     0.027 A 
ATOM     17  C   UNL A   1      31.577  22.751  24.262  1.00  0.00     0.027 A 
BRANCH  13  18
ATOM     18  C   UNL A   1      31.244  26.020  22.406  1.00  0.00     0.015 C 
ATOM     19  C   UNL A   1      31.617  27.868  25.503  1.00  0.00     0.063 C 
ATOM     20  C   UNL A   1      31.273  29.297  25.053  1.00  0.00     0.013 C 
ATOM     21  C   UNL A   1      32.312  27.144  24.353  1.00  0.00     0.162 C 
ATOM     22  C   UNL A   1      30.488  29.310  23.731  1.00  0.00     0.009 C 
ATOM     23  C   UNL A   1      31.551  27.151  23.063  1.00  0.00    -0.001 C 
ATOM     24  O   UNL A   1      33.395  26.574  24.440  1.00  0.00    -0.294 OA
ATOM     25  C   UNL A   1      31.176  28.532  22.598  1.00  0.00     0.020 C 
ATOM     26  C   UNL A   1      32.427  29.250  22.075  1.00  0.00     0.013 C 
BRANCH  19  27
ATOM     27  C   UNL A   1      32.414  27.769  26.828  1.00  0.00    -0.007 C 
ATOM     28  C   UNL A   1      33.634  28.692  26.898  1.00  0.00     0.008 C 
ATOM     29  C   UNL A   1      31.515  28.026  28.043  1.00  0.00     0.008 C 
ENDBRANCH  19  27
ENDBRANCH  13  18
ENDBRANCH   9  12
ENDBRANCH   7   8
ENDBRANCH   6   7
ENDBRANCH   3   6
ENDBRANCH   1   2
BRANCH   1  30
ATOM     30  C   UNL A   1      39.284  23.379  26.609  1.00  0.00     0.023 C 
BRANCH  30  31
ATOM     31  C   UNL A   1      39.831  22.011  27.009  1.00  0.00     0.023 C 
BRANCH  31  32
ATOM     32  C   UNL A   1      39.704  20.941  25.941  1.00  0.00     0.116 C 
BRANCH  32  33
ATOM     33  N   UNL A   1      40.813  20.002  25.980  1.00  0.00    -0.352 N 
ATOM     34  C   UNL A   1      42.157  20.263  26.051  1.00  0.00     0.251 C 
ATOM     35  H   UNL A   1      40.564  19.050  25.951  1.00  0.00     0.163 HD
ATOM     36  O   UNL A   1      42.965  19.361  25.820  1.00  0.00    -0.269 OA
BRANCH  34  37
ATOM     37  C   UNL A   1      42.627  21.623  26.384  1.00  0.00     0.039 A 
ATOM     38  C   UNL A   1      43.001  21.921  27.695  1.00  0.00     0.014 A 
ATOM     39  C   UNL A   1      42.693  22.608  25.394  1.00  0.00     0.014 A 
ATOM     40  C   UNL A   1      43.484  23.196  28.003  1.00  0.00     0.010 A 
ATOM     41  C   UNL A   1      43.271  23.839  25.679  1.00  0.00     0.010 A 
ATOM     42  C   UNL A   1      43.643  24.159  26.993  1.00  0.00    -0.014 A 
BRANCH  42  43
ATOM     43  C   UNL A   1      44.119  25.533  27.292  1.00  0.00     0.031 A 
ATOM     44  C   UNL A   1      45.518  25.932  26.892  1.00  0.00     0.074 A 
ATOM     45  C   UNL A   1      43.334  26.390  27.971  1.00  0.00     0.049 A 
ATOM     46  N   UNL A   1      46.176  27.032  27.152  1.00  0.00    -0.248 NA
ATOM     47  C   UNL A   1      46.295  24.933  26.140  1.00  0.00     0.031 C 
ATOM     48  C   UNL A   1      41.981  26.101  28.453  1.00  0.00     0.029 A 
ATOM     49  N   UNL A   1      43.561  27.679  28.383  1.00  0.00    -0.354 N 
ATOM     50  C   UNL A   1      47.450  26.842  26.625  1.00  0.00     0.074 A 
ATOM     51  C   UNL A   1      47.492  25.495  26.102  1.00  0.00     0.031 C 
ATOM     52  C   UNL A   1      41.489  27.189  29.066  1.00  0.00     0.029 A 
ATOM     53  C   UNL A   1      42.503  28.240  29.060  1.00  0.00     0.049 A 
ATOM     54  H   UNL A   1      44.404  28.158  28.211  1.00  0.00     0.167 HD
ATOM     55  C   UNL A   1      48.480  27.722  26.555  1.00  0.00     0.034 A 
ATOM     56  C   UNL A   1      42.371  29.462  29.613  1.00  0.00     0.034 A 
ATOM     57  C   UNL A   1      48.400  29.076  27.044  1.00  0.00     0.049 A 
ATOM     58  C   UNL A   1      43.517  30.435  29.500  1.00  0.00     0.074 A 
ATOM     59  C   UNL A   1      49.354  30.076  26.977  1.00  0.00     0.029 A 
ATOM     60  N   UNL A   1      47.296  29.621  27.687  1.00  0.00    -0.354 N 
ATOM     61  N   UNL A   1      44.702  30.258  28.961  1.00  0.00    -0.248 NA
ATOM     62  C   UNL A   1      43.302  31.779  30.052  1.00  0.00     0.031 C 
ATOM     63  C   UNL A   1      48.848  31.207  27.628  1.00  0.00     0.029 A 
ATOM     64  C   UNL A   1      47.551  30.938  28.037  1.00  0.00     0.049 A 
ATOM     65  H   UNL A   1      46.455  29.142  27.868  1.00  0.00     0.167 HD
ATOM     66  C   UNL A   1      45.360  31.478  29.079  1.00  0.00     0.074 A 
ATOM     67  C   UNL A   1      44.435  32.385  29.728  1.00  0.00     0.031 C 
ATOM     68  C   UNL A   1      46.613  31.823  28.685  1.00  0.00     0.034 A 
BRANCH  55  69
ATOM     69  C   UNL A   1      49.772  27.232  25.942  1.00  0.00     0.023 A 
ATOM     70  C   UNL A   1      50.132  27.551  24.620  1.00  0.00     0.031 A 
ATOM     71  C   UNL A   1      50.636  26.396  26.671  1.00  0.00     0.131 A 
ATOM     72  C   UNL A   1      51.266  26.964  24.039  1.00  0.00     0.055 A 
ATOM     73  C   UNL A   1      51.814  25.889  26.117  1.00  0.00     0.041 A 
ATOM     74  F   UNL A   1      50.340  26.038  27.930  1.00  0.00    -0.206 F 
ATOM     75  C   UNL A   1      52.125  26.158  24.786  1.00  0.00     0.022 A 
BRANCH  72  76
ATOM     76  S   UNL A   1      51.510  27.142  22.251  1.00  0.00     0.124 S 
ATOM     77  O   UNL A   1      51.764  28.577  22.131  1.00  0.00    -0.237 OA
ATOM     78  O   UNL A   1      52.649  26.268  21.998  1.00  0.00    -0.237 OA
ATOM     79  O   UNL A   1      50.239  26.693  21.685  1.00  0.00    -0.744 OA
ENDBRANCH  72  76
ENDBRANCH  55  69
BRANCH  56  80
ATOM     80  C   UNL A   1      41.107  29.845  30.308  1.00  0.00     0.023 A 
ATOM     81  C   UNL A   1      40.021  30.370  29.590  1.00  0.00     0.031 A 
ATOM     82  C   UNL A   1      40.978  29.723  31.702  1.00  0.00     0.131 A 
ATOM     83  C   UNL A   1      38.873  30.800  30.272  1.00  0.00     0.055 A 
ATOM     84  C   UNL A   1      39.813  30.104  32.371  1.00  0.00     0.041 A 
ATOM     85  F   UNL A   1      41.982  29.217  32.437  1.00  0.00    -0.206 F 
ATOM     86  C   UNL A   1      38.756  30.660  31.657  1.00  0.00     0.022 A 
BRANCH  83  87
ATOM     87  S   UNL A   1      37.561  31.626  29.328  1.00  0.00     0.124 S 
ATOM     88  O   UNL A   1      37.424  30.742  28.176  1.00  0.00    -0.237 OA
ATOM     89  O   UNL A   1      36.455  31.620  30.279  1.00  0.00    -0.237 OA
ATOM     90  O   UNL A   1      38.127  32.942  29.041  1.00  0.00    -0.744 OA
ENDBRANCH  83  87
ENDBRANCH  56  80
BRANCH  68  91
ATOM     91  C   UNL A   1      47.027  33.258  28.898  1.00  0.00     0.023 A 
ATOM     92  C   UNL A   1      46.826  34.240  27.912  1.00  0.00     0.031 A 
ATOM     93  C   UNL A   1      47.636  33.643  30.105  1.00  0.00     0.131 A 
ATOM     94  C   UNL A   1      47.282  35.548  28.130  1.00  0.00     0.055 A 
ATOM     95  C   UNL A   1      48.033  34.959  30.340  1.00  0.00     0.041 A 
ATOM     96  F   UNL A   1      47.849  32.745  31.079  1.00  0.00    -0.206 F 
ATOM     97  C   UNL A   1      47.868  35.918  29.343  1.00  0.00     0.022 A 
BRANCH  94  98
ATOM     98  S   UNL A   1      47.176  36.743  26.769  1.00  0.00     0.124 S 
ATOM     99  O   UNL A   1      46.312  36.046  25.821  1.00  0.00    -0.237 OA
ATOM    100  O   UNL A   1      46.595  37.910  27.423  1.00  0.00    -0.237 OA
ATOM    101  O   UNL A   1      48.566  36.900  26.343  1.00  0.00    -0.744 OA
ENDBRANCH  94  98
ENDBRANCH  68  91
ENDBRANCH  42  43
ENDBRANCH  34  37
ENDBRANCH  32  33
ENDBRANCH  31  32
ENDBRANCH  30  31
ENDBRANCH   1  30
TORSDOF 19
ENDMDL
