MODEL 1
REMARK VINA RESULT:     -11.7      0.000      0.000
REMARK SMILES N#Cc1ccnc(Oc2cccc(C(=O)NCCCCNC(=O)c3ccc(-c4c5nc(c(-c6cc(S(=O)(=O)[O-])ccc6F)c6ccc([nH]6)c(-c6cc(S(=O)(=O)[O-])ccc6F)c6nc(c(-c7cc(S(=O)(=O)[O-])ccc7F)c7ccc4[nH]7)C=C6)C=C5)cc3)c2)c1
REMARK SMILES IDX 18 1 17 2 16 3 14 4 15 5 13 7 9 8 10 9 87 10 11 11 12 12
REMARK SMILES IDX 8 13 7 14 3 15 4 16 88 17 5 18 6 19 2 20 1 21 19 22 20 23
REMARK SMILES IDX 21 24 22 25 23 27 24 28 25 29 86 30 26 31 85 32 27 33 28 34
REMARK SMILES IDX 29 35 79 36 30 37 84 38 78 39 80 40 31 41 83 42 77 43 76 44
REMARK SMILES IDX 32 46 64 47 44 48 63 49 45 50 48 51 62 52 81 53 46 54 47 55
REMARK SMILES IDX 61 57 82 58 49 59 33 60 34 61 42 62 35 63 41 64 43 65 40 66
REMARK SMILES IDX 36 67 37 68 38 69 39 70 65 71 66 72 74 73 67 74 73 75 75 76
REMARK SMILES IDX 72 77 68 78 69 79 70 80 71 81 50 82 51 83 59 84 52 85 58 86
REMARK SMILES IDX 60 87 57 88 53 89 54 90 55 91 56 92
REMARK H PARENT 16 6 21 26 80 45 48 56
REMARK Flexibility Score: inf
ROOT
ATOM      1  C   UNL A   1      32.367  29.543  27.206  1.00  0.00     0.023 C 
ENDROOT
BRANCH   1   2
ATOM      2  C   UNL A   1      33.813  29.069  27.041  1.00  0.00     0.116 C 
BRANCH   2   3
ATOM      3  N   UNL A   1      34.092  28.798  25.646  1.00  0.00    -0.352 N 
ATOM      4  C   UNL A   1      33.575  27.919  24.732  1.00  0.00     0.251 C 
ATOM      5  O   UNL A   1      34.077  27.926  23.606  1.00  0.00    -0.269 OA
ATOM      6  H   UNL A   1      34.806  29.366  25.276  1.00  0.00     0.163 HD
BRANCH   4   7
ATOM      7  C   UNL A   1      32.407  27.023  24.989  1.00  0.00     0.043 A 
ATOM      8  C   UNL A   1      31.233  25.251  26.151  1.00  0.00     0.130 A 
ATOM      9  C   UNL A   1      30.030  25.623  25.558  1.00  0.00     0.047 A 
ATOM     10  C   UNL A   1      32.428  25.873  25.779  1.00  0.00     0.061 A 
ATOM     11  C   UNL A   1      30.009  26.687  24.663  1.00  0.00     0.005 A 
ATOM     12  C   UNL A   1      31.183  27.402  24.410  1.00  0.00     0.014 A 
BRANCH   8  13
ATOM     13  O   UNL A   1      31.201  24.234  27.076  1.00  0.00    -0.439 OA
BRANCH  13  14
ATOM     14  C   UNL A   1      31.942  23.090  26.837  1.00  0.00     0.220 A 
ATOM     15  C   UNL A   1      32.625  21.158  25.593  1.00  0.00     0.059 A 
ATOM     16  C   UNL A   1      33.571  20.883  26.575  1.00  0.00     0.040 A 
ATOM     17  C   UNL A   1      31.809  22.286  25.709  1.00  0.00     0.088 A 
ATOM     18  C   UNL A   1      33.657  21.754  27.642  1.00  0.00     0.116 A 
ATOM     19  N   UNL A   1      32.867  22.840  27.789  1.00  0.00    -0.222 NA
BRANCH  15  20
ATOM     20  C   UNL A   1      32.491  20.285  24.465  1.00  0.00     0.099 C 
ATOM     21  N   UNL A   1      32.383  19.574  23.553  1.00  0.00    -0.192 NA
ENDBRANCH  15  20
ENDBRANCH  13  14
ENDBRANCH   8  13
ENDBRANCH   4   7
ENDBRANCH   2   3
ENDBRANCH   1   2
BRANCH   1  22
ATOM     22  C   UNL A   1      32.186  31.032  26.902  1.00  0.00     0.023 C 
BRANCH  22  23
ATOM     23  C   UNL A   1      33.284  31.929  27.462  1.00  0.00     0.116 C 
BRANCH  23  24
ATOM     24  N   UNL A   1      32.877  33.323  27.573  1.00  0.00    -0.352 N 
ATOM     25  C   UNL A   1      33.327  34.263  28.472  1.00  0.00     0.251 C 
ATOM     26  H   UNL A   1      32.199  33.630  26.929  1.00  0.00     0.163 HD
ATOM     27  O   UNL A   1      32.789  35.362  28.544  1.00  0.00    -0.269 OA
BRANCH  25  28
ATOM     28  C   UNL A   1      34.439  33.892  29.367  1.00  0.00     0.039 A 
ATOM     29  C   UNL A   1      34.193  33.031  30.437  1.00  0.00     0.014 A 
ATOM     30  C   UNL A   1      35.738  34.313  29.070  1.00  0.00     0.014 A 
ATOM     31  C   UNL A   1      35.270  32.532  31.170  1.00  0.00     0.010 A 
ATOM     32  C   UNL A   1      36.811  33.741  29.741  1.00  0.00     0.010 A 
ATOM     33  C   UNL A   1      36.589  32.846  30.799  1.00  0.00    -0.014 A 
BRANCH  33  34
ATOM     34  C   UNL A   1      37.755  32.259  31.509  1.00  0.00     0.031 A 
ATOM     35  C   UNL A   1      38.535  31.146  30.867  1.00  0.00     0.074 A 
ATOM     36  C   UNL A   1      38.074  32.685  32.748  1.00  0.00     0.049 A 
ATOM     37  N   UNL A   1      39.526  30.443  31.353  1.00  0.00    -0.248 NA
ATOM     38  C   UNL A   1      38.126  30.751  29.511  1.00  0.00     0.031 C 
ATOM     39  C   UNL A   1      37.377  33.742  33.485  1.00  0.00     0.029 A 
ATOM     40  N   UNL A   1      39.062  32.280  33.610  1.00  0.00    -0.354 N 
ATOM     41  C   UNL A   1      39.854  29.521  30.365  1.00  0.00     0.074 A 
ATOM     42  C   UNL A   1      38.904  29.704  29.288  1.00  0.00     0.031 C 
ATOM     43  C   UNL A   1      37.982  33.926  34.669  1.00  0.00     0.029 A 
ATOM     44  C   UNL A   1      39.068  32.961  34.806  1.00  0.00     0.049 A 
ATOM     45  H   UNL A   1      39.708  31.569  33.393  1.00  0.00     0.167 HD
ATOM     46  C   UNL A   1      40.869  28.624  30.345  1.00  0.00     0.034 A 
ATOM     47  C   UNL A   1      39.847  32.811  35.898  1.00  0.00     0.034 A 
ATOM     48  C   UNL A   1      41.803  28.453  31.429  1.00  0.00     0.049 A 
ATOM     49  C   UNL A   1      40.922  31.751  35.885  1.00  0.00     0.074 A 
ATOM     50  C   UNL A   1      42.889  27.598  31.501  1.00  0.00     0.029 A 
ATOM     51  N   UNL A   1      41.755  29.136  32.638  1.00  0.00    -0.354 N 
ATOM     52  N   UNL A   1      41.243  30.911  34.927  1.00  0.00    -0.248 NA
ATOM     53  C   UNL A   1      41.741  31.621  37.097  1.00  0.00     0.031 C 
ATOM     54  C   UNL A   1      43.438  27.696  32.783  1.00  0.00     0.029 A 
ATOM     55  C   UNL A   1      42.766  28.689  33.476  1.00  0.00     0.049 A 
ATOM     56  H   UNL A   1      41.100  29.834  32.867  1.00  0.00     0.167 HD
ATOM     57  C   UNL A   1      42.329  30.184  35.409  1.00  0.00     0.074 A 
ATOM     58  C   UNL A   1      42.611  30.688  36.736  1.00  0.00     0.031 C 
ATOM     59  C   UNL A   1      43.036  29.196  34.802  1.00  0.00     0.034 A 
BRANCH  46  60
ATOM     60  C   UNL A   1      40.996  27.745  29.123  1.00  0.00     0.023 A 
ATOM     61  C   UNL A   1      41.989  27.968  28.154  1.00  0.00     0.031 A 
ATOM     62  C   UNL A   1      40.091  26.690  28.905  1.00  0.00     0.131 A 
ATOM     63  C   UNL A   1      42.001  27.209  26.975  1.00  0.00     0.055 A 
ATOM     64  C   UNL A   1      40.170  25.874  27.775  1.00  0.00     0.041 A 
ATOM     65  F   UNL A   1      39.103  26.444  29.781  1.00  0.00    -0.206 F 
ATOM     66  C   UNL A   1      41.118  26.143  26.792  1.00  0.00     0.022 A 
BRANCH  63  67
ATOM     67  S   UNL A   1      43.068  27.750  25.613  1.00  0.00     0.124 S 
ATOM     68  O   UNL A   1      43.968  28.678  26.294  1.00  0.00    -0.237 OA
ATOM     69  O   UNL A   1      43.663  26.497  25.162  1.00  0.00    -0.237 OA
ATOM     70  O   UNL A   1      42.138  28.373  24.674  1.00  0.00    -0.744 OA
ENDBRANCH  63  67
ENDBRANCH  46  60
BRANCH  47  71
ATOM     71  C   UNL A   1      39.639  33.669  37.102  1.00  0.00     0.023 A 
ATOM     72  C   UNL A   1      38.988  33.170  38.241  1.00  0.00     0.031 A 
ATOM     73  C   UNL A   1      40.042  35.017  37.113  1.00  0.00     0.131 A 
ATOM     74  C   UNL A   1      38.709  34.025  39.319  1.00  0.00     0.055 A 
ATOM     75  C   UNL A   1      39.822  35.845  38.215  1.00  0.00     0.041 A 
ATOM     76  F   UNL A   1      40.665  35.550  36.049  1.00  0.00    -0.206 F 
ATOM     77  C   UNL A   1      39.139  35.353  39.322  1.00  0.00     0.022 A 
BRANCH  74  78
ATOM     78  S   UNL A   1      37.674  33.403  40.673  1.00  0.00     0.124 S 
ATOM     79  O   UNL A   1      37.593  34.571  41.541  1.00  0.00    -0.237 OA
ATOM     80  O   UNL A   1      36.447  33.036  39.972  1.00  0.00    -0.237 OA
ATOM     81  O   UNL A   1      38.446  32.282  41.203  1.00  0.00    -0.744 OA
ENDBRANCH  74  78
ENDBRANCH  47  71
BRANCH  59  82
ATOM     82  C   UNL A   1      44.227  28.635  35.541  1.00  0.00     0.023 A 
ATOM     83  C   UNL A   1      44.105  27.592  36.476  1.00  0.00     0.031 A 
ATOM     84  C   UNL A   1      45.513  29.147  35.289  1.00  0.00     0.131 A 
ATOM     85  C   UNL A   1      45.240  27.128  37.157  1.00  0.00     0.055 A 
ATOM     86  C   UNL A   1      46.648  28.631  35.915  1.00  0.00     0.041 A 
ATOM     87  F   UNL A   1      45.691  30.149  34.413  1.00  0.00    -0.206 F 
ATOM     88  C   UNL A   1      46.513  27.623  36.864  1.00  0.00     0.022 A 
BRANCH  85  89
ATOM     89  S   UNL A   1      45.022  25.934  38.505  1.00  0.00     0.124 S 
ATOM     90  O   UNL A   1      44.268  24.872  37.848  1.00  0.00    -0.237 OA
ATOM     91  O   UNL A   1      46.400  25.611  38.862  1.00  0.00    -0.237 OA
ATOM     92  O   UNL A   1      44.281  26.687  39.514  1.00  0.00    -0.744 OA
ENDBRANCH  85  89
ENDBRANCH  59  82
ENDBRANCH  33  34
ENDBRANCH  25  28
ENDBRANCH  23  24
ENDBRANCH  22  23
ENDBRANCH   1  22
TORSDOF 17
ENDMDL
MODEL 2
REMARK VINA RESULT:     -11.6      2.524      3.834
REMARK SMILES N#Cc1ccnc(Oc2cccc(C(=O)NCCCCNC(=O)c3ccc(-c4c5nc(c(-c6cc(S(=O)(=O)[O-])ccc6F)c6ccc([nH]6)c(-c6cc(S(=O)(=O)[O-])ccc6F)c6nc(c(-c7cc(S(=O)(=O)[O-])ccc7F)c7ccc4[nH]7)C=C6)C=C5)cc3)c2)c1
REMARK SMILES IDX 18 1 17 2 16 3 14 4 15 5 13 7 9 8 10 9 87 10 11 11 12 12
REMARK SMILES IDX 8 13 7 14 3 15 4 16 88 17 5 18 6 19 2 20 1 21 19 22 20 23
REMARK SMILES IDX 21 24 22 25 23 27 24 28 25 29 86 30 26 31 85 32 27 33 28 34
REMARK SMILES IDX 29 35 79 36 30 37 84 38 78 39 80 40 31 41 83 42 77 43 76 44
REMARK SMILES IDX 32 46 64 47 44 48 63 49 45 50 48 51 62 52 81 53 46 54 47 55
REMARK SMILES IDX 61 57 82 58 49 59 33 60 34 61 42 62 35 63 41 64 43 65 40 66
REMARK SMILES IDX 36 67 37 68 38 69 39 70 65 71 66 72 74 73 67 74 73 75 75 76
REMARK SMILES IDX 72 77 68 78 69 79 70 80 71 81 50 82 51 83 59 84 52 85 58 86
REMARK SMILES IDX 60 87 57 88 53 89 54 90 55 91 56 92
REMARK H PARENT 16 6 21 26 80 45 48 56
REMARK Flexibility Score: inf
ROOT
ATOM      1  C   UNL A   1      31.461  26.907  26.354  1.00  0.00     0.023 C 
ENDROOT
BRANCH   1   2
ATOM      2  C   UNL A   1      30.944  25.718  25.542  1.00  0.00     0.116 C 
BRANCH   2   3
ATOM      3  N   UNL A   1      30.187  24.823  26.394  1.00  0.00    -0.352 N 
ATOM      4  C   UNL A   1      30.415  23.564  26.882  1.00  0.00     0.251 C 
ATOM      5  O   UNL A   1      29.525  23.065  27.572  1.00  0.00    -0.269 OA
ATOM      6  H   UNL A   1      29.326  25.202  26.686  1.00  0.00     0.163 HD
BRANCH   4   7
ATOM      7  C   UNL A   1      31.687  22.802  26.694  1.00  0.00     0.043 A 
ATOM      8  C   UNL A   1      33.334  21.599  25.387  1.00  0.00     0.130 A 
ATOM      9  C   UNL A   1      34.249  21.661  26.436  1.00  0.00     0.047 A 
ATOM     10  C   UNL A   1      32.028  22.064  25.560  1.00  0.00     0.061 A 
ATOM     11  C   UNL A   1      33.883  22.278  27.627  1.00  0.00     0.005 A 
ATOM     12  C   UNL A   1      32.624  22.875  27.739  1.00  0.00     0.014 A 
BRANCH   8  13
ATOM     13  O   UNL A   1      33.755  21.034  24.207  1.00  0.00    -0.439 OA
BRANCH  13  14
ATOM     14  C   UNL A   1      33.575  19.675  24.015  1.00  0.00     0.220 A 
ATOM     15  C   UNL A   1      34.051  17.348  24.338  1.00  0.00     0.059 A 
ATOM     16  C   UNL A   1      32.985  17.033  23.502  1.00  0.00     0.040 A 
ATOM     17  C   UNL A   1      34.344  18.685  24.618  1.00  0.00     0.088 A 
ATOM     18  C   UNL A   1      32.254  18.078  22.975  1.00  0.00     0.116 A 
ATOM     19  N   UNL A   1      32.528  19.380  23.214  1.00  0.00    -0.222 NA
BRANCH  15  20
ATOM     20  C   UNL A   1      34.845  16.302  24.910  1.00  0.00     0.099 C 
ATOM     21  N   UNL A   1      35.485  15.453  25.376  1.00  0.00    -0.192 NA
ENDBRANCH  15  20
ENDBRANCH  13  14
ENDBRANCH   8  13
ENDBRANCH   4   7
ENDBRANCH   2   3
ENDBRANCH   1   2
BRANCH   1  22
ATOM     22  C   UNL A   1      31.645  28.172  25.513  1.00  0.00     0.023 C 
BRANCH  22  23
ATOM     23  C   UNL A   1      32.790  29.070  25.967  1.00  0.00     0.116 C 
BRANCH  23  24
ATOM     24  N   UNL A   1      32.365  30.434  26.253  1.00  0.00    -0.352 N 
ATOM     25  C   UNL A   1      33.006  31.372  27.028  1.00  0.00     0.251 C 
ATOM     26  H   UNL A   1      31.516  30.718  25.842  1.00  0.00     0.163 HD
ATOM     27  O   UNL A   1      32.458  32.434  27.300  1.00  0.00    -0.269 OA
BRANCH  25  28
ATOM     28  C   UNL A   1      34.345  31.042  27.552  1.00  0.00     0.039 A 
ATOM     29  C   UNL A   1      35.284  32.061  27.710  1.00  0.00     0.014 A 
ATOM     30  C   UNL A   1      34.619  29.742  27.986  1.00  0.00     0.014 A 
ATOM     31  C   UNL A   1      36.480  31.788  28.375  1.00  0.00     0.010 A 
ATOM     32  C   UNL A   1      35.766  29.498  28.728  1.00  0.00     0.010 A 
ATOM     33  C   UNL A   1      36.710  30.518  28.930  1.00  0.00    -0.014 A 
BRANCH  33  34
ATOM     34  C   UNL A   1      37.936  30.225  29.717  1.00  0.00     0.031 A 
ATOM     35  C   UNL A   1      38.988  29.316  29.146  1.00  0.00     0.074 A 
ATOM     36  C   UNL A   1      38.074  30.728  30.961  1.00  0.00     0.049 A 
ATOM     37  N   UNL A   1      40.084  28.867  29.703  1.00  0.00    -0.248 NA
ATOM     38  C   UNL A   1      38.761  28.822  27.780  1.00  0.00     0.031 C 
ATOM     39  C   UNL A   1      37.111  31.603  31.633  1.00  0.00     0.029 A 
ATOM     40  N   UNL A   1      39.077  30.572  31.885  1.00  0.00    -0.354 N 
ATOM     41  C   UNL A   1      40.673  28.035  28.757  1.00  0.00     0.074 A 
ATOM     42  C   UNL A   1      39.771  27.981  27.626  1.00  0.00     0.031 C 
ATOM     43  C   UNL A   1      37.587  31.935  32.842  1.00  0.00     0.029 A 
ATOM     44  C   UNL A   1      38.856  31.250  33.063  1.00  0.00     0.049 A 
ATOM     45  H   UNL A   1      39.881  30.028  31.721  1.00  0.00     0.167 HD
ATOM     46  C   UNL A   1      41.867  27.398  28.814  1.00  0.00     0.034 A 
ATOM     47  C   UNL A   1      39.582  31.297  34.198  1.00  0.00     0.034 A 
ATOM     48  C   UNL A   1      42.750  27.460  29.952  1.00  0.00     0.049 A 
ATOM     49  C   UNL A   1      40.872  30.515  34.270  1.00  0.00     0.074 A 
ATOM     50  C   UNL A   1      43.998  26.881  30.104  1.00  0.00     0.029 A 
ATOM     51  N   UNL A   1      42.475  28.126  31.140  1.00  0.00    -0.354 N 
ATOM     52  N   UNL A   1      41.433  29.761  33.352  1.00  0.00    -0.248 NA
ATOM     53  C   UNL A   1      41.626  30.591  35.528  1.00  0.00     0.031 C 
ATOM     54  C   UNL A   1      44.433  27.117  31.411  1.00  0.00     0.029 A 
ATOM     55  C   UNL A   1      43.510  27.936  32.042  1.00  0.00     0.049 A 
ATOM     56  H   UNL A   1      41.664  28.656  31.314  1.00  0.00     0.167 HD
ATOM     57  C   UNL A   1      42.628  29.311  33.910  1.00  0.00     0.074 A 
ATOM     58  C   UNL A   1      42.707  29.881  35.238  1.00  0.00     0.031 C 
ATOM     59  C   UNL A   1      43.578  28.507  33.367  1.00  0.00     0.034 A 
BRANCH  46  60
ATOM     60  C   UNL A   1      42.265  26.558  27.623  1.00  0.00     0.023 A 
ATOM     61  C   UNL A   1      42.026  25.173  27.584  1.00  0.00     0.031 A 
ATOM     62  C   UNL A   1      42.921  27.142  26.525  1.00  0.00     0.131 A 
ATOM     63  C   UNL A   1      42.517  24.407  26.517  1.00  0.00     0.055 A 
ATOM     64  C   UNL A   1      43.320  26.389  25.419  1.00  0.00     0.041 A 
ATOM     65  F   UNL A   1      43.202  28.455  26.514  1.00  0.00    -0.206 F 
ATOM     66  C   UNL A   1      43.135  25.009  25.419  1.00  0.00     0.022 A 
BRANCH  63  67
ATOM     67  S   UNL A   1      42.493  22.601  26.671  1.00  0.00     0.124 S 
ATOM     68  O   UNL A   1      43.915  22.299  26.823  1.00  0.00    -0.237 OA
ATOM     69  O   UNL A   1      41.666  22.396  27.855  1.00  0.00    -0.237 OA
ATOM     70  O   UNL A   1      41.902  22.157  25.411  1.00  0.00    -0.744 OA
ENDBRANCH  63  67
ENDBRANCH  46  60
BRANCH  47  71
ATOM     71  C   UNL A   1      39.113  32.097  35.367  1.00  0.00     0.023 A 
ATOM     72  C   UNL A   1      39.568  33.409  35.576  1.00  0.00     0.031 A 
ATOM     73  C   UNL A   1      38.242  31.545  36.325  1.00  0.00     0.131 A 
ATOM     74  C   UNL A   1      39.197  34.103  36.737  1.00  0.00     0.055 A 
ATOM     75  C   UNL A   1      37.822  32.265  37.444  1.00  0.00     0.041 A 
ATOM     76  F   UNL A   1      37.778  30.293  36.180  1.00  0.00    -0.206 F 
ATOM     77  C   UNL A   1      38.312  33.548  37.663  1.00  0.00     0.022 A 
BRANCH  74  78
ATOM     78  S   UNL A   1      39.981  35.704  37.078  1.00  0.00     0.124 S 
ATOM     79  O   UNL A   1      39.653  36.454  35.872  1.00  0.00    -0.237 OA
ATOM     80  O   UNL A   1      39.300  36.120  38.300  1.00  0.00    -0.237 OA
ATOM     81  O   UNL A   1      41.393  35.363  37.238  1.00  0.00    -0.744 OA
ENDBRANCH  74  78
ENDBRANCH  47  71
BRANCH  59  82
ATOM     82  C   UNL A   1      44.821  28.245  34.184  1.00  0.00     0.023 A 
ATOM     83  C   UNL A   1      44.931  27.141  35.048  1.00  0.00     0.031 A 
ATOM     84  C   UNL A   1      45.924  29.113  34.079  1.00  0.00     0.131 A 
ATOM     85  C   UNL A   1      46.097  26.962  35.807  1.00  0.00     0.055 A 
ATOM     86  C   UNL A   1      47.108  28.888  34.781  1.00  0.00     0.041 A 
ATOM     87  F   UNL A   1      45.874  30.189  33.278  1.00  0.00    -0.206 F 
ATOM     88  C   UNL A   1      47.195  27.813  35.660  1.00  0.00     0.022 A 
BRANCH  85  89
ATOM     89  S   UNL A   1      46.127  25.655  37.064  1.00  0.00     0.124 S 
ATOM     90  O   UNL A   1      47.498  25.167  36.959  1.00  0.00    -0.237 OA
ATOM     91  O   UNL A   1      45.802  26.387  38.284  1.00  0.00    -0.237 OA
ATOM     92  O   UNL A   1      45.100  24.720  36.611  1.00  0.00    -0.744 OA
ENDBRANCH  85  89
ENDBRANCH  59  82
ENDBRANCH  33  34
ENDBRANCH  25  28
ENDBRANCH  23  24
ENDBRANCH  22  23
ENDBRANCH   1  22
TORSDOF 17
ENDMDL
MODEL 3
REMARK VINA RESULT:     -11.6      5.941      9.906
REMARK SMILES N#Cc1ccnc(Oc2cccc(C(=O)NCCCCNC(=O)c3ccc(-c4c5nc(c(-c6cc(S(=O)(=O)[O-])ccc6F)c6ccc([nH]6)c(-c6cc(S(=O)(=O)[O-])ccc6F)c6nc(c(-c7cc(S(=O)(=O)[O-])ccc7F)c7ccc4[nH]7)C=C6)C=C5)cc3)c2)c1
REMARK SMILES IDX 18 1 17 2 16 3 14 4 15 5 13 7 9 8 10 9 87 10 11 11 12 12
REMARK SMILES IDX 8 13 7 14 3 15 4 16 88 17 5 18 6 19 2 20 1 21 19 22 20 23
REMARK SMILES IDX 21 24 22 25 23 27 24 28 25 29 86 30 26 31 85 32 27 33 28 34
REMARK SMILES IDX 29 35 79 36 30 37 84 38 78 39 80 40 31 41 83 42 77 43 76 44
REMARK SMILES IDX 32 46 64 47 44 48 63 49 45 50 48 51 62 52 81 53 46 54 47 55
REMARK SMILES IDX 61 57 82 58 49 59 33 60 34 61 42 62 35 63 41 64 43 65 40 66
REMARK SMILES IDX 36 67 37 68 38 69 39 70 65 71 66 72 74 73 67 74 73 75 75 76
REMARK SMILES IDX 72 77 68 78 69 79 70 80 71 81 50 82 51 83 59 84 52 85 58 86
REMARK SMILES IDX 60 87 57 88 53 89 54 90 55 91 56 92
REMARK H PARENT 16 6 21 26 80 45 48 56
REMARK Flexibility Score: inf
ROOT
ATOM      1  C   UNL A   1      39.161  22.844  26.352  1.00  0.00     0.023 C 
ENDROOT
BRANCH   1   2
ATOM      2  C   UNL A   1      37.777  23.405  26.017  1.00  0.00     0.116 C 
BRANCH   2   3
ATOM      3  N   UNL A   1      37.491  23.221  24.609  1.00  0.00    -0.352 N 
ATOM      4  C   UNL A   1      36.354  22.927  23.906  1.00  0.00     0.251 C 
ATOM      5  O   UNL A   1      36.469  22.806  22.685  1.00  0.00    -0.269 OA
ATOM      6  H   UNL A   1      38.284  23.332  24.035  1.00  0.00     0.163 HD
BRANCH   4   7
ATOM      7  C   UNL A   1      34.991  22.821  24.510  1.00  0.00     0.043 A 
ATOM      8  C   UNL A   1      32.996  21.628  25.194  1.00  0.00     0.130 A 
ATOM      9  C   UNL A   1      32.572  22.718  25.950  1.00  0.00     0.047 A 
ATOM     10  C   UNL A   1      34.136  21.725  24.391  1.00  0.00     0.061 A 
ATOM     11  C   UNL A   1      33.346  23.873  25.979  1.00  0.00     0.005 A 
ATOM     12  C   UNL A   1      34.563  23.908  25.292  1.00  0.00     0.014 A 
BRANCH   8  13
ATOM     13  O   UNL A   1      32.235  20.485  25.240  1.00  0.00    -0.439 OA
BRANCH  13  14
ATOM     14  C   UNL A   1      32.673  19.362  24.561  1.00  0.00     0.220 A 
ATOM     15  C   UNL A   1      33.836  17.279  24.318  1.00  0.00     0.059 A 
ATOM     16  C   UNL A   1      33.378  17.198  23.007  1.00  0.00     0.040 A 
ATOM     17  C   UNL A   1      33.467  18.364  25.118  1.00  0.00     0.088 A 
ATOM     18  C   UNL A   1      32.568  18.216  22.548  1.00  0.00     0.116 A 
ATOM     19  N   UNL A   1      32.212  19.285  23.294  1.00  0.00    -0.222 NA
BRANCH  15  20
ATOM     20  C   UNL A   1      34.683  16.251  24.845  1.00  0.00     0.099 C 
ATOM     21  N   UNL A   1      35.366  15.415  25.272  1.00  0.00    -0.192 NA
ENDBRANCH  15  20
ENDBRANCH  13  14
ENDBRANCH   8  13
ENDBRANCH   4   7
ENDBRANCH   2   3
ENDBRANCH   1   2
BRANCH   1  22
ATOM     22  C   UNL A   1      39.351  21.398  25.888  1.00  0.00     0.023 C 
BRANCH  22  23
ATOM     23  C   UNL A   1      40.108  20.515  26.873  1.00  0.00     0.116 C 
BRANCH  23  24
ATOM     24  N   UNL A   1      41.035  19.600  26.219  1.00  0.00    -0.352 N 
ATOM     25  C   UNL A   1      42.301  19.873  25.754  1.00  0.00     0.251 C 
ATOM     26  H   UNL A   1      40.717  18.677  26.095  1.00  0.00     0.163 HD
ATOM     27  O   UNL A   1      42.913  19.042  25.093  1.00  0.00    -0.269 OA
BRANCH  25  28
ATOM     28  C   UNL A   1      42.874  21.202  26.039  1.00  0.00     0.039 A 
ATOM     29  C   UNL A   1      43.054  22.104  24.990  1.00  0.00     0.014 A 
ATOM     30  C   UNL A   1      43.124  21.581  27.360  1.00  0.00     0.014 A 
ATOM     31  C   UNL A   1      43.419  23.419  25.278  1.00  0.00     0.010 A 
ATOM     32  C   UNL A   1      43.394  22.912  27.649  1.00  0.00     0.010 A 
ATOM     33  C   UNL A   1      43.546  23.846  26.611  1.00  0.00    -0.014 A 
BRANCH  33  34
ATOM     34  C   UNL A   1      43.849  25.261  26.947  1.00  0.00     0.031 A 
ATOM     35  C   UNL A   1      45.256  25.773  26.814  1.00  0.00     0.074 A 
ATOM     36  C   UNL A   1      42.876  26.063  27.425  1.00  0.00     0.049 A 
ATOM     37  N   UNL A   1      45.744  26.944  27.137  1.00  0.00    -0.248 NA
ATOM     38  C   UNL A   1      46.251  24.834  26.276  1.00  0.00     0.031 C 
ATOM     39  C   UNL A   1      41.478  25.674  27.621  1.00  0.00     0.029 A 
ATOM     40  N   UNL A   1      42.914  27.372  27.837  1.00  0.00    -0.354 N 
ATOM     41  C   UNL A   1      47.102  26.878  26.846  1.00  0.00     0.074 A 
ATOM     42  C   UNL A   1      47.371  25.529  26.397  1.00  0.00     0.031 C 
ATOM     43  C   UNL A   1      40.787  26.729  28.078  1.00  0.00     0.029 A 
ATOM     44  C   UNL A   1      41.699  27.852  28.271  1.00  0.00     0.049 A 
ATOM     45  H   UNL A   1      43.734  27.917  27.823  1.00  0.00     0.167 HD
ATOM     46  C   UNL A   1      48.034  27.860  26.919  1.00  0.00     0.034 A 
ATOM     47  C   UNL A   1      41.362  29.053  28.783  1.00  0.00     0.034 A 
ATOM     48  C   UNL A   1      47.748  29.197  27.373  1.00  0.00     0.049 A 
ATOM     49  C   UNL A   1      42.433  30.108  28.931  1.00  0.00     0.074 A 
ATOM     50  C   UNL A   1      48.607  30.279  27.457  1.00  0.00     0.029 A 
ATOM     51  N   UNL A   1      46.514  29.635  27.838  1.00  0.00    -0.354 N 
ATOM     52  N   UNL A   1      43.706  30.042  28.616  1.00  0.00    -0.248 NA
ATOM     53  C   UNL A   1      42.020  31.398  29.499  1.00  0.00     0.031 C 
ATOM     54  C   UNL A   1      47.921  31.338  28.056  1.00  0.00     0.029 A 
ATOM     55  C   UNL A   1      46.603  30.957  28.248  1.00  0.00     0.049 A 
ATOM     56  H   UNL A   1      45.696  29.088  27.871  1.00  0.00     0.167 HD
ATOM     57  C   UNL A   1      44.234  31.297  28.909  1.00  0.00     0.074 A 
ATOM     58  C   UNL A   1      43.143  32.099  29.419  1.00  0.00     0.031 C 
ATOM     59  C   UNL A   1      45.507  31.747  28.759  1.00  0.00     0.034 A 
BRANCH  46  60
ATOM     60  C   UNL A   1      49.448  27.506  26.526  1.00  0.00     0.023 A 
ATOM     61  C   UNL A   1      50.427  27.201  27.488  1.00  0.00     0.031 A 
ATOM     62  C   UNL A   1      49.835  27.505  25.174  1.00  0.00     0.131 A 
ATOM     63  C   UNL A   1      51.757  26.997  27.095  1.00  0.00     0.055 A 
ATOM     64  C   UNL A   1      51.140  27.202  24.781  1.00  0.00     0.041 A 
ATOM     65  F   UNL A   1      48.953  27.814  24.210  1.00  0.00    -0.206 F 
ATOM     66  C   UNL A   1      52.116  26.964  25.746  1.00  0.00     0.022 A 
BRANCH  63  67
ATOM     67  S   UNL A   1      53.038  26.952  28.378  1.00  0.00     0.124 S 
ATOM     68  O   UNL A   1      53.555  28.317  28.326  1.00  0.00    -0.237 OA
ATOM     69  O   UNL A   1      52.276  26.602  29.572  1.00  0.00    -0.237 OA
ATOM     70  O   UNL A   1      53.963  25.925  27.903  1.00  0.00    -0.744 OA
ENDBRANCH  63  67
ENDBRANCH  46  60
BRANCH  47  71
ATOM     71  C   UNL A   1      39.959  29.330  29.210  1.00  0.00     0.023 A 
ATOM     72  C   UNL A   1      39.605  29.340  30.569  1.00  0.00     0.031 A 
ATOM     73  C   UNL A   1      38.937  29.536  28.265  1.00  0.00     0.131 A 
ATOM     74  C   UNL A   1      38.261  29.496  30.942  1.00  0.00     0.055 A 
ATOM     75  C   UNL A   1      37.613  29.758  28.644  1.00  0.00     0.041 A 
ATOM     76  F   UNL A   1      39.216  29.531  26.951  1.00  0.00    -0.206 F 
ATOM     77  C   UNL A   1      37.265  29.725  29.991  1.00  0.00     0.022 A 
BRANCH  74  78
ATOM     78  S   UNL A   1      37.816  29.282  32.688  1.00  0.00     0.124 S 
ATOM     79  O   UNL A   1      36.554  30.009  32.761  1.00  0.00    -0.237 OA
ATOM     80  O   UNL A   1      37.729  27.830  32.802  1.00  0.00    -0.237 OA
ATOM     81  O   UNL A   1      38.933  29.896  33.401  1.00  0.00    -0.744 OA
ENDBRANCH  74  78
ENDBRANCH  47  71
BRANCH  59  82
ATOM     82  C   UNL A   1      45.778  33.196  29.091  1.00  0.00     0.023 A 
ATOM     83  C   UNL A   1      45.748  34.206  28.113  1.00  0.00     0.031 A 
ATOM     84  C   UNL A   1      46.053  33.571  30.418  1.00  0.00     0.131 A 
ATOM     85  C   UNL A   1      46.036  35.531  28.470  1.00  0.00     0.055 A 
ATOM     86  C   UNL A   1      46.267  34.901  30.779  1.00  0.00     0.041 A 
ATOM     87  F   UNL A   1      46.104  32.649  31.394  1.00  0.00    -0.206 F 
ATOM     88  C   UNL A   1      46.270  35.890  29.799  1.00  0.00     0.022 A 
BRANCH  85  89
ATOM     89  S   UNL A   1      46.198  36.773  27.157  1.00  0.00     0.124 S 
ATOM     90  O   UNL A   1      45.055  37.640  27.419  1.00  0.00    -0.237 OA
ATOM     91  O   UNL A   1      47.512  37.348  27.431  1.00  0.00    -0.237 OA
ATOM     92  O   UNL A   1      46.111  35.986  25.929  1.00  0.00    -0.744 OA
ENDBRANCH  85  89
ENDBRANCH  59  82
ENDBRANCH  33  34
ENDBRANCH  25  28
ENDBRANCH  23  24
ENDBRANCH  22  23
ENDBRANCH   1  22
TORSDOF 17
ENDMDL
