MODEL 1
REMARK VINA RESULT:     -11.1      0.000      0.000
REMARK SMILES O=C(COc1ccccc1/C=N/N1[C@@H](S)N=N[C@H]1[C@@H]1C=C(c2ccccc2)N=N1)NCCCCNC(=O)c1ccc(-c2c3nc(c(-c4cc(S(=O)(=O)[O-])ccc4F)c4ccc([nH]4)c(-c4cc(S(=O)(=O)[O-])ccc4F)c4nc(c(-c5cc(S(=O)(=O)[O-])ccc5F)c5ccc2[nH]5)C=C4)C=C3)cc1
REMARK SMILES IDX 31 1 30 2 1 3 2 4 3 6 4 7 5 8 6 9 10 10 7 11 9 12 8 13 11 14
REMARK SMILES IDX 12 15 13 16 14 17 18 18 16 19 17 20 15 21 19 23 20 24 29 25
REMARK SMILES IDX 21 26 28 27 22 28 23 29 27 30 24 31 26 32 25 33 32 34 33 35
REMARK SMILES IDX 34 36 35 37 36 38 37 40 38 41 39 42 100 43 40 44 99 45 41 46
REMARK SMILES IDX 42 47 43 48 93 49 44 50 98 51 92 52 94 53 45 54 97 55 91 56
REMARK SMILES IDX 90 57 46 59 78 60 58 61 77 62 59 63 62 64 76 65 95 66 60 67
REMARK SMILES IDX 61 68 75 70 96 71 63 72 47 73 48 74 56 75 49 76 55 77 57 78
REMARK SMILES IDX 54 79 50 80 51 81 52 82 53 83 79 84 80 85 88 86 81 87 87 88
REMARK SMILES IDX 89 89 86 90 82 91 83 92 84 93 85 94 64 95 65 96 73 97 66 98
REMARK SMILES IDX 72 99 74 100 71 101 67 102 68 103 69 104 70 105
REMARK H PARENT 30 5 15 22 35 39 94 58 62 69
REMARK Flexibility Score: inf
ROOT
ATOM      1  C   UNL A   1      45.298  24.199  33.044  1.00  0.00     0.116 C 
ENDROOT
BRANCH   1   2
ATOM      2  N   UNL A   1      44.663  24.743  31.603  1.00  0.00    -0.353 N 
ATOM      3  O   UNL A   1      46.044  25.207  29.623  1.00  0.00    -0.271 OA
ATOM      4  C   UNL A   1      44.970  25.054  30.212  1.00  0.00     0.257 C 
ATOM      5  H   UNL A   1      43.706  24.925  31.747  1.00  0.00     0.163 HD
BRANCH   4   6
ATOM      6  C   UNL A   1      43.942  25.166  29.114  1.00  0.00     0.329 C 
BRANCH   6   7
ATOM      7  O   UNL A   1      43.071  26.203  28.994  1.00  0.00    -0.483 OA
BRANCH   7   8
ATOM      8  C   UNL A   1      42.263  26.273  27.914  1.00  0.00     0.128 A 
ATOM      9  C   UNL A   1      40.995  25.920  28.442  1.00  0.00     0.047 A 
ATOM     10  C   UNL A   1      42.519  26.397  26.524  1.00  0.00     0.037 A 
ATOM     11  C   UNL A   1      39.964  25.537  27.626  1.00  0.00     0.004 A 
ATOM     12  C   UNL A   1      41.439  25.971  25.723  1.00  0.00     0.013 A 
ATOM     13  C   UNL A   1      40.199  25.534  26.263  1.00  0.00     0.001 A 
BRANCH  10  14
ATOM     14  C   UNL A   1      43.860  26.636  25.739  1.00  0.00     0.145 C 
ATOM     15  N   UNL A   1      45.062  26.914  26.219  1.00  0.00    -0.180 NA
BRANCH  15  16
ATOM     16  N   UNL A   1      46.277  26.525  25.374  1.00  0.00    -0.233 NA
ATOM     17  C   UNL A   1      47.569  26.829  26.078  1.00  0.00     0.298 C 
ATOM     18  C   UNL A   1      46.726  24.875  25.115  1.00  0.00     0.274 C 
ATOM     19  N   UNL A   1      48.093  25.611  26.760  1.00  0.00    -0.153 NA
ATOM     20  N   UNL A   1      47.655  24.542  26.248  1.00  0.00    -0.161 NA
BRANCH  17  21
ATOM     21  S   UNL A   1      47.516  28.362  27.076  1.00  0.00    -0.128 SA
ATOM     22  H   UNL A   1      46.257  28.546  27.559  1.00  0.00     0.106 HD
ENDBRANCH  17  21
BRANCH  18  23
ATOM     23  C   UNL A   1      45.946  23.308  24.424  1.00  0.00     0.202 C 
ATOM     24  C   UNL A   1      44.449  22.853  24.395  1.00  0.00     0.037 C 
ATOM     25  N   UNL A   1      46.487  21.968  24.965  1.00  0.00    -0.177 NA
ATOM     26  C   UNL A   1      44.292  21.707  25.068  1.00  0.00     0.091 C 
ATOM     27  N   UNL A   1      45.531  21.197  25.380  1.00  0.00    -0.155 NA
BRANCH  26  28
ATOM     28  C   UNL A   1      42.950  21.356  25.705  1.00  0.00     0.002 A 
ATOM     29  C   UNL A   1      42.679  20.037  26.119  1.00  0.00     0.010 A 
ATOM     30  C   UNL A   1      41.980  22.279  26.108  1.00  0.00     0.010 A 
ATOM     31  C   UNL A   1      41.606  19.634  26.932  1.00  0.00     0.001 A 
ATOM     32  C   UNL A   1      40.837  21.882  26.861  1.00  0.00     0.001 A 
ATOM     33  C   UNL A   1      40.661  20.567  27.293  1.00  0.00     0.000 A 
ENDBRANCH  26  28
ENDBRANCH  18  23
ENDBRANCH  15  16
ENDBRANCH  10  14
ENDBRANCH   7   8
ENDBRANCH   6   7
ENDBRANCH   4   6
ENDBRANCH   1   2
BRANCH   1  34
ATOM     34  C   UNL A   1      44.856  23.225  34.331  1.00  0.00     0.023 C 
BRANCH  34  35
ATOM     35  C   UNL A   1      43.831  23.421  35.532  1.00  0.00     0.023 C 
BRANCH  35  36
ATOM     36  C   UNL A   1      42.371  23.712  35.172  1.00  0.00     0.116 C 
BRANCH  36  37
ATOM     37  N   UNL A   1      41.598  24.197  36.324  1.00  0.00    -0.352 N 
ATOM     38  C   UNL A   1      41.409  25.507  36.760  1.00  0.00     0.251 C 
ATOM     39  H   UNL A   1      41.155  23.502  36.862  1.00  0.00     0.163 HD
ATOM     40  O   UNL A   1      41.098  25.760  37.895  1.00  0.00    -0.269 OA
BRANCH  38  41
ATOM     41  C   UNL A   1      41.584  26.560  35.744  1.00  0.00     0.039 A 
ATOM     42  C   UNL A   1      41.244  26.389  34.400  1.00  0.00     0.014 A 
ATOM     43  C   UNL A   1      41.982  27.793  36.244  1.00  0.00     0.014 A 
ATOM     44  C   UNL A   1      41.235  27.514  33.579  1.00  0.00     0.010 A 
ATOM     45  C   UNL A   1      41.723  28.907  35.511  1.00  0.00     0.010 A 
ATOM     46  C   UNL A   1      41.465  28.771  34.155  1.00  0.00    -0.014 A 
BRANCH  46  47
ATOM     47  C   UNL A   1      41.403  30.017  33.411  1.00  0.00     0.031 A 
ATOM     48  C   UNL A   1      42.675  30.423  32.771  1.00  0.00     0.074 A 
ATOM     49  C   UNL A   1      40.214  30.579  33.102  1.00  0.00     0.049 A 
ATOM     50  N   UNL A   1      43.493  31.338  33.166  1.00  0.00    -0.248 NA
ATOM     51  C   UNL A   1      43.205  29.596  31.674  1.00  0.00     0.031 C 
ATOM     52  C   UNL A   1      38.860  30.079  33.397  1.00  0.00     0.029 A 
ATOM     53  N   UNL A   1      39.960  31.678  32.351  1.00  0.00    -0.354 N 
ATOM     54  C   UNL A   1      44.497  31.394  32.206  1.00  0.00     0.074 A 
ATOM     55  C   UNL A   1      44.404  30.151  31.491  1.00  0.00     0.031 C 
ATOM     56  C   UNL A   1      37.951  30.744  32.653  1.00  0.00     0.029 A 
ATOM     57  C   UNL A   1      38.626  31.844  31.993  1.00  0.00     0.049 A 
ATOM     58  H   UNL A   1      40.664  32.308  32.079  1.00  0.00     0.167 HD
ATOM     59  C   UNL A   1      45.119  32.574  31.918  1.00  0.00     0.034 A 
ATOM     60  C   UNL A   1      38.100  32.833  31.226  1.00  0.00     0.034 A 
ATOM     61  C   UNL A   1      44.751  33.580  32.898  1.00  0.00     0.049 A 
ATOM     62  C   UNL A   1      39.073  33.951  31.271  1.00  0.00     0.074 A 
ATOM     63  C   UNL A   1      44.919  33.726  34.260  1.00  0.00     0.029 A 
ATOM     64  N   UNL A   1      43.733  34.447  32.552  1.00  0.00    -0.354 N 
ATOM     65  N   UNL A   1      39.354  34.599  32.369  1.00  0.00    -0.248 NA
ATOM     66  C   UNL A   1      40.100  34.020  30.240  1.00  0.00     0.031 C 
ATOM     67  C   UNL A   1      43.698  34.301  34.724  1.00  0.00     0.029 A 
ATOM     68  C   UNL A   1      42.880  34.565  33.621  1.00  0.00     0.049 A 
ATOM     69  H   UNL A   1      43.635  34.902  31.685  1.00  0.00     0.167 HD
ATOM     70  C   UNL A   1      40.731  34.771  32.348  1.00  0.00     0.074 A 
ATOM     71  C   UNL A   1      41.115  34.510  30.961  1.00  0.00     0.031 C 
ATOM     72  C   UNL A   1      41.451  34.819  33.509  1.00  0.00     0.034 A 
BRANCH  59  73
ATOM     73  C   UNL A   1      45.715  32.972  30.577  1.00  0.00     0.023 A 
ATOM     74  C   UNL A   1      44.944  32.669  29.437  1.00  0.00     0.031 A 
ATOM     75  C   UNL A   1      47.046  33.363  30.318  1.00  0.00     0.131 A 
ATOM     76  C   UNL A   1      45.522  32.612  28.158  1.00  0.00     0.055 A 
ATOM     77  C   UNL A   1      47.602  33.365  29.034  1.00  0.00     0.041 A 
ATOM     78  F   UNL A   1      47.912  33.696  31.280  1.00  0.00    -0.206 F 
ATOM     79  C   UNL A   1      46.853  32.950  27.948  1.00  0.00     0.022 A 
BRANCH  76  80
ATOM     80  S   UNL A   1      44.544  31.898  26.812  1.00  0.00     0.124 S 
ATOM     81  O   UNL A   1      43.801  33.063  26.343  1.00  0.00    -0.237 OA
ATOM     82  O   UNL A   1      45.584  31.392  25.923  1.00  0.00    -0.237 OA
ATOM     83  O   UNL A   1      43.743  30.878  27.484  1.00  0.00    -0.744 OA
ENDBRANCH  76  80
ENDBRANCH  59  73
BRANCH  60  84
ATOM     84  C   UNL A   1      37.007  32.711  30.229  1.00  0.00     0.023 A 
ATOM     85  C   UNL A   1      35.882  33.560  30.200  1.00  0.00     0.031 A 
ATOM     86  C   UNL A   1      37.201  31.868  29.111  1.00  0.00     0.131 A 
ATOM     87  C   UNL A   1      35.014  33.548  29.081  1.00  0.00     0.055 A 
ATOM     88  C   UNL A   1      36.346  31.867  28.007  1.00  0.00     0.041 A 
ATOM     89  F   UNL A   1      38.281  31.075  29.021  1.00  0.00    -0.206 F 
ATOM     90  C   UNL A   1      35.251  32.714  27.984  1.00  0.00     0.022 A 
BRANCH  87  91
ATOM     91  S   UNL A   1      33.586  34.680  29.003  1.00  0.00     0.124 S 
ATOM     92  O   UNL A   1      34.175  35.888  28.440  1.00  0.00    -0.237 OA
ATOM     93  O   UNL A   1      32.658  33.948  28.149  1.00  0.00    -0.237 OA
ATOM     94  O   UNL A   1      33.168  34.797  30.401  1.00  0.00    -0.744 OA
ENDBRANCH  87  91
ENDBRANCH  60  84
BRANCH  72  95
ATOM     95  C   UNL A   1      40.680  34.972  34.808  1.00  0.00     0.023 A 
ATOM     96  C   UNL A   1      39.915  33.954  35.426  1.00  0.00     0.031 A 
ATOM     97  C   UNL A   1      40.827  36.184  35.503  1.00  0.00     0.131 A 
ATOM     98  C   UNL A   1      39.327  34.177  36.688  1.00  0.00     0.055 A 
ATOM     99  C   UNL A   1      40.262  36.394  36.760  1.00  0.00     0.041 A 
ATOM    100  F   UNL A   1      41.563  37.179  34.982  1.00  0.00    -0.206 F 
ATOM    101  C   UNL A   1      39.504  35.392  37.356  1.00  0.00     0.022 A 
BRANCH  98 102
ATOM    102  S   UNL A   1      38.303  32.892  37.481  1.00  0.00     0.124 S 
ATOM    103  O   UNL A   1      36.970  33.134  36.942  1.00  0.00    -0.237 OA
ATOM    104  O   UNL A   1      38.950  31.657  37.046  1.00  0.00    -0.237 OA
ATOM    105  O   UNL A   1      38.443  33.179  38.910  1.00  0.00    -0.744 OA
ENDBRANCH  98 102
ENDBRANCH  72  95
ENDBRANCH  46  47
ENDBRANCH  38  41
ENDBRANCH  36  37
ENDBRANCH  35  36
ENDBRANCH  34  35
ENDBRANCH   1  34
TORSDOF 21
ENDMDL
MODEL 2
REMARK VINA RESULT:     -11.0      3.679      6.580
REMARK SMILES O=C(COc1ccccc1/C=N/N1[C@@H](S)N=N[C@H]1[C@@H]1C=C(c2ccccc2)N=N1)NCCCCNC(=O)c1ccc(-c2c3nc(c(-c4cc(S(=O)(=O)[O-])ccc4F)c4ccc([nH]4)c(-c4cc(S(=O)(=O)[O-])ccc4F)c4nc(c(-c5cc(S(=O)(=O)[O-])ccc5F)c5ccc2[nH]5)C=C4)C=C3)cc1
REMARK SMILES IDX 31 1 30 2 1 3 2 4 3 6 4 7 5 8 6 9 10 10 7 11 9 12 8 13 11 14
REMARK SMILES IDX 12 15 13 16 14 17 18 18 16 19 17 20 15 21 19 23 20 24 29 25
REMARK SMILES IDX 21 26 28 27 22 28 23 29 27 30 24 31 26 32 25 33 32 34 33 35
REMARK SMILES IDX 34 36 35 37 36 38 37 40 38 41 39 42 100 43 40 44 99 45 41 46
REMARK SMILES IDX 42 47 43 48 93 49 44 50 98 51 92 52 94 53 45 54 97 55 91 56
REMARK SMILES IDX 90 57 46 59 78 60 58 61 77 62 59 63 62 64 76 65 95 66 60 67
REMARK SMILES IDX 61 68 75 70 96 71 63 72 47 73 48 74 56 75 49 76 55 77 57 78
REMARK SMILES IDX 54 79 50 80 51 81 52 82 53 83 79 84 80 85 88 86 81 87 87 88
REMARK SMILES IDX 89 89 86 90 82 91 83 92 84 93 85 94 64 95 65 96 73 97 66 98
REMARK SMILES IDX 72 99 74 100 71 101 67 102 68 103 69 104 70 105
REMARK H PARENT 30 5 15 22 35 39 94 58 62 69
REMARK Flexibility Score: inf
ROOT
ATOM      1  C   UNL A   1      42.848  19.883  25.876  1.00  0.00     0.116 C 
ENDROOT
BRANCH   1   2
ATOM      2  N   UNL A   1      44.104  20.976  25.796  1.00  0.00    -0.353 N 
ATOM      3  O   UNL A   1      46.371  20.358  25.072  1.00  0.00    -0.271 OA
ATOM      4  C   UNL A   1      45.489  21.165  25.383  1.00  0.00     0.257 C 
ATOM      5  H   UNL A   1      43.786  21.826  26.177  1.00  0.00     0.163 HD
BRANCH   4   6
ATOM      6  C   UNL A   1      46.135  22.507  25.146  1.00  0.00     0.329 C 
BRANCH   6   7
ATOM      7  O   UNL A   1      46.373  23.418  26.128  1.00  0.00    -0.483 OA
BRANCH   7   8
ATOM      8  C   UNL A   1      45.686  24.581  26.138  1.00  0.00     0.128 A 
ATOM      9  C   UNL A   1      44.387  24.185  25.730  1.00  0.00     0.047 A 
ATOM     10  C   UNL A   1      46.087  25.936  26.252  1.00  0.00     0.037 A 
ATOM     11  C   UNL A   1      43.471  25.100  25.281  1.00  0.00     0.004 A 
ATOM     12  C   UNL A   1      45.123  26.840  25.757  1.00  0.00     0.013 A 
ATOM     13  C   UNL A   1      43.854  26.429  25.266  1.00  0.00     0.001 A 
BRANCH  10  14
ATOM     14  C   UNL A   1      47.492  26.577  26.545  1.00  0.00     0.145 C 
ATOM     15  N   UNL A   1      48.694  26.065  26.336  1.00  0.00    -0.180 NA
BRANCH  15  16
ATOM     16  N   UNL A   1      49.860  27.035  26.134  1.00  0.00    -0.233 NA
ATOM     17  C   UNL A   1      51.042  26.676  26.988  1.00  0.00     0.298 C 
ATOM     18  C   UNL A   1      50.815  27.036  24.691  1.00  0.00     0.274 C 
ATOM     19  N   UNL A   1      52.031  25.878  26.208  1.00  0.00    -0.153 NA
ATOM     20  N   UNL A   1      51.929  26.064  24.962  1.00  0.00    -0.161 NA
BRANCH  17  21
ATOM     21  S   UNL A   1      50.584  26.021  28.634  1.00  0.00    -0.128 SA
ATOM     22  H   UNL A   1      49.737  24.967  28.484  1.00  0.00     0.106 HD
ENDBRANCH  17  21
BRANCH  18  23
ATOM     23  C   UNL A   1      50.546  27.225  22.838  1.00  0.00     0.202 C 
ATOM     24  C   UNL A   1      51.469  27.857  21.744  1.00  0.00     0.037 C 
ATOM     25  N   UNL A   1      49.274  27.977  22.397  1.00  0.00    -0.177 NA
ATOM     26  C   UNL A   1      50.860  28.892  21.154  1.00  0.00     0.091 C 
ATOM     27  N   UNL A   1      49.544  28.926  21.555  1.00  0.00    -0.155 NA
BRANCH  26  28
ATOM     28  C   UNL A   1      51.673  30.021  20.528  1.00  0.00     0.002 A 
ATOM     29  C   UNL A   1      51.937  30.029  19.144  1.00  0.00     0.010 A 
ATOM     30  C   UNL A   1      52.052  31.201  21.175  1.00  0.00     0.010 A 
ATOM     31  C   UNL A   1      52.449  31.113  18.410  1.00  0.00     0.001 A 
ATOM     32  C   UNL A   1      52.651  32.283  20.468  1.00  0.00     0.001 A 
ATOM     33  C   UNL A   1      52.827  32.251  19.085  1.00  0.00     0.000 A 
ENDBRANCH  26  28
ENDBRANCH  18  23
ENDBRANCH  15  16
ENDBRANCH  10  14
ENDBRANCH   7   8
ENDBRANCH   6   7
ENDBRANCH   4   6
ENDBRANCH   1   2
BRANCH   1  34
ATOM     34  C   UNL A   1      41.212  19.864  26.225  1.00  0.00     0.023 C 
BRANCH  34  35
ATOM     35  C   UNL A   1      40.128  21.017  26.386  1.00  0.00     0.023 C 
BRANCH  35  36
ATOM     36  C   UNL A   1      40.505  22.222  27.254  1.00  0.00     0.116 C 
BRANCH  36  37
ATOM     37  N   UNL A   1      41.558  21.901  28.227  1.00  0.00    -0.352 N 
ATOM     38  C   UNL A   1      42.567  22.722  28.725  1.00  0.00     0.251 C 
ATOM     39  H   UNL A   1      41.550  20.979  28.573  1.00  0.00     0.163 HD
ATOM     40  O   UNL A   1      43.577  22.270  29.199  1.00  0.00    -0.269 OA
BRANCH  38  41
ATOM     41  C   UNL A   1      42.314  24.172  28.663  1.00  0.00     0.039 A 
ATOM     42  C   UNL A   1      41.085  24.717  28.285  1.00  0.00     0.014 A 
ATOM     43  C   UNL A   1      43.346  24.966  29.144  1.00  0.00     0.014 A 
ATOM     44  C   UNL A   1      40.885  26.081  28.480  1.00  0.00     0.010 A 
ATOM     45  C   UNL A   1      43.056  26.225  29.565  1.00  0.00     0.010 A 
ATOM     46  C   UNL A   1      41.880  26.821  29.136  1.00  0.00    -0.014 A 
BRANCH  46  47
ATOM     47  C   UNL A   1      41.747  28.230  29.461  1.00  0.00     0.031 A 
ATOM     48  C   UNL A   1      42.613  29.135  28.672  1.00  0.00     0.074 A 
ATOM     49  C   UNL A   1      40.712  28.672  30.209  1.00  0.00     0.049 A 
ATOM     50  N   UNL A   1      43.699  29.713  29.058  1.00  0.00    -0.248 NA
ATOM     51  C   UNL A   1      42.358  29.269  27.229  1.00  0.00     0.031 C 
ATOM     52  C   UNL A   1      39.591  27.898  30.771  1.00  0.00     0.029 A 
ATOM     53  N   UNL A   1      40.380  29.944  30.538  1.00  0.00    -0.354 N 
ATOM     54  C   UNL A   1      44.108  30.510  27.994  1.00  0.00     0.074 A 
ATOM     55  C   UNL A   1      43.413  29.992  26.848  1.00  0.00     0.031 C 
ATOM     56  C   UNL A   1      38.609  28.734  31.171  1.00  0.00     0.029 A 
ATOM     57  C   UNL A   1      39.111  30.092  31.089  1.00  0.00     0.049 A 
ATOM     58  H   UNL A   1      40.989  30.704  30.398  1.00  0.00     0.167 HD
ATOM     59  C   UNL A   1      44.760  31.687  28.216  1.00  0.00     0.034 A 
ATOM     60  C   UNL A   1      38.516  31.248  31.479  1.00  0.00     0.034 A 
ATOM     61  C   UNL A   1      45.136  31.788  29.616  1.00  0.00     0.049 A 
ATOM     62  C   UNL A   1      39.612  32.223  31.694  1.00  0.00     0.074 A 
ATOM     63  C   UNL A   1      45.962  31.073  30.459  1.00  0.00     0.029 A 
ATOM     64  N   UNL A   1      44.297  32.512  30.438  1.00  0.00    -0.354 N 
ATOM     65  N   UNL A   1      40.518  32.075  32.622  1.00  0.00    -0.248 NA
ATOM     66  C   UNL A   1      40.009  33.078  30.583  1.00  0.00     0.031 C 
ATOM     67  C   UNL A   1      45.271  31.037  31.708  1.00  0.00     0.029 A 
ATOM     68  C   UNL A   1      44.108  31.804  31.599  1.00  0.00     0.049 A 
ATOM     69  H   UNL A   1      43.900  33.388  30.228  1.00  0.00     0.167 HD
ATOM     70  C   UNL A   1      41.717  32.429  32.020  1.00  0.00     0.074 A 
ATOM     71  C   UNL A   1      41.325  33.157  30.813  1.00  0.00     0.031 C 
ATOM     72  C   UNL A   1      42.895  31.850  32.402  1.00  0.00     0.034 A 
BRANCH  59  73
ATOM     73  C   UNL A   1      44.714  32.921  27.330  1.00  0.00     0.023 A 
ATOM     74  C   UNL A   1      44.013  34.032  27.842  1.00  0.00     0.031 A 
ATOM     75  C   UNL A   1      45.058  33.003  25.964  1.00  0.00     0.131 A 
ATOM     76  C   UNL A   1      43.559  35.060  26.999  1.00  0.00     0.055 A 
ATOM     77  C   UNL A   1      44.657  34.060  25.140  1.00  0.00     0.041 A 
ATOM     78  F   UNL A   1      45.734  32.046  25.320  1.00  0.00    -0.206 F 
ATOM     79  C   UNL A   1      43.868  35.078  25.645  1.00  0.00     0.022 A 
BRANCH  76  80
ATOM     80  S   UNL A   1      42.391  36.265  27.679  1.00  0.00     0.124 S 
ATOM     81  O   UNL A   1      42.925  36.461  29.023  1.00  0.00    -0.237 OA
ATOM     82  O   UNL A   1      42.541  37.382  26.753  1.00  0.00    -0.237 OA
ATOM     83  O   UNL A   1      41.110  35.565  27.614  1.00  0.00    -0.744 OA
ENDBRANCH  76  80
ENDBRANCH  59  73
BRANCH  60  84
ATOM     84  C   UNL A   1      37.083  31.611  31.340  1.00  0.00     0.023 A 
ATOM     85  C   UNL A   1      36.345  32.262  32.349  1.00  0.00     0.031 A 
ATOM     86  C   UNL A   1      36.483  31.523  30.063  1.00  0.00     0.131 A 
ATOM     87  C   UNL A   1      35.068  32.800  32.056  1.00  0.00     0.055 A 
ATOM     88  C   UNL A   1      35.227  32.062  29.779  1.00  0.00     0.041 A 
ATOM     89  F   UNL A   1      37.141  30.979  29.026  1.00  0.00    -0.206 F 
ATOM     90  C   UNL A   1      34.515  32.711  30.775  1.00  0.00     0.022 A 
BRANCH  87  91
ATOM     91  S   UNL A   1      34.123  33.694  33.334  1.00  0.00     0.124 S 
ATOM     92  O   UNL A   1      34.094  35.053  32.808  1.00  0.00    -0.237 OA
ATOM     93  O   UNL A   1      32.856  32.972  33.345  1.00  0.00    -0.237 OA
ATOM     94  O   UNL A   1      34.935  33.522  34.540  1.00  0.00    -0.744 OA
ENDBRANCH  87  91
ENDBRANCH  60  84
BRANCH  72  95
ATOM     95  C   UNL A   1      42.893  31.037  33.685  1.00  0.00     0.023 A 
ATOM     96  C   UNL A   1      42.396  29.717  33.812  1.00  0.00     0.031 A 
ATOM     97  C   UNL A   1      43.532  31.599  34.803  1.00  0.00     0.131 A 
ATOM     98  C   UNL A   1      42.542  29.019  35.028  1.00  0.00     0.055 A 
ATOM     99  C   UNL A   1      43.695  30.898  35.997  1.00  0.00     0.041 A 
ATOM    100  F   UNL A   1      44.049  32.836  34.737  1.00  0.00    -0.206 F 
ATOM    101  C   UNL A   1      43.195  29.606  36.117  1.00  0.00     0.022 A 
BRANCH  98 102
ATOM    102  S   UNL A   1      41.871  27.334  35.224  1.00  0.00     0.124 S 
ATOM    103  O   UNL A   1      43.039  26.478  35.054  1.00  0.00    -0.237 OA
ATOM    104  O   UNL A   1      41.301  27.374  36.568  1.00  0.00    -0.237 OA
ATOM    105  O   UNL A   1      40.882  27.234  34.149  1.00  0.00    -0.744 OA
ENDBRANCH  98 102
ENDBRANCH  72  95
ENDBRANCH  46  47
ENDBRANCH  38  41
ENDBRANCH  36  37
ENDBRANCH  35  36
ENDBRANCH  34  35
ENDBRANCH   1  34
TORSDOF 21
ENDMDL
MODEL 3
REMARK VINA RESULT:     -10.8      5.125     10.008
REMARK SMILES O=C(COc1ccccc1/C=N/N1[C@@H](S)N=N[C@H]1[C@@H]1C=C(c2ccccc2)N=N1)NCCCCNC(=O)c1ccc(-c2c3nc(c(-c4cc(S(=O)(=O)[O-])ccc4F)c4ccc([nH]4)c(-c4cc(S(=O)(=O)[O-])ccc4F)c4nc(c(-c5cc(S(=O)(=O)[O-])ccc5F)c5ccc2[nH]5)C=C4)C=C3)cc1
REMARK SMILES IDX 31 1 30 2 1 3 2 4 3 6 4 7 5 8 6 9 10 10 7 11 9 12 8 13 11 14
REMARK SMILES IDX 12 15 13 16 14 17 18 18 16 19 17 20 15 21 19 23 20 24 29 25
REMARK SMILES IDX 21 26 28 27 22 28 23 29 27 30 24 31 26 32 25 33 32 34 33 35
REMARK SMILES IDX 34 36 35 37 36 38 37 40 38 41 39 42 100 43 40 44 99 45 41 46
REMARK SMILES IDX 42 47 43 48 93 49 44 50 98 51 92 52 94 53 45 54 97 55 91 56
REMARK SMILES IDX 90 57 46 59 78 60 58 61 77 62 59 63 62 64 76 65 95 66 60 67
REMARK SMILES IDX 61 68 75 70 96 71 63 72 47 73 48 74 56 75 49 76 55 77 57 78
REMARK SMILES IDX 54 79 50 80 51 81 52 82 53 83 79 84 80 85 88 86 81 87 87 88
REMARK SMILES IDX 89 89 86 90 82 91 83 92 84 93 85 94 64 95 65 96 73 97 66 98
REMARK SMILES IDX 72 99 74 100 71 101 67 102 68 103 69 104 70 105
REMARK H PARENT 30 5 15 22 35 39 94 58 62 69
REMARK Flexibility Score: inf
ROOT
ATOM      1  C   UNL A   1      38.799  28.351  28.980  1.00  0.00     0.116 C 
ENDROOT
BRANCH   1   2
ATOM      2  N   UNL A   1      38.922  27.004  28.007  1.00  0.00    -0.353 N 
ATOM      3  O   UNL A   1      40.542  25.201  28.418  1.00  0.00    -0.271 OA
ATOM      4  C   UNL A   1      39.568  25.707  27.851  1.00  0.00     0.257 C 
ATOM      5  H   UNL A   1      38.327  27.137  27.234  1.00  0.00     0.163 HD
BRANCH   4   6
ATOM      6  C   UNL A   1      39.065  24.602  26.955  1.00  0.00     0.329 C 
BRANCH   6   7
ATOM      7  O   UNL A   1      37.875  24.643  26.299  1.00  0.00    -0.483 OA
BRANCH   7   8
ATOM      8  C   UNL A   1      37.175  23.502  26.118  1.00  0.00     0.128 A 
ATOM      9  C   UNL A   1      38.183  22.562  25.783  1.00  0.00     0.047 A 
ATOM     10  C   UNL A   1      35.788  23.228  26.007  1.00  0.00     0.037 A 
ATOM     11  C   UNL A   1      37.874  21.365  25.191  1.00  0.00     0.004 A 
ATOM     12  C   UNL A   1      35.517  21.997  25.372  1.00  0.00     0.013 A 
ATOM     13  C   UNL A   1      36.537  21.097  24.958  1.00  0.00     0.001 A 
BRANCH  10  14
ATOM     14  C   UNL A   1      34.534  24.158  26.190  1.00  0.00     0.145 C 
ATOM     15  N   UNL A   1      34.408  25.443  25.898  1.00  0.00    -0.180 NA
BRANCH  15  16
ATOM     16  N   UNL A   1      33.004  25.975  25.600  1.00  0.00    -0.233 NA
ATOM     17  C   UNL A   1      32.985  27.472  25.488  1.00  0.00     0.298 C 
ATOM     18  C   UNL A   1      32.258  25.780  24.051  1.00  0.00     0.274 C 
ATOM     19  N   UNL A   1      33.066  27.893  24.060  1.00  0.00    -0.153 NA
ATOM     20  N   UNL A   1      32.670  26.993  23.266  1.00  0.00    -0.161 NA
BRANCH  17  21
ATOM     21  S   UNL A   1      34.125  28.308  26.650  1.00  0.00    -0.128 SA
ATOM     22  H   UNL A   1      35.260  27.569  26.783  1.00  0.00     0.106 HD
ENDBRANCH  17  21
BRANCH  18  23
ATOM     23  C   UNL A   1      31.797  24.372  22.890  1.00  0.00     0.202 C 
ATOM     24  C   UNL A   1      31.281  22.930  23.208  1.00  0.00     0.037 C 
ATOM     25  N   UNL A   1      32.881  23.915  21.892  1.00  0.00    -0.177 NA
ATOM     26  C   UNL A   1      32.130  22.010  22.733  1.00  0.00     0.091 C 
ATOM     27  N   UNL A   1      33.065  22.632  21.938  1.00  0.00    -0.155 NA
BRANCH  26  28
ATOM     28  C   UNL A   1      32.222  20.630  23.376  1.00  0.00     0.002 A 
ATOM     29  C   UNL A   1      32.221  19.468  22.578  1.00  0.00     0.010 A 
ATOM     30  C   UNL A   1      32.502  20.381  24.723  1.00  0.00     0.010 A 
ATOM     31  C   UNL A   1      32.545  18.171  23.011  1.00  0.00     0.001 A 
ATOM     32  C   UNL A   1      32.751  19.063  25.205  1.00  0.00     0.001 A 
ATOM     33  C   UNL A   1      32.797  17.964  24.348  1.00  0.00     0.000 A 
ENDBRANCH  26  28
ENDBRANCH  18  23
ENDBRANCH  15  16
ENDBRANCH  10  14
ENDBRANCH   7   8
ENDBRANCH   6   7
ENDBRANCH   4   6
ENDBRANCH   1   2
BRANCH   1  34
ATOM     34  C   UNL A   1      37.643  29.465  29.454  1.00  0.00     0.023 C 
BRANCH  34  35
ATOM     35  C   UNL A   1      36.440  30.166  28.684  1.00  0.00     0.023 C 
BRANCH  35  36
ATOM     36  C   UNL A   1      36.701  31.550  28.079  1.00  0.00     0.116 C 
BRANCH  36  37
ATOM     37  N   UNL A   1      35.558  32.458  28.250  1.00  0.00    -0.352 N 
ATOM     38  C   UNL A   1      34.934  32.864  29.427  1.00  0.00     0.251 C 
ATOM     39  H   UNL A   1      35.182  32.829  27.420  1.00  0.00     0.163 HD
ATOM     40  O   UNL A   1      33.804  33.281  29.436  1.00  0.00    -0.269 OA
BRANCH  38  41
ATOM     41  C   UNL A   1      35.744  32.779  30.655  1.00  0.00     0.039 A 
ATOM     42  C   UNL A   1      35.583  31.771  31.608  1.00  0.00     0.014 A 
ATOM     43  C   UNL A   1      36.783  33.696  30.734  1.00  0.00     0.014 A 
ATOM     44  C   UNL A   1      36.547  31.654  32.607  1.00  0.00     0.010 A 
ATOM     45  C   UNL A   1      37.837  33.418  31.543  1.00  0.00     0.010 A 
ATOM     46  C   UNL A   1      37.678  32.480  32.552  1.00  0.00    -0.014 A 
BRANCH  46  47
ATOM     47  C   UNL A   1      38.780  32.394  33.494  1.00  0.00     0.031 A 
ATOM     48  C   UNL A   1      38.490  32.931  34.842  1.00  0.00     0.074 A 
ATOM     49  C   UNL A   1      39.857  31.622  33.228  1.00  0.00     0.049 A 
ATOM     50  N   UNL A   1      38.879  34.058  35.336  1.00  0.00    -0.248 NA
ATOM     51  C   UNL A   1      37.497  32.236  35.678  1.00  0.00     0.031 C 
ATOM     52  C   UNL A   1      40.104  30.766  32.055  1.00  0.00     0.029 A 
ATOM     53  N   UNL A   1      40.929  31.354  34.014  1.00  0.00    -0.354 N 
ATOM     54  C   UNL A   1      38.416  34.081  36.647  1.00  0.00     0.074 A 
ATOM     55  C   UNL A   1      37.378  33.089  36.697  1.00  0.00     0.031 C 
ATOM     56  C   UNL A   1      41.126  29.921  32.308  1.00  0.00     0.029 A 
ATOM     57  C   UNL A   1      41.735  30.313  33.564  1.00  0.00     0.049 A 
ATOM     58  H   UNL A   1      41.120  31.855  34.838  1.00  0.00     0.167 HD
ATOM     59  C   UNL A   1      39.124  34.718  37.624  1.00  0.00     0.034 A 
ATOM     60  C   UNL A   1      42.846  29.818  34.167  1.00  0.00     0.034 A 
ATOM     61  C   UNL A   1      40.191  35.504  37.030  1.00  0.00     0.049 A 
ATOM     62  C   UNL A   1      43.329  30.882  35.079  1.00  0.00     0.074 A 
ATOM     63  C   UNL A   1      40.247  36.581  36.168  1.00  0.00     0.029 A 
ATOM     64  N   UNL A   1      41.445  34.930  36.994  1.00  0.00    -0.354 N 
ATOM     65  N   UNL A   1      43.762  32.037  34.650  1.00  0.00    -0.248 NA
ATOM     66  C   UNL A   1      42.865  30.877  36.459  1.00  0.00     0.031 C 
ATOM     67  C   UNL A   1      41.360  36.314  35.316  1.00  0.00     0.029 A 
ATOM     68  C   UNL A   1      41.985  35.141  35.750  1.00  0.00     0.049 A 
ATOM     69  H   UNL A   1      41.880  34.450  37.736  1.00  0.00     0.167 HD
ATOM     70  C   UNL A   1      43.223  32.973  35.520  1.00  0.00     0.074 A 
ATOM     71  C   UNL A   1      42.790  32.195  36.681  1.00  0.00     0.031 C 
ATOM     72  C   UNL A   1      42.917  34.236  35.094  1.00  0.00     0.034 A 
BRANCH  59  73
ATOM     73  C   UNL A   1      39.157  34.346  39.097  1.00  0.00     0.023 A 
ATOM     74  C   UNL A   1      38.723  33.045  39.423  1.00  0.00     0.031 A 
ATOM     75  C   UNL A   1      39.315  35.220  40.194  1.00  0.00     0.131 A 
ATOM     76  C   UNL A   1      38.330  32.711  40.730  1.00  0.00     0.055 A 
ATOM     77  C   UNL A   1      38.980  34.865  41.506  1.00  0.00     0.041 A 
ATOM     78  F   UNL A   1      39.729  36.485  40.069  1.00  0.00    -0.206 F 
ATOM     79  C   UNL A   1      38.446  33.618  41.776  1.00  0.00     0.022 A 
BRANCH  76  80
ATOM     80  S   UNL A   1      37.481  31.133  40.987  1.00  0.00     0.124 S 
ATOM     81  O   UNL A   1      36.379  31.535  41.856  1.00  0.00    -0.237 OA
ATOM     82  O   UNL A   1      37.125  30.760  39.622  1.00  0.00    -0.237 OA
ATOM     83  O   UNL A   1      38.501  30.301  41.619  1.00  0.00    -0.744 OA
ENDBRANCH  76  80
ENDBRANCH  59  73
BRANCH  60  84
ATOM     84  C   UNL A   1      43.275  28.398  34.231  1.00  0.00     0.023 A 
ATOM     85  C   UNL A   1      42.635  27.427  35.029  1.00  0.00     0.031 A 
ATOM     86  C   UNL A   1      44.209  27.929  33.279  1.00  0.00     0.131 A 
ATOM     87  C   UNL A   1      42.933  26.055  34.850  1.00  0.00     0.055 A 
ATOM     88  C   UNL A   1      44.493  26.573  33.102  1.00  0.00     0.041 A 
ATOM     89  F   UNL A   1      44.816  28.775  32.431  1.00  0.00    -0.206 F 
ATOM     90  C   UNL A   1      43.849  25.628  33.884  1.00  0.00     0.022 A 
BRANCH  87  91
ATOM     91  S   UNL A   1      42.073  24.783  35.834  1.00  0.00     0.124 S 
ATOM     92  O   UNL A   1      40.699  25.269  35.842  1.00  0.00    -0.237 OA
ATOM     93  O   UNL A   1      42.332  23.570  35.066  1.00  0.00    -0.237 OA
ATOM     94  O   UNL A   1      42.750  24.842  37.131  1.00  0.00    -0.744 OA
ENDBRANCH  87  91
ENDBRANCH  60  84
BRANCH  72  95
ATOM     95  C   UNL A   1      43.449  34.667  33.738  1.00  0.00     0.023 A 
ATOM     96  C   UNL A   1      42.795  34.453  32.501  1.00  0.00     0.031 A 
ATOM     97  C   UNL A   1      44.628  35.432  33.724  1.00  0.00     0.131 A 
ATOM     98  C   UNL A   1      43.332  34.991  31.314  1.00  0.00     0.055 A 
ATOM     99  C   UNL A   1      45.144  35.981  32.552  1.00  0.00     0.041 A 
ATOM    100  F   UNL A   1      45.280  35.693  34.869  1.00  0.00    -0.206 F 
ATOM    101  C   UNL A   1      44.501  35.758  31.339  1.00  0.00     0.022 A 
BRANCH  98 102
ATOM    102  S   UNL A   1      42.526  34.690  29.705  1.00  0.00     0.124 S 
ATOM    103  O   UNL A   1      42.617  35.979  29.029  1.00  0.00    -0.237 OA
ATOM    104  O   UNL A   1      43.338  33.616  29.139  1.00  0.00    -0.237 OA
ATOM    105  O   UNL A   1      41.166  34.292  30.074  1.00  0.00    -0.744 OA
ENDBRANCH  98 102
ENDBRANCH  72  95
ENDBRANCH  46  47
ENDBRANCH  38  41
ENDBRANCH  36  37
ENDBRANCH  35  36
ENDBRANCH  34  35
ENDBRANCH   1  34
TORSDOF 21
ENDMDL
