MODEL 1
REMARK VINA RESULT:     -11.3      0.000      0.000
REMARK SMILES O=C(CC[NH2+][C@@H]1CCCC[C@@H]1[C@@H]1CCC[NH2+]1)NCCCCNC(=O)c1ccc(-c2c3nc(c(-c4cc(S(=O)(=O)[O-])ccc4F)c4ccc([nH]4)c(-c4cc(S(=O)(=O)[O-])ccc4F)c4nc(c(-c5cc(S(=O)(=O)[O-])ccc5F)c5ccc2[nH]5)C=C4)C=C3)cc1
REMARK SMILES IDX 19 1 18 2 17 3 1 4 2 5 3 7 4 8 5 9 6 12 7 13 11 14 8 15
REMARK SMILES IDX 10 16 9 17 12 18 13 19 16 20 14 21 15 22 20 25 21 26 22 27
REMARK SMILES IDX 23 28 24 30 25 31 26 32 87 33 27 34 86 35 28 36 29 37 30 38
REMARK SMILES IDX 80 39 31 40 85 41 79 42 81 43 32 44 84 45 78 46 77 47 33 49
REMARK SMILES IDX 65 50 45 51 64 52 46 53 49 54 63 55 82 56 47 57 48 58 62 60
REMARK SMILES IDX 83 61 50 62 34 63 35 64 43 65 36 66 42 67 44 68 41 69 37 70
REMARK SMILES IDX 38 71 39 72 40 73 66 74 67 75 75 76 68 77 74 78 76 79 73 80
REMARK SMILES IDX 69 81 70 82 71 83 72 84 51 85 52 86 60 87 53 88 59 89 61 90
REMARK SMILES IDX 58 91 54 92 55 93 56 94 57 95
REMARK H PARENT 17 6 5 10 5 11 16 23 16 24 22 29 81 48 49 59
REMARK Flexibility Score: inf
ROOT
ATOM      1  C   UNL A   1      34.585  21.555  25.047  1.00  0.00     0.023 C 
ENDROOT
BRANCH   1   2
ATOM      2  C   UNL A   1      33.356  21.069  25.813  1.00  0.00     0.116 C 
BRANCH   2   3
ATOM      3  N   UNL A   1      32.298  22.054  25.790  1.00  0.00    -0.356 N 
ATOM      4  O   UNL A   1      32.426  22.735  27.989  1.00  0.00    -0.275 OA
ATOM      5  C   UNL A   1      31.919  22.811  26.876  1.00  0.00     0.225 C 
ATOM      6  H   UNL A   1      31.817  22.192  24.943  1.00  0.00     0.163 HD
BRANCH   5   7
ATOM      7  C   UNL A   1      30.792  23.770  26.548  1.00  0.00     0.161 C 
BRANCH   7   8
ATOM      8  C   UNL A   1      31.167  24.775  25.456  1.00  0.00     0.270 C 
BRANCH   8   9
ATOM      9  N   UNL A   1      30.746  26.147  25.773  1.00  0.00    -0.343 N 
ATOM     10  H   UNL A   1      30.315  26.146  26.697  1.00  0.00     0.346 HD
ATOM     11  H   UNL A   1      30.098  26.434  25.038  1.00  0.00     0.346 HD
BRANCH   9  12
ATOM     12  C   UNL A   1      31.849  27.126  25.774  1.00  0.00     0.191 C 
ATOM     13  C   UNL A   1      31.795  27.896  27.110  1.00  0.00     0.065 C 
ATOM     14  C   UNL A   1      31.885  28.086  24.548  1.00  0.00     0.105 C 
ATOM     15  C   UNL A   1      32.912  28.929  27.245  1.00  0.00     0.006 C 
ATOM     16  C   UNL A   1      33.056  29.074  24.719  1.00  0.00     0.016 C 
ATOM     17  C   UNL A   1      33.064  29.841  26.033  1.00  0.00     0.001 C 
BRANCH  14  18
ATOM     18  C   UNL A   1      30.509  28.704  24.157  1.00  0.00     0.191 C 
ATOM     19  C   UNL A   1      29.831  28.051  22.958  1.00  0.00     0.071 C 
ATOM     20  N   UNL A   1      30.425  30.145  23.892  1.00  0.00    -0.343 N 
ATOM     21  C   UNL A   1      28.690  29.011  22.684  1.00  0.00     0.067 C 
ATOM     22  C   UNL A   1      29.305  30.370  22.967  1.00  0.00     0.260 C 
ATOM     23  H   UNL A   1      31.295  30.470  23.467  1.00  0.00     0.346 HD
ATOM     24  H   UNL A   1      30.278  30.659  24.760  1.00  0.00     0.346 HD
ENDBRANCH  14  18
ENDBRANCH   9  12
ENDBRANCH   8   9
ENDBRANCH   7   8
ENDBRANCH   5   7
ENDBRANCH   2   3
ENDBRANCH   1   2
BRANCH   1  25
ATOM     25  C   UNL A   1      35.757  20.566  25.008  1.00  0.00     0.023 C 
BRANCH  25  26
ATOM     26  C   UNL A   1      37.142  21.190  25.157  1.00  0.00     0.116 C 
BRANCH  26  27
ATOM     27  N   UNL A   1      38.147  20.215  25.552  1.00  0.00    -0.352 N 
ATOM     28  C   UNL A   1      39.406  20.410  26.070  1.00  0.00     0.251 C 
ATOM     29  H   UNL A   1      37.885  19.274  25.432  1.00  0.00     0.163 HD
ATOM     30  O   UNL A   1      40.173  19.457  26.163  1.00  0.00    -0.269 OA
BRANCH  28  31
ATOM     31  C   UNL A   1      39.848  21.764  26.482  1.00  0.00     0.039 A 
ATOM     32  C   UNL A   1      40.846  21.880  27.454  1.00  0.00     0.014 A 
ATOM     33  C   UNL A   1      39.279  22.915  25.930  1.00  0.00     0.014 A 
ATOM     34  C   UNL A   1      41.323  23.144  27.816  1.00  0.00     0.010 A 
ATOM     35  C   UNL A   1      39.808  24.169  26.237  1.00  0.00     0.010 A 
ATOM     36  C   UNL A   1      40.838  24.298  27.181  1.00  0.00    -0.014 A 
BRANCH  36  37
ATOM     37  C   UNL A   1      41.403  25.642  27.486  1.00  0.00     0.031 A 
ATOM     38  C   UNL A   1      42.809  25.987  27.075  1.00  0.00     0.074 A 
ATOM     39  C   UNL A   1      40.668  26.535  28.180  1.00  0.00     0.049 A 
ATOM     40  N   UNL A   1      43.502  27.072  27.317  1.00  0.00    -0.248 NA
ATOM     41  C   UNL A   1      43.544  24.964  26.318  1.00  0.00     0.031 C 
ATOM     42  C   UNL A   1      39.304  26.310  28.663  1.00  0.00     0.029 A 
ATOM     43  N   UNL A   1      40.963  27.806  28.609  1.00  0.00    -0.354 N 
ATOM     44  C   UNL A   1      44.753  26.861  26.747  1.00  0.00     0.074 A 
ATOM     45  C   UNL A   1      44.743  25.517  26.208  1.00  0.00     0.031 C 
ATOM     46  C   UNL A   1      38.874  27.412  29.298  1.00  0.00     0.029 A 
ATOM     47  C   UNL A   1      39.946  28.403  29.318  1.00  0.00     0.049 A 
ATOM     48  H   UNL A   1      41.823  28.250  28.425  1.00  0.00     0.167 HD
ATOM     49  C   UNL A   1      45.802  27.716  26.659  1.00  0.00     0.034 A 
ATOM     50  C   UNL A   1      39.886  29.601  29.934  1.00  0.00     0.034 A 
ATOM     51  C   UNL A   1      45.796  29.055  27.201  1.00  0.00     0.049 A 
ATOM     52  C   UNL A   1      41.083  30.517  29.866  1.00  0.00     0.074 A 
ATOM     53  C   UNL A   1      46.789  30.017  27.132  1.00  0.00     0.029 A 
ATOM     54  N   UNL A   1      44.752  29.619  27.924  1.00  0.00    -0.354 N 
ATOM     55  N   UNL A   1      42.244  30.318  29.284  1.00  0.00    -0.248 NA
ATOM     56  C   UNL A   1      40.958  31.822  30.527  1.00  0.00     0.031 C 
ATOM     57  C   UNL A   1      46.381  31.128  27.877  1.00  0.00     0.029 A 
ATOM     58  C   UNL A   1      45.093  30.900  28.336  1.00  0.00     0.049 A 
ATOM     59  H   UNL A   1      43.895  29.175  28.116  1.00  0.00     0.167 HD
ATOM     60  C   UNL A   1      42.973  31.488  29.483  1.00  0.00     0.074 A 
ATOM     61  C   UNL A   1      42.115  32.390  30.222  1.00  0.00     0.031 C 
ATOM     62  C   UNL A   1      44.235  31.790  29.084  1.00  0.00     0.034 A 
BRANCH  49  63
ATOM     63  C   UNL A   1      47.052  27.215  25.972  1.00  0.00     0.023 A 
ATOM     64  C   UNL A   1      48.036  26.490  26.667  1.00  0.00     0.031 A 
ATOM     65  C   UNL A   1      47.277  27.484  24.610  1.00  0.00     0.131 A 
ATOM     66  C   UNL A   1      49.230  26.131  26.023  1.00  0.00     0.055 A 
ATOM     67  C   UNL A   1      48.428  27.046  23.952  1.00  0.00     0.041 A 
ATOM     68  F   UNL A   1      46.387  28.191  23.896  1.00  0.00    -0.206 F 
ATOM     69  C   UNL A   1      49.421  26.379  24.663  1.00  0.00     0.022 A 
BRANCH  66  70
ATOM     70  S   UNL A   1      50.592  25.480  27.028  1.00  0.00     0.124 S 
ATOM     71  O   UNL A   1      50.862  26.603  27.923  1.00  0.00    -0.237 OA
ATOM     72  O   UNL A   1      49.995  24.300  27.643  1.00  0.00    -0.237 OA
ATOM     73  O   UNL A   1      51.642  25.209  26.047  1.00  0.00    -0.744 OA
ENDBRANCH  66  70
ENDBRANCH  49  63
BRANCH  50  74
ATOM     74  C   UNL A   1      38.663  30.002  30.691  1.00  0.00     0.023 A 
ATOM     75  C   UNL A   1      37.643  30.748  30.080  1.00  0.00     0.031 A 
ATOM     76  C   UNL A   1      38.520  29.684  32.053  1.00  0.00     0.131 A 
ATOM     77  C   UNL A   1      36.550  31.193  30.840  1.00  0.00     0.055 A 
ATOM     78  C   UNL A   1      37.400  30.075  32.791  1.00  0.00     0.041 A 
ATOM     79  F   UNL A   1      39.465  28.973  32.689  1.00  0.00    -0.206 F 
ATOM     80  C   UNL A   1      36.413  30.847  32.186  1.00  0.00     0.022 A 
BRANCH  77  81
ATOM     81  S   UNL A   1      35.352  32.315  30.067  1.00  0.00     0.124 S 
ATOM     82  O   UNL A   1      34.385  32.502  31.142  1.00  0.00    -0.237 OA
ATOM     83  O   UNL A   1      36.184  33.469  29.743  1.00  0.00    -0.237 OA
ATOM     84  O   UNL A   1      34.868  31.556  28.916  1.00  0.00    -0.744 OA
ENDBRANCH  77  81
ENDBRANCH  50  74
BRANCH  62  85
ATOM     85  C   UNL A   1      44.746  33.177  29.400  1.00  0.00     0.023 A 
ATOM     86  C   UNL A   1      44.598  34.248  28.502  1.00  0.00     0.031 A 
ATOM     87  C   UNL A   1      45.402  33.425  30.620  1.00  0.00     0.131 A 
ATOM     88  C   UNL A   1      45.148  35.502  28.810  1.00  0.00     0.055 A 
ATOM     89  C   UNL A   1      45.888  34.692  30.951  1.00  0.00     0.041 A 
ATOM     90  F   UNL A   1      45.580  32.440  31.515  1.00  0.00    -0.206 F 
ATOM     91  C   UNL A   1      45.775  35.735  30.038  1.00  0.00     0.022 A 
BRANCH  88  92
ATOM     92  S   UNL A   1      45.126  36.799  27.543  1.00  0.00     0.124 S 
ATOM     93  O   UNL A   1      45.731  36.120  26.404  1.00  0.00    -0.237 OA
ATOM     94  O   UNL A   1      43.703  37.098  27.427  1.00  0.00    -0.237 OA
ATOM     95  O   UNL A   1      45.935  37.866  28.131  1.00  0.00    -0.744 OA
ENDBRANCH  88  92
ENDBRANCH  62  85
ENDBRANCH  36  37
ENDBRANCH  28  31
ENDBRANCH  26  27
ENDBRANCH  25  26
ENDBRANCH   1  25
TORSDOF 18
ENDMDL
MODEL 2
REMARK VINA RESULT:     -11.2      1.705      7.746
REMARK SMILES O=C(CC[NH2+][C@@H]1CCCC[C@@H]1[C@@H]1CCC[NH2+]1)NCCCCNC(=O)c1ccc(-c2c3nc(c(-c4cc(S(=O)(=O)[O-])ccc4F)c4ccc([nH]4)c(-c4cc(S(=O)(=O)[O-])ccc4F)c4nc(c(-c5cc(S(=O)(=O)[O-])ccc5F)c5ccc2[nH]5)C=C4)C=C3)cc1
REMARK SMILES IDX 19 1 18 2 17 3 1 4 2 5 3 7 4 8 5 9 6 12 7 13 11 14 8 15
REMARK SMILES IDX 10 16 9 17 12 18 13 19 16 20 14 21 15 22 20 25 21 26 22 27
REMARK SMILES IDX 23 28 24 30 25 31 26 32 87 33 27 34 86 35 28 36 29 37 30 38
REMARK SMILES IDX 80 39 31 40 85 41 79 42 81 43 32 44 84 45 78 46 77 47 33 49
REMARK SMILES IDX 65 50 45 51 64 52 46 53 49 54 63 55 82 56 47 57 48 58 62 60
REMARK SMILES IDX 83 61 50 62 34 63 35 64 43 65 36 66 42 67 44 68 41 69 37 70
REMARK SMILES IDX 38 71 39 72 40 73 66 74 67 75 75 76 68 77 74 78 76 79 73 80
REMARK SMILES IDX 69 81 70 82 71 83 72 84 51 85 52 86 60 87 53 88 59 89 61 90
REMARK SMILES IDX 58 91 54 92 55 93 56 94 57 95
REMARK H PARENT 17 6 5 10 5 11 16 23 16 24 22 29 81 48 49 59
REMARK Flexibility Score: inf
ROOT
ATOM      1  C   UNL A   1      35.730  22.599  23.563  1.00  0.00     0.023 C 
ENDROOT
BRANCH   1   2
ATOM      2  C   UNL A   1      34.323  23.011  23.135  1.00  0.00     0.116 C 
BRANCH   2   3
ATOM      3  N   UNL A   1      33.523  23.410  24.270  1.00  0.00    -0.356 N 
ATOM      4  O   UNL A   1      31.938  24.651  23.146  1.00  0.00    -0.275 OA
ATOM      5  C   UNL A   1      32.394  24.194  24.187  1.00  0.00     0.225 C 
ATOM      6  H   UNL A   1      33.804  23.101  25.162  1.00  0.00     0.163 HD
BRANCH   5   7
ATOM      7  C   UNL A   1      31.755  24.434  25.540  1.00  0.00     0.161 C 
BRANCH   7   8
ATOM      8  C   UNL A   1      30.411  25.161  25.441  1.00  0.00     0.270 C 
BRANCH   8   9
ATOM      9  N   UNL A   1      30.372  26.400  26.231  1.00  0.00    -0.343 N 
ATOM     10  H   UNL A   1      30.278  26.151  27.215  1.00  0.00     0.346 HD
ATOM     11  H   UNL A   1      29.581  26.945  25.887  1.00  0.00     0.346 HD
BRANCH   9  12
ATOM     12  C   UNL A   1      31.571  27.246  26.077  1.00  0.00     0.191 C 
ATOM     13  C   UNL A   1      31.630  28.205  27.283  1.00  0.00     0.065 C 
ATOM     14  C   UNL A   1      31.675  28.006  24.720  1.00  0.00     0.105 C 
ATOM     15  C   UNL A   1      32.851  29.122  27.253  1.00  0.00     0.006 C 
ATOM     16  C   UNL A   1      32.947  28.878  24.732  1.00  0.00     0.016 C 
ATOM     17  C   UNL A   1      33.068  29.825  25.917  1.00  0.00     0.001 C 
BRANCH  14  18
ATOM     18  C   UNL A   1      30.362  28.703  24.255  1.00  0.00     0.191 C 
ATOM     19  C   UNL A   1      29.647  28.014  23.099  1.00  0.00     0.071 C 
ATOM     20  N   UNL A   1      30.405  30.120  23.874  1.00  0.00    -0.343 N 
ATOM     21  C   UNL A   1      28.595  29.040  22.727  1.00  0.00     0.067 C 
ATOM     22  C   UNL A   1      29.319  30.361  22.912  1.00  0.00     0.260 C 
ATOM     23  H   UNL A   1      31.304  30.335  23.442  1.00  0.00     0.346 HD
ATOM     24  H   UNL A   1      30.290  30.713  24.695  1.00  0.00     0.346 HD
ENDBRANCH  14  18
ENDBRANCH   9  12
ENDBRANCH   8   9
ENDBRANCH   7   8
ENDBRANCH   5   7
ENDBRANCH   2   3
ENDBRANCH   1   2
BRANCH   1  25
ATOM     25  C   UNL A   1      35.788  21.447  24.575  1.00  0.00     0.023 C 
BRANCH  25  26
ATOM     26  C   UNL A   1      36.734  21.660  25.753  1.00  0.00     0.116 C 
BRANCH  26  27
ATOM     27  N   UNL A   1      37.778  20.649  25.813  1.00  0.00    -0.352 N 
ATOM     28  C   UNL A   1      39.125  20.788  26.053  1.00  0.00     0.251 C 
ATOM     29  H   UNL A   1      37.473  19.726  25.659  1.00  0.00     0.163 HD
ATOM     30  O   UNL A   1      39.870  19.830  25.875  1.00  0.00    -0.269 OA
BRANCH  28  31
ATOM     31  C   UNL A   1      39.680  22.090  26.492  1.00  0.00     0.039 A 
ATOM     32  C   UNL A   1      40.741  22.099  27.402  1.00  0.00     0.014 A 
ATOM     33  C   UNL A   1      39.156  23.299  26.025  1.00  0.00     0.014 A 
ATOM     34  C   UNL A   1      41.321  23.313  27.784  1.00  0.00     0.010 A 
ATOM     35  C   UNL A   1      39.784  24.502  26.348  1.00  0.00     0.010 A 
ATOM     36  C   UNL A   1      40.877  24.523  27.229  1.00  0.00    -0.014 A 
BRANCH  36  37
ATOM     37  C   UNL A   1      41.547  25.813  27.552  1.00  0.00     0.031 A 
ATOM     38  C   UNL A   1      40.822  26.869  28.343  1.00  0.00     0.074 A 
ATOM     39  C   UNL A   1      42.790  26.056  27.088  1.00  0.00     0.049 A 
ATOM     40  N   UNL A   1      41.208  28.081  28.657  1.00  0.00    -0.248 NA
ATOM     41  C   UNL A   1      39.474  26.528  28.817  1.00  0.00     0.031 C 
ATOM     42  C   UNL A   1      43.586  25.126  26.284  1.00  0.00     0.029 A 
ATOM     43  N   UNL A   1      43.600  27.158  27.216  1.00  0.00    -0.354 N 
ATOM     44  C   UNL A   1      40.150  28.647  29.361  1.00  0.00     0.074 A 
ATOM     45  C   UNL A   1      39.083  27.669  29.366  1.00  0.00     0.031 C 
ATOM     46  C   UNL A   1      44.775  25.687  26.012  1.00  0.00     0.029 A 
ATOM     47  C   UNL A   1      44.811  27.034  26.573  1.00  0.00     0.049 A 
ATOM     48  H   UNL A   1      43.339  27.962  27.723  1.00  0.00     0.167 HD
ATOM     49  C   UNL A   1      40.084  29.859  29.968  1.00  0.00     0.034 A 
ATOM     50  C   UNL A   1      45.826  27.910  26.431  1.00  0.00     0.034 A 
ATOM     51  C   UNL A   1      41.158  30.825  29.953  1.00  0.00     0.049 A 
ATOM     52  C   UNL A   1      45.711  29.270  27.072  1.00  0.00     0.074 A 
ATOM     53  C   UNL A   1      41.211  32.063  30.569  1.00  0.00     0.029 A 
ATOM     54  N   UNL A   1      42.364  30.667  29.281  1.00  0.00    -0.354 N 
ATOM     55  N   UNL A   1      44.720  29.774  27.771  1.00  0.00    -0.248 NA
ATOM     56  C   UNL A   1      46.856  30.177  26.913  1.00  0.00     0.031 C 
ATOM     57  C   UNL A   1      42.409  32.686  30.205  1.00  0.00     0.029 A 
ATOM     58  C   UNL A   1      43.149  31.802  29.437  1.00  0.00     0.049 A 
ATOM     59  H   UNL A   1      42.624  29.869  28.768  1.00  0.00     0.167 HD
ATOM     60  C   UNL A   1      45.138  31.043  28.163  1.00  0.00     0.074 A 
ATOM     61  C   UNL A   1      46.475  31.219  27.636  1.00  0.00     0.031 C 
ATOM     62  C   UNL A   1      44.478  31.975  28.897  1.00  0.00     0.034 A 
BRANCH  49  63
ATOM     63  C   UNL A   1      38.795  30.215  30.673  1.00  0.00     0.023 A 
ATOM     64  C   UNL A   1      37.738  30.855  30.001  1.00  0.00     0.031 A 
ATOM     65  C   UNL A   1      38.626  29.932  32.040  1.00  0.00     0.131 A 
ATOM     66  C   UNL A   1      36.600  31.263  30.712  1.00  0.00     0.055 A 
ATOM     67  C   UNL A   1      37.453  30.261  32.722  1.00  0.00     0.041 A 
ATOM     68  F   UNL A   1      39.606  29.342  32.743  1.00  0.00    -0.206 F 
ATOM     69  C   UNL A   1      36.437  30.946  32.061  1.00  0.00     0.022 A 
BRANCH  66  70
ATOM     70  S   UNL A   1      35.409  32.353  29.886  1.00  0.00     0.124 S 
ATOM     71  O   UNL A   1      34.480  32.653  30.973  1.00  0.00    -0.237 OA
ATOM     72  O   UNL A   1      36.250  33.459  29.440  1.00  0.00    -0.237 OA
ATOM     73  O   UNL A   1      34.860  31.517  28.821  1.00  0.00    -0.744 OA
ENDBRANCH  66  70
ENDBRANCH  49  63
BRANCH  50  74
ATOM     74  C   UNL A   1      47.033  27.543  25.632  1.00  0.00     0.023 A 
ATOM     75  C   UNL A   1      47.154  27.919  24.285  1.00  0.00     0.031 A 
ATOM     76  C   UNL A   1      48.064  26.769  26.194  1.00  0.00     0.131 A 
ATOM     77  C   UNL A   1      48.254  27.479  23.532  1.00  0.00     0.055 A 
ATOM     78  C   UNL A   1      49.187  26.386  25.459  1.00  0.00     0.041 A 
ATOM     79  F   UNL A   1      48.000  26.381  27.478  1.00  0.00    -0.206 F 
ATOM     80  C   UNL A   1      49.279  26.730  24.113  1.00  0.00     0.022 A 
BRANCH  77  81
ATOM     81  S   UNL A   1      48.280  27.819  21.749  1.00  0.00     0.124 S 
ATOM     82  O   UNL A   1      48.582  26.502  21.202  1.00  0.00    -0.237 OA
ATOM     83  O   UNL A   1      46.929  28.317  21.517  1.00  0.00    -0.237 OA
ATOM     84  O   UNL A   1      49.341  28.813  21.608  1.00  0.00    -0.744 OA
ENDBRANCH  77  81
ENDBRANCH  50  74
BRANCH  62  85
ATOM     85  C   UNL A   1      45.218  33.255  29.215  1.00  0.00     0.023 A 
ATOM     86  C   UNL A   1      45.154  34.380  28.375  1.00  0.00     0.031 A 
ATOM     87  C   UNL A   1      46.008  33.342  30.376  1.00  0.00     0.131 A 
ATOM     88  C   UNL A   1      45.911  35.522  28.676  1.00  0.00     0.055 A 
ATOM     89  C   UNL A   1      46.706  34.505  30.706  1.00  0.00     0.041 A 
ATOM     90  F   UNL A   1      46.113  32.297  31.213  1.00  0.00    -0.206 F 
ATOM     91  C   UNL A   1      46.671  35.599  29.847  1.00  0.00     0.022 A 
BRANCH  88  92
ATOM     92  S   UNL A   1      45.974  36.871  27.465  1.00  0.00     0.124 S 
ATOM     93  O   UNL A   1      46.397  36.174  26.256  1.00  0.00    -0.237 OA
ATOM     94  O   UNL A   1      44.600  37.361  27.472  1.00  0.00    -0.237 OA
ATOM     95  O   UNL A   1      46.961  37.791  28.027  1.00  0.00    -0.744 OA
ENDBRANCH  88  92
ENDBRANCH  62  85
ENDBRANCH  36  37
ENDBRANCH  28  31
ENDBRANCH  26  27
ENDBRANCH  25  26
ENDBRANCH   1  25
TORSDOF 18
ENDMDL
MODEL 3
REMARK VINA RESULT:     -11.2      4.905     10.412
REMARK SMILES O=C(CC[NH2+][C@@H]1CCCC[C@@H]1[C@@H]1CCC[NH2+]1)NCCCCNC(=O)c1ccc(-c2c3nc(c(-c4cc(S(=O)(=O)[O-])ccc4F)c4ccc([nH]4)c(-c4cc(S(=O)(=O)[O-])ccc4F)c4nc(c(-c5cc(S(=O)(=O)[O-])ccc5F)c5ccc2[nH]5)C=C4)C=C3)cc1
REMARK SMILES IDX 19 1 18 2 17 3 1 4 2 5 3 7 4 8 5 9 6 12 7 13 11 14 8 15
REMARK SMILES IDX 10 16 9 17 12 18 13 19 16 20 14 21 15 22 20 25 21 26 22 27
REMARK SMILES IDX 23 28 24 30 25 31 26 32 87 33 27 34 86 35 28 36 29 37 30 38
REMARK SMILES IDX 80 39 31 40 85 41 79 42 81 43 32 44 84 45 78 46 77 47 33 49
REMARK SMILES IDX 65 50 45 51 64 52 46 53 49 54 63 55 82 56 47 57 48 58 62 60
REMARK SMILES IDX 83 61 50 62 34 63 35 64 43 65 36 66 42 67 44 68 41 69 37 70
REMARK SMILES IDX 38 71 39 72 40 73 66 74 67 75 75 76 68 77 74 78 76 79 73 80
REMARK SMILES IDX 69 81 70 82 71 83 72 84 51 85 52 86 60 87 53 88 59 89 61 90
REMARK SMILES IDX 58 91 54 92 55 93 56 94 57 95
REMARK H PARENT 17 6 5 10 5 11 16 23 16 24 22 29 81 48 49 59
REMARK Flexibility Score: inf
ROOT
ATOM      1  C   UNL A   1      31.680  27.478  26.498  1.00  0.00     0.023 C 
ENDROOT
BRANCH   1   2
ATOM      2  C   UNL A   1      31.248  27.271  25.048  1.00  0.00     0.116 C 
BRANCH   2   3
ATOM      3  N   UNL A   1      31.022  25.872  24.760  1.00  0.00    -0.356 N 
ATOM      4  O   UNL A   1      31.057  25.992  22.458  1.00  0.00    -0.275 OA
ATOM      5  C   UNL A   1      30.948  25.343  23.491  1.00  0.00     0.225 C 
ATOM      6  H   UNL A   1      30.914  25.258  25.522  1.00  0.00     0.163 HD
BRANCH   5   7
ATOM      7  C   UNL A   1      30.718  23.845  23.501  1.00  0.00     0.161 C 
BRANCH   7   8
ATOM      8  C   UNL A   1      31.312  23.162  24.736  1.00  0.00     0.270 C 
BRANCH   8   9
ATOM      9  N   UNL A   1      32.168  22.015  24.398  1.00  0.00    -0.343 N 
ATOM     10  H   UNL A   1      32.062  21.816  23.404  1.00  0.00     0.346 HD
ATOM     11  H   UNL A   1      31.867  21.239  24.988  1.00  0.00     0.346 HD
BRANCH   9  12
ATOM     12  C   UNL A   1      33.599  22.234  24.680  1.00  0.00     0.191 C 
ATOM     13  C   UNL A   1      34.278  22.668  23.364  1.00  0.00     0.065 C 
ATOM     14  C   UNL A   1      34.334  21.034  25.347  1.00  0.00     0.105 C 
ATOM     15  C   UNL A   1      35.769  22.954  23.531  1.00  0.00     0.006 C 
ATOM     16  C   UNL A   1      35.822  21.396  25.531  1.00  0.00     0.016 C 
ATOM     17  C   UNL A   1      36.533  21.858  24.266  1.00  0.00     0.001 C 
BRANCH  14  18
ATOM     18  C   UNL A   1      34.034  19.643  24.712  1.00  0.00     0.191 C 
ATOM     19  C   UNL A   1      32.867  18.891  25.340  1.00  0.00     0.071 C 
ATOM     20  N   UNL A   1      35.113  18.652  24.626  1.00  0.00    -0.343 N 
ATOM     21  C   UNL A   1      32.997  17.524  24.699  1.00  0.00     0.067 C 
ATOM     22  C   UNL A   1      34.499  17.316  24.626  1.00  0.00     0.260 C 
ATOM     23  H   UNL A   1      35.735  18.747  25.429  1.00  0.00     0.346 HD
ATOM     24  H   UNL A   1      35.659  18.792  23.777  1.00  0.00     0.346 HD
ENDBRANCH  14  18
ENDBRANCH   9  12
ENDBRANCH   8   9
ENDBRANCH   7   8
ENDBRANCH   5   7
ENDBRANCH   2   3
ENDBRANCH   1   2
BRANCH   1  25
ATOM     25  C   UNL A   1      31.777  28.943  26.943  1.00  0.00     0.023 C 
BRANCH  25  26
ATOM     26  C   UNL A   1      32.792  29.790  26.180  1.00  0.00     0.116 C 
BRANCH  26  27
ATOM     27  N   UNL A   1      32.706  31.200  26.528  1.00  0.00    -0.352 N 
ATOM     28  C   UNL A   1      33.494  31.948  27.371  1.00  0.00     0.251 C 
ATOM     29  H   UNL A   1      31.973  31.693  26.094  1.00  0.00     0.163 HD
ATOM     30  O   UNL A   1      33.142  33.082  27.677  1.00  0.00    -0.269 OA
BRANCH  28  31
ATOM     31  C   UNL A   1      34.743  31.380  27.933  1.00  0.00     0.039 A 
ATOM     32  C   UNL A   1      35.881  32.189  28.001  1.00  0.00     0.014 A 
ATOM     33  C   UNL A   1      34.805  30.056  28.379  1.00  0.00     0.014 A 
ATOM     34  C   UNL A   1      37.053  31.696  28.582  1.00  0.00     0.010 A 
ATOM     35  C   UNL A   1      35.950  29.592  29.026  1.00  0.00     0.010 A 
ATOM     36  C   UNL A   1      37.087  30.407  29.138  1.00  0.00    -0.014 A 
BRANCH  36  37
ATOM     37  C   UNL A   1      38.297  29.903  29.846  1.00  0.00     0.031 A 
ATOM     38  C   UNL A   1      38.642  30.413  31.219  1.00  0.00     0.074 A 
ATOM     39  C   UNL A   1      39.115  29.026  29.230  1.00  0.00     0.049 A 
ATOM     40  N   UNL A   1      39.690  30.153  31.962  1.00  0.00    -0.248 NA
ATOM     41  C   UNL A   1      37.699  31.364  31.825  1.00  0.00     0.031 C 
ATOM     42  C   UNL A   1      38.908  28.480  27.887  1.00  0.00     0.029 A 
ATOM     43  N   UNL A   1      40.288  28.443  29.645  1.00  0.00    -0.354 N 
ATOM     44  C   UNL A   1      39.534  30.909  33.119  1.00  0.00     0.074 A 
ATOM     45  C   UNL A   1      38.326  31.689  32.946  1.00  0.00     0.031 C 
ATOM     46  C   UNL A   1      39.904  27.627  27.599  1.00  0.00     0.029 A 
ATOM     47  C   UNL A   1      40.851  27.603  28.711  1.00  0.00     0.049 A 
ATOM     48  H   UNL A   1      40.688  28.610  30.529  1.00  0.00     0.167 HD
ATOM     49  C   UNL A   1      40.312  30.934  34.230  1.00  0.00     0.034 A 
ATOM     50  C   UNL A   1      42.006  26.908  28.734  1.00  0.00     0.034 A 
ATOM     51  C   UNL A   1      41.515  30.149  34.386  1.00  0.00     0.049 A 
ATOM     52  C   UNL A   1      42.881  26.988  29.960  1.00  0.00     0.074 A 
ATOM     53  C   UNL A   1      42.353  30.068  35.484  1.00  0.00     0.029 A 
ATOM     54  N   UNL A   1      42.059  29.320  33.413  1.00  0.00    -0.354 N 
ATOM     55  N   UNL A   1      42.697  27.675  31.064  1.00  0.00    -0.248 NA
ATOM     56  C   UNL A   1      44.114  26.190  29.948  1.00  0.00     0.031 C 
ATOM     57  C   UNL A   1      43.442  29.256  35.149  1.00  0.00     0.029 A 
ATOM     58  C   UNL A   1      43.240  28.754  33.874  1.00  0.00     0.049 A 
ATOM     59  H   UNL A   1      41.665  29.157  32.526  1.00  0.00     0.167 HD
ATOM     60  C   UNL A   1      43.774  27.365  31.889  1.00  0.00     0.074 A 
ATOM     61  C   UNL A   1      44.593  26.417  31.162  1.00  0.00     0.031 C 
ATOM     62  C   UNL A   1      44.058  27.818  33.137  1.00  0.00     0.034 A 
BRANCH  49  63
ATOM     63  C   UNL A   1      39.896  31.859  35.350  1.00  0.00     0.023 A 
ATOM     64  C   UNL A   1      39.086  31.416  36.411  1.00  0.00     0.031 A 
ATOM     65  C   UNL A   1      40.295  33.208  35.350  1.00  0.00     0.131 A 
ATOM     66  C   UNL A   1      38.634  32.328  37.377  1.00  0.00     0.055 A 
ATOM     67  C   UNL A   1      39.915  34.089  36.364  1.00  0.00     0.041 A 
ATOM     68  F   UNL A   1      41.051  33.697  34.354  1.00  0.00    -0.206 F 
ATOM     69  C   UNL A   1      39.066  33.655  37.377  1.00  0.00     0.022 A 
BRANCH  66  70
ATOM     70  S   UNL A   1      37.349  31.791  38.538  1.00  0.00     0.124 S 
ATOM     71  O   UNL A   1      36.278  32.744  38.254  1.00  0.00    -0.237 OA
ATOM     72  O   UNL A   1      37.106  30.414  38.126  1.00  0.00    -0.237 OA
ATOM     73  O   UNL A   1      37.981  31.950  39.847  1.00  0.00    -0.744 OA
ENDBRANCH  66  70
ENDBRANCH  49  63
BRANCH  50  74
ATOM     74  C   UNL A   1      42.421  26.092  27.554  1.00  0.00     0.023 A 
ATOM     75  C   UNL A   1      42.026  24.752  27.422  1.00  0.00     0.031 A 
ATOM     76  C   UNL A   1      43.261  26.631  26.563  1.00  0.00     0.131 A 
ATOM     77  C   UNL A   1      42.509  23.982  26.352  1.00  0.00     0.055 A 
ATOM     78  C   UNL A   1      43.689  25.879  25.467  1.00  0.00     0.041 A 
ATOM     79  F   UNL A   1      43.671  27.908  26.639  1.00  0.00    -0.206 F 
ATOM     80  C   UNL A   1      43.324  24.541  25.366  1.00  0.00     0.022 A 
BRANCH  77  81
ATOM     81  S   UNL A   1      42.136  22.206  26.321  1.00  0.00     0.124 S 
ATOM     82  O   UNL A   1      42.653  21.773  27.613  1.00  0.00    -0.237 OA
ATOM     83  O   UNL A   1      40.685  22.204  26.176  1.00  0.00    -0.237 OA
ATOM     84  O   UNL A   1      42.877  21.724  25.157  1.00  0.00    -0.744 OA
ENDBRANCH  77  81
ENDBRANCH  50  74
BRANCH  62  85
ATOM     85  C   UNL A   1      45.285  27.252  33.815  1.00  0.00     0.023 A 
ATOM     86  C   UNL A   1      45.236  26.077  34.585  1.00  0.00     0.031 A 
ATOM     87  C   UNL A   1      46.523  27.910  33.694  1.00  0.00     0.131 A 
ATOM     88  C   UNL A   1      46.386  25.628  35.251  1.00  0.00     0.055 A 
ATOM     89  C   UNL A   1      47.680  27.421  34.303  1.00  0.00     0.041 A 
ATOM     90  F   UNL A   1      46.630  29.041  32.977  1.00  0.00    -0.206 F 
ATOM     91  C   UNL A   1      47.613  26.281  35.099  1.00  0.00     0.022 A 
BRANCH  88  92
ATOM     92  S   UNL A   1      46.239  24.235  36.404  1.00  0.00     0.124 S 
ATOM     93  O   UNL A   1      44.990  24.541  37.091  1.00  0.00    -0.237 OA
ATOM     94  O   UNL A   1      46.209  23.087  35.504  1.00  0.00    -0.237 OA
ATOM     95  O   UNL A   1      47.442  24.343  37.228  1.00  0.00    -0.744 OA
ENDBRANCH  88  92
ENDBRANCH  62  85
ENDBRANCH  36  37
ENDBRANCH  28  31
ENDBRANCH  26  27
ENDBRANCH  25  26
ENDBRANCH   1  25
TORSDOF 18
ENDMDL
