MODEL 1
REMARK VINA RESULT:     -12.5      0.000      0.000
REMARK SMILES CC[C@@H](C)[C@@H](NC(=O)Cn1ncc2ccccc2c1=O)C(=O)NCCCCNC(=O)c1ccc(-c2c3nc(c(-c4cc(S(=O)(=O)[O-])ccc4F)c4ccc([nH]4)c(-c4cc(S(=O)(=O)[O-])ccc4F)c4nc(c(-c5cc(S(=O)(=O)[O-])ccc5F)c5ccc2[nH]5)C=C4)C=C3)cc1
REMARK SMILES IDX 25 1 24 2 23 3 21 4 22 5 5 7 3 8 4 9 2 10 1 11 6 12 7 13
REMARK SMILES IDX 8 15 9 16 10 17 11 18 19 19 12 20 18 21 20 22 13 23 17 24
REMARK SMILES IDX 14 25 16 26 15 27 26 28 27 29 28 30 29 31 30 33 31 34 32 35
REMARK SMILES IDX 93 36 33 37 92 38 34 39 35 40 36 41 86 42 37 43 91 44 85 45
REMARK SMILES IDX 87 46 38 47 90 48 84 49 83 50 39 52 71 53 51 54 70 55 52 56
REMARK SMILES IDX 55 57 69 58 88 59 53 60 54 61 68 63 89 64 56 65 40 66 41 67
REMARK SMILES IDX 49 68 42 69 48 70 50 71 47 72 43 73 44 74 45 75 46 76 72 77
REMARK SMILES IDX 73 78 81 79 74 80 80 81 82 82 79 83 75 84 76 85 77 86 78 87
REMARK SMILES IDX 57 88 58 89 66 90 59 91 65 92 67 93 64 94 60 95 61 96 62 97
REMARK SMILES IDX 63 98
REMARK H PARENT 23 6 6 14 28 32 87 51 55 62
REMARK Flexibility Score: inf
ROOT
ATOM      1  C   UNL A   1      35.560  22.444  23.874  1.00  0.00     0.023 C 
ENDROOT
BRANCH   1   2
ATOM      2  C   UNL A   1      35.443  23.962  24.531  1.00  0.00     0.116 C 
BRANCH   2   3
ATOM      3  N   UNL A   1      34.401  25.657  23.960  1.00  0.00    -0.354 N 
ATOM      4  C   UNL A   1      33.535  26.746  23.960  1.00  0.00     0.242 C 
ATOM      5  O   UNL A   1      33.493  27.398  22.906  1.00  0.00    -0.273 OA
ATOM      6  H   UNL A   1      34.788  25.773  23.062  1.00  0.00     0.163 HD
BRANCH   4   7
ATOM      7  C   UNL A   1      32.710  27.275  25.188  1.00  0.00     0.174 C 
BRANCH   7   8
ATOM      8  C   UNL A   1      32.778  28.837  25.212  1.00  0.00     0.018 C 
ATOM      9  C   UNL A   1      33.676  29.312  26.366  1.00  0.00     0.010 C 
BRANCH   8  10
ATOM     10  C   UNL A   1      31.454  29.623  25.181  1.00  0.00     0.002 C 
ATOM     11  C   UNL A   1      31.513  30.828  26.126  1.00  0.00     0.004 C 
ENDBRANCH   8  10
ENDBRANCH   7   8
BRANCH   7  12
ATOM     12  N   UNL A   1      31.398  26.701  25.567  1.00  0.00    -0.342 N 
ATOM     13  C   UNL A   1      30.932  25.591  26.199  1.00  0.00     0.242 C 
ATOM     14  H   UNL A   1      30.658  27.284  25.281  1.00  0.00     0.164 HD
ATOM     15  O   UNL A   1      29.714  25.573  26.427  1.00  0.00    -0.273 OA
BRANCH  13  16
ATOM     16  C   UNL A   1      31.811  24.506  26.804  1.00  0.00     0.248 C 
BRANCH  16  17
ATOM     17  N   UNL A   1      32.309  23.552  25.851  1.00  0.00    -0.220 N 
ATOM     18  N   UNL A   1      31.813  23.793  24.084  1.00  0.00    -0.177 NA
ATOM     19  C   UNL A   1      32.851  21.917  26.468  1.00  0.00     0.275 A 
ATOM     20  C   UNL A   1      31.817  22.598  23.114  1.00  0.00     0.142 A 
ATOM     21  C   UNL A   1      32.739  20.466  25.194  1.00  0.00     0.050 A 
ATOM     22  O   UNL A   1      33.297  21.788  27.601  1.00  0.00    -0.267 OA
ATOM     23  C   UNL A   1      32.222  20.813  23.579  1.00  0.00     0.007 A 
ATOM     24  C   UNL A   1      33.098  19.178  25.515  1.00  0.00     0.014 A 
ATOM     25  C   UNL A   1      32.153  19.807  22.652  1.00  0.00     0.010 A 
ATOM     26  C   UNL A   1      32.995  18.241  24.465  1.00  0.00     0.001 A 
ATOM     27  C   UNL A   1      32.552  18.539  23.119  1.00  0.00     0.001 A 
ENDBRANCH  16  17
ENDBRANCH  13  16
ENDBRANCH   7  12
ENDBRANCH   4   7
ENDBRANCH   2   3
ENDBRANCH   1   2
BRANCH   1  28
ATOM     28  C   UNL A   1      36.943  21.818  23.992  1.00  0.00     0.023 C 
BRANCH  28  29
ATOM     29  C   UNL A   1      37.427  21.702  25.416  1.00  0.00     0.116 C 
BRANCH  29  30
ATOM     30  N   UNL A   1      38.294  20.548  25.617  1.00  0.00    -0.352 N 
ATOM     31  C   UNL A   1      39.565  20.576  26.148  1.00  0.00     0.251 C 
ATOM     32  H   UNL A   1      37.940  19.668  25.350  1.00  0.00     0.163 HD
ATOM     33  O   UNL A   1      40.308  19.607  26.108  1.00  0.00    -0.269 OA
BRANCH  31  34
ATOM     34  C   UNL A   1      39.974  21.861  26.742  1.00  0.00     0.039 A 
ATOM     35  C   UNL A   1      39.499  23.020  26.125  1.00  0.00     0.014 A 
ATOM     36  C   UNL A   1      41.017  21.901  27.666  1.00  0.00     0.014 A 
ATOM     37  C   UNL A   1      40.220  24.189  26.276  1.00  0.00     0.010 A 
ATOM     38  C   UNL A   1      41.617  23.131  27.952  1.00  0.00     0.010 A 
ATOM     39  C   UNL A   1      41.246  24.280  27.236  1.00  0.00    -0.014 A 
BRANCH  39  40
ATOM     40  C   UNL A   1      41.812  25.624  27.529  1.00  0.00     0.031 A 
ATOM     41  C   UNL A   1      43.145  26.075  27.000  1.00  0.00     0.074 A 
ATOM     42  C   UNL A   1      41.053  26.460  28.267  1.00  0.00     0.049 A 
ATOM     43  N   UNL A   1      43.753  27.217  27.192  1.00  0.00    -0.248 NA
ATOM     44  C   UNL A   1      43.904  25.130  26.166  1.00  0.00     0.031 C 
ATOM     45  C   UNL A   1      39.754  26.106  28.848  1.00  0.00     0.029 A 
ATOM     46  N   UNL A   1      41.220  27.772  28.622  1.00  0.00    -0.354 N 
ATOM     47  C   UNL A   1      44.978  27.119  26.541  1.00  0.00     0.074 A 
ATOM     48  C   UNL A   1      45.036  25.793  25.966  1.00  0.00     0.031 C 
ATOM     49  C   UNL A   1      39.191  27.194  29.375  1.00  0.00     0.029 A 
ATOM     50  C   UNL A   1      40.149  28.289  29.316  1.00  0.00     0.049 A 
ATOM     51  H   UNL A   1      42.026  28.294  28.404  1.00  0.00     0.167 HD
ATOM     52  C   UNL A   1      45.950  28.058  26.435  1.00  0.00     0.034 A 
ATOM     53  C   UNL A   1      39.960  29.495  29.883  1.00  0.00     0.034 A 
ATOM     54  C   UNL A   1      45.848  29.381  27.009  1.00  0.00     0.049 A 
ATOM     55  C   UNL A   1      41.052  30.512  29.748  1.00  0.00     0.074 A 
ATOM     56  C   UNL A   1      46.768  30.413  26.951  1.00  0.00     0.029 A 
ATOM     57  N   UNL A   1      44.764  29.860  27.735  1.00  0.00    -0.354 N 
ATOM     58  N   UNL A   1      42.200  30.404  29.118  1.00  0.00    -0.248 NA
ATOM     59  C   UNL A   1      40.839  31.806  30.400  1.00  0.00     0.031 C 
ATOM     60  C   UNL A   1      46.272  31.487  27.691  1.00  0.00     0.029 A 
ATOM     61  C   UNL A   1      45.005  31.163  28.148  1.00  0.00     0.049 A 
ATOM     62  H   UNL A   1      43.945  29.350  27.929  1.00  0.00     0.167 HD
ATOM     63  C   UNL A   1      42.851  31.616  29.306  1.00  0.00     0.074 A 
ATOM     64  C   UNL A   1      41.941  32.459  30.057  1.00  0.00     0.031 C 
ATOM     65  C   UNL A   1      44.095  31.988  28.911  1.00  0.00     0.034 A 
BRANCH  52  66
ATOM     66  C   UNL A   1      47.213  27.718  25.673  1.00  0.00     0.023 A 
ATOM     67  C   UNL A   1      47.281  27.944  24.282  1.00  0.00     0.031 A 
ATOM     68  C   UNL A   1      48.291  27.057  26.286  1.00  0.00     0.131 A 
ATOM     69  C   UNL A   1      48.384  27.480  23.551  1.00  0.00     0.055 A 
ATOM     70  C   UNL A   1      49.410  26.639  25.560  1.00  0.00     0.041 A 
ATOM     71  F   UNL A   1      48.281  26.813  27.607  1.00  0.00    -0.206 F 
ATOM     72  C   UNL A   1      49.453  26.838  24.184  1.00  0.00     0.022 A 
BRANCH  69  73
ATOM     73  S   UNL A   1      48.446  27.628  21.743  1.00  0.00     0.124 S 
ATOM     74  O   UNL A   1      49.593  28.514  21.556  1.00  0.00    -0.237 OA
ATOM     75  O   UNL A   1      48.655  26.243  21.332  1.00  0.00    -0.237 OA
ATOM     76  O   UNL A   1      47.153  28.204  21.394  1.00  0.00    -0.744 OA
ENDBRANCH  69  73
ENDBRANCH  52  66
BRANCH  53  77
ATOM     77  C   UNL A   1      38.678  29.761  30.597  1.00  0.00     0.023 A 
ATOM     78  C   UNL A   1      37.658  30.515  29.985  1.00  0.00     0.031 A 
ATOM     79  C   UNL A   1      38.521  29.417  31.949  1.00  0.00     0.131 A 
ATOM     80  C   UNL A   1      36.588  30.995  30.750  1.00  0.00     0.055 A 
ATOM     81  C   UNL A   1      37.403  29.817  32.684  1.00  0.00     0.041 A 
ATOM     82  F   UNL A   1      39.472  28.713  32.583  1.00  0.00    -0.206 F 
ATOM     83  C   UNL A   1      36.443  30.633  32.092  1.00  0.00     0.022 A 
BRANCH  80  84
ATOM     84  S   UNL A   1      35.464  32.255  30.081  1.00  0.00     0.124 S 
ATOM     85  O   UNL A   1      35.035  31.645  28.828  1.00  0.00    -0.237 OA
ATOM     86  O   UNL A   1      34.446  32.332  31.128  1.00  0.00    -0.237 OA
ATOM     87  O   UNL A   1      36.309  33.438  29.955  1.00  0.00    -0.744 OA
ENDBRANCH  80  84
ENDBRANCH  53  77
BRANCH  65  88
ATOM     88  C   UNL A   1      44.569  33.367  29.303  1.00  0.00     0.023 A 
ATOM     89  C   UNL A   1      44.394  34.453  28.426  1.00  0.00     0.031 A 
ATOM     90  C   UNL A   1      45.291  33.581  30.491  1.00  0.00     0.131 A 
ATOM     91  C   UNL A   1      44.958  35.697  28.736  1.00  0.00     0.055 A 
ATOM     92  C   UNL A   1      45.802  34.836  30.823  1.00  0.00     0.041 A 
ATOM     93  F   UNL A   1      45.496  32.574  31.356  1.00  0.00    -0.206 F 
ATOM     94  C   UNL A   1      45.648  35.897  29.936  1.00  0.00     0.022 A 
BRANCH  91  95
ATOM     95  S   UNL A   1      44.896  37.072  27.555  1.00  0.00     0.124 S 
ATOM     96  O   UNL A   1      45.226  38.213  28.406  1.00  0.00    -0.237 OA
ATOM     97  O   UNL A   1      45.925  36.694  26.591  1.00  0.00    -0.237 OA
ATOM     98  O   UNL A   1      43.527  37.044  27.055  1.00  0.00    -0.744 OA
ENDBRANCH  91  95
ENDBRANCH  65  88
ENDBRANCH  39  40
ENDBRANCH  31  34
ENDBRANCH  29  30
ENDBRANCH  28  29
ENDBRANCH   1  28
TORSDOF 19
ENDMDL
MODEL 2
REMARK VINA RESULT:     -12.4      5.000      8.068
REMARK SMILES CC[C@@H](C)[C@@H](NC(=O)Cn1ncc2ccccc2c1=O)C(=O)NCCCCNC(=O)c1ccc(-c2c3nc(c(-c4cc(S(=O)(=O)[O-])ccc4F)c4ccc([nH]4)c(-c4cc(S(=O)(=O)[O-])ccc4F)c4nc(c(-c5cc(S(=O)(=O)[O-])ccc5F)c5ccc2[nH]5)C=C4)C=C3)cc1
REMARK SMILES IDX 25 1 24 2 23 3 21 4 22 5 5 7 3 8 4 9 2 10 1 11 6 12 7 13
REMARK SMILES IDX 8 15 9 16 10 17 11 18 19 19 12 20 18 21 20 22 13 23 17 24
REMARK SMILES IDX 14 25 16 26 15 27 26 28 27 29 28 30 29 31 30 33 31 34 32 35
REMARK SMILES IDX 93 36 33 37 92 38 34 39 35 40 36 41 86 42 37 43 91 44 85 45
REMARK SMILES IDX 87 46 38 47 90 48 84 49 83 50 39 52 71 53 51 54 70 55 52 56
REMARK SMILES IDX 55 57 69 58 88 59 53 60 54 61 68 63 89 64 56 65 40 66 41 67
REMARK SMILES IDX 49 68 42 69 48 70 50 71 47 72 43 73 44 74 45 75 46 76 72 77
REMARK SMILES IDX 73 78 81 79 74 80 80 81 82 82 79 83 75 84 76 85 77 86 78 87
REMARK SMILES IDX 57 88 58 89 66 90 59 91 65 92 67 93 64 94 60 95 61 96 62 97
REMARK SMILES IDX 63 98
REMARK H PARENT 23 6 6 14 28 32 87 51 55 62
REMARK Flexibility Score: inf
ROOT
ATOM      1  C   UNL A   1      32.029  28.517  26.981  1.00  0.00     0.023 C 
ENDROOT
BRANCH   1   2
ATOM      2  C   UNL A   1      30.925  27.316  26.683  1.00  0.00     0.116 C 
BRANCH   2   3
ATOM      3  N   UNL A   1      31.016  25.256  26.860  1.00  0.00    -0.354 N 
ATOM      4  C   UNL A   1      31.430  23.931  26.755  1.00  0.00     0.242 C 
ATOM      5  O   UNL A   1      30.665  23.089  27.248  1.00  0.00    -0.273 OA
ATOM      6  H   UNL A   1      30.194  25.115  27.382  1.00  0.00     0.163 HD
BRANCH   4   7
ATOM      7  C   UNL A   1      32.804  23.431  26.180  1.00  0.00     0.174 C 
BRANCH   7   8
ATOM      8  C   UNL A   1      32.665  21.931  25.761  1.00  0.00     0.018 C 
ATOM      9  C   UNL A   1      33.600  21.054  26.610  1.00  0.00     0.010 C 
BRANCH   8  10
ATOM     10  C   UNL A   1      32.782  21.580  24.266  1.00  0.00     0.002 C 
ATOM     11  C   UNL A   1      32.564  20.080  24.039  1.00  0.00     0.004 C 
ENDBRANCH   8  10
ENDBRANCH   7   8
BRANCH   7  12
ATOM     12  N   UNL A   1      33.631  24.260  25.271  1.00  0.00    -0.342 N 
ATOM     13  C   UNL A   1      33.492  24.870  24.064  1.00  0.00     0.242 C 
ATOM     14  H   UNL A   1      34.529  24.410  25.645  1.00  0.00     0.164 HD
ATOM     15  O   UNL A   1      34.432  25.601  23.720  1.00  0.00    -0.273 OA
BRANCH  13  16
ATOM     16  C   UNL A   1      32.215  24.874  23.237  1.00  0.00     0.248 C 
BRANCH  16  17
ATOM     17  N   UNL A   1      31.319  25.956  23.541  1.00  0.00    -0.220 N 
ATOM     18  N   UNL A   1      29.639  25.505  24.173  1.00  0.00    -0.177 NA
ATOM     19  C   UNL A   1      31.631  27.581  22.758  1.00  0.00     0.275 A 
ATOM     20  C   UNL A   1      28.467  26.488  24.013  1.00  0.00     0.142 A 
ATOM     21  C   UNL A   1      30.076  28.708  22.528  1.00  0.00     0.050 A 
ATOM     22  O   UNL A   1      32.766  27.926  22.455  1.00  0.00    -0.267 OA
ATOM     23  C   UNL A   1      28.550  28.156  23.129  1.00  0.00     0.007 A 
ATOM     24  C   UNL A   1      30.150  29.951  21.943  1.00  0.00     0.014 A 
ATOM     25  C   UNL A   1      27.437  28.942  22.996  1.00  0.00     0.010 A 
ATOM     26  C   UNL A   1      28.936  30.664  21.883  1.00  0.00     0.001 A 
ATOM     27  C   UNL A   1      27.661  30.190  22.380  1.00  0.00     0.001 A 
ENDBRANCH  16  17
ENDBRANCH  13  16
ENDBRANCH   7  12
ENDBRANCH   4   7
ENDBRANCH   2   3
ENDBRANCH   1   2
BRANCH   1  28
ATOM     28  C   UNL A   1      33.371  28.315  26.289  1.00  0.00     0.023 C 
BRANCH  28  29
ATOM     29  C   UNL A   1      33.966  29.595  25.756  1.00  0.00     0.116 C 
BRANCH  29  30
ATOM     30  N   UNL A   1      33.480  30.773  26.462  1.00  0.00    -0.352 N 
ATOM     31  C   UNL A   1      34.084  31.370  27.547  1.00  0.00     0.251 C 
ATOM     32  H   UNL A   1      32.644  31.179  26.135  1.00  0.00     0.163 HD
ATOM     33  O   UNL A   1      33.525  32.231  28.210  1.00  0.00    -0.269 OA
BRANCH  31  34
ATOM     34  C   UNL A   1      35.436  30.880  27.867  1.00  0.00     0.039 A 
ATOM     35  C   UNL A   1      35.530  29.594  28.405  1.00  0.00     0.014 A 
ATOM     36  C   UNL A   1      36.507  31.770  27.915  1.00  0.00     0.014 A 
ATOM     37  C   UNL A   1      36.629  29.284  29.182  1.00  0.00     0.010 A 
ATOM     38  C   UNL A   1      37.689  31.371  28.546  1.00  0.00     0.010 A 
ATOM     39  C   UNL A   1      37.750  30.137  29.213  1.00  0.00    -0.014 A 
BRANCH  39  40
ATOM     40  C   UNL A   1      38.992  29.636  29.859  1.00  0.00     0.031 A 
ATOM     41  C   UNL A   1      39.921  28.666  29.186  1.00  0.00     0.074 A 
ATOM     42  C   UNL A   1      39.286  30.127  31.081  1.00  0.00     0.049 A 
ATOM     43  N   UNL A   1      41.029  28.146  29.648  1.00  0.00    -0.248 NA
ATOM     44  C   UNL A   1      39.563  28.201  27.837  1.00  0.00     0.031 C 
ATOM     45  C   UNL A   1      38.434  31.057  31.829  1.00  0.00     0.029 A 
ATOM     46  N   UNL A   1      40.379  29.965  31.891  1.00  0.00    -0.354 N 
ATOM     47  C   UNL A   1      41.483  27.267  28.670  1.00  0.00     0.074 A 
ATOM     48  C   UNL A   1      40.514  27.307  27.596  1.00  0.00     0.031 C 
ATOM     49  C   UNL A   1      39.081  31.475  32.918  1.00  0.00     0.029 A 
ATOM     50  C   UNL A   1      40.325  30.728  33.036  1.00  0.00     0.049 A 
ATOM     51  H   UNL A   1      41.127  29.363  31.677  1.00  0.00     0.167 HD
ATOM     52  C   UNL A   1      42.607  26.509  28.677  1.00  0.00     0.034 A 
ATOM     53  C   UNL A   1      41.156  30.800  34.093  1.00  0.00     0.034 A 
ATOM     54  C   UNL A   1      43.562  26.510  29.762  1.00  0.00     0.049 A 
ATOM     55  C   UNL A   1      42.391  29.950  34.071  1.00  0.00     0.074 A 
ATOM     56  C   UNL A   1      44.740  25.791  29.866  1.00  0.00     0.029 A 
ATOM     57  N   UNL A   1      43.460  27.268  30.923  1.00  0.00    -0.354 N 
ATOM     58  N   UNL A   1      42.809  29.133  33.132  1.00  0.00    -0.248 NA
ATOM     59  C   UNL A   1      43.265  30.019  35.245  1.00  0.00     0.031 C 
ATOM     60  C   UNL A   1      45.313  26.063  31.109  1.00  0.00     0.029 A 
ATOM     61  C   UNL A   1      44.540  27.015  31.755  1.00  0.00     0.049 A 
ATOM     62  H   UNL A   1      42.727  27.893  31.126  1.00  0.00     0.167 HD
ATOM     63  C   UNL A   1      43.992  28.583  33.606  1.00  0.00     0.074 A 
ATOM     64  C   UNL A   1      44.251  29.207  34.889  1.00  0.00     0.031 C 
ATOM     65  C   UNL A   1      44.779  27.633  33.041  1.00  0.00     0.034 A 
BRANCH  52  66
ATOM     66  C   UNL A   1      42.892  25.616  27.490  1.00  0.00     0.023 A 
ATOM     67  C   UNL A   1      42.329  24.324  27.425  1.00  0.00     0.031 A 
ATOM     68  C   UNL A   1      43.815  25.982  26.494  1.00  0.00     0.131 A 
ATOM     69  C   UNL A   1      42.721  23.439  26.411  1.00  0.00     0.055 A 
ATOM     70  C   UNL A   1      44.167  25.111  25.459  1.00  0.00     0.041 A 
ATOM     71  F   UNL A   1      44.386  27.198  26.506  1.00  0.00    -0.206 F 
ATOM     72  C   UNL A   1      43.629  23.829  25.422  1.00  0.00     0.022 A 
BRANCH  69  73
ATOM     73  S   UNL A   1      42.124  21.725  26.373  1.00  0.00     0.124 S 
ATOM     74  O   UNL A   1      40.718  21.907  26.017  1.00  0.00    -0.237 OA
ATOM     75  O   UNL A   1      42.960  21.136  25.332  1.00  0.00    -0.237 OA
ATOM     76  O   UNL A   1      42.364  21.241  27.727  1.00  0.00    -0.744 OA
ENDBRANCH  69  73
ENDBRANCH  52  66
BRANCH  53  77
ATOM     77  C   UNL A   1      40.816  31.722  35.214  1.00  0.00     0.023 A 
ATOM     78  C   UNL A   1      39.818  31.381  36.147  1.00  0.00     0.031 A 
ATOM     79  C   UNL A   1      41.355  33.017  35.271  1.00  0.00     0.131 A 
ATOM     80  C   UNL A   1      39.312  32.354  37.018  1.00  0.00     0.055 A 
ATOM     81  C   UNL A   1      40.915  33.956  36.207  1.00  0.00     0.041 A 
ATOM     82  F   UNL A   1      42.297  33.397  34.394  1.00  0.00    -0.206 F 
ATOM     83  C   UNL A   1      39.869  33.635  37.067  1.00  0.00     0.022 A 
BRANCH  80  84
ATOM     84  S   UNL A   1      37.795  32.047  37.968  1.00  0.00     0.124 S 
ATOM     85  O   UNL A   1      36.917  33.108  37.489  1.00  0.00    -0.237 OA
ATOM     86  O   UNL A   1      37.444  30.694  37.541  1.00  0.00    -0.237 OA
ATOM     87  O   UNL A   1      38.230  32.161  39.356  1.00  0.00    -0.744 OA
ENDBRANCH  80  84
ENDBRANCH  53  77
BRANCH  65  88
ATOM     88  C   UNL A   1      45.994  27.181  33.814  1.00  0.00     0.023 A 
ATOM     89  C   UNL A   1      45.895  26.122  34.735  1.00  0.00     0.031 A 
ATOM     90  C   UNL A   1      47.218  27.869  33.721  1.00  0.00     0.131 A 
ATOM     91  C   UNL A   1      46.990  25.801  35.548  1.00  0.00     0.055 A 
ATOM     92  C   UNL A   1      48.322  27.508  34.492  1.00  0.00     0.041 A 
ATOM     93  F   UNL A   1      47.360  28.895  32.866  1.00  0.00    -0.206 F 
ATOM     94  C   UNL A   1      48.206  26.479  35.421  1.00  0.00     0.022 A 
BRANCH  91  95
ATOM     95  S   UNL A   1      46.846  24.556  36.858  1.00  0.00     0.124 S 
ATOM     96  O   UNL A   1      45.869  25.172  37.752  1.00  0.00    -0.237 OA
ATOM     97  O   UNL A   1      46.369  23.389  36.121  1.00  0.00    -0.237 OA
ATOM     98  O   UNL A   1      48.199  24.449  37.392  1.00  0.00    -0.744 OA
ENDBRANCH  91  95
ENDBRANCH  65  88
ENDBRANCH  39  40
ENDBRANCH  31  34
ENDBRANCH  29  30
ENDBRANCH  28  29
ENDBRANCH   1  28
TORSDOF 19
ENDMDL
MODEL 3
REMARK VINA RESULT:     -12.2      5.929     11.510
REMARK SMILES CC[C@@H](C)[C@@H](NC(=O)Cn1ncc2ccccc2c1=O)C(=O)NCCCCNC(=O)c1ccc(-c2c3nc(c(-c4cc(S(=O)(=O)[O-])ccc4F)c4ccc([nH]4)c(-c4cc(S(=O)(=O)[O-])ccc4F)c4nc(c(-c5cc(S(=O)(=O)[O-])ccc5F)c5ccc2[nH]5)C=C4)C=C3)cc1
REMARK SMILES IDX 25 1 24 2 23 3 21 4 22 5 5 7 3 8 4 9 2 10 1 11 6 12 7 13
REMARK SMILES IDX 8 15 9 16 10 17 11 18 19 19 12 20 18 21 20 22 13 23 17 24
REMARK SMILES IDX 14 25 16 26 15 27 26 28 27 29 28 30 29 31 30 33 31 34 32 35
REMARK SMILES IDX 93 36 33 37 92 38 34 39 35 40 36 41 86 42 37 43 91 44 85 45
REMARK SMILES IDX 87 46 38 47 90 48 84 49 83 50 39 52 71 53 51 54 70 55 52 56
REMARK SMILES IDX 55 57 69 58 88 59 53 60 54 61 68 63 89 64 56 65 40 66 41 67
REMARK SMILES IDX 49 68 42 69 48 70 50 71 47 72 43 73 44 74 45 75 46 76 72 77
REMARK SMILES IDX 73 78 81 79 74 80 80 81 82 82 79 83 75 84 76 85 77 86 78 87
REMARK SMILES IDX 57 88 58 89 66 90 59 91 65 92 67 93 64 94 60 95 61 96 62 97
REMARK SMILES IDX 63 98
REMARK H PARENT 23 6 6 14 28 32 87 51 55 62
REMARK Flexibility Score: inf
ROOT
ATOM      1  C   UNL A   1      38.047  31.782  37.255  1.00  0.00     0.023 C 
ENDROOT
BRANCH   1   2
ATOM      2  C   UNL A   1      38.034  31.695  35.599  1.00  0.00     0.116 C 
BRANCH   2   3
ATOM      3  N   UNL A   1      37.840  30.108  34.284  1.00  0.00    -0.354 N 
ATOM      4  C   UNL A   1      37.788  29.348  33.120  1.00  0.00     0.242 C 
ATOM      5  O   UNL A   1      37.489  28.154  33.272  1.00  0.00    -0.273 OA
ATOM      6  H   UNL A   1      37.655  29.396  34.937  1.00  0.00     0.163 HD
BRANCH   4   7
ATOM      7  C   UNL A   1      38.177  29.832  31.677  1.00  0.00     0.174 C 
BRANCH   7   8
ATOM      8  C   UNL A   1      39.701  29.567  31.444  1.00  0.00     0.018 C 
ATOM      9  C   UNL A   1      40.289  30.637  30.509  1.00  0.00     0.010 C 
BRANCH   8  10
ATOM     10  C   UNL A   1      40.136  28.155  31.012  1.00  0.00     0.002 C 
ATOM     11  C   UNL A   1      40.525  28.133  29.530  1.00  0.00     0.004 C 
ENDBRANCH   8  10
ENDBRANCH   7   8
BRANCH   7  12
ATOM     12  N   UNL A   1      37.313  29.584  30.499  1.00  0.00    -0.342 N 
ATOM     13  C   UNL A   1      36.694  30.317  29.535  1.00  0.00     0.242 C 
ATOM     14  H   UNL A   1      37.139  28.622  30.381  1.00  0.00     0.164 HD
ATOM     15  O   UNL A   1      36.156  29.667  28.627  1.00  0.00    -0.273 OA
BRANCH  13  16
ATOM     16  C   UNL A   1      36.794  31.829  29.400  1.00  0.00     0.248 C 
BRANCH  16  17
ATOM     17  N   UNL A   1      35.698  32.547  29.991  1.00  0.00    -0.220 N 
ATOM     18  N   UNL A   1      34.430  33.244  28.837  1.00  0.00    -0.177 NA
ATOM     19  C   UNL A   1      35.919  33.225  31.677  1.00  0.00     0.275 A 
ATOM     20  C   UNL A   1      33.563  34.437  29.276  1.00  0.00     0.142 A 
ATOM     21  C   UNL A   1      34.842  34.775  32.100  1.00  0.00     0.050 A 
ATOM     22  O   UNL A   1      36.668  32.683  32.480  1.00  0.00    -0.267 OA
ATOM     23  C   UNL A   1      33.718  35.356  30.920  1.00  0.00     0.007 A 
ATOM     24  C   UNL A   1      34.908  35.403  33.322  1.00  0.00     0.014 A 
ATOM     25  C   UNL A   1      32.930  36.440  31.201  1.00  0.00     0.010 A 
ATOM     26  C   UNL A   1      34.032  36.496  33.488  1.00  0.00     0.001 A 
ATOM     27  C   UNL A   1      33.102  36.982  32.490  1.00  0.00     0.001 A 
ENDBRANCH  16  17
ENDBRANCH  13  16
ENDBRANCH   7  12
ENDBRANCH   4   7
ENDBRANCH   2   3
ENDBRANCH   1   2
BRANCH   1  28
ATOM     28  C   UNL A   1      37.781  33.176  37.808  1.00  0.00     0.023 C 
BRANCH  28  29
ATOM     29  C   UNL A   1      38.909  33.708  38.657  1.00  0.00     0.116 C 
BRANCH  29  30
ATOM     30  N   UNL A   1      38.857  35.157  38.807  1.00  0.00    -0.352 N 
ATOM     31  C   UNL A   1      39.584  36.070  38.075  1.00  0.00     0.251 C 
ATOM     32  H   UNL A   1      38.247  35.516  39.492  1.00  0.00     0.163 HD
ATOM     33  O   UNL A   1      39.641  37.252  38.382  1.00  0.00    -0.269 OA
BRANCH  31  34
ATOM     34  C   UNL A   1      40.308  35.520  36.917  1.00  0.00     0.039 A 
ATOM     35  C   UNL A   1      39.563  35.288  35.759  1.00  0.00     0.014 A 
ATOM     36  C   UNL A   1      41.583  34.980  37.083  1.00  0.00     0.014 A 
ATOM     37  C   UNL A   1      40.014  34.336  34.865  1.00  0.00     0.010 A 
ATOM     38  C   UNL A   1      42.107  34.163  36.077  1.00  0.00     0.010 A 
ATOM     39  C   UNL A   1      41.315  33.808  34.974  1.00  0.00    -0.014 A 
BRANCH  39  40
ATOM     40  C   UNL A   1      41.832  32.984  33.849  1.00  0.00     0.031 A 
ATOM     41  C   UNL A   1      42.213  33.574  32.520  1.00  0.00     0.074 A 
ATOM     42  C   UNL A   1      41.992  31.665  34.081  1.00  0.00     0.049 A 
ATOM     43  N   UNL A   1      42.666  32.961  31.457  1.00  0.00    -0.248 NA
ATOM     44  C   UNL A   1      42.053  35.026  32.347  1.00  0.00     0.031 C 
ATOM     45  C   UNL A   1      41.628  30.992  35.332  1.00  0.00     0.029 A 
ATOM     46  N   UNL A   1      42.533  30.663  33.319  1.00  0.00    -0.354 N 
ATOM     47  C   UNL A   1      42.810  33.938  30.478  1.00  0.00     0.074 A 
ATOM     48  C   UNL A   1      42.372  35.184  31.068  1.00  0.00     0.031 C 
ATOM     49  C   UNL A   1      42.062  29.731  35.300  1.00  0.00     0.029 A 
ATOM     50  C   UNL A   1      42.592  29.453  33.973  1.00  0.00     0.049 A 
ATOM     51  H   UNL A   1      42.848  30.794  32.396  1.00  0.00     0.167 HD
ATOM     52  C   UNL A   1      43.271  33.796  29.210  1.00  0.00     0.034 A 
ATOM     53  C   UNL A   1      42.988  28.237  33.553  1.00  0.00     0.034 A 
ATOM     54  C   UNL A   1      43.716  32.536  28.661  1.00  0.00     0.049 A 
ATOM     55  C   UNL A   1      43.494  28.112  32.148  1.00  0.00     0.074 A 
ATOM     56  C   UNL A   1      44.214  32.282  27.395  1.00  0.00     0.029 A 
ATOM     57  N   UNL A   1      43.731  31.323  29.339  1.00  0.00    -0.354 N 
ATOM     58  N   UNL A   1      43.633  29.050  31.239  1.00  0.00    -0.248 NA
ATOM     59  C   UNL A   1      43.889  26.774  31.701  1.00  0.00     0.031 C 
ATOM     60  C   UNL A   1      44.467  30.914  27.287  1.00  0.00     0.029 A 
ATOM     61  C   UNL A   1      44.205  30.317  28.510  1.00  0.00     0.049 A 
ATOM     62  H   UNL A   1      43.444  31.195  30.273  1.00  0.00     0.167 HD
ATOM     63  C   UNL A   1      44.124  28.413  30.107  1.00  0.00     0.074 A 
ATOM     64  C   UNL A   1      44.313  27.022  30.469  1.00  0.00     0.031 C 
ATOM     65  C   UNL A   1      44.375  28.929  28.877  1.00  0.00     0.034 A 
BRANCH  52  66
ATOM     66  C   UNL A   1      43.333  35.015  28.316  1.00  0.00     0.023 A 
ATOM     67  C   UNL A   1      44.576  35.610  28.017  1.00  0.00     0.031 A 
ATOM     68  C   UNL A   1      42.168  35.663  27.867  1.00  0.00     0.131 A 
ATOM     69  C   UNL A   1      44.621  36.829  27.325  1.00  0.00     0.055 A 
ATOM     70  C   UNL A   1      42.221  36.853  27.137  1.00  0.00     0.041 A 
ATOM     71  F   UNL A   1      40.956  35.143  28.124  1.00  0.00    -0.206 F 
ATOM     72  C   UNL A   1      43.451  37.448  26.875  1.00  0.00     0.022 A 
BRANCH  69  73
ATOM     73  S   UNL A   1      46.190  37.695  27.042  1.00  0.00     0.124 S 
ATOM     74  O   UNL A   1      46.882  36.773  26.143  1.00  0.00    -0.237 OA
ATOM     75  O   UNL A   1      45.743  38.943  26.432  1.00  0.00    -0.237 OA
ATOM     76  O   UNL A   1      46.770  37.815  28.375  1.00  0.00    -0.744 OA
ENDBRANCH  69  73
ENDBRANCH  52  66
BRANCH  53  77
ATOM     77  C   UNL A   1      42.918  27.090  34.503  1.00  0.00     0.023 A 
ATOM     78  C   UNL A   1      44.090  26.567  35.085  1.00  0.00     0.031 A 
ATOM     79  C   UNL A   1      41.715  26.396  34.708  1.00  0.00     0.131 A 
ATOM     80  C   UNL A   1      44.052  25.333  35.744  1.00  0.00     0.055 A 
ATOM     81  C   UNL A   1      41.667  25.213  35.450  1.00  0.00     0.041 A 
ATOM     82  F   UNL A   1      40.575  26.843  34.161  1.00  0.00    -0.206 F 
ATOM     83  C   UNL A   1      42.843  24.662  35.948  1.00  0.00     0.022 A 
BRANCH  80  84
ATOM     84  S   UNL A   1      45.590  24.471  36.183  1.00  0.00     0.124 S 
ATOM     85  O   UNL A   1      45.255  23.083  35.884  1.00  0.00    -0.237 OA
ATOM     86  O   UNL A   1      46.551  25.098  35.278  1.00  0.00    -0.237 OA
ATOM     87  O   UNL A   1      45.773  24.789  37.594  1.00  0.00    -0.744 OA
ENDBRANCH  80  84
ENDBRANCH  53  77
BRANCH  65  88
ATOM     88  C   UNL A   1      44.862  27.981  27.809  1.00  0.00     0.023 A 
ATOM     89  C   UNL A   1      43.949  27.167  27.114  1.00  0.00     0.031 A 
ATOM     90  C   UNL A   1      46.235  27.805  27.558  1.00  0.00     0.131 A 
ATOM     91  C   UNL A   1      44.421  26.194  26.224  1.00  0.00     0.055 A 
ATOM     92  C   UNL A   1      46.697  26.874  26.628  1.00  0.00     0.041 A 
ATOM     93  F   UNL A   1      47.147  28.549  28.204  1.00  0.00    -0.206 F 
ATOM     94  C   UNL A   1      45.788  26.053  25.967  1.00  0.00     0.022 A 
BRANCH  91  95
ATOM     95  S   UNL A   1      43.286  25.017  25.438  1.00  0.00     0.124 S 
ATOM     96  O   UNL A   1      44.192  24.250  24.585  1.00  0.00    -0.237 OA
ATOM     97  O   UNL A   1      42.751  24.294  26.588  1.00  0.00    -0.237 OA
ATOM     98  O   UNL A   1      42.334  25.865  24.731  1.00  0.00    -0.744 OA
ENDBRANCH  91  95
ENDBRANCH  65  88
ENDBRANCH  39  40
ENDBRANCH  31  34
ENDBRANCH  29  30
ENDBRANCH  28  29
ENDBRANCH   1  28
TORSDOF 19
ENDMDL
