MODEL 1
REMARK VINA RESULT:     -12.2      0.000      0.000
REMARK SMILES Cc1cccc(C(=O)Nc2cc(C(=O)NCCCCNC(=O)c3ccc(-c4c5nc(c(-c6cc(S(=O)(=O)[O-])ccc6F)c6ccc([nH]6)c(-c6cc(S(=O)(=O)[O-])ccc6F)c6nc(c(-c7cc(S(=O)(=O)[O-])ccc7F)c7ccc4[nH]7)C=C6)C=C5)cc3)ccc2N2CC[NH+](CC(=O)NC(C)(C)C)CC2)c1
REMARK SMILES IDX 17 1 16 2 15 3 13 4 14 5 12 7 10 8 11 9 88 10 87 11 86 12
REMARK SMILES IDX 9 13 7 14 8 15 6 17 1 18 2 19 3 20 103 21 4 22 5 23 89 24
REMARK SMILES IDX 90 25 102 26 91 27 101 28 92 29 93 31 94 32 95 33 96 34
REMARK SMILES IDX 97 36 98 37 99 38 100 39 18 40 19 41 20 42 21 43 22 45 23 46
REMARK SMILES IDX 24 47 85 48 25 49 84 50 26 51 27 52 28 53 78 54 29 55 83 56
REMARK SMILES IDX 77 57 79 58 30 59 82 60 76 61 75 62 31 64 63 65 43 66 62 67
REMARK SMILES IDX 44 68 47 69 61 70 80 71 45 72 46 73 60 75 81 76 48 77 32 78
REMARK SMILES IDX 33 79 41 80 34 81 40 82 42 83 39 84 35 85 36 86 37 87 38 88
REMARK SMILES IDX 64 89 65 90 73 91 66 92 72 93 74 94 71 95 67 96 68 97 69 98
REMARK SMILES IDX 70 99 49 100 50 101 58 102 51 103 57 104 59 105 56 106
REMARK SMILES IDX 52 107 53 108 54 109 55 110
REMARK H PARENT 15 6 9 16 92 30 96 35 20 44 79 63 47 74
REMARK Flexibility Score: inf
ROOT
ATOM      1  C   UNL A   1      31.749  27.252  27.106  1.00  0.00     0.023 C 
ENDROOT
BRANCH   1   2
ATOM      2  C   UNL A   1      30.709  26.769  26.078  1.00  0.00     0.116 C 
BRANCH   2   3
ATOM      3  N   UNL A   1      29.878  25.673  26.581  1.00  0.00    -0.352 N 
ATOM      4  C   UNL A   1      30.105  24.338  26.826  1.00  0.00     0.251 C 
ATOM      5  O   UNL A   1      29.185  23.698  27.344  1.00  0.00    -0.269 OA
ATOM      6  H   UNL A   1      28.957  25.952  26.788  1.00  0.00     0.163 HD
BRANCH   4   7
ATOM      7  C   UNL A   1      31.384  23.619  26.534  1.00  0.00     0.042 A 
ATOM      8  C   UNL A   1      33.048  22.736  25.027  1.00  0.00     0.065 A 
ATOM      9  C   UNL A   1      31.772  23.232  25.267  1.00  0.00     0.042 A 
ATOM     10  C   UNL A   1      33.970  22.456  26.064  1.00  0.00     0.061 A 
ATOM     11  C   UNL A   1      33.544  22.761  27.358  1.00  0.00     0.029 A 
ATOM     12  C   UNL A   1      32.286  23.366  27.585  1.00  0.00     0.016 A 
BRANCH   8  13
ATOM     13  N   UNL A   1      33.454  22.617  23.688  1.00  0.00    -0.320 N 
ATOM     14  C   UNL A   1      33.723  23.668  22.820  1.00  0.00     0.255 C 
ATOM     15  O   UNL A   1      34.443  23.446  21.845  1.00  0.00    -0.269 OA
ATOM     16  H   UNL A   1      33.558  21.705  23.331  1.00  0.00     0.170 HD
BRANCH  14  17
ATOM     17  C   UNL A   1      33.286  25.072  23.089  1.00  0.00     0.040 A 
ATOM     18  C   UNL A   1      30.647  27.684  22.159  1.00  0.00     0.044 C 
ATOM     19  C   UNL A   1      31.825  27.015  22.803  1.00  0.00    -0.050 A 
ATOM     20  C   UNL A   1      32.759  27.796  23.481  1.00  0.00     0.003 A 
ATOM     21  C   UNL A   1      32.066  25.637  22.669  1.00  0.00     0.017 A 
ATOM     22  C   UNL A   1      33.908  27.208  23.998  1.00  0.00     0.001 A 
ATOM     23  C   UNL A   1      34.180  25.858  23.802  1.00  0.00     0.014 A 
ENDBRANCH  14  17
ENDBRANCH   8  13
BRANCH  10  24
ATOM     24  N   UNL A   1      35.258  22.045  25.773  1.00  0.00    -0.359 N 
ATOM     25  C   UNL A   1      35.667  20.739  25.248  1.00  0.00     0.178 C 
ATOM     26  C   UNL A   1      36.340  22.683  26.521  1.00  0.00     0.178 C 
ATOM     27  C   UNL A   1      37.043  20.861  24.488  1.00  0.00     0.284 C 
ATOM     28  C   UNL A   1      37.466  23.014  25.528  1.00  0.00     0.284 C 
ATOM     29  N   UNL A   1      38.083  21.807  24.967  1.00  0.00    -0.324 N 
ATOM     30  H   UNL A   1      38.601  22.043  24.122  1.00  0.00     0.348 HD
BRANCH  29  31
ATOM     31  C   UNL A   1      39.162  21.272  25.816  1.00  0.00     0.363 C 
BRANCH  31  32
ATOM     32  C   UNL A   1      39.511  19.804  25.603  1.00  0.00     0.275 C 
ATOM     33  O   UNL A   1      38.648  19.033  25.156  1.00  0.00    -0.268 OA
ATOM     34  N   UNL A   1      40.726  19.251  25.871  1.00  0.00    -0.347 N 
ATOM     35  H   UNL A   1      40.752  18.319  25.552  1.00  0.00     0.164 HD
BRANCH  34  36
ATOM     36  C   UNL A   1      42.034  19.614  26.497  1.00  0.00     0.032 C 
ATOM     37  C   UNL A   1      42.677  20.835  25.811  1.00  0.00     0.034 C 
ATOM     38  C   UNL A   1      41.705  20.060  27.941  1.00  0.00     0.034 C 
ATOM     39  C   UNL A   1      43.047  18.470  26.592  1.00  0.00     0.034 C 
ENDBRANCH  34  36
ENDBRANCH  31  32
ENDBRANCH  29  31
ENDBRANCH  10  24
ENDBRANCH   4   7
ENDBRANCH   2   3
ENDBRANCH   1   2
BRANCH   1  40
ATOM     40  C   UNL A   1      32.157  28.712  26.948  1.00  0.00     0.023 C 
BRANCH  40  41
ATOM     41  C   UNL A   1      33.634  28.947  27.242  1.00  0.00     0.116 C 
BRANCH  41  42
ATOM     42  N   UNL A   1      33.991  30.314  27.586  1.00  0.00    -0.352 N 
ATOM     43  C   UNL A   1      35.191  30.774  28.125  1.00  0.00     0.251 C 
ATOM     44  H   UNL A   1      33.301  30.996  27.418  1.00  0.00     0.163 HD
ATOM     45  O   UNL A   1      35.346  31.945  28.434  1.00  0.00    -0.269 OA
BRANCH  43  46
ATOM     46  C   UNL A   1      36.328  29.828  28.220  1.00  0.00     0.039 A 
ATOM     47  C   UNL A   1      36.474  29.100  29.407  1.00  0.00     0.014 A 
ATOM     48  C   UNL A   1      37.348  29.844  27.274  1.00  0.00     0.014 A 
ATOM     49  C   UNL A   1      37.727  28.594  29.748  1.00  0.00     0.010 A 
ATOM     50  C   UNL A   1      38.615  29.460  27.662  1.00  0.00     0.010 A 
ATOM     51  C   UNL A   1      38.813  28.892  28.925  1.00  0.00    -0.014 A 
BRANCH  51  52
ATOM     52  C   UNL A   1      40.200  28.784  29.361  1.00  0.00     0.031 A 
ATOM     53  C   UNL A   1      40.991  27.576  29.060  1.00  0.00     0.074 A 
ATOM     54  C   UNL A   1      40.785  29.831  29.983  1.00  0.00     0.049 A 
ATOM     55  N   UNL A   1      42.031  27.200  29.720  1.00  0.00    -0.248 NA
ATOM     56  C   UNL A   1      40.626  26.658  27.990  1.00  0.00     0.031 C 
ATOM     57  C   UNL A   1      42.203  30.017  30.276  1.00  0.00     0.029 A 
ATOM     58  N   UNL A   1      40.159  30.837  30.711  1.00  0.00    -0.354 N 
ATOM     59  C   UNL A   1      42.645  26.202  28.998  1.00  0.00     0.074 A 
ATOM     60  C   UNL A   1      41.688  25.849  27.975  1.00  0.00     0.031 C 
ATOM     61  C   UNL A   1      42.309  30.814  31.351  1.00  0.00     0.029 A 
ATOM     62  C   UNL A   1      40.956  31.045  31.839  1.00  0.00     0.049 A 
ATOM     63  H   UNL A   1      39.326  31.307  30.479  1.00  0.00     0.167 HD
ATOM     64  C   UNL A   1      43.950  25.896  29.253  1.00  0.00     0.034 A 
ATOM     65  C   UNL A   1      40.531  30.907  33.126  1.00  0.00     0.034 A 
ATOM     66  C   UNL A   1      44.462  26.651  30.400  1.00  0.00     0.049 A 
ATOM     67  C   UNL A   1      41.437  29.968  33.886  1.00  0.00     0.074 A 
ATOM     68  C   UNL A   1      45.274  27.769  30.507  1.00  0.00     0.029 A 
ATOM     69  N   UNL A   1      43.905  26.454  31.663  1.00  0.00    -0.354 N 
ATOM     70  N   UNL A   1      42.176  29.056  33.311  1.00  0.00    -0.248 NA
ATOM     71  C   UNL A   1      41.604  29.999  35.332  1.00  0.00     0.031 C 
ATOM     72  C   UNL A   1      45.144  28.283  31.824  1.00  0.00     0.029 A 
ATOM     73  C   UNL A   1      44.285  27.459  32.532  1.00  0.00     0.049 A 
ATOM     74  H   UNL A   1      43.319  25.699  31.903  1.00  0.00     0.167 HD
ATOM     75  C   UNL A   1      42.942  28.425  34.257  1.00  0.00     0.074 A 
ATOM     76  C   UNL A   1      42.536  29.046  35.509  1.00  0.00     0.031 C 
ATOM     77  C   UNL A   1      43.857  27.463  33.928  1.00  0.00     0.034 A 
BRANCH  64  78
ATOM     78  C   UNL A   1      44.837  25.172  28.256  1.00  0.00     0.023 A 
ATOM     79  C   UNL A   1      45.500  25.907  27.249  1.00  0.00     0.031 A 
ATOM     80  C   UNL A   1      45.024  23.778  28.197  1.00  0.00     0.131 A 
ATOM     81  C   UNL A   1      46.184  25.264  26.197  1.00  0.00     0.055 A 
ATOM     82  C   UNL A   1      45.640  23.133  27.116  1.00  0.00     0.041 A 
ATOM     83  F   UNL A   1      44.673  22.978  29.213  1.00  0.00    -0.206 F 
ATOM     84  C   UNL A   1      46.213  23.876  26.097  1.00  0.00     0.022 A 
BRANCH  81  85
ATOM     85  S   UNL A   1      47.061  26.267  24.964  1.00  0.00     0.124 S 
ATOM     86  O   UNL A   1      46.018  27.180  24.509  1.00  0.00    -0.237 OA
ATOM     87  O   UNL A   1      48.136  26.856  25.754  1.00  0.00    -0.237 OA
ATOM     88  O   UNL A   1      47.495  25.283  23.973  1.00  0.00    -0.744 OA
ENDBRANCH  81  85
ENDBRANCH  64  78
BRANCH  65  89
ATOM     89  C   UNL A   1      39.059  31.067  33.322  1.00  0.00     0.023 A 
ATOM     90  C   UNL A   1      38.543  32.379  33.386  1.00  0.00     0.031 A 
ATOM     91  C   UNL A   1      38.153  30.034  33.050  1.00  0.00     0.131 A 
ATOM     92  C   UNL A   1      37.227  32.651  32.983  1.00  0.00     0.055 A 
ATOM     93  C   UNL A   1      36.811  30.301  32.741  1.00  0.00     0.041 A 
ATOM     94  F   UNL A   1      38.578  28.767  32.946  1.00  0.00    -0.206 F 
ATOM     95  C   UNL A   1      36.354  31.617  32.661  1.00  0.00     0.022 A 
BRANCH  92  96
ATOM     96  S   UNL A   1      36.767  34.379  32.654  1.00  0.00     0.124 S 
ATOM     97  O   UNL A   1      37.655  34.723  31.550  1.00  0.00    -0.237 OA
ATOM     98  O   UNL A   1      35.350  34.251  32.319  1.00  0.00    -0.237 OA
ATOM     99  O   UNL A   1      37.035  35.060  33.916  1.00  0.00    -0.744 OA
ENDBRANCH  92  96
ENDBRANCH  65  89
BRANCH  77 100
ATOM    100  C   UNL A   1      44.529  26.520  34.906  1.00  0.00     0.023 A 
ATOM    101  C   UNL A   1      45.608  26.899  35.718  1.00  0.00     0.031 A 
ATOM    102  C   UNL A   1      44.035  25.211  35.126  1.00  0.00     0.131 A 
ATOM    103  C   UNL A   1      46.207  25.992  36.612  1.00  0.00     0.055 A 
ATOM    104  C   UNL A   1      44.578  24.338  36.074  1.00  0.00     0.041 A 
ATOM    105  F   UNL A   1      42.987  24.724  34.445  1.00  0.00    -0.206 F 
ATOM    106  C   UNL A   1      45.684  24.720  36.814  1.00  0.00     0.022 A 
BRANCH 103 107
ATOM    107  S   UNL A   1      47.720  26.509  37.462  1.00  0.00     0.124 S 
ATOM    108  O   UNL A   1      47.187  27.104  38.684  1.00  0.00    -0.237 OA
ATOM    109  O   UNL A   1      48.431  25.247  37.633  1.00  0.00    -0.237 OA
ATOM    110  O   UNL A   1      48.336  27.449  36.529  1.00  0.00    -0.744 OA
ENDBRANCH 103 107
ENDBRANCH  77 100
ENDBRANCH  51  52
ENDBRANCH  43  46
ENDBRANCH  41  42
ENDBRANCH  40  41
ENDBRANCH   1  40
TORSDOF 20
ENDMDL
MODEL 2
REMARK VINA RESULT:     -12.2      2.907      4.675
REMARK SMILES Cc1cccc(C(=O)Nc2cc(C(=O)NCCCCNC(=O)c3ccc(-c4c5nc(c(-c6cc(S(=O)(=O)[O-])ccc6F)c6ccc([nH]6)c(-c6cc(S(=O)(=O)[O-])ccc6F)c6nc(c(-c7cc(S(=O)(=O)[O-])ccc7F)c7ccc4[nH]7)C=C6)C=C5)cc3)ccc2N2CC[NH+](CC(=O)NC(C)(C)C)CC2)c1
REMARK SMILES IDX 17 1 16 2 15 3 13 4 14 5 12 7 10 8 11 9 88 10 87 11 86 12
REMARK SMILES IDX 9 13 7 14 8 15 6 17 1 18 2 19 3 20 103 21 4 22 5 23 89 24
REMARK SMILES IDX 90 25 102 26 91 27 101 28 92 29 93 31 94 32 95 33 96 34
REMARK SMILES IDX 97 36 98 37 99 38 100 39 18 40 19 41 20 42 21 43 22 45 23 46
REMARK SMILES IDX 24 47 85 48 25 49 84 50 26 51 27 52 28 53 78 54 29 55 83 56
REMARK SMILES IDX 77 57 79 58 30 59 82 60 76 61 75 62 31 64 63 65 43 66 62 67
REMARK SMILES IDX 44 68 47 69 61 70 80 71 45 72 46 73 60 75 81 76 48 77 32 78
REMARK SMILES IDX 33 79 41 80 34 81 40 82 42 83 39 84 35 85 36 86 37 87 38 88
REMARK SMILES IDX 64 89 65 90 73 91 66 92 72 93 74 94 71 95 67 96 68 97 69 98
REMARK SMILES IDX 70 99 49 100 50 101 58 102 51 103 57 104 59 105 56 106
REMARK SMILES IDX 52 107 53 108 54 109 55 110
REMARK H PARENT 15 6 9 16 92 30 96 35 20 44 79 63 47 74
REMARK Flexibility Score: inf
ROOT
ATOM      1  C   UNL A   1      34.459  32.715  28.691  1.00  0.00     0.023 C 
ENDROOT
BRANCH   1   2
ATOM      2  C   UNL A   1      34.002  31.397  28.039  1.00  0.00     0.116 C 
BRANCH   2   3
ATOM      3  N   UNL A   1      32.866  31.573  27.132  1.00  0.00    -0.352 N 
ATOM      4  C   UNL A   1      32.078  30.707  26.408  1.00  0.00     0.251 C 
ATOM      5  O   UNL A   1      31.124  31.196  25.795  1.00  0.00    -0.269 OA
ATOM      6  H   UNL A   1      32.610  32.517  27.015  1.00  0.00     0.163 HD
BRANCH   4   7
ATOM      7  C   UNL A   1      32.280  29.227  26.331  1.00  0.00     0.042 A 
ATOM      8  C   UNL A   1      31.524  26.985  25.858  1.00  0.00     0.065 A 
ATOM      9  C   UNL A   1      31.258  28.327  26.106  1.00  0.00     0.042 A 
ATOM     10  C   UNL A   1      32.821  26.428  25.966  1.00  0.00     0.061 A 
ATOM     11  C   UNL A   1      33.845  27.322  26.285  1.00  0.00     0.029 A 
ATOM     12  C   UNL A   1      33.584  28.704  26.428  1.00  0.00     0.016 A 
BRANCH   8  13
ATOM     13  N   UNL A   1      30.467  26.194  25.381  1.00  0.00    -0.320 N 
ATOM     14  C   UNL A   1      29.758  26.404  24.204  1.00  0.00     0.255 C 
ATOM     15  O   UNL A   1      29.163  25.445  23.706  1.00  0.00    -0.269 OA
ATOM     16  H   UNL A   1      30.204  25.420  25.929  1.00  0.00     0.170 HD
BRANCH  14  17
ATOM     17  C   UNL A   1      29.795  27.697  23.456  1.00  0.00     0.040 A 
ATOM     18  C   UNL A   1      27.604  30.594  22.251  1.00  0.00     0.044 C 
ATOM     19  C   UNL A   1      28.796  29.723  22.514  1.00  0.00    -0.050 A 
ATOM     20  C   UNL A   1      29.969  29.949  21.798  1.00  0.00     0.003 A 
ATOM     21  C   UNL A   1      28.740  28.628  23.393  1.00  0.00     0.017 A 
ATOM     22  C   UNL A   1      31.051  29.091  21.955  1.00  0.00     0.001 A 
ATOM     23  C   UNL A   1      30.971  27.967  22.770  1.00  0.00     0.014 A 
ENDBRANCH  14  17
ENDBRANCH   8  13
BRANCH  10  24
ATOM     24  N   UNL A   1      33.053  25.107  25.627  1.00  0.00    -0.359 N 
ATOM     25  C   UNL A   1      33.331  23.999  26.545  1.00  0.00     0.178 C 
ATOM     26  C   UNL A   1      33.612  24.855  24.299  1.00  0.00     0.178 C 
ATOM     27  C   UNL A   1      32.926  22.627  25.883  1.00  0.00     0.284 C 
ATOM     28  C   UNL A   1      32.854  23.664  23.690  1.00  0.00     0.284 C 
ATOM     29  N   UNL A   1      33.099  22.418  24.423  1.00  0.00    -0.324 N 
ATOM     30  H   UNL A   1      32.381  21.732  24.191  1.00  0.00     0.348 HD
BRANCH  29  31
ATOM     31  C   UNL A   1      34.312  21.717  23.966  1.00  0.00     0.363 C 
BRANCH  31  32
ATOM     32  C   UNL A   1      34.924  20.732  24.955  1.00  0.00     0.275 C 
ATOM     33  O   UNL A   1      35.863  21.099  25.677  1.00  0.00    -0.268 OA
ATOM     34  N   UNL A   1      34.514  19.443  25.117  1.00  0.00    -0.347 N 
ATOM     35  H   UNL A   1      34.977  19.034  25.883  1.00  0.00     0.164 HD
BRANCH  34  36
ATOM     36  C   UNL A   1      33.581  18.454  24.495  1.00  0.00     0.032 C 
ATOM     37  C   UNL A   1      34.341  17.281  23.846  1.00  0.00     0.034 C 
ATOM     38  C   UNL A   1      32.771  17.842  25.661  1.00  0.00     0.034 C 
ATOM     39  C   UNL A   1      32.578  19.045  23.501  1.00  0.00     0.034 C 
ENDBRANCH  34  36
ENDBRANCH  31  32
ENDBRANCH  29  31
ENDBRANCH  10  24
ENDBRANCH   4   7
ENDBRANCH   2   3
ENDBRANCH   1   2
BRANCH   1  40
ATOM     40  C   UNL A   1      35.900  33.102  28.381  1.00  0.00     0.023 C 
BRANCH  40  41
ATOM     41  C   UNL A   1      36.686  33.494  29.627  1.00  0.00     0.116 C 
BRANCH  41  42
ATOM     42  N   UNL A   1      36.326  32.780  30.841  1.00  0.00    -0.352 N 
ATOM     43  C   UNL A   1      36.626  31.461  31.178  1.00  0.00     0.251 C 
ATOM     44  H   UNL A   1      35.807  33.290  31.505  1.00  0.00     0.163 HD
ATOM     45  O   UNL A   1      36.207  30.954  32.206  1.00  0.00    -0.269 OA
BRANCH  43  46
ATOM     46  C   UNL A   1      37.562  30.708  30.310  1.00  0.00     0.039 A 
ATOM     47  C   UNL A   1      37.407  29.319  30.235  1.00  0.00     0.014 A 
ATOM     48  C   UNL A   1      38.697  31.320  29.789  1.00  0.00     0.014 A 
ATOM     49  C   UNL A   1      38.494  28.531  29.861  1.00  0.00     0.010 A 
ATOM     50  C   UNL A   1      39.811  30.544  29.542  1.00  0.00     0.010 A 
ATOM     51  C   UNL A   1      39.724  29.152  29.640  1.00  0.00    -0.014 A 
BRANCH  51  52
ATOM     52  C   UNL A   1      40.994  28.436  29.647  1.00  0.00     0.031 A 
ATOM     53  C   UNL A   1      41.086  27.062  29.120  1.00  0.00     0.074 A 
ATOM     54  C   UNL A   1      42.110  29.066  30.075  1.00  0.00     0.049 A 
ATOM     55  N   UNL A   1      42.001  26.215  29.442  1.00  0.00    -0.248 NA
ATOM     56  C   UNL A   1      40.098  26.518  28.199  1.00  0.00     0.031 C 
ATOM     57  C   UNL A   1      43.494  28.624  29.939  1.00  0.00     0.029 A 
ATOM     58  N   UNL A   1      42.188  30.136  30.962  1.00  0.00    -0.354 N 
ATOM     59  C   UNL A   1      41.918  25.157  28.565  1.00  0.00     0.074 A 
ATOM     60  C   UNL A   1      40.669  25.358  27.867  1.00  0.00     0.031 C 
ATOM     61  C   UNL A   1      44.208  29.163  30.940  1.00  0.00     0.029 A 
ATOM     62  C   UNL A   1      43.264  29.854  31.805  1.00  0.00     0.049 A 
ATOM     63  H   UNL A   1      41.605  30.928  30.988  1.00  0.00     0.167 HD
ATOM     64  C   UNL A   1      42.985  24.319  28.423  1.00  0.00     0.034 A 
ATOM     65  C   UNL A   1      43.177  29.734  33.160  1.00  0.00     0.034 A 
ATOM     66  C   UNL A   1      44.053  24.646  29.372  1.00  0.00     0.049 A 
ATOM     67  C   UNL A   1      43.764  28.419  33.614  1.00  0.00     0.074 A 
ATOM     68  C   UNL A   1      45.259  25.317  29.241  1.00  0.00     0.029 A 
ATOM     69  N   UNL A   1      43.821  24.529  30.742  1.00  0.00    -0.354 N 
ATOM     70  N   UNL A   1      43.865  27.369  32.841  1.00  0.00    -0.248 NA
ATOM     71  C   UNL A   1      44.304  28.191  34.947  1.00  0.00     0.031 C 
ATOM     72  C   UNL A   1      45.713  25.663  30.542  1.00  0.00     0.029 A 
ATOM     73  C   UNL A   1      44.806  25.172  31.467  1.00  0.00     0.049 A 
ATOM     74  H   UNL A   1      43.057  24.051  31.140  1.00  0.00     0.167 HD
ATOM     75  C   UNL A   1      44.510  26.365  33.516  1.00  0.00     0.074 A 
ATOM     76  C   UNL A   1      44.753  26.929  34.836  1.00  0.00     0.031 C 
ATOM     77  C   UNL A   1      44.806  25.167  32.927  1.00  0.00     0.034 A 
BRANCH  64  78
ATOM     78  C   UNL A   1      43.183  23.435  27.204  1.00  0.00     0.023 A 
ATOM     79  C   UNL A   1      42.632  22.136  27.187  1.00  0.00     0.031 A 
ATOM     80  C   UNL A   1      43.942  23.776  26.068  1.00  0.00     0.131 A 
ATOM     81  C   UNL A   1      42.939  21.219  26.162  1.00  0.00     0.055 A 
ATOM     82  C   UNL A   1      44.309  22.846  25.085  1.00  0.00     0.041 A 
ATOM     83  F   UNL A   1      44.313  25.039  25.824  1.00  0.00    -0.206 F 
ATOM     84  C   UNL A   1      43.819  21.551  25.136  1.00  0.00     0.022 A 
BRANCH  81  85
ATOM     85  S   UNL A   1      42.155  19.582  26.170  1.00  0.00     0.124 S 
ATOM     86  O   UNL A   1      42.493  19.083  27.499  1.00  0.00    -0.237 OA
ATOM     87  O   UNL A   1      40.753  19.910  25.940  1.00  0.00    -0.237 OA
ATOM     88  O   UNL A   1      42.812  18.884  25.065  1.00  0.00    -0.744 OA
ENDBRANCH  81  85
ENDBRANCH  64  78
BRANCH  65  89
ATOM     89  C   UNL A   1      42.023  30.449  33.782  1.00  0.00     0.023 A 
ATOM     90  C   UNL A   1      42.180  31.820  34.075  1.00  0.00     0.031 A 
ATOM     91  C   UNL A   1      40.715  29.951  33.718  1.00  0.00     0.131 A 
ATOM     92  C   UNL A   1      41.071  32.681  34.087  1.00  0.00     0.055 A 
ATOM     93  C   UNL A   1      39.604  30.801  33.827  1.00  0.00     0.041 A 
ATOM     94  F   UNL A   1      40.491  28.665  33.415  1.00  0.00    -0.206 F 
ATOM     95  C   UNL A   1      39.780  32.179  33.966  1.00  0.00     0.022 A 
BRANCH  92  96
ATOM     96  S   UNL A   1      41.371  34.473  34.016  1.00  0.00     0.124 S 
ATOM     97  O   UNL A   1      42.405  34.646  35.029  1.00  0.00    -0.237 OA
ATOM     98  O   UNL A   1      41.800  34.647  32.629  1.00  0.00    -0.237 OA
ATOM     99  O   UNL A   1      40.073  35.059  34.331  1.00  0.00    -0.744 OA
ENDBRANCH  92  96
ENDBRANCH  65  89
BRANCH  77 100
ATOM    100  C   UNL A   1      45.247  23.914  33.657  1.00  0.00     0.023 A 
ATOM    101  C   UNL A   1      46.569  23.690  34.067  1.00  0.00     0.031 A 
ATOM    102  C   UNL A   1      44.312  22.927  34.058  1.00  0.00     0.131 A 
ATOM    103  C   UNL A   1      46.938  22.512  34.742  1.00  0.00     0.055 A 
ATOM    104  C   UNL A   1      44.666  21.797  34.800  1.00  0.00     0.041 A 
ATOM    105  F   UNL A   1      43.007  23.026  33.765  1.00  0.00    -0.206 F 
ATOM    106  C   UNL A   1      45.991  21.572  35.134  1.00  0.00     0.022 A 
BRANCH 103 107
ATOM    107  S   UNL A   1      48.700  22.220  35.043  1.00  0.00     0.124 S 
ATOM    108  O   UNL A   1      48.992  21.154  34.089  1.00  0.00    -0.237 OA
ATOM    109  O   UNL A   1      49.290  23.519  34.738  1.00  0.00    -0.237 OA
ATOM    110  O   UNL A   1      48.749  21.828  36.449  1.00  0.00    -0.744 OA
ENDBRANCH 103 107
ENDBRANCH  77 100
ENDBRANCH  51  52
ENDBRANCH  43  46
ENDBRANCH  41  42
ENDBRANCH  40  41
ENDBRANCH   1  40
TORSDOF 20
ENDMDL
MODEL 3
REMARK VINA RESULT:     -10.8      1.867      2.264
REMARK SMILES Cc1cccc(C(=O)Nc2cc(C(=O)NCCCCNC(=O)c3ccc(-c4c5nc(c(-c6cc(S(=O)(=O)[O-])ccc6F)c6ccc([nH]6)c(-c6cc(S(=O)(=O)[O-])ccc6F)c6nc(c(-c7cc(S(=O)(=O)[O-])ccc7F)c7ccc4[nH]7)C=C6)C=C5)cc3)ccc2N2CC[NH+](CC(=O)NC(C)(C)C)CC2)c1
REMARK SMILES IDX 17 1 16 2 15 3 13 4 14 5 12 7 10 8 11 9 88 10 87 11 86 12
REMARK SMILES IDX 9 13 7 14 8 15 6 17 1 18 2 19 3 20 103 21 4 22 5 23 89 24
REMARK SMILES IDX 90 25 102 26 91 27 101 28 92 29 93 31 94 32 95 33 96 34
REMARK SMILES IDX 97 36 98 37 99 38 100 39 18 40 19 41 20 42 21 43 22 45 23 46
REMARK SMILES IDX 24 47 85 48 25 49 84 50 26 51 27 52 28 53 78 54 29 55 83 56
REMARK SMILES IDX 77 57 79 58 30 59 82 60 76 61 75 62 31 64 63 65 43 66 62 67
REMARK SMILES IDX 44 68 47 69 61 70 80 71 45 72 46 73 60 75 81 76 48 77 32 78
REMARK SMILES IDX 33 79 41 80 34 81 40 82 42 83 39 84 35 85 36 86 37 87 38 88
REMARK SMILES IDX 64 89 65 90 73 91 66 92 72 93 74 94 71 95 67 96 68 97 69 98
REMARK SMILES IDX 70 99 49 100 50 101 58 102 51 103 57 104 59 105 56 106
REMARK SMILES IDX 52 107 53 108 54 109 55 110
REMARK H PARENT 15 6 9 16 92 30 96 35 20 44 79 63 47 74
REMARK Flexibility Score: inf
ROOT
ATOM      1  C   UNL A   1      31.428  27.775  27.426  1.00  0.00     0.023 C 
ENDROOT
BRANCH   1   2
ATOM      2  C   UNL A   1      30.963  26.890  26.255  1.00  0.00     0.116 C 
BRANCH   2   3
ATOM      3  N   UNL A   1      30.083  25.799  26.680  1.00  0.00    -0.352 N 
ATOM      4  C   UNL A   1      30.260  24.446  26.863  1.00  0.00     0.251 C 
ATOM      5  O   UNL A   1      29.306  23.812  27.324  1.00  0.00    -0.269 OA
ATOM      6  H   UNL A   1      29.166  26.098  26.877  1.00  0.00     0.163 HD
BRANCH   4   7
ATOM      7  C   UNL A   1      31.523  23.700  26.569  1.00  0.00     0.042 A 
ATOM      8  C   UNL A   1      33.175  22.798  25.058  1.00  0.00     0.065 A 
ATOM      9  C   UNL A   1      31.909  23.322  25.298  1.00  0.00     0.042 A 
ATOM     10  C   UNL A   1      34.082  22.480  26.097  1.00  0.00     0.061 A 
ATOM     11  C   UNL A   1      33.656  22.777  27.393  1.00  0.00     0.029 A 
ATOM     12  C   UNL A   1      32.412  23.410  27.621  1.00  0.00     0.016 A 
BRANCH   8  13
ATOM     13  N   UNL A   1      33.585  22.688  23.720  1.00  0.00    -0.320 N 
ATOM     14  C   UNL A   1      33.820  23.745  22.849  1.00  0.00     0.255 C 
ATOM     15  O   UNL A   1      34.549  23.544  21.876  1.00  0.00    -0.269 OA
ATOM     16  H   UNL A   1      33.720  21.779  23.367  1.00  0.00     0.170 HD
BRANCH  14  17
ATOM     17  C   UNL A   1      33.337  25.134  23.113  1.00  0.00     0.040 A 
ATOM     18  C   UNL A   1      30.659  27.680  22.115  1.00  0.00     0.044 C 
ATOM     19  C   UNL A   1      31.833  27.039  22.793  1.00  0.00    -0.050 A 
ATOM     20  C   UNL A   1      32.722  27.840  23.506  1.00  0.00     0.003 A 
ATOM     21  C   UNL A   1      32.116  25.669  22.657  1.00  0.00     0.017 A 
ATOM     22  C   UNL A   1      33.869  27.280  24.056  1.00  0.00     0.001 A 
ATOM     23  C   UNL A   1      34.185  25.939  23.861  1.00  0.00     0.014 A 
ENDBRANCH  14  17
ENDBRANCH   8  13
BRANCH  10  24
ATOM     24  N   UNL A   1      35.362  22.041  25.807  1.00  0.00    -0.359 N 
ATOM     25  C   UNL A   1      35.760  20.685  25.421  1.00  0.00     0.178 C 
ATOM     26  C   UNL A   1      36.466  22.764  26.438  1.00  0.00     0.178 C 
ATOM     27  C   UNL A   1      37.107  20.723  24.602  1.00  0.00     0.284 C 
ATOM     28  C   UNL A   1      37.553  22.981  25.372  1.00  0.00     0.284 C 
ATOM     29  N   UNL A   1      38.157  21.720  24.931  1.00  0.00    -0.324 N 
ATOM     30  H   UNL A   1      38.643  21.859  24.046  1.00  0.00     0.348 HD
BRANCH  29  31
ATOM     31  C   UNL A   1      39.269  21.288  25.796  1.00  0.00     0.363 C 
BRANCH  31  32
ATOM     32  C   UNL A   1      39.643  19.813  25.713  1.00  0.00     0.275 C 
ATOM     33  O   UNL A   1      38.828  19.005  25.243  1.00  0.00    -0.268 OA
ATOM     34  N   UNL A   1      40.832  19.291  26.125  1.00  0.00    -0.347 N 
ATOM     35  H   UNL A   1      40.890  18.341  25.873  1.00  0.00     0.164 HD
BRANCH  34  36
ATOM     36  C   UNL A   1      42.076  19.709  26.839  1.00  0.00     0.032 C 
ATOM     37  C   UNL A   1      42.638  18.576  27.720  1.00  0.00     0.034 C 
ATOM     38  C   UNL A   1      43.135  19.959  25.740  1.00  0.00     0.034 C 
ATOM     39  C   UNL A   1      41.953  20.998  27.657  1.00  0.00     0.034 C 
ENDBRANCH  34  36
ENDBRANCH  31  32
ENDBRANCH  29  31
ENDBRANCH  10  24
ENDBRANCH   4   7
ENDBRANCH   2   3
ENDBRANCH   1   2
BRANCH   1  40
ATOM     40  C   UNL A   1      31.838  29.186  27.022  1.00  0.00     0.023 C 
BRANCH  40  41
ATOM     41  C   UNL A   1      33.288  29.501  27.369  1.00  0.00     0.116 C 
BRANCH  41  42
ATOM     42  N   UNL A   1      33.534  30.850  27.855  1.00  0.00    -0.352 N 
ATOM     43  C   UNL A   1      34.622  31.306  28.596  1.00  0.00     0.251 C 
ATOM     44  H   UNL A   1      32.848  31.521  27.633  1.00  0.00     0.163 HD
ATOM     45  O   UNL A   1      34.681  32.455  29.004  1.00  0.00    -0.269 OA
BRANCH  43  46
ATOM     46  C   UNL A   1      35.772  30.392  28.794  1.00  0.00     0.039 A 
ATOM     47  C   UNL A   1      36.152  30.096  30.109  1.00  0.00     0.014 A 
ATOM     48  C   UNL A   1      36.593  30.040  27.728  1.00  0.00     0.014 A 
ATOM     49  C   UNL A   1      37.455  29.673  30.364  1.00  0.00     0.010 A 
ATOM     50  C   UNL A   1      37.917  29.746  27.983  1.00  0.00     0.010 A 
ATOM     51  C   UNL A   1      38.360  29.625  29.304  1.00  0.00    -0.014 A 
BRANCH  51  52
ATOM     52  C   UNL A   1      39.806  29.600  29.488  1.00  0.00     0.031 A 
ATOM     53  C   UNL A   1      40.547  28.326  29.453  1.00  0.00     0.074 A 
ATOM     54  C   UNL A   1      40.479  30.764  29.620  1.00  0.00     0.049 A 
ATOM     55  N   UNL A   1      41.700  28.136  29.996  1.00  0.00    -0.248 NA
ATOM     56  C   UNL A   1      40.004  27.131  28.824  1.00  0.00     0.031 C 
ATOM     57  C   UNL A   1      41.923  30.972  29.570  1.00  0.00     0.029 A 
ATOM     58  N   UNL A   1      39.984  31.978  30.086  1.00  0.00    -0.354 N 
ATOM     59  C   UNL A   1      42.184  26.933  29.535  1.00  0.00     0.074 A 
ATOM     60  C   UNL A   1      41.059  26.314  28.875  1.00  0.00     0.031 C 
ATOM     61  C   UNL A   1      42.215  32.066  30.292  1.00  0.00     0.029 A 
ATOM     62  C   UNL A   1      40.975  32.500  30.919  1.00  0.00     0.049 A 
ATOM     63  H   UNL A   1      39.114  32.385  29.873  1.00  0.00     0.167 HD
ATOM     64  C   UNL A   1      43.519  26.667  29.630  1.00  0.00     0.034 A 
ATOM     65  C   UNL A   1      40.803  32.801  32.237  1.00  0.00     0.034 A 
ATOM     66  C   UNL A   1      44.225  27.727  30.357  1.00  0.00     0.049 A 
ATOM     67  C   UNL A   1      41.853  32.116  33.079  1.00  0.00     0.074 A 
ATOM     68  C   UNL A   1      45.022  28.783  29.945  1.00  0.00     0.029 A 
ATOM     69  N   UNL A   1      43.920  27.969  31.696  1.00  0.00    -0.354 N 
ATOM     70  N   UNL A   1      42.486  31.036  32.703  1.00  0.00    -0.248 NA
ATOM     71  C   UNL A   1      42.289  32.601  34.381  1.00  0.00     0.031 C 
ATOM     72  C   UNL A   1      45.134  29.697  31.026  1.00  0.00     0.029 A 
ATOM     73  C   UNL A   1      44.439  29.182  32.108  1.00  0.00     0.049 A 
ATOM     74  H   UNL A   1      43.404  27.358  32.270  1.00  0.00     0.167 HD
ATOM     75  C   UNL A   1      43.428  30.708  33.644  1.00  0.00     0.074 A 
ATOM     76  C   UNL A   1      43.254  31.715  34.681  1.00  0.00     0.031 C 
ATOM     77  C   UNL A   1      44.282  29.652  33.481  1.00  0.00     0.034 A 
BRANCH  64  78
ATOM     78  C   UNL A   1      44.216  25.624  28.774  1.00  0.00     0.023 A 
ATOM     79  C   UNL A   1      43.792  25.415  27.444  1.00  0.00     0.031 A 
ATOM     80  C   UNL A   1      45.243  24.768  29.214  1.00  0.00     0.131 A 
ATOM     81  C   UNL A   1      44.282  24.341  26.675  1.00  0.00     0.055 A 
ATOM     82  C   UNL A   1      45.681  23.656  28.479  1.00  0.00     0.041 A 
ATOM     83  F   UNL A   1      45.918  25.002  30.347  1.00  0.00    -0.206 F 
ATOM     84  C   UNL A   1      45.187  23.427  27.205  1.00  0.00     0.022 A 
BRANCH  81  85
ATOM     85  S   UNL A   1      43.736  24.161  24.953  1.00  0.00     0.124 S 
ATOM     86  O   UNL A   1      42.670  23.172  25.068  1.00  0.00    -0.237 OA
ATOM     87  O   UNL A   1      43.325  25.519  24.616  1.00  0.00    -0.237 OA
ATOM     88  O   UNL A   1      44.939  23.694  24.262  1.00  0.00    -0.744 OA
ENDBRANCH  81  85
ENDBRANCH  64  78
BRANCH  65  89
ATOM     89  C   UNL A   1      39.392  33.080  32.639  1.00  0.00     0.023 A 
ATOM     90  C   UNL A   1      38.933  32.529  33.855  1.00  0.00     0.031 A 
ATOM     91  C   UNL A   1      38.660  34.147  32.101  1.00  0.00     0.131 A 
ATOM     92  C   UNL A   1      37.920  33.163  34.591  1.00  0.00     0.055 A 
ATOM     93  C   UNL A   1      37.584  34.719  32.796  1.00  0.00     0.041 A 
ATOM     94  F   UNL A   1      39.055  34.738  30.965  1.00  0.00    -0.206 F 
ATOM     95  C   UNL A   1      37.239  34.257  34.067  1.00  0.00     0.022 A 
BRANCH  92  96
ATOM     96  S   UNL A   1      37.690  32.683  36.329  1.00  0.00     0.124 S 
ATOM     97  O   UNL A   1      38.837  33.314  36.971  1.00  0.00    -0.237 OA
ATOM     98  O   UNL A   1      36.386  33.270  36.630  1.00  0.00    -0.237 OA
ATOM     99  O   UNL A   1      37.709  31.224  36.296  1.00  0.00    -0.744 OA
ENDBRANCH  92  96
ENDBRANCH  65  89
BRANCH  77 100
ATOM    100  C   UNL A   1      45.144  29.043  34.569  1.00  0.00     0.023 A 
ATOM    101  C   UNL A   1      46.515  29.306  34.699  1.00  0.00     0.031 A 
ATOM    102  C   UNL A   1      44.581  28.238  35.591  1.00  0.00     0.131 A 
ATOM    103  C   UNL A   1      47.281  28.719  35.722  1.00  0.00     0.055 A 
ATOM    104  C   UNL A   1      45.328  27.723  36.655  1.00  0.00     0.041 A 
ATOM    105  F   UNL A   1      43.276  27.932  35.615  1.00  0.00    -0.206 F 
ATOM    106  C   UNL A   1      46.693  27.947  36.718  1.00  0.00     0.022 A 
BRANCH 103 107
ATOM    107  S   UNL A   1      49.077  28.951  35.681  1.00  0.00     0.124 S 
ATOM    108  O   UNL A   1      49.541  27.618  35.311  1.00  0.00    -0.237 OA
ATOM    109  O   UNL A   1      49.237  29.981  34.660  1.00  0.00    -0.237 OA
ATOM    110  O   UNL A   1      49.401  29.368  37.043  1.00  0.00    -0.744 OA
ENDBRANCH 103 107
ENDBRANCH  77 100
ENDBRANCH  51  52
ENDBRANCH  43  46
ENDBRANCH  41  42
ENDBRANCH  40  41
ENDBRANCH   1  40
TORSDOF 20
ENDMDL
