MODEL 1
REMARK VINA RESULT:     -10.6      0.000      0.000
REMARK SMILES O=C(/C=C/c1ccc(NC(=O)CCc2nc(-c3cc(Br)cs3)no2)cc1)NCCCCNC(=O)c1ccc(-c2c3nc(c(-c4cc(S(=O)(=O)[O-])ccc4F)c4ccc([nH]4)c(-c4cc(S(=O)(=O)[O-])ccc4F)c4nc(c(-c5cc(S(=O)(=O)[O-])ccc5F)c5ccc2[nH]5)C=C4)C=C3)cc1
REMARK SMILES IDX 28 1 27 2 1 3 2 4 3 6 4 7 5 8 6 9 26 10 7 11 25 12 8 13 9 14
REMARK SMILES IDX 10 15 11 17 12 18 13 19 14 20 15 21 24 22 16 23 23 24 17 25
REMARK SMILES IDX 18 26 22 27 19 28 21 29 20 30 29 31 30 32 31 33 32 34 33 35
REMARK SMILES IDX 34 37 35 38 36 39 97 40 37 41 96 42 38 43 39 44 40 45 90 46
REMARK SMILES IDX 41 47 95 48 89 49 91 50 42 51 94 52 88 53 87 54 43 56 75 57
REMARK SMILES IDX 55 58 74 59 56 60 59 61 73 62 92 63 57 64 58 65 72 67 93 68
REMARK SMILES IDX 60 69 44 70 45 71 53 72 46 73 52 74 54 75 51 76 47 77 48 78
REMARK SMILES IDX 49 79 50 80 76 81 77 82 85 83 78 84 84 85 86 86 83 87 79 88
REMARK SMILES IDX 80 89 81 90 82 91 61 92 62 93 70 94 63 95 69 96 71 97 68 98
REMARK SMILES IDX 64 99 65 100 66 101 67 102
REMARK H PARENT 27 5 9 16 32 36 91 55 59 66
REMARK Flexibility Score: inf
ROOT
ATOM      1  C   UNL A   1      43.102  35.756  33.631  1.00  0.00     0.116 C 
ENDROOT
BRANCH   1   2
ATOM      2  N   UNL A   1      41.985  35.061  33.022  1.00  0.00    -0.353 N 
ATOM      3  O   UNL A   1      40.581  35.294  34.827  1.00  0.00    -0.270 OA
ATOM      4  C   UNL A   1      40.796  34.889  33.690  1.00  0.00     0.243 C 
ATOM      5  H   UNL A   1      42.080  34.703  32.110  1.00  0.00     0.163 HD
BRANCH   4   6
ATOM      6  C   UNL A   1      39.691  34.266  32.918  1.00  0.00     0.072 C 
ATOM      7  C   UNL A   1      39.302  34.631  31.689  1.00  0.00     0.014 C 
BRANCH   7   8
ATOM      8  C   UNL A   1      38.103  34.125  31.007  1.00  0.00    -0.025 A 
ATOM      9  C   UNL A   1      38.212  33.740  29.668  1.00  0.00     0.010 A 
ATOM     10  C   UNL A   1      36.825  34.223  31.576  1.00  0.00     0.010 A 
ATOM     11  C   UNL A   1      37.071  33.614  28.876  1.00  0.00     0.027 A 
ATOM     12  C   UNL A   1      35.684  34.106  30.776  1.00  0.00     0.027 A 
ATOM     13  C   UNL A   1      35.821  33.927  29.401  1.00  0.00     0.041 A 
BRANCH  13  14
ATOM     14  N   UNL A   1      34.693  34.169  28.607  1.00  0.00    -0.326 N 
ATOM     15  C   UNL A   1      33.735  33.301  28.162  1.00  0.00     0.224 C 
ATOM     16  H   UNL A   1      34.572  35.105  28.328  1.00  0.00     0.169 HD
ATOM     17  O   UNL A   1      32.866  33.745  27.403  1.00  0.00    -0.275 OA
BRANCH  15  18
ATOM     18  C   UNL A   1      33.770  31.813  28.468  1.00  0.00     0.110 C 
BRANCH  18  19
ATOM     19  C   UNL A   1      34.701  31.028  27.548  1.00  0.00     0.110 C 
BRANCH  19  20
ATOM     20  C   UNL A   1      34.036  29.969  26.746  1.00  0.00     0.227 A 
ATOM     21  N   UNL A   1      33.010  30.053  25.929  1.00  0.00    -0.190 NA
ATOM     22  O   UNL A   1      34.495  28.693  26.904  1.00  0.00    -0.339 OA
ATOM     23  C   UNL A   1      32.843  28.745  25.529  1.00  0.00     0.212 A 
ATOM     24  N   UNL A   1      33.695  27.879  26.100  1.00  0.00    -0.056 NA
BRANCH  23  25
ATOM     25  C   UNL A   1      31.848  28.352  24.479  1.00  0.00     0.076 A 
ATOM     26  C   UNL A   1      30.677  29.042  24.236  1.00  0.00     0.039 A 
ATOM     27  S   UNL A   1      32.046  27.035  23.404  1.00  0.00    -0.139 S 
ATOM     28  C   UNL A   1      29.992  28.517  23.109  1.00  0.00     0.029 A 
ATOM     29  C   UNL A   1      30.632  27.451  22.531  1.00  0.00     0.081 A 
ATOM     30  Br  UNL A   1      28.378  29.264  22.484  1.00  0.00    -0.050 Br
ENDBRANCH  23  25
ENDBRANCH  19  20
ENDBRANCH  18  19
ENDBRANCH  15  18
ENDBRANCH  13  14
ENDBRANCH   7   8
ENDBRANCH   4   6
ENDBRANCH   1   2
BRANCH   1  31
ATOM     31  C   UNL A   1      44.219  36.067  32.635  1.00  0.00     0.023 C 
BRANCH  31  32
ATOM     32  C   UNL A   1      44.333  37.544  32.248  1.00  0.00     0.023 C 
BRANCH  32  33
ATOM     33  C   UNL A   1      44.281  37.830  30.748  1.00  0.00     0.116 C 
BRANCH  33  34
ATOM     34  N   UNL A   1      45.596  38.073  30.174  1.00  0.00    -0.352 N 
ATOM     35  C   UNL A   1      46.427  37.199  29.509  1.00  0.00     0.251 C 
ATOM     36  H   UNL A   1      45.939  38.990  30.273  1.00  0.00     0.163 HD
ATOM     37  O   UNL A   1      47.566  37.549  29.214  1.00  0.00    -0.269 OA
BRANCH  35  38
ATOM     38  C   UNL A   1      45.960  35.831  29.185  1.00  0.00     0.039 A 
ATOM     39  C   UNL A   1      46.216  34.798  30.092  1.00  0.00     0.014 A 
ATOM     40  C   UNL A   1      45.269  35.565  28.001  1.00  0.00     0.014 A 
ATOM     41  C   UNL A   1      45.715  33.516  29.847  1.00  0.00     0.010 A 
ATOM     42  C   UNL A   1      44.719  34.301  27.786  1.00  0.00     0.010 A 
ATOM     43  C   UNL A   1      44.930  33.266  28.709  1.00  0.00    -0.014 A 
BRANCH  43  44
ATOM     44  C   UNL A   1      44.313  31.932  28.473  1.00  0.00     0.031 A 
ATOM     45  C   UNL A   1      43.009  31.574  29.132  1.00  0.00     0.074 A 
ATOM     46  C   UNL A   1      44.963  31.018  27.724  1.00  0.00     0.049 A 
ATOM     47  N   UNL A   1      42.361  30.437  29.125  1.00  0.00    -0.248 NA
ATOM     48  C   UNL A   1      42.366  32.629  29.929  1.00  0.00     0.031 C 
ATOM     49  C   UNL A   1      46.253  31.230  27.063  1.00  0.00     0.029 A 
ATOM     50  N   UNL A   1      44.636  29.724  27.404  1.00  0.00    -0.354 N 
ATOM     51  C   UNL A   1      41.243  30.632  29.931  1.00  0.00     0.074 A 
ATOM     52  C   UNL A   1      41.334  31.982  30.450  1.00  0.00     0.031 C 
ATOM     53  C   UNL A   1      46.596  30.113  26.402  1.00  0.00     0.029 A 
ATOM     54  C   UNL A   1      45.577  29.091  26.625  1.00  0.00     0.049 A 
ATOM     55  H   UNL A   1      43.805  29.288  27.703  1.00  0.00     0.167 HD
ATOM     56  C   UNL A   1      40.228  29.772  30.197  1.00  0.00     0.034 A 
ATOM     57  C   UNL A   1      45.622  27.829  26.153  1.00  0.00     0.034 A 
ATOM     58  C   UNL A   1      40.140  28.437  29.658  1.00  0.00     0.049 A 
ATOM     59  C   UNL A   1      44.488  26.889  26.472  1.00  0.00     0.074 A 
ATOM     60  C   UNL A   1      39.124  27.509  29.811  1.00  0.00     0.029 A 
ATOM     61  N   UNL A   1      41.110  27.834  28.865  1.00  0.00    -0.354 N 
ATOM     62  N   UNL A   1      43.414  27.104  27.196  1.00  0.00    -0.248 NA
ATOM     63  C   UNL A   1      44.569  25.538  25.901  1.00  0.00     0.031 C 
ATOM     64  C   UNL A   1      39.505  26.328  29.163  1.00  0.00     0.029 A 
ATOM     65  C   UNL A   1      40.728  26.539  28.548  1.00  0.00     0.049 A 
ATOM     66  H   UNL A   1      41.945  28.264  28.571  1.00  0.00     0.167 HD
ATOM     67  C   UNL A   1      42.678  25.925  27.142  1.00  0.00     0.074 A 
ATOM     68  C   UNL A   1      43.425  25.007  26.305  1.00  0.00     0.031 C 
ATOM     69  C   UNL A   1      41.488  25.629  27.723  1.00  0.00     0.034 A 
BRANCH  56  70
ATOM     70  C   UNL A   1      39.147  30.248  31.138  1.00  0.00     0.023 A 
ATOM     71  C   UNL A   1      39.427  30.594  32.472  1.00  0.00     0.031 A 
ATOM     72  C   UNL A   1      37.812  30.330  30.706  1.00  0.00     0.131 A 
ATOM     73  C   UNL A   1      38.381  30.926  33.345  1.00  0.00     0.055 A 
ATOM     74  C   UNL A   1      36.784  30.740  31.558  1.00  0.00     0.041 A 
ATOM     75  F   UNL A   1      37.479  29.995  29.449  1.00  0.00    -0.206 F 
ATOM     76  C   UNL A   1      37.064  31.026  32.891  1.00  0.00     0.022 A 
BRANCH  73  77
ATOM     77  S   UNL A   1      38.747  31.083  35.114  1.00  0.00     0.124 S 
ATOM     78  O   UNL A   1      38.966  29.689  35.494  1.00  0.00    -0.237 OA
ATOM     79  O   UNL A   1      39.926  31.940  35.117  1.00  0.00    -0.237 OA
ATOM     80  O   UNL A   1      37.534  31.687  35.664  1.00  0.00    -0.744 OA
ENDBRANCH  73  77
ENDBRANCH  56  70
BRANCH  57  81
ATOM     81  C   UNL A   1      46.780  27.369  25.336  1.00  0.00     0.023 A 
ATOM     82  C   UNL A   1      46.974  27.846  24.031  1.00  0.00     0.031 A 
ATOM     83  C   UNL A   1      47.685  26.415  25.834  1.00  0.00     0.131 A 
ATOM     84  C   UNL A   1      48.022  27.335  23.248  1.00  0.00     0.055 A 
ATOM     85  C   UNL A   1      48.754  25.946  25.068  1.00  0.00     0.041 A 
ATOM     86  F   UNL A   1      47.547  25.932  27.078  1.00  0.00    -0.206 F 
ATOM     87  C   UNL A   1      48.920  26.397  23.762  1.00  0.00     0.022 A 
BRANCH  84  88
ATOM     88  S   UNL A   1      48.148  27.861  21.517  1.00  0.00     0.124 S 
ATOM     89  O   UNL A   1      49.115  28.948  21.606  1.00  0.00    -0.237 OA
ATOM     90  O   UNL A   1      48.610  26.641  20.864  1.00  0.00    -0.237 OA
ATOM     91  O   UNL A   1      46.782  28.265  21.185  1.00  0.00    -0.744 OA
ENDBRANCH  84  88
ENDBRANCH  57  81
BRANCH  69  92
ATOM     92  C   UNL A   1      40.906  24.268  27.434  1.00  0.00     0.023 A 
ATOM     93  C   UNL A   1      39.770  24.107  26.621  1.00  0.00     0.031 A 
ATOM     94  C   UNL A   1      41.488  23.118  27.996  1.00  0.00     0.131 A 
ATOM     95  C   UNL A   1      39.221  22.829  26.435  1.00  0.00     0.055 A 
ATOM     96  C   UNL A   1      40.969  21.844  27.763  1.00  0.00     0.041 A 
ATOM     97  F   UNL A   1      42.572  23.216  28.782  1.00  0.00    -0.206 F 
ATOM     98  C   UNL A   1      39.822  21.695  26.987  1.00  0.00     0.022 A 
BRANCH  95  99
ATOM     99  S   UNL A   1      37.659  22.676  25.525  1.00  0.00     0.124 S 
ATOM    100  O   UNL A   1      37.809  23.695  24.491  1.00  0.00    -0.237 OA
ATOM    101  O   UNL A   1      37.701  21.292  25.065  1.00  0.00    -0.237 OA
ATOM    102  O   UNL A   1      36.643  22.962  26.535  1.00  0.00    -0.744 OA
ENDBRANCH  95  99
ENDBRANCH  69  92
ENDBRANCH  43  44
ENDBRANCH  35  38
ENDBRANCH  33  34
ENDBRANCH  32  33
ENDBRANCH  31  32
ENDBRANCH   1  31
TORSDOF 20
ENDMDL
MODEL 2
REMARK VINA RESULT:     -10.3      4.698      9.324
REMARK SMILES O=C(/C=C/c1ccc(NC(=O)CCc2nc(-c3cc(Br)cs3)no2)cc1)NCCCCNC(=O)c1ccc(-c2c3nc(c(-c4cc(S(=O)(=O)[O-])ccc4F)c4ccc([nH]4)c(-c4cc(S(=O)(=O)[O-])ccc4F)c4nc(c(-c5cc(S(=O)(=O)[O-])ccc5F)c5ccc2[nH]5)C=C4)C=C3)cc1
REMARK SMILES IDX 28 1 27 2 1 3 2 4 3 6 4 7 5 8 6 9 26 10 7 11 25 12 8 13 9 14
REMARK SMILES IDX 10 15 11 17 12 18 13 19 14 20 15 21 24 22 16 23 23 24 17 25
REMARK SMILES IDX 18 26 22 27 19 28 21 29 20 30 29 31 30 32 31 33 32 34 33 35
REMARK SMILES IDX 34 37 35 38 36 39 97 40 37 41 96 42 38 43 39 44 40 45 90 46
REMARK SMILES IDX 41 47 95 48 89 49 91 50 42 51 94 52 88 53 87 54 43 56 75 57
REMARK SMILES IDX 55 58 74 59 56 60 59 61 73 62 92 63 57 64 58 65 72 67 93 68
REMARK SMILES IDX 60 69 44 70 45 71 53 72 46 73 52 74 54 75 51 76 47 77 48 78
REMARK SMILES IDX 49 79 50 80 76 81 77 82 85 83 78 84 84 85 86 86 83 87 79 88
REMARK SMILES IDX 80 89 81 90 82 91 61 92 62 93 70 94 63 95 69 96 71 97 68 98
REMARK SMILES IDX 64 99 65 100 66 101 67 102
REMARK H PARENT 27 5 9 16 32 36 91 55 59 66
REMARK Flexibility Score: inf
ROOT
ATOM      1  C   UNL A   1      36.125  33.905  31.526  1.00  0.00     0.116 C 
ENDROOT
BRANCH   1   2
ATOM      2  N   UNL A   1      37.170  34.407  30.655  1.00  0.00    -0.353 N 
ATOM      3  O   UNL A   1      38.872  34.105  32.168  1.00  0.00    -0.270 OA
ATOM      4  C   UNL A   1      38.480  34.462  31.063  1.00  0.00     0.243 C 
ATOM      5  H   UNL A   1      36.935  34.717  29.751  1.00  0.00     0.163 HD
BRANCH   4   6
ATOM      6  C   UNL A   1      39.472  34.885  30.042  1.00  0.00     0.072 C 
ATOM      7  C   UNL A   1      40.793  34.673  30.111  1.00  0.00     0.014 C 
BRANCH   7   8
ATOM      8  C   UNL A   1      41.781  35.243  29.183  1.00  0.00    -0.025 A 
ATOM      9  C   UNL A   1      41.348  35.648  27.918  1.00  0.00     0.010 A 
ATOM     10  C   UNL A   1      43.159  35.187  29.437  1.00  0.00     0.010 A 
ATOM     11  C   UNL A   1      42.267  35.838  26.887  1.00  0.00     0.027 A 
ATOM     12  C   UNL A   1      44.077  35.368  28.397  1.00  0.00     0.027 A 
ATOM     13  C   UNL A   1      43.616  35.568  27.097  1.00  0.00     0.041 A 
BRANCH  13  14
ATOM     14  N   UNL A   1      44.536  35.389  26.057  1.00  0.00    -0.326 N 
ATOM     15  C   UNL A   1      44.798  34.279  25.303  1.00  0.00     0.224 C 
ATOM     16  H   UNL A   1      45.076  36.182  25.836  1.00  0.00     0.169 HD
ATOM     17  O   UNL A   1      45.720  34.347  24.482  1.00  0.00    -0.275 OA
BRANCH  15  18
ATOM     18  C   UNL A   1      44.085  32.954  25.518  1.00  0.00     0.110 C 
BRANCH  18  19
ATOM     19  C   UNL A   1      44.360  32.334  26.885  1.00  0.00     0.110 C 
BRANCH  19  20
ATOM     20  C   UNL A   1      44.792  30.913  26.848  1.00  0.00     0.227 A 
ATOM     21  N   UNL A   1      45.809  30.360  26.225  1.00  0.00    -0.190 NA
ATOM     22  O   UNL A   1      44.003  30.009  27.499  1.00  0.00    -0.339 OA
ATOM     23  C   UNL A   1      45.656  29.026  26.538  1.00  0.00     0.212 A 
ATOM     24  N   UNL A   1      44.575  28.754  27.285  1.00  0.00    -0.056 NA
BRANCH  23  25
ATOM     25  C   UNL A   1      46.668  27.993  26.145  1.00  0.00     0.076 A 
ATOM     26  C   UNL A   1      47.381  27.233  27.052  1.00  0.00     0.039 A 
ATOM     27  S   UNL A   1      47.044  27.572  24.529  1.00  0.00    -0.139 S 
ATOM     28  C   UNL A   1      48.173  26.256  26.398  1.00  0.00     0.029 A 
ATOM     29  C   UNL A   1      48.066  26.293  25.031  1.00  0.00     0.081 A 
ATOM     30  Br  UNL A   1      49.235  25.026  27.355  1.00  0.00    -0.050 Br
ENDBRANCH  23  25
ENDBRANCH  19  20
ENDBRANCH  18  19
ENDBRANCH  15  18
ENDBRANCH  13  14
ENDBRANCH   7   8
ENDBRANCH   4   6
ENDBRANCH   1   2
BRANCH   1  31
ATOM     31  C   UNL A   1      34.756  33.867  30.848  1.00  0.00     0.023 C 
BRANCH  31  32
ATOM     32  C   UNL A   1      34.465  32.578  30.075  1.00  0.00     0.023 C 
BRANCH  32  33
ATOM     33  C   UNL A   1      34.609  32.681  28.558  1.00  0.00     0.116 C 
BRANCH  33  34
ATOM     34  N   UNL A   1      34.036  31.542  27.856  1.00  0.00    -0.352 N 
ATOM     35  C   UNL A   1      34.615  30.330  27.553  1.00  0.00     0.251 C 
ATOM     36  H   UNL A   1      33.105  31.653  27.558  1.00  0.00     0.163 HD
ATOM     37  O   UNL A   1      34.020  29.536  26.830  1.00  0.00    -0.269 OA
BRANCH  35  38
ATOM     38  C   UNL A   1      35.965  30.002  28.067  1.00  0.00     0.039 A 
ATOM     39  C   UNL A   1      36.088  29.481  29.359  1.00  0.00     0.014 A 
ATOM     40  C   UNL A   1      37.104  30.201  27.283  1.00  0.00     0.014 A 
ATOM     41  C   UNL A   1      37.343  29.089  29.835  1.00  0.00     0.010 A 
ATOM     42  C   UNL A   1      38.346  29.755  27.736  1.00  0.00     0.010 A 
ATOM     43  C   UNL A   1      38.477  29.189  29.013  1.00  0.00    -0.014 A 
BRANCH  43  44
ATOM     44  C   UNL A   1      39.807  28.696  29.466  1.00  0.00     0.031 A 
ATOM     45  C   UNL A   1      40.526  29.387  30.593  1.00  0.00     0.074 A 
ATOM     46  C   UNL A   1      40.398  27.675  28.815  1.00  0.00     0.049 A 
ATOM     47  N   UNL A   1      41.725  29.168  31.069  1.00  0.00    -0.248 NA
ATOM     48  C   UNL A   1      39.808  30.490  31.250  1.00  0.00     0.031 C 
ATOM     49  C   UNL A   1      39.822  26.947  27.681  1.00  0.00     0.029 A 
ATOM     50  N   UNL A   1      41.621  27.079  29.002  1.00  0.00    -0.354 N 
ATOM     51  C   UNL A   1      41.915  30.117  32.069  1.00  0.00     0.074 A 
ATOM     52  C   UNL A   1      40.726  30.944  32.091  1.00  0.00     0.031 C 
ATOM     53  C   UNL A   1      40.681  25.994  27.289  1.00  0.00     0.029 A 
ATOM     54  C   UNL A   1      41.886  26.066  28.109  1.00  0.00     0.049 A 
ATOM     55  H   UNL A   1      42.250  27.351  29.709  1.00  0.00     0.167 HD
ATOM     56  C   UNL A   1      42.975  30.271  32.902  1.00  0.00     0.034 A 
ATOM     57  C   UNL A   1      42.979  25.291  27.961  1.00  0.00     0.034 A 
ATOM     58  C   UNL A   1      44.145  29.427  32.883  1.00  0.00     0.049 A 
ATOM     59  C   UNL A   1      44.148  25.489  28.891  1.00  0.00     0.074 A 
ATOM     60  C   UNL A   1      45.244  29.455  33.725  1.00  0.00     0.029 A 
ATOM     61  N   UNL A   1      44.374  28.405  31.969  1.00  0.00    -0.354 N 
ATOM     62  N   UNL A   1      44.293  26.359  29.863  1.00  0.00    -0.248 NA
ATOM     63  C   UNL A   1      45.297  24.592  28.709  1.00  0.00     0.031 C 
ATOM     64  C   UNL A   1      46.161  28.494  33.284  1.00  0.00     0.029 A 
ATOM     65  C   UNL A   1      45.607  27.818  32.209  1.00  0.00     0.049 A 
ATOM     66  H   UNL A   1      43.751  28.137  31.256  1.00  0.00     0.167 HD
ATOM     67  C   UNL A   1      45.537  26.094  30.427  1.00  0.00     0.074 A 
ATOM     68  C   UNL A   1      46.095  24.975  29.693  1.00  0.00     0.031 C 
ATOM     69  C   UNL A   1      46.159  26.712  31.463  1.00  0.00     0.034 A 
BRANCH  56  70
ATOM     70  C   UNL A   1      42.921  31.416  33.886  1.00  0.00     0.023 A 
ATOM     71  C   UNL A   1      42.111  31.367  35.034  1.00  0.00     0.031 A 
ATOM     72  C   UNL A   1      43.666  32.586  33.658  1.00  0.00     0.131 A 
ATOM     73  C   UNL A   1      42.003  32.493  35.864  1.00  0.00     0.055 A 
ATOM     74  C   UNL A   1      43.618  33.674  34.532  1.00  0.00     0.041 A 
ATOM     75  F   UNL A   1      44.444  32.699  32.569  1.00  0.00    -0.206 F 
ATOM     76  C   UNL A   1      42.770  33.637  35.635  1.00  0.00     0.022 A 
BRANCH  73  77
ATOM     77  S   UNL A   1      40.737  32.492  37.163  1.00  0.00     0.124 S 
ATOM     78  O   UNL A   1      39.946  31.317  36.801  1.00  0.00    -0.237 OA
ATOM     79  O   UNL A   1      41.533  32.377  38.379  1.00  0.00    -0.237 OA
ATOM     80  O   UNL A   1      40.056  33.773  36.979  1.00  0.00    -0.744 OA
ENDBRANCH  73  77
ENDBRANCH  56  70
BRANCH  57  81
ATOM     81  C   UNL A   1      43.032  24.260  26.886  1.00  0.00     0.023 A 
ATOM     82  C   UNL A   1      42.394  23.021  27.045  1.00  0.00     0.031 A 
ATOM     83  C   UNL A   1      43.757  24.484  25.702  1.00  0.00     0.131 A 
ATOM     84  C   UNL A   1      42.529  22.033  26.057  1.00  0.00     0.055 A 
ATOM     85  C   UNL A   1      43.848  23.515  24.700  1.00  0.00     0.041 A 
ATOM     86  F   UNL A   1      44.380  25.655  25.498  1.00  0.00    -0.206 F 
ATOM     87  C   UNL A   1      43.242  22.276  24.881  1.00  0.00     0.022 A 
BRANCH  84  88
ATOM     88  S   UNL A   1      41.821  20.392  26.368  1.00  0.00     0.124 S 
ATOM     89  O   UNL A   1      42.359  20.081  27.687  1.00  0.00    -0.237 OA
ATOM     90  O   UNL A   1      40.389  20.665  26.306  1.00  0.00    -0.237 OA
ATOM     91  O   UNL A   1      42.347  19.582  25.271  1.00  0.00    -0.744 OA
ENDBRANCH  84  88
ENDBRANCH  57  81
BRANCH  69  92
ATOM     92  C   UNL A   1      47.496  26.158  31.886  1.00  0.00     0.023 A 
ATOM     93  C   UNL A   1      47.620  25.269  32.968  1.00  0.00     0.031 A 
ATOM     94  C   UNL A   1      48.665  26.541  31.205  1.00  0.00     0.131 A 
ATOM     95  C   UNL A   1      48.891  24.832  33.371  1.00  0.00     0.055 A 
ATOM     96  C   UNL A   1      49.922  26.060  31.576  1.00  0.00     0.041 A 
ATOM     97  F   UNL A   1      48.604  27.389  30.166  1.00  0.00    -0.206 F 
ATOM     98  C   UNL A   1      50.041  25.210  32.672  1.00  0.00     0.022 A 
BRANCH  95  99
ATOM     99  S   UNL A   1      49.031  23.827  34.874  1.00  0.00     0.124 S 
ATOM    100  O   UNL A   1      48.311  22.615  34.496  1.00  0.00    -0.237 OA
ATOM    101  O   UNL A   1      50.476  23.688  35.023  1.00  0.00    -0.237 OA
ATOM    102  O   UNL A   1      48.379  24.642  35.896  1.00  0.00    -0.744 OA
ENDBRANCH  95  99
ENDBRANCH  69  92
ENDBRANCH  43  44
ENDBRANCH  35  38
ENDBRANCH  33  34
ENDBRANCH  32  33
ENDBRANCH  31  32
ENDBRANCH   1  31
TORSDOF 20
ENDMDL
MODEL 3
REMARK VINA RESULT:     -10.3      4.557      8.735
REMARK SMILES O=C(/C=C/c1ccc(NC(=O)CCc2nc(-c3cc(Br)cs3)no2)cc1)NCCCCNC(=O)c1ccc(-c2c3nc(c(-c4cc(S(=O)(=O)[O-])ccc4F)c4ccc([nH]4)c(-c4cc(S(=O)(=O)[O-])ccc4F)c4nc(c(-c5cc(S(=O)(=O)[O-])ccc5F)c5ccc2[nH]5)C=C4)C=C3)cc1
REMARK SMILES IDX 28 1 27 2 1 3 2 4 3 6 4 7 5 8 6 9 26 10 7 11 25 12 8 13 9 14
REMARK SMILES IDX 10 15 11 17 12 18 13 19 14 20 15 21 24 22 16 23 23 24 17 25
REMARK SMILES IDX 18 26 22 27 19 28 21 29 20 30 29 31 30 32 31 33 32 34 33 35
REMARK SMILES IDX 34 37 35 38 36 39 97 40 37 41 96 42 38 43 39 44 40 45 90 46
REMARK SMILES IDX 41 47 95 48 89 49 91 50 42 51 94 52 88 53 87 54 43 56 75 57
REMARK SMILES IDX 55 58 74 59 56 60 59 61 73 62 92 63 57 64 58 65 72 67 93 68
REMARK SMILES IDX 60 69 44 70 45 71 53 72 46 73 52 74 54 75 51 76 47 77 48 78
REMARK SMILES IDX 49 79 50 80 76 81 77 82 85 83 78 84 84 85 86 86 83 87 79 88
REMARK SMILES IDX 80 89 81 90 82 91 61 92 62 93 70 94 63 95 69 96 71 97 68 98
REMARK SMILES IDX 64 99 65 100 66 101 67 102
REMARK H PARENT 27 5 9 16 32 36 91 55 59 66
REMARK Flexibility Score: inf
ROOT
ATOM      1  C   UNL A   1      37.452  32.115  38.710  1.00  0.00     0.116 C 
ENDROOT
BRANCH   1   2
ATOM      2  N   UNL A   1      38.186  31.584  37.579  1.00  0.00    -0.353 N 
ATOM      3  O   UNL A   1      36.969  32.711  35.989  1.00  0.00    -0.270 OA
ATOM      4  C   UNL A   1      37.872  31.939  36.289  1.00  0.00     0.243 C 
ATOM      5  H   UNL A   1      38.925  30.954  37.738  1.00  0.00     0.163 HD
BRANCH   4   6
ATOM      6  C   UNL A   1      38.770  31.421  35.226  1.00  0.00     0.072 C 
ATOM      7  C   UNL A   1      38.617  31.633  33.912  1.00  0.00     0.014 C 
BRANCH   7   8
ATOM      8  C   UNL A   1      39.409  30.977  32.861  1.00  0.00    -0.025 A 
ATOM      9  C   UNL A   1      39.780  31.727  31.742  1.00  0.00     0.010 A 
ATOM     10  C   UNL A   1      39.610  29.590  32.837  1.00  0.00     0.010 A 
ATOM     11  C   UNL A   1      40.190  31.090  30.571  1.00  0.00     0.027 A 
ATOM     12  C   UNL A   1      40.012  28.954  31.658  1.00  0.00     0.027 A 
ATOM     13  C   UNL A   1      40.177  29.701  30.494  1.00  0.00     0.041 A 
BRANCH  13  14
ATOM     14  N   UNL A   1      40.227  28.998  29.283  1.00  0.00    -0.326 N 
ATOM     15  C   UNL A   1      39.212  28.620  28.450  1.00  0.00     0.224 C 
ATOM     16  H   UNL A   1      41.129  28.737  28.989  1.00  0.00     0.169 HD
ATOM     17  O   UNL A   1      39.504  27.933  27.464  1.00  0.00    -0.275 OA
BRANCH  15  18
ATOM     18  C   UNL A   1      37.751  28.909  28.753  1.00  0.00     0.110 C 
BRANCH  18  19
ATOM     19  C   UNL A   1      37.267  30.240  28.185  1.00  0.00     0.110 C 
BRANCH  19  20
ATOM     20  C   UNL A   1      36.562  31.113  29.157  1.00  0.00     0.227 A 
ATOM     21  N   UNL A   1      35.965  32.269  28.971  1.00  0.00    -0.190 NA
ATOM     22  O   UNL A   1      36.568  30.716  30.464  1.00  0.00    -0.339 OA
ATOM     23  C   UNL A   1      35.546  32.594  30.243  1.00  0.00     0.212 A 
ATOM     24  N   UNL A   1      35.898  31.705  31.185  1.00  0.00    -0.056 NA
BRANCH  23  25
ATOM     25  C   UNL A   1      34.693  33.795  30.520  1.00  0.00     0.076 A 
ATOM     26  C   UNL A   1      34.673  34.458  31.731  1.00  0.00     0.039 A 
ATOM     27  S   UNL A   1      33.670  34.542  29.369  1.00  0.00    -0.139 S 
ATOM     28  C   UNL A   1      33.869  35.625  31.669  1.00  0.00     0.029 A 
ATOM     29  C   UNL A   1      33.290  35.823  30.441  1.00  0.00     0.081 A 
ATOM     30  Br  UNL A   1      33.668  36.781  33.145  1.00  0.00    -0.050 Br
ENDBRANCH  23  25
ENDBRANCH  19  20
ENDBRANCH  18  19
ENDBRANCH  15  18
ENDBRANCH  13  14
ENDBRANCH   7   8
ENDBRANCH   4   6
ENDBRANCH   1   2
BRANCH   1  31
ATOM     31  C   UNL A   1      37.986  33.469  39.180  1.00  0.00     0.023 C 
BRANCH  31  32
ATOM     32  C   UNL A   1      38.968  33.392  40.352  1.00  0.00     0.023 C 
BRANCH  32  33
ATOM     33  C   UNL A   1      40.370  33.927  40.065  1.00  0.00     0.116 C 
BRANCH  33  34
ATOM     34  N   UNL A   1      40.393  35.367  39.854  1.00  0.00    -0.352 N 
ATOM     35  C   UNL A   1      40.845  36.076  38.764  1.00  0.00     0.251 C 
ATOM     36  H   UNL A   1      40.035  35.909  40.593  1.00  0.00     0.163 HD
ATOM     37  O   UNL A   1      40.913  37.301  38.821  1.00  0.00    -0.269 OA
BRANCH  35  38
ATOM     38  C   UNL A   1      41.282  35.362  37.542  1.00  0.00     0.039 A 
ATOM     39  C   UNL A   1      42.643  35.088  37.370  1.00  0.00     0.014 A 
ATOM     40  C   UNL A   1      40.361  34.959  36.572  1.00  0.00     0.014 A 
ATOM     41  C   UNL A   1      43.069  34.345  36.265  1.00  0.00     0.010 A 
ATOM     42  C   UNL A   1      40.779  34.167  35.503  1.00  0.00     0.010 A 
ATOM     43  C   UNL A   1      42.135  33.846  35.341  1.00  0.00    -0.014 A 
BRANCH  43  44
ATOM     44  C   UNL A   1      42.557  32.979  34.207  1.00  0.00     0.031 A 
ATOM     45  C   UNL A   1      42.758  33.569  32.838  1.00  0.00     0.074 A 
ATOM     46  C   UNL A   1      42.685  31.650  34.394  1.00  0.00     0.049 A 
ATOM     47  N   UNL A   1      43.033  32.968  31.709  1.00  0.00    -0.248 NA
ATOM     48  C   UNL A   1      42.601  35.026  32.722  1.00  0.00     0.031 C 
ATOM     49  C   UNL A   1      42.479  30.951  35.665  1.00  0.00     0.029 A 
ATOM     50  N   UNL A   1      43.007  30.647  33.514  1.00  0.00    -0.354 N 
ATOM     51  C   UNL A   1      43.063  33.969  30.743  1.00  0.00     0.074 A 
ATOM     52  C   UNL A   1      42.726  35.207  31.416  1.00  0.00     0.031 C 
ATOM     53  C   UNL A   1      42.697  29.639  35.485  1.00  0.00     0.029 A 
ATOM     54  C   UNL A   1      43.017  29.394  34.082  1.00  0.00     0.049 A 
ATOM     55  H   UNL A   1      43.212  30.808  32.565  1.00  0.00     0.167 HD
ATOM     56  C   UNL A   1      43.361  33.867  29.423  1.00  0.00     0.034 A 
ATOM     57  C   UNL A   1      43.245  28.184  33.534  1.00  0.00     0.034 A 
ATOM     58  C   UNL A   1      43.715  32.631  28.770  1.00  0.00     0.049 A 
ATOM     59  C   UNL A   1      43.563  28.095  32.063  1.00  0.00     0.074 A 
ATOM     60  C   UNL A   1      44.098  32.428  27.455  1.00  0.00     0.029 A 
ATOM     61  N   UNL A   1      43.721  31.382  29.380  1.00  0.00    -0.354 N 
ATOM     62  N   UNL A   1      43.634  29.057  31.174  1.00  0.00    -0.248 NA
ATOM     63  C   UNL A   1      43.841  26.756  31.527  1.00  0.00     0.031 C 
ATOM     64  C   UNL A   1      44.277  31.054  27.255  1.00  0.00     0.029 A 
ATOM     65  C   UNL A   1      44.073  30.404  28.462  1.00  0.00     0.049 A 
ATOM     66  H   UNL A   1      43.508  31.216  30.327  1.00  0.00     0.167 HD
ATOM     67  C   UNL A   1      43.995  28.443  29.979  1.00  0.00     0.074 A 
ATOM     68  C   UNL A   1      44.137  27.029  30.265  1.00  0.00     0.031 C 
ATOM     69  C   UNL A   1      44.198  28.996  28.756  1.00  0.00     0.034 A 
BRANCH  56  70
ATOM     70  C   UNL A   1      43.288  35.131  28.598  1.00  0.00     0.023 A 
ATOM     71  C   UNL A   1      44.446  35.825  28.206  1.00  0.00     0.031 A 
ATOM     72  C   UNL A   1      42.043  35.665  28.223  1.00  0.00     0.131 A 
ATOM     73  C   UNL A   1      44.334  37.052  27.535  1.00  0.00     0.055 A 
ATOM     74  C   UNL A   1      41.940  36.845  27.484  1.00  0.00     0.041 A 
ATOM     75  F   UNL A   1      40.902  35.057  28.584  1.00  0.00    -0.206 F 
ATOM     76  C   UNL A   1      43.090  37.555  27.150  1.00  0.00     0.022 A 
BRANCH  73  77
ATOM     77  S   UNL A   1      45.830  38.051  27.303  1.00  0.00     0.124 S 
ATOM     78  O   UNL A   1      45.265  39.383  27.098  1.00  0.00    -0.237 OA
ATOM     79  O   UNL A   1      46.543  37.846  28.558  1.00  0.00    -0.237 OA
ATOM     80  O   UNL A   1      46.458  37.460  26.123  1.00  0.00    -0.744 OA
ENDBRANCH  73  77
ENDBRANCH  56  70
BRANCH  57  81
ATOM     81  C   UNL A   1      43.175  26.951  34.369  1.00  0.00     0.023 A 
ATOM     82  C   UNL A   1      44.344  26.319  34.819  1.00  0.00     0.031 A 
ATOM     83  C   UNL A   1      41.939  26.365  34.694  1.00  0.00     0.131 A 
ATOM     84  C   UNL A   1      44.257  25.113  35.532  1.00  0.00     0.055 A 
ATOM     85  C   UNL A   1      41.856  25.191  35.445  1.00  0.00     0.041 A 
ATOM     86  F   UNL A   1      40.791  26.934  34.293  1.00  0.00    -0.206 F 
ATOM     87  C   UNL A   1      43.020  24.551  35.857  1.00  0.00     0.022 A 
BRANCH  84  88
ATOM     88  S   UNL A   1      45.791  24.246  35.962  1.00  0.00     0.124 S 
ATOM     89  O   UNL A   1      45.287  23.107  36.719  1.00  0.00    -0.237 OA
ATOM     90  O   UNL A   1      46.349  23.949  34.647  1.00  0.00    -0.237 OA
ATOM     91  O   UNL A   1      46.532  25.236  36.742  1.00  0.00    -0.744 OA
ENDBRANCH  84  88
ENDBRANCH  57  81
BRANCH  69  92
ATOM     92  C   UNL A   1      44.639  28.069  27.651  1.00  0.00     0.023 A 
ATOM     93  C   UNL A   1      45.996  27.900  27.325  1.00  0.00     0.031 A 
ATOM     94  C   UNL A   1      43.683  27.360  26.903  1.00  0.00     0.131 A 
ATOM     95  C   UNL A   1      46.357  27.081  26.244  1.00  0.00     0.055 A 
ATOM     96  C   UNL A   1      44.052  26.504  25.864  1.00  0.00     0.041 A 
ATOM     97  F   UNL A   1      42.374  27.486  27.172  1.00  0.00    -0.206 F 
ATOM     98  C   UNL A   1      45.394  26.370  25.522  1.00  0.00     0.022 A 
BRANCH  95  99
ATOM     99  S   UNL A   1      48.098  27.020  25.740  1.00  0.00     0.124 S 
ATOM    100  O   UNL A   1      48.270  28.313  25.086  1.00  0.00    -0.237 OA
ATOM    101  O   UNL A   1      48.787  26.855  27.015  1.00  0.00    -0.237 OA
ATOM    102  O   UNL A   1      48.158  25.862  24.850  1.00  0.00    -0.744 OA
ENDBRANCH  95  99
ENDBRANCH  69  92
ENDBRANCH  43  44
ENDBRANCH  35  38
ENDBRANCH  33  34
ENDBRANCH  32  33
ENDBRANCH  31  32
ENDBRANCH   1  31
TORSDOF 20
ENDMDL
