MODEL 1
REMARK VINA RESULT:     -13.4      0.000      0.000
REMARK SMILES Cc1cc(S(F)(F)(F)(F)F)cc2c1O[C@H](C(F)(F)F)C(C(=O)NCCCCNC(=O)c1ccc(-c3c4nc(c(-c5cc(S(=O)(=O)[O-])ccc5F)c5ccc([nH]5)c(-c5cc(S(=O)(=O)[O-])ccc5F)c5nc(c(-c6cc(S(=O)(=O)[O-])ccc6F)c6ccc3[nH]6)C=C5)C=C4)cc1)=C2
REMARK SMILES IDX 26 1 25 2 24 3 23 4 21 5 22 6 20 8 1 9 2 10 3 11 13 12 4 13
REMARK SMILES IDX 12 14 14 15 11 16 94 17 15 18 5 19 6 20 7 21 8 22 9 23 10 24
REMARK SMILES IDX 16 25 17 26 18 27 19 28 27 29 28 30 29 31 30 33 31 34 32 35
REMARK SMILES IDX 93 36 33 37 92 38 34 39 35 40 36 41 86 42 37 43 91 44 85 45
REMARK SMILES IDX 87 46 38 47 90 48 84 49 83 50 39 52 71 53 51 54 70 55 52 56
REMARK SMILES IDX 55 57 69 58 88 59 53 60 54 61 68 63 89 64 56 65 40 66 41 67
REMARK SMILES IDX 49 68 42 69 48 70 50 71 47 72 43 73 44 74 45 75 46 76 72 77
REMARK SMILES IDX 73 78 81 79 74 80 80 81 82 82 79 83 75 84 76 85 77 86 78 87
REMARK SMILES IDX 57 88 58 89 66 90 59 91 65 92 67 93 64 94 60 95 61 96 62 97
REMARK SMILES IDX 63 98
REMARK H PARENT 23 7 28 32 87 51 55 62
REMARK Flexibility Score: inf
ROOT
ATOM      1  C   UNL A   1      38.049  19.695  25.000  1.00  0.00     0.023 C 
ENDROOT
BRANCH   1   2
ATOM      2  C   UNL A   1      37.404  20.963  24.463  1.00  0.00     0.023 C 
BRANCH   2   3
ATOM      3  C   UNL A   1      36.899  21.805  25.623  1.00  0.00     0.116 C 
BRANCH   3   4
ATOM      4  N   UNL A   1      35.782  21.112  26.282  1.00  0.00    -0.352 N 
ATOM      5  C   UNL A   1      34.424  21.670  26.208  1.00  0.00     0.251 C 
ATOM      6  O   UNL A   1      33.459  21.071  26.777  1.00  0.00    -0.270 OA
ATOM      7  H   UNL A   1      35.944  20.273  26.772  1.00  0.00     0.163 HD
BRANCH   5   8
ATOM      8  C   UNL A   1      34.176  22.965  25.452  1.00  0.00     0.067 C 
ATOM      9  C   UNL A   1      33.331  26.551  21.822  1.00  0.00     0.048 C 
ATOM     10  C   UNL A   1      33.496  26.509  23.333  1.00  0.00    -0.007 A 
ATOM     11  C   UNL A   1      33.261  27.667  24.042  1.00  0.00     0.031 A 
ATOM     12  C   UNL A   1      33.724  25.319  24.021  1.00  0.00     0.130 A 
ATOM     13  C   UNL A   1      33.254  27.659  25.430  1.00  0.00     0.108 A 
ATOM     14  C   UNL A   1      33.711  25.314  25.435  1.00  0.00     0.019 A 
ATOM     15  O   UNL A   1      33.981  24.053  23.324  1.00  0.00    -0.475 OA
ATOM     16  C   UNL A   1      33.469  26.502  26.126  1.00  0.00     0.036 A 
ATOM     17  C   UNL A   1      33.953  24.051  26.131  1.00  0.00     0.025 C 
ATOM     18  C   UNL A   1      34.194  22.940  24.058  1.00  0.00     0.314 C 
BRANCH  13  19
ATOM     19  S   UNL A   1      32.957  29.200  26.330  1.00  0.00     0.310 S 
ATOM     20  F   UNL A   1      33.022  30.070  25.006  1.00  0.00    -0.094 F 
ATOM     21  F   UNL A   1      34.517  29.387  26.446  1.00  0.00    -0.094 F 
ATOM     22  F   UNL A   1      32.712  30.522  27.112  1.00  0.00    -0.094 F 
ATOM     23  F   UNL A   1      31.402  29.070  26.081  1.00  0.00    -0.094 F 
ATOM     24  F   UNL A   1      33.192  27.918  25.438  1.00  0.00    -0.094 F 
ENDBRANCH  13  19
BRANCH  18  25
ATOM     25  C   UNL A   1      32.969  22.100  23.733  1.00  0.00     0.429 C 
ATOM     26  F   UNL A   1      33.264  20.811  23.876  1.00  0.00    -0.167 F 
ATOM     27  F   UNL A   1      31.978  22.423  24.560  1.00  0.00    -0.167 F 
ATOM     28  F   UNL A   1      32.592  22.333  22.479  1.00  0.00    -0.167 F 
ENDBRANCH  18  25
ENDBRANCH   5   8
ENDBRANCH   3   4
ENDBRANCH   2   3
ENDBRANCH   1   2
BRANCH   1  29
ATOM     29  C   UNL A   1      39.245  20.061  25.863  1.00  0.00     0.116 C 
BRANCH  29  30
ATOM     30  N   UNL A   1      40.269  19.013  25.751  1.00  0.00    -0.352 N 
ATOM     31  C   UNL A   1      41.667  19.312  26.089  1.00  0.00     0.251 C 
ATOM     32  H   UNL A   1      40.018  18.109  25.450  1.00  0.00     0.163 HD
ATOM     33  O   UNL A   1      42.552  18.406  25.993  1.00  0.00    -0.269 OA
BRANCH  31  34
ATOM     34  C   UNL A   1      42.055  20.707  26.554  1.00  0.00     0.039 A 
ATOM     35  C   UNL A   1      42.534  21.577  25.580  1.00  0.00     0.014 A 
ATOM     36  C   UNL A   1      42.085  21.097  27.810  1.00  0.00     0.014 A 
ATOM     37  C   UNL A   1      42.540  22.951  25.910  1.00  0.00     0.010 A 
ATOM     38  C   UNL A   1      42.595  22.352  28.158  1.00  0.00     0.010 A 
ATOM     39  C   UNL A   1      42.820  23.266  27.237  1.00  0.00    -0.014 A 
BRANCH  39  40
ATOM     40  C   UNL A   1      43.370  24.632  27.614  1.00  0.00     0.031 A 
ATOM     41  C   UNL A   1      42.397  25.582  27.930  1.00  0.00     0.074 A 
ATOM     42  C   UNL A   1      44.718  24.919  27.482  1.00  0.00     0.049 A 
ATOM     43  N   UNL A   1      42.579  26.879  28.186  1.00  0.00    -0.248 NA
ATOM     44  C   UNL A   1      40.960  25.288  28.036  1.00  0.00     0.031 C 
ATOM     45  C   UNL A   1      45.706  23.965  27.173  1.00  0.00     0.029 A 
ATOM     46  N   UNL A   1      45.339  26.140  27.620  1.00  0.00    -0.354 N 
ATOM     47  C   UNL A   1      41.412  27.463  28.465  1.00  0.00     0.074 A 
ATOM     48  C   UNL A   1      40.353  26.448  28.368  1.00  0.00     0.031 C 
ATOM     49  C   UNL A   1      46.905  24.603  27.113  1.00  0.00     0.029 A 
ATOM     50  C   UNL A   1      46.686  25.966  27.384  1.00  0.00     0.049 A 
ATOM     51  H   UNL A   1      44.899  26.990  27.847  1.00  0.00     0.167 HD
ATOM     52  C   UNL A   1      41.189  28.799  28.801  1.00  0.00     0.034 A 
ATOM     53  C   UNL A   1      47.682  26.930  27.400  1.00  0.00     0.034 A 
ATOM     54  C   UNL A   1      42.191  29.754  28.858  1.00  0.00     0.049 A 
ATOM     55  C   UNL A   1      47.450  28.279  27.678  1.00  0.00     0.074 A 
ATOM     56  C   UNL A   1      41.984  31.104  29.202  1.00  0.00     0.029 A 
ATOM     57  N   UNL A   1      43.533  29.586  28.599  1.00  0.00    -0.354 N 
ATOM     58  N   UNL A   1      46.289  28.854  27.996  1.00  0.00    -0.248 NA
ATOM     59  C   UNL A   1      48.491  29.315  27.665  1.00  0.00     0.031 C 
ATOM     60  C   UNL A   1      43.183  31.742  29.141  1.00  0.00     0.029 A 
ATOM     61  C   UNL A   1      44.159  30.802  28.759  1.00  0.00     0.049 A 
ATOM     62  H   UNL A   1      43.970  28.741  28.344  1.00  0.00     0.167 HD
ATOM     63  C   UNL A   1      46.466  30.159  28.212  1.00  0.00     0.074 A 
ATOM     64  C   UNL A   1      47.883  30.476  27.994  1.00  0.00     0.031 C 
ATOM     65  C   UNL A   1      45.501  31.097  28.584  1.00  0.00     0.034 A 
BRANCH  52  66
ATOM     66  C   UNL A   1      39.767  29.230  29.120  1.00  0.00     0.023 A 
ATOM     67  C   UNL A   1      39.372  29.346  30.457  1.00  0.00     0.031 A 
ATOM     68  C   UNL A   1      38.922  29.488  28.144  1.00  0.00     0.131 A 
ATOM     69  C   UNL A   1      38.100  29.465  30.776  1.00  0.00     0.055 A 
ATOM     70  C   UNL A   1      37.625  29.875  28.475  1.00  0.00     0.041 A 
ATOM     71  F   UNL A   1      39.297  29.381  26.872  1.00  0.00    -0.206 F 
ATOM     72  C   UNL A   1      37.161  29.482  29.750  1.00  0.00     0.022 A 
BRANCH  69  73
ATOM     73  S   UNL A   1      37.587  29.603  32.506  1.00  0.00     0.124 S 
ATOM     74  O   UNL A   1      36.264  30.368  32.586  1.00  0.00    -0.237 OA
ATOM     75  O   UNL A   1      37.403  28.204  33.097  1.00  0.00    -0.237 OA
ATOM     76  O   UNL A   1      38.785  30.443  33.391  1.00  0.00    -0.744 OA
ENDBRANCH  69  73
ENDBRANCH  52  66
BRANCH  53  77
ATOM     77  C   UNL A   1      49.105  26.495  27.097  1.00  0.00     0.023 A 
ATOM     78  C   UNL A   1      49.707  26.906  25.902  1.00  0.00     0.031 A 
ATOM     79  C   UNL A   1      49.760  25.739  27.954  1.00  0.00     0.131 A 
ATOM     80  C   UNL A   1      50.826  26.353  25.487  1.00  0.00     0.055 A 
ATOM     81  C   UNL A   1      51.062  25.358  27.640  1.00  0.00     0.041 A 
ATOM     82  F   UNL A   1      49.191  25.351  29.092  1.00  0.00    -0.206 F 
ATOM     83  C   UNL A   1      51.401  25.358  26.268  1.00  0.00     0.022 A 
BRANCH  80  84
ATOM     84  S   UNL A   1      51.598  26.876  23.934  1.00  0.00     0.124 S 
ATOM     85  O   UNL A   1      52.775  25.951  23.614  1.00  0.00    -0.237 OA
ATOM     86  O   UNL A   1      50.569  26.802  22.803  1.00  0.00    -0.237 OA
ATOM     87  O   UNL A   1      52.160  28.483  24.090  1.00  0.00    -0.744 OA
ENDBRANCH  80  84
ENDBRANCH  53  77
BRANCH  65  88
ATOM     88  C   UNL A   1      45.952  32.531  28.811  1.00  0.00     0.023 A 
ATOM     89  C   UNL A   1      46.079  33.410  27.729  1.00  0.00     0.031 A 
ATOM     90  C   UNL A   1      46.365  32.879  30.012  1.00  0.00     0.131 A 
ATOM     91  C   UNL A   1      46.832  34.484  27.819  1.00  0.00     0.055 A 
ATOM     92  C   UNL A   1      46.936  34.139  30.176  1.00  0.00     0.041 A 
ATOM     93  F   UNL A   1      46.242  32.047  31.041  1.00  0.00    -0.206 F 
ATOM     94  C   UNL A   1      47.490  34.731  29.019  1.00  0.00     0.022 A 
BRANCH  91  95
ATOM     95  S   UNL A   1      47.008  35.614  26.416  1.00  0.00     0.124 S 
ATOM     96  O   UNL A   1      46.056  36.799  26.593  1.00  0.00    -0.237 OA
ATOM     97  O   UNL A   1      48.449  36.124  26.348  1.00  0.00    -0.237 OA
ATOM     98  O   UNL A   1      46.625  34.788  24.968  1.00  0.00    -0.744 OA
ENDBRANCH  91  95
ENDBRANCH  65  88
ENDBRANCH  39  40
ENDBRANCH  31  34
ENDBRANCH  29  30
ENDBRANCH   1  29
TORSDOF 16
ENDMDL
MODEL 2
REMARK VINA RESULT:     -13.3      5.812     11.266
REMARK SMILES Cc1cc(S(F)(F)(F)(F)F)cc2c1O[C@H](C(F)(F)F)C(C(=O)NCCCCNC(=O)c1ccc(-c3c4nc(c(-c5cc(S(=O)(=O)[O-])ccc5F)c5ccc([nH]5)c(-c5cc(S(=O)(=O)[O-])ccc5F)c5nc(c(-c6cc(S(=O)(=O)[O-])ccc6F)c6ccc3[nH]6)C=C5)C=C4)cc1)=C2
REMARK SMILES IDX 26 1 25 2 24 3 23 4 21 5 22 6 20 8 1 9 2 10 3 11 13 12 4 13
REMARK SMILES IDX 12 14 14 15 11 16 94 17 15 18 5 19 6 20 7 21 8 22 9 23 10 24
REMARK SMILES IDX 16 25 17 26 18 27 19 28 27 29 28 30 29 31 30 33 31 34 32 35
REMARK SMILES IDX 93 36 33 37 92 38 34 39 35 40 36 41 86 42 37 43 91 44 85 45
REMARK SMILES IDX 87 46 38 47 90 48 84 49 83 50 39 52 71 53 51 54 70 55 52 56
REMARK SMILES IDX 55 57 69 58 88 59 53 60 54 61 68 63 89 64 56 65 40 66 41 67
REMARK SMILES IDX 49 68 42 69 48 70 50 71 47 72 43 73 44 74 45 75 46 76 72 77
REMARK SMILES IDX 73 78 81 79 74 80 80 81 82 82 79 83 75 84 76 85 77 86 78 87
REMARK SMILES IDX 57 88 58 89 66 90 59 91 65 92 67 93 64 94 60 95 61 96 62 97
REMARK SMILES IDX 63 98
REMARK H PARENT 23 7 28 32 87 51 55 62
REMARK Flexibility Score: inf
ROOT
ATOM      1  C   UNL A   1      32.034  31.642  26.527  1.00  0.00     0.023 C 
ENDROOT
BRANCH   1   2
ATOM      2  C   UNL A   1      32.022  30.172  26.914  1.00  0.00     0.023 C 
BRANCH   2   3
ATOM      3  C   UNL A   1      33.244  29.484  26.326  1.00  0.00     0.116 C 
BRANCH   3   4
ATOM      4  N   UNL A   1      33.249  29.660  24.866  1.00  0.00    -0.352 N 
ATOM      5  C   UNL A   1      32.931  28.526  23.987  1.00  0.00     0.251 C 
ATOM      6  O   UNL A   1      32.936  28.679  22.726  1.00  0.00    -0.270 OA
ATOM      7  H   UNL A   1      33.466  30.539  24.477  1.00  0.00     0.163 HD
BRANCH   5   8
ATOM      8  C   UNL A   1      32.597  27.170  24.588  1.00  0.00     0.067 C 
ATOM      9  C   UNL A   1      30.286  23.150  26.878  1.00  0.00     0.048 C 
ATOM     10  C   UNL A   1      31.640  23.453  26.256  1.00  0.00    -0.007 A 
ATOM     11  C   UNL A   1      32.531  22.413  26.104  1.00  0.00     0.031 A 
ATOM     12  C   UNL A   1      31.941  24.699  25.707  1.00  0.00     0.130 A 
ATOM     13  C   UNL A   1      33.722  22.596  25.414  1.00  0.00     0.108 A 
ATOM     14  C   UNL A   1      33.153  24.878  25.001  1.00  0.00     0.019 A 
ATOM     15  O   UNL A   1      31.034  25.846  25.835  1.00  0.00    -0.475 OA
ATOM     16  C   UNL A   1      34.035  23.806  24.862  1.00  0.00     0.036 A 
ATOM     17  C   UNL A   1      33.443  26.195  24.436  1.00  0.00     0.025 C 
ATOM     18  C   UNL A   1      31.394  27.022  25.278  1.00  0.00     0.314 C 
BRANCH  13  19
ATOM     19  S   UNL A   1      34.876  21.212  25.246  1.00  0.00     0.310 S 
ATOM     20  F   UNL A   1      35.797  22.010  24.232  1.00  0.00    -0.094 F 
ATOM     21  F   UNL A   1      34.045  20.723  24.000  1.00  0.00    -0.094 F 
ATOM     22  F   UNL A   1      35.857  20.013  25.098  1.00  0.00    -0.094 F 
ATOM     23  F   UNL A   1      35.776  21.793  26.407  1.00  0.00    -0.094 F 
ATOM     24  F   UNL A   1      33.956  22.493  25.337  1.00  0.00    -0.094 F 
ENDBRANCH  13  19
BRANCH  18  25
ATOM     25  C   UNL A   1      30.364  27.182  24.171  1.00  0.00     0.429 C 
ATOM     26  F   UNL A   1      30.824  26.629  23.053  1.00  0.00    -0.167 F 
ATOM     27  F   UNL A   1      29.232  26.581  24.529  1.00  0.00    -0.167 F 
ATOM     28  F   UNL A   1      30.132  28.475  23.964  1.00  0.00    -0.167 F 
ENDBRANCH  18  25
ENDBRANCH   5   8
ENDBRANCH   3   4
ENDBRANCH   2   3
ENDBRANCH   1   2
BRANCH   1  29
ATOM     29  C   UNL A   1      32.959  32.405  27.461  1.00  0.00     0.116 C 
BRANCH  29  30
ATOM     30  N   UNL A   1      32.436  33.763  27.665  1.00  0.00    -0.352 N 
ATOM     31  C   UNL A   1      33.086  34.664  28.628  1.00  0.00     0.251 C 
ATOM     32  H   UNL A   1      31.651  34.071  27.158  1.00  0.00     0.163 HD
ATOM     33  O   UNL A   1      32.635  35.838  28.804  1.00  0.00    -0.269 OA
BRANCH  31  34
ATOM     34  C   UNL A   1      34.299  34.190  29.413  1.00  0.00     0.039 A 
ATOM     35  C   UNL A   1      35.528  34.269  28.768  1.00  0.00     0.014 A 
ATOM     36  C   UNL A   1      34.247  33.607  30.592  1.00  0.00     0.014 A 
ATOM     37  C   UNL A   1      36.677  34.194  29.587  1.00  0.00     0.010 A 
ATOM     38  C   UNL A   1      35.400  33.071  31.176  1.00  0.00     0.010 A 
ATOM     39  C   UNL A   1      36.593  33.353  30.694  1.00  0.00    -0.014 A 
BRANCH  39  40
ATOM     40  C   UNL A   1      37.846  32.775  31.330  1.00  0.00     0.031 A 
ATOM     41  C   UNL A   1      38.326  31.615  30.717  1.00  0.00     0.074 A 
ATOM     42  C   UNL A   1      38.345  33.287  32.516  1.00  0.00     0.049 A 
ATOM     43  N   UNL A   1      39.331  30.837  31.123  1.00  0.00    -0.248 NA
ATOM     44  C   UNL A   1      37.775  31.050  29.477  1.00  0.00     0.031 C 
ATOM     45  C   UNL A   1      37.873  34.460  33.135  1.00  0.00     0.029 A 
ATOM     46  N   UNL A   1      39.358  32.777  33.296  1.00  0.00    -0.354 N 
ATOM     47  C   UNL A   1      39.507  29.829  30.267  1.00  0.00     0.074 A 
ATOM     48  C   UNL A   1      38.505  29.948  29.198  1.00  0.00     0.031 C 
ATOM     49  C   UNL A   1      38.583  34.648  34.278  1.00  0.00     0.029 A 
ATOM     50  C   UNL A   1      39.511  33.596  34.393  1.00  0.00     0.049 A 
ATOM     51  H   UNL A   1      39.883  31.966  33.105  1.00  0.00     0.167 HD
ATOM     52  C   UNL A   1      40.466  28.816  30.333  1.00  0.00     0.034 A 
ATOM     53  C   UNL A   1      40.402  33.451  35.444  1.00  0.00     0.034 A 
ATOM     54  C   UNL A   1      41.386  28.696  31.362  1.00  0.00     0.049 A 
ATOM     55  C   UNL A   1      41.322  32.405  35.541  1.00  0.00     0.074 A 
ATOM     56  C   UNL A   1      42.363  27.685  31.440  1.00  0.00     0.029 A 
ATOM     57  N   UNL A   1      41.522  29.501  32.471  1.00  0.00    -0.354 N 
ATOM     58  N   UNL A   1      41.525  31.419  34.665  1.00  0.00    -0.248 NA
ATOM     59  C   UNL A   1      42.249  32.222  36.666  1.00  0.00     0.031 C 
ATOM     60  C   UNL A   1      43.073  27.874  32.585  1.00  0.00     0.029 A 
ATOM     61  C   UNL A   1      42.550  29.004  33.240  1.00  0.00     0.049 A 
ATOM     62  H   UNL A   1      40.979  30.296  32.678  1.00  0.00     0.167 HD
ATOM     63  C   UNL A   1      42.503  30.619  35.091  1.00  0.00     0.074 A 
ATOM     64  C   UNL A   1      42.977  31.119  36.389  1.00  0.00     0.031 C 
ATOM     65  C   UNL A   1      43.021  29.492  34.449  1.00  0.00     0.034 A 
BRANCH  52  66
ATOM     66  C   UNL A   1      40.502  27.789  29.213  1.00  0.00     0.023 A 
ATOM     67  C   UNL A   1      41.411  27.954  28.163  1.00  0.00     0.031 A 
ATOM     68  C   UNL A   1      39.683  26.759  29.238  1.00  0.00     0.131 A 
ATOM     69  C   UNL A   1      41.304  27.243  27.061  1.00  0.00     0.055 A 
ATOM     70  C   UNL A   1      39.741  25.841  28.191  1.00  0.00     0.041 A 
ATOM     71  F   UNL A   1      38.820  26.599  30.238  1.00  0.00    -0.206 F 
ATOM     72  C   UNL A   1      40.272  26.316  26.971  1.00  0.00     0.022 A 
BRANCH  69  73
ATOM     73  S   UNL A   1      42.472  27.465  25.697  1.00  0.00     0.124 S 
ATOM     74  O   UNL A   1      43.901  27.476  26.245  1.00  0.00    -0.237 OA
ATOM     75  O   UNL A   1      42.318  26.314  24.700  1.00  0.00    -0.237 OA
ATOM     76  O   UNL A   1      42.153  28.948  24.908  1.00  0.00    -0.744 OA
ENDBRANCH  69  73
ENDBRANCH  52  66
BRANCH  53  77
ATOM     77  C   UNL A   1      40.376  34.488  36.555  1.00  0.00     0.023 A 
ATOM     78  C   UNL A   1      39.815  34.152  37.791  1.00  0.00     0.031 A 
ATOM     79  C   UNL A   1      40.878  35.687  36.347  1.00  0.00     0.131 A 
ATOM     80  C   UNL A   1      39.545  35.080  38.683  1.00  0.00     0.055 A 
ATOM     81  C   UNL A   1      40.834  36.612  37.388  1.00  0.00     0.041 A 
ATOM     82  F   UNL A   1      41.416  36.007  35.173  1.00  0.00    -0.206 F 
ATOM     83  C   UNL A   1      39.839  36.403  38.370  1.00  0.00     0.022 A 
BRANCH  80  84
ATOM     84  S   UNL A   1      38.806  34.647  40.279  1.00  0.00     0.124 S 
ATOM     85  O   UNL A   1      37.612  33.718  40.051  1.00  0.00    -0.237 OA
ATOM     86  O   UNL A   1      39.848  33.937  41.147  1.00  0.00    -0.237 OA
ATOM     87  O   UNL A   1      38.281  36.070  41.068  1.00  0.00    -0.744 OA
ENDBRANCH  80  84
ENDBRANCH  53  77
BRANCH  65  88
ATOM     88  C   UNL A   1      44.170  28.755  35.118  1.00  0.00     0.023 A 
ATOM     89  C   UNL A   1      43.911  27.721  36.025  1.00  0.00     0.031 A 
ATOM     90  C   UNL A   1      45.394  29.210  34.946  1.00  0.00     0.131 A 
ATOM     91  C   UNL A   1      44.819  27.354  36.904  1.00  0.00     0.055 A 
ATOM     92  C   UNL A   1      46.422  28.639  35.694  1.00  0.00     0.041 A 
ATOM     93  F   UNL A   1      45.641  30.189  34.082  1.00  0.00    -0.206 F 
ATOM     94  C   UNL A   1      46.045  28.011  36.901  1.00  0.00     0.022 A 
BRANCH  91  95
ATOM     95  S   UNL A   1      44.481  26.026  38.086  1.00  0.00     0.124 S 
ATOM     96  O   UNL A   1      43.244  25.245  37.636  1.00  0.00    -0.237 OA
ATOM     97  O   UNL A   1      45.684  25.082  38.151  1.00  0.00    -0.237 OA
ATOM     98  O   UNL A   1      44.199  26.698  39.633  1.00  0.00    -0.744 OA
ENDBRANCH  91  95
ENDBRANCH  65  88
ENDBRANCH  39  40
ENDBRANCH  31  34
ENDBRANCH  29  30
ENDBRANCH   1  29
TORSDOF 16
ENDMDL
MODEL 3
REMARK VINA RESULT:     -13.3      5.715      9.672
REMARK SMILES Cc1cc(S(F)(F)(F)(F)F)cc2c1O[C@H](C(F)(F)F)C(C(=O)NCCCCNC(=O)c1ccc(-c3c4nc(c(-c5cc(S(=O)(=O)[O-])ccc5F)c5ccc([nH]5)c(-c5cc(S(=O)(=O)[O-])ccc5F)c5nc(c(-c6cc(S(=O)(=O)[O-])ccc6F)c6ccc3[nH]6)C=C5)C=C4)cc1)=C2
REMARK SMILES IDX 26 1 25 2 24 3 23 4 21 5 22 6 20 8 1 9 2 10 3 11 13 12 4 13
REMARK SMILES IDX 12 14 14 15 11 16 94 17 15 18 5 19 6 20 7 21 8 22 9 23 10 24
REMARK SMILES IDX 16 25 17 26 18 27 19 28 27 29 28 30 29 31 30 33 31 34 32 35
REMARK SMILES IDX 93 36 33 37 92 38 34 39 35 40 36 41 86 42 37 43 91 44 85 45
REMARK SMILES IDX 87 46 38 47 90 48 84 49 83 50 39 52 71 53 51 54 70 55 52 56
REMARK SMILES IDX 55 57 69 58 88 59 53 60 54 61 68 63 89 64 56 65 40 66 41 67
REMARK SMILES IDX 49 68 42 69 48 70 50 71 47 72 43 73 44 74 45 75 46 76 72 77
REMARK SMILES IDX 73 78 81 79 74 80 80 81 82 82 79 83 75 84 76 85 77 86 78 87
REMARK SMILES IDX 57 88 58 89 66 90 59 91 65 92 67 93 64 94 60 95 61 96 62 97
REMARK SMILES IDX 63 98
REMARK H PARENT 23 7 28 32 87 51 55 62
REMARK Flexibility Score: inf
ROOT
ATOM      1  C   UNL A   1      31.721  31.858  26.529  1.00  0.00     0.023 C 
ENDROOT
BRANCH   1   2
ATOM      2  C   UNL A   1      31.730  30.343  26.656  1.00  0.00     0.023 C 
BRANCH   2   3
ATOM      3  C   UNL A   1      32.871  29.772  25.830  1.00  0.00     0.116 C 
BRANCH   3   4
ATOM      4  N   UNL A   1      32.475  29.726  24.414  1.00  0.00    -0.352 N 
ATOM      5  C   UNL A   1      32.346  28.432  23.729  1.00  0.00     0.251 C 
ATOM      6  O   UNL A   1      32.004  28.393  22.506  1.00  0.00    -0.270 OA
ATOM      7  H   UNL A   1      32.297  30.562  23.926  1.00  0.00     0.163 HD
BRANCH   5   8
ATOM      8  C   UNL A   1      32.621  27.142  24.483  1.00  0.00     0.067 C 
ATOM      9  C   UNL A   1      32.312  22.948  27.495  1.00  0.00     0.048 C 
ATOM     10  C   UNL A   1      33.343  23.594  26.582  1.00  0.00    -0.007 A 
ATOM     11  C   UNL A   1      34.503  22.898  26.321  1.00  0.00     0.031 A 
ATOM     12  C   UNL A   1      33.085  24.777  25.892  1.00  0.00     0.130 A 
ATOM     13  C   UNL A   1      35.416  23.367  25.385  1.00  0.00     0.108 A 
ATOM     14  C   UNL A   1      34.014  25.248  24.936  1.00  0.00     0.019 A 
ATOM     15  O   UNL A   1      31.867  25.565  26.125  1.00  0.00    -0.475 OA
ATOM     16  C   UNL A   1      35.181  24.521  24.693  1.00  0.00     0.036 A 
ATOM     17  C   UNL A   1      33.718  26.493  24.228  1.00  0.00     0.025 C 
ATOM     18  C   UNL A   1      31.686  26.702  25.420  1.00  0.00     0.314 C 
BRANCH  13  19
ATOM     19  S   UNL A   1      36.937  22.435  25.079  1.00  0.00     0.310 S 
ATOM     20  F   UNL A   1      37.188  23.162  23.692  1.00  0.00    -0.094 F 
ATOM     21  F   UNL A   1      36.081  21.374  24.290  1.00  0.00    -0.094 F 
ATOM     22  F   UNL A   1      38.237  21.623  24.818  1.00  0.00    -0.094 F 
ATOM     23  F   UNL A   1      37.797  23.579  25.750  1.00  0.00    -0.094 F 
ATOM     24  F   UNL A   1      35.644  23.326  25.253  1.00  0.00    -0.094 F 
ENDBRANCH  13  19
BRANCH  18  25
ATOM     25  C   UNL A   1      30.492  26.352  24.546  1.00  0.00     0.429 C 
ATOM     26  F   UNL A   1      30.916  25.769  23.429  1.00  0.00    -0.167 F 
ATOM     27  F   UNL A   1      29.690  25.519  25.205  1.00  0.00    -0.167 F 
ATOM     28  F   UNL A   1      29.825  27.462  24.243  1.00  0.00    -0.167 F 
ENDBRANCH  18  25
ENDBRANCH   5   8
ENDBRANCH   3   4
ENDBRANCH   2   3
ENDBRANCH   1   2
BRANCH   1  29
ATOM     29  C   UNL A   1      32.805  32.447  27.417  1.00  0.00     0.116 C 
BRANCH  29  30
ATOM     30  N   UNL A   1      32.583  33.892  27.567  1.00  0.00    -0.352 N 
ATOM     31  C   UNL A   1      33.393  34.666  28.518  1.00  0.00     0.251 C 
ATOM     32  H   UNL A   1      31.891  34.343  27.030  1.00  0.00     0.163 HD
ATOM     33  O   UNL A   1      33.202  35.915  28.647  1.00  0.00    -0.269 OA
BRANCH  31  34
ATOM     34  C   UNL A   1      34.462  33.971  29.348  1.00  0.00     0.039 A 
ATOM     35  C   UNL A   1      35.745  33.941  28.812  1.00  0.00     0.014 A 
ATOM     36  C   UNL A   1      34.231  33.302  30.458  1.00  0.00     0.014 A 
ATOM     37  C   UNL A   1      36.796  33.646  29.708  1.00  0.00     0.010 A 
ATOM     38  C   UNL A   1      35.250  32.571  31.077  1.00  0.00     0.010 A 
ATOM     39  C   UNL A   1      36.507  32.732  30.719  1.00  0.00    -0.014 A 
BRANCH  39  40
ATOM     40  C   UNL A   1      37.616  31.942  31.394  1.00  0.00     0.031 A 
ATOM     41  C   UNL A   1      38.041  32.465  32.617  1.00  0.00     0.074 A 
ATOM     42  C   UNL A   1      38.242  30.892  30.743  1.00  0.00     0.049 A 
ATOM     43  N   UNL A   1      39.061  32.050  33.370  1.00  0.00    -0.248 NA
ATOM     44  C   UNL A   1      37.400  33.602  33.295  1.00  0.00     0.031 C 
ATOM     45  C   UNL A   1      37.815  30.352  29.514  1.00  0.00     0.029 A 
ATOM     46  N   UNL A   1      39.358  30.194  31.144  1.00  0.00    -0.354 N 
ATOM     47  C   UNL A   1      39.146  32.787  34.479  1.00  0.00     0.074 A 
ATOM     48  C   UNL A   1      38.081  33.799  34.444  1.00  0.00     0.031 C 
ATOM     49  C   UNL A   1      38.668  29.352  29.174  1.00  0.00     0.029 A 
ATOM     50  C   UNL A   1      39.643  29.248  30.184  1.00  0.00     0.049 A 
ATOM     51  H   UNL A   1      39.867  30.344  31.974  1.00  0.00     0.167 HD
ATOM     52  C   UNL A   1      40.066  32.652  35.520  1.00  0.00     0.034 A 
ATOM     53  C   UNL A   1      40.689  28.338  30.171  1.00  0.00     0.034 A 
ATOM     54  C   UNL A   1      41.085  31.714  35.527  1.00  0.00     0.049 A 
ATOM     55  C   UNL A   1      41.645  28.242  31.185  1.00  0.00     0.074 A 
ATOM     56  C   UNL A   1      42.017  31.561  36.572  1.00  0.00     0.029 A 
ATOM     57  N   UNL A   1      41.384  30.785  34.556  1.00  0.00    -0.354 N 
ATOM     58  N   UNL A   1      41.705  28.953  32.313  1.00  0.00    -0.248 NA
ATOM     59  C   UNL A   1      42.776  27.306  31.167  1.00  0.00     0.031 C 
ATOM     60  C   UNL A   1      42.871  30.559  36.231  1.00  0.00     0.029 A 
ATOM     61  C   UNL A   1      42.487  30.071  34.968  1.00  0.00     0.049 A 
ATOM     62  H   UNL A   1      40.894  30.653  33.713  1.00  0.00     0.167 HD
ATOM     63  C   UNL A   1      42.750  28.564  33.046  1.00  0.00     0.074 A 
ATOM     64  C   UNL A   1      43.459  27.505  32.315  1.00  0.00     0.031 C 
ATOM     65  C   UNL A   1      43.139  29.050  34.295  1.00  0.00     0.034 A 
BRANCH  52  66
ATOM     66  C   UNL A   1      39.942  33.588  36.712  1.00  0.00     0.023 A 
ATOM     67  C   UNL A   1      39.327  33.128  37.881  1.00  0.00     0.031 A 
ATOM     68  C   UNL A   1      40.410  34.817  36.635  1.00  0.00     0.131 A 
ATOM     69  C   UNL A   1      38.973  33.968  38.831  1.00  0.00     0.055 A 
ATOM     70  C   UNL A   1      40.273  35.647  37.746  1.00  0.00     0.041 A 
ATOM     71  F   UNL A   1      40.998  35.254  35.526  1.00  0.00    -0.206 F 
ATOM     72  C   UNL A   1      39.235  35.321  38.648  1.00  0.00     0.022 A 
BRANCH  69  73
ATOM     73  S   UNL A   1      38.166  33.376  40.338  1.00  0.00     0.124 S 
ATOM     74  O   UNL A   1      38.258  34.452  41.422  1.00  0.00    -0.237 OA
ATOM     75  O   UNL A   1      36.695  33.072  40.045  1.00  0.00    -0.237 OA
ATOM     76  O   UNL A   1      38.944  31.952  40.881  1.00  0.00    -0.744 OA
ENDBRANCH  69  73
ENDBRANCH  52  66
BRANCH  53  77
ATOM     77  C   UNL A   1      40.802  27.392  28.988  1.00  0.00     0.023 A 
ATOM     78  C   UNL A   1      41.787  27.621  28.021  1.00  0.00     0.031 A 
ATOM     79  C   UNL A   1      39.978  26.371  28.880  1.00  0.00     0.131 A 
ATOM     80  C   UNL A   1      41.759  26.988  26.868  1.00  0.00     0.055 A 
ATOM     81  C   UNL A   1      40.110  25.527  27.779  1.00  0.00     0.041 A 
ATOM     82  F   UNL A   1      39.042  26.150  29.800  1.00  0.00    -0.206 F 
ATOM     83  C   UNL A   1      40.731  26.081  26.637  1.00  0.00     0.022 A 
BRANCH  80  84
ATOM     84  S   UNL A   1      43.027  27.293  25.612  1.00  0.00     0.124 S 
ATOM     85  O   UNL A   1      42.459  28.211  24.527  1.00  0.00    -0.237 OA
ATOM     86  O   UNL A   1      44.240  27.962  26.263  1.00  0.00    -0.237 OA
ATOM     87  O   UNL A   1      43.502  25.808  24.911  1.00  0.00    -0.744 OA
ENDBRANCH  80  84
ENDBRANCH  53  77
BRANCH  65  88
ATOM     88  C   UNL A   1      44.354  28.419  34.958  1.00  0.00     0.023 A 
ATOM     89  C   UNL A   1      44.188  27.458  35.963  1.00  0.00     0.031 A 
ATOM     90  C   UNL A   1      45.545  28.905  34.681  1.00  0.00     0.131 A 
ATOM     91  C   UNL A   1      45.155  27.205  36.817  1.00  0.00     0.055 A 
ATOM     92  C   UNL A   1      46.635  28.442  35.416  1.00  0.00     0.041 A 
ATOM     93  F   UNL A   1      45.704  29.815  33.726  1.00  0.00    -0.206 F 
ATOM     94  C   UNL A   1      46.349  27.907  36.691  1.00  0.00     0.022 A 
BRANCH  91  95
ATOM     95  S   UNL A   1      44.938  25.971  38.124  1.00  0.00     0.124 S 
ATOM     96  O   UNL A   1      46.252  25.804  38.891  1.00  0.00    -0.237 OA
ATOM     97  O   UNL A   1      43.842  26.434  39.086  1.00  0.00    -0.237 OA
ATOM     98  O   UNL A   1      44.491  24.475  37.427  1.00  0.00    -0.744 OA
ENDBRANCH  91  95
ENDBRANCH  65  88
ENDBRANCH  39  40
ENDBRANCH  31  34
ENDBRANCH  29  30
ENDBRANCH   1  29
TORSDOF 16
ENDMDL
