MODEL 1
REMARK VINA RESULT:      -9.1      0.000      0.000
REMARK SMILES N#CCSCC(=O)N1Cc2ccccc2C[C@@H]1C(=O)NCCCCNC(=O)c1ccc(-c2c3nc(c(-c4cc(S(=O)(=O)[O-])ccc4F)c4ccc([nH]4)c(-c4cc(S(=O)(=O)[O-])ccc4F)c4nc(c(-c5cc(S(=O)(=O)[O-])ccc5F)c5ccc2[nH]5)C=C4)C=C3)cc1
REMARK SMILES IDX 21 1 20 2 18 3 19 4 17 6 8 7 9 8 10 9 16 10 11 11 15 12
REMARK SMILES IDX 12 13 14 14 13 15 6 16 7 17 5 18 4 19 3 20 2 21 1 22 22 23
REMARK SMILES IDX 23 24 24 25 25 26 26 27 27 29 28 30 29 31 90 32 30 33 89 34
REMARK SMILES IDX 31 35 32 36 33 37 83 38 34 39 88 40 82 41 84 42 35 43 87 44
REMARK SMILES IDX 81 45 80 46 36 48 68 49 48 50 67 51 49 52 52 53 66 54 85 55
REMARK SMILES IDX 50 56 51 57 65 59 86 60 53 61 37 62 38 63 46 64 39 65 45 66
REMARK SMILES IDX 47 67 44 68 40 69 41 70 42 71 43 72 69 73 70 74 78 75 71 76
REMARK SMILES IDX 77 77 79 78 76 79 72 80 73 81 74 82 75 83 54 84 55 85 63 86
REMARK SMILES IDX 56 87 62 88 64 89 61 90 57 91 58 92 59 93 60 94
REMARK H PARENT 20 5 25 28 84 47 52 58
REMARK Flexibility Score: inf
ROOT
ATOM      1  C   UNL A   1      43.363  24.159  28.812  1.00  0.00     0.116 C 
ENDROOT
BRANCH   1   2
ATOM      2  N   UNL A   1      44.715  24.571  28.527  1.00  0.00    -0.354 N 
ATOM      3  C   UNL A   1      45.230  25.260  27.479  1.00  0.00     0.243 C 
ATOM      4  O   UNL A   1      46.320  25.797  27.730  1.00  0.00    -0.273 OA
ATOM      5  H   UNL A   1      45.376  24.308  29.208  1.00  0.00     0.163 HD
BRANCH   3   6
ATOM      6  C   UNL A   1      44.640  25.280  26.024  1.00  0.00     0.179 C 
ATOM      7  N   UNL A   1      45.810  25.466  25.121  1.00  0.00    -0.325 N 
ATOM      8  C   UNL A   1      46.343  26.840  25.019  1.00  0.00     0.156 C 
ATOM      9  C   UNL A   1      45.519  27.913  25.707  1.00  0.00    -0.025 A 
ATOM     10  C   UNL A   1      43.597  26.344  25.680  1.00  0.00     0.071 C 
ATOM     11  C   UNL A   1      46.100  29.133  26.073  1.00  0.00     0.006 A 
ATOM     12  C   UNL A   1      44.162  27.696  25.996  1.00  0.00    -0.040 A 
ATOM     13  C   UNL A   1      45.346  30.099  26.745  1.00  0.00     0.000 A 
ATOM     14  C   UNL A   1      43.397  28.682  26.628  1.00  0.00     0.004 A 
ATOM     15  C   UNL A   1      43.998  29.874  27.021  1.00  0.00     0.000 A 
BRANCH   7  16
ATOM     16  C   UNL A   1      46.625  24.454  24.625  1.00  0.00     0.233 C 
ATOM     17  O   UNL A   1      47.550  24.730  23.847  1.00  0.00    -0.274 OA
BRANCH  16  18
ATOM     18  C   UNL A   1      46.293  22.978  24.821  1.00  0.00     0.170 C 
BRANCH  18  19
ATOM     19  S   UNL A   1      44.904  22.229  23.933  1.00  0.00    -0.137 SA
BRANCH  19  20
ATOM     20  C   UNL A   1      44.450  20.853  25.015  1.00  0.00     0.189 C 
BRANCH  20  21
ATOM     21  C   UNL A   1      45.188  19.541  24.803  1.00  0.00     0.073 C 
ATOM     22  N   UNL A   1      45.799  18.452  24.626  1.00  0.00    -0.197 NA
ENDBRANCH  20  21
ENDBRANCH  19  20
ENDBRANCH  18  19
ENDBRANCH  16  18
ENDBRANCH   7  16
ENDBRANCH   3   6
ENDBRANCH   1   2
BRANCH   1  23
ATOM     23  C   UNL A   1      43.168  22.646  28.796  1.00  0.00     0.023 C 
BRANCH  23  24
ATOM     24  C   UNL A   1      41.960  22.117  28.020  1.00  0.00     0.023 C 
BRANCH  24  25
ATOM     25  C   UNL A   1      41.745  22.688  26.621  1.00  0.00     0.116 C 
BRANCH  25  26
ATOM     26  N   UNL A   1      40.374  22.567  26.153  1.00  0.00    -0.352 N 
ATOM     27  C   UNL A   1      39.292  23.394  26.343  1.00  0.00     0.251 C 
ATOM     28  H   UNL A   1      40.191  21.764  25.614  1.00  0.00     0.163 HD
ATOM     29  O   UNL A   1      38.185  23.033  25.949  1.00  0.00    -0.269 OA
BRANCH  27  30
ATOM     30  C   UNL A   1      39.446  24.687  27.048  1.00  0.00     0.039 A 
ATOM     31  C   UNL A   1      39.046  24.777  28.384  1.00  0.00     0.014 A 
ATOM     32  C   UNL A   1      39.987  25.803  26.407  1.00  0.00     0.014 A 
ATOM     33  C   UNL A   1      39.277  25.955  29.103  1.00  0.00     0.010 A 
ATOM     34  C   UNL A   1      40.287  26.948  27.143  1.00  0.00     0.010 A 
ATOM     35  C   UNL A   1      39.946  27.033  28.502  1.00  0.00    -0.014 A 
BRANCH  35  36
ATOM     36  C   UNL A   1      40.312  28.249  29.278  1.00  0.00     0.031 A 
ATOM     37  C   UNL A   1      41.706  28.409  29.823  1.00  0.00     0.074 A 
ATOM     38  C   UNL A   1      39.369  29.169  29.562  1.00  0.00     0.049 A 
ATOM     39  N   UNL A   1      42.187  29.336  30.611  1.00  0.00    -0.248 NA
ATOM     40  C   UNL A   1      42.675  27.365  29.460  1.00  0.00     0.031 C 
ATOM     41  C   UNL A   1      37.969  29.106  29.133  1.00  0.00     0.029 A 
ATOM     42  N   UNL A   1      39.436  30.330  30.292  1.00  0.00    -0.354 N 
ATOM     43  C   UNL A   1      43.509  28.977  30.856  1.00  0.00     0.074 A 
ATOM     44  C   UNL A   1      43.731  27.717  30.177  1.00  0.00     0.031 C 
ATOM     45  C   UNL A   1      37.318  30.188  29.591  1.00  0.00     0.029 A 
ATOM     46  C   UNL A   1      38.237  30.999  30.383  1.00  0.00     0.049 A 
ATOM     47  H   UNL A   1      40.265  30.653  30.713  1.00  0.00     0.167 HD
ATOM     48  C   UNL A   1      44.455  29.646  31.562  1.00  0.00     0.034 A 
ATOM     49  C   UNL A   1      37.910  32.131  31.038  1.00  0.00     0.034 A 
ATOM     50  C   UNL A   1      44.224  30.912  32.217  1.00  0.00     0.049 A 
ATOM     51  C   UNL A   1      38.977  32.857  31.817  1.00  0.00     0.074 A 
ATOM     52  C   UNL A   1      45.127  31.704  32.906  1.00  0.00     0.029 A 
ATOM     53  N   UNL A   1      43.002  31.570  32.266  1.00  0.00    -0.354 N 
ATOM     54  N   UNL A   1      40.234  32.528  31.999  1.00  0.00    -0.248 NA
ATOM     55  C   UNL A   1      38.581  34.111  32.469  1.00  0.00     0.031 C 
ATOM     56  C   UNL A   1      44.439  32.810  33.420  1.00  0.00     0.029 A 
ATOM     57  C   UNL A   1      43.121  32.745  32.994  1.00  0.00     0.049 A 
ATOM     58  H   UNL A   1      42.172  31.250  31.846  1.00  0.00     0.167 HD
ATOM     59  C   UNL A   1      40.786  33.552  32.764  1.00  0.00     0.074 A 
ATOM     60  C   UNL A   1      39.727  34.513  32.997  1.00  0.00     0.031 C 
ATOM     61  C   UNL A   1      42.054  33.688  33.227  1.00  0.00     0.034 A 
BRANCH  48  62
ATOM     62  C   UNL A   1      45.816  29.002  31.677  1.00  0.00     0.023 A 
ATOM     63  C   UNL A   1      46.842  29.277  30.755  1.00  0.00     0.031 A 
ATOM     64  C   UNL A   1      46.083  28.073  32.697  1.00  0.00     0.131 A 
ATOM     65  C   UNL A   1      48.051  28.570  30.818  1.00  0.00     0.055 A 
ATOM     66  C   UNL A   1      47.320  27.433  32.806  1.00  0.00     0.041 A 
ATOM     67  F   UNL A   1      45.138  27.754  33.597  1.00  0.00    -0.206 F 
ATOM     68  C   UNL A   1      48.307  27.667  31.852  1.00  0.00     0.022 A 
BRANCH  65  69
ATOM     69  S   UNL A   1      49.222  28.735  29.443  1.00  0.00     0.124 S 
ATOM     70  O   UNL A   1      48.460  28.159  28.337  1.00  0.00    -0.237 OA
ATOM     71  O   UNL A   1      49.440  30.176  29.386  1.00  0.00    -0.237 OA
ATOM     72  O   UNL A   1      50.373  27.945  29.875  1.00  0.00    -0.744 OA
ENDBRANCH  65  69
ENDBRANCH  48  62
BRANCH  49  73
ATOM     73  C   UNL A   1      36.514  32.650  30.999  1.00  0.00     0.023 A 
ATOM     74  C   UNL A   1      36.000  33.254  29.841  1.00  0.00     0.031 A 
ATOM     75  C   UNL A   1      35.685  32.584  32.133  1.00  0.00     0.131 A 
ATOM     76  C   UNL A   1      34.712  33.808  29.853  1.00  0.00     0.055 A 
ATOM     77  C   UNL A   1      34.385  33.095  32.125  1.00  0.00     0.041 A 
ATOM     78  F   UNL A   1      36.123  32.007  33.262  1.00  0.00    -0.206 F 
ATOM     79  C   UNL A   1      33.896  33.723  30.985  1.00  0.00     0.022 A 
BRANCH  76  80
ATOM     80  S   UNL A   1      34.141  34.710  28.387  1.00  0.00     0.124 S 
ATOM     81  O   UNL A   1      34.446  33.766  27.318  1.00  0.00    -0.237 OA
ATOM     82  O   UNL A   1      32.726  34.907  28.685  1.00  0.00    -0.237 OA
ATOM     83  O   UNL A   1      34.953  35.925  28.398  1.00  0.00    -0.744 OA
ENDBRANCH  76  80
ENDBRANCH  49  73
BRANCH  61  84
ATOM     84  C   UNL A   1      42.369  34.950  33.992  1.00  0.00     0.023 A 
ATOM     85  C   UNL A   1      42.079  35.076  35.361  1.00  0.00     0.031 A 
ATOM     86  C   UNL A   1      42.956  36.046  33.334  1.00  0.00     0.131 A 
ATOM     87  C   UNL A   1      42.328  36.292  36.018  1.00  0.00     0.055 A 
ATOM     88  C   UNL A   1      43.251  37.233  34.004  1.00  0.00     0.041 A 
ATOM     89  F   UNL A   1      43.250  35.978  32.025  1.00  0.00    -0.206 F 
ATOM     90  C   UNL A   1      42.925  37.366  35.351  1.00  0.00     0.022 A 
BRANCH  87  91
ATOM     91  S   UNL A   1      41.782  36.482  37.737  1.00  0.00     0.124 S 
ATOM     92  O   UNL A   1      42.050  35.159  38.289  1.00  0.00    -0.237 OA
ATOM     93  O   UNL A   1      42.640  37.560  38.218  1.00  0.00    -0.237 OA
ATOM     94  O   UNL A   1      40.367  36.828  37.612  1.00  0.00    -0.744 OA
ENDBRANCH  87  91
ENDBRANCH  61  84
ENDBRANCH  35  36
ENDBRANCH  27  30
ENDBRANCH  25  26
ENDBRANCH  24  25
ENDBRANCH  23  24
ENDBRANCH   1  23
TORSDOF 19
ENDMDL
MODEL 2
REMARK VINA RESULT:      -8.8      1.847      2.116
REMARK SMILES N#CCSCC(=O)N1Cc2ccccc2C[C@@H]1C(=O)NCCCCNC(=O)c1ccc(-c2c3nc(c(-c4cc(S(=O)(=O)[O-])ccc4F)c4ccc([nH]4)c(-c4cc(S(=O)(=O)[O-])ccc4F)c4nc(c(-c5cc(S(=O)(=O)[O-])ccc5F)c5ccc2[nH]5)C=C4)C=C3)cc1
REMARK SMILES IDX 21 1 20 2 18 3 19 4 17 6 8 7 9 8 10 9 16 10 11 11 15 12
REMARK SMILES IDX 12 13 14 14 13 15 6 16 7 17 5 18 4 19 3 20 2 21 1 22 22 23
REMARK SMILES IDX 23 24 24 25 25 26 26 27 27 29 28 30 29 31 90 32 30 33 89 34
REMARK SMILES IDX 31 35 32 36 33 37 83 38 34 39 88 40 82 41 84 42 35 43 87 44
REMARK SMILES IDX 81 45 80 46 36 48 68 49 48 50 67 51 49 52 52 53 66 54 85 55
REMARK SMILES IDX 50 56 51 57 65 59 86 60 53 61 37 62 38 63 46 64 39 65 45 66
REMARK SMILES IDX 47 67 44 68 40 69 41 70 42 71 43 72 69 73 70 74 78 75 71 76
REMARK SMILES IDX 77 77 79 78 76 79 72 80 73 81 74 82 75 83 54 84 55 85 63 86
REMARK SMILES IDX 56 87 62 88 64 89 61 90 57 91 58 92 59 93 60 94
REMARK H PARENT 20 5 25 28 84 47 52 58
REMARK Flexibility Score: inf
ROOT
ATOM      1  C   UNL A   1      43.810  24.299  29.210  1.00  0.00     0.116 C 
ENDROOT
BRANCH   1   2
ATOM      2  N   UNL A   1      45.098  24.692  28.694  1.00  0.00    -0.354 N 
ATOM      3  C   UNL A   1      45.435  25.365  27.566  1.00  0.00     0.243 C 
ATOM      4  O   UNL A   1      46.557  25.890  27.622  1.00  0.00    -0.273 OA
ATOM      5  H   UNL A   1      45.863  24.426  29.255  1.00  0.00     0.163 HD
BRANCH   3   6
ATOM      6  C   UNL A   1      44.606  25.381  26.233  1.00  0.00     0.179 C 
ATOM      7  N   UNL A   1      45.612  25.378  25.136  1.00  0.00    -0.325 N 
ATOM      8  C   UNL A   1      46.266  26.671  24.848  1.00  0.00     0.156 C 
ATOM      9  C   UNL A   1      45.698  27.869  25.585  1.00  0.00    -0.025 A 
ATOM     10  C   UNL A   1      43.641  26.543  25.994  1.00  0.00     0.071 C 
ATOM     11  C   UNL A   1      46.464  29.028  25.761  1.00  0.00     0.006 A 
ATOM     12  C   UNL A   1      44.398  27.832  26.113  1.00  0.00    -0.040 A 
ATOM     13  C   UNL A   1      45.950  30.110  26.479  1.00  0.00     0.000 A 
ATOM     14  C   UNL A   1      43.868  28.934  26.792  1.00  0.00     0.004 A 
ATOM     15  C   UNL A   1      44.655  30.064  26.992  1.00  0.00     0.000 A 
BRANCH   7  16
ATOM     16  C   UNL A   1      46.213  24.251  24.584  1.00  0.00     0.233 C 
ATOM     17  O   UNL A   1      47.297  24.355  23.993  1.00  0.00    -0.274 OA
BRANCH  16  18
ATOM     18  C   UNL A   1      45.483  22.916  24.476  1.00  0.00     0.170 C 
BRANCH  18  19
ATOM     19  S   UNL A   1      45.579  21.711  25.825  1.00  0.00    -0.137 SA
BRANCH  19  20
ATOM     20  C   UNL A   1      45.969  20.178  24.948  1.00  0.00     0.189 C 
BRANCH  20  21
ATOM     21  C   UNL A   1      44.829  19.194  24.746  1.00  0.00     0.073 C 
ATOM     22  N   UNL A   1      43.882  18.378  24.579  1.00  0.00    -0.197 NA
ENDBRANCH  20  21
ENDBRANCH  19  20
ENDBRANCH  18  19
ENDBRANCH  16  18
ENDBRANCH   7  16
ENDBRANCH   3   6
ENDBRANCH   1   2
BRANCH   1  23
ATOM     23  C   UNL A   1      43.359  22.917  28.747  1.00  0.00     0.023 C 
BRANCH  23  24
ATOM     24  C   UNL A   1      41.923  22.800  28.232  1.00  0.00     0.023 C 
BRANCH  24  25
ATOM     25  C   UNL A   1      41.711  23.048  26.741  1.00  0.00     0.116 C 
BRANCH  25  26
ATOM     26  N   UNL A   1      40.322  22.923  26.328  1.00  0.00    -0.352 N 
ATOM     27  C   UNL A   1      39.243  23.739  26.574  1.00  0.00     0.251 C 
ATOM     28  H   UNL A   1      40.123  22.126  25.786  1.00  0.00     0.163 HD
ATOM     29  O   UNL A   1      38.123  23.375  26.221  1.00  0.00    -0.269 OA
BRANCH  27  30
ATOM     30  C   UNL A   1      39.417  25.023  27.291  1.00  0.00     0.039 A 
ATOM     31  C   UNL A   1      39.033  25.102  28.633  1.00  0.00     0.014 A 
ATOM     32  C   UNL A   1      39.960  26.141  26.656  1.00  0.00     0.014 A 
ATOM     33  C   UNL A   1      39.283  26.270  29.361  1.00  0.00     0.010 A 
ATOM     34  C   UNL A   1      40.279  27.275  27.401  1.00  0.00     0.010 A 
ATOM     35  C   UNL A   1      39.954  27.349  28.765  1.00  0.00    -0.014 A 
BRANCH  35  36
ATOM     36  C   UNL A   1      40.340  28.554  29.549  1.00  0.00     0.031 A 
ATOM     37  C   UNL A   1      41.765  28.742  29.996  1.00  0.00     0.074 A 
ATOM     38  C   UNL A   1      39.393  29.434  29.930  1.00  0.00     0.049 A 
ATOM     39  N   UNL A   1      42.275  29.661  30.774  1.00  0.00    -0.248 NA
ATOM     40  C   UNL A   1      42.735  27.740  29.531  1.00  0.00     0.031 C 
ATOM     41  C   UNL A   1      37.967  29.338  29.602  1.00  0.00     0.029 A 
ATOM     42  N   UNL A   1      39.479  30.575  30.688  1.00  0.00    -0.354 N 
ATOM     43  C   UNL A   1      43.621  29.339  30.911  1.00  0.00     0.074 A 
ATOM     44  C   UNL A   1      43.830  28.106  30.179  1.00  0.00     0.031 C 
ATOM     45  C   UNL A   1      37.321  30.385  30.139  1.00  0.00     0.029 A 
ATOM     46  C   UNL A   1      38.271  31.202  30.887  1.00  0.00     0.049 A 
ATOM     47  H   UNL A   1      40.327  30.913  31.057  1.00  0.00     0.167 HD
ATOM     48  C   UNL A   1      44.596  30.017  31.566  1.00  0.00     0.034 A 
ATOM     49  C   UNL A   1      37.959  32.303  31.599  1.00  0.00     0.034 A 
ATOM     50  C   UNL A   1      44.377  31.255  32.275  1.00  0.00     0.049 A 
ATOM     51  C   UNL A   1      39.058  33.042  32.320  1.00  0.00     0.074 A 
ATOM     52  C   UNL A   1      45.304  32.056  32.921  1.00  0.00     0.029 A 
ATOM     53  N   UNL A   1      43.143  31.872  32.434  1.00  0.00    -0.354 N 
ATOM     54  N   UNL A   1      40.335  32.747  32.400  1.00  0.00    -0.248 NA
ATOM     55  C   UNL A   1      38.674  34.263  33.038  1.00  0.00     0.031 C 
ATOM     56  C   UNL A   1      44.623  33.124  33.518  1.00  0.00     0.029 A 
ATOM     57  C   UNL A   1      43.280  33.028  33.187  1.00  0.00     0.049 A 
ATOM     58  H   UNL A   1      42.294  31.537  32.065  1.00  0.00     0.167 HD
ATOM     59  C   UNL A   1      40.911  33.767  33.153  1.00  0.00     0.074 A 
ATOM     60  C   UNL A   1      39.845  34.686  33.492  1.00  0.00     0.031 C 
ATOM     61  C   UNL A   1      42.205  33.930  33.527  1.00  0.00     0.034 A 
BRANCH  48  62
ATOM     62  C   UNL A   1      45.982  29.414  31.561  1.00  0.00     0.023 A 
ATOM     63  C   UNL A   1      46.375  28.465  32.521  1.00  0.00     0.031 A 
ATOM     64  C   UNL A   1      46.934  29.818  30.610  1.00  0.00     0.131 A 
ATOM     65  C   UNL A   1      47.704  28.018  32.563  1.00  0.00     0.055 A 
ATOM     66  C   UNL A   1      48.233  29.306  30.604  1.00  0.00     0.041 A 
ATOM     67  F   UNL A   1      46.624  30.735  29.678  1.00  0.00    -0.206 F 
ATOM     68  C   UNL A   1      48.630  28.413  31.595  1.00  0.00     0.022 A 
BRANCH  65  69
ATOM     69  S   UNL A   1      48.240  27.034  33.989  1.00  0.00     0.124 S 
ATOM     70  O   UNL A   1      48.578  25.761  33.358  1.00  0.00    -0.237 OA
ATOM     71  O   UNL A   1      49.363  27.810  34.504  1.00  0.00    -0.237 OA
ATOM     72  O   UNL A   1      47.058  27.001  34.847  1.00  0.00    -0.744 OA
ENDBRANCH  65  69
ENDBRANCH  48  62
BRANCH  49  73
ATOM     73  C   UNL A   1      36.549  32.778  31.678  1.00  0.00     0.023 A 
ATOM     74  C   UNL A   1      35.948  33.439  30.595  1.00  0.00     0.031 A 
ATOM     75  C   UNL A   1      35.794  32.612  32.852  1.00  0.00     0.131 A 
ATOM     76  C   UNL A   1      34.647  33.949  30.721  1.00  0.00     0.055 A 
ATOM     77  C   UNL A   1      34.482  33.081  32.957  1.00  0.00     0.041 A 
ATOM     78  F   UNL A   1      36.318  31.979  33.913  1.00  0.00    -0.206 F 
ATOM     79  C   UNL A   1      33.906  33.765  31.892  1.00  0.00     0.022 A 
BRANCH  76  80
ATOM     80  S   UNL A   1      33.961  34.925  29.355  1.00  0.00     0.124 S 
ATOM     81  O   UNL A   1      35.078  34.950  28.417  1.00  0.00    -0.237 OA
ATOM     82  O   UNL A   1      32.808  34.123  28.960  1.00  0.00    -0.237 OA
ATOM     83  O   UNL A   1      33.641  36.206  29.980  1.00  0.00    -0.744 OA
ENDBRANCH  76  80
ENDBRANCH  49  73
BRANCH  61  84
ATOM     84  C   UNL A   1      42.538  35.179  34.305  1.00  0.00     0.023 A 
ATOM     85  C   UNL A   1      42.905  36.374  33.662  1.00  0.00     0.031 A 
ATOM     86  C   UNL A   1      42.501  35.166  35.711  1.00  0.00     0.131 A 
ATOM     87  C   UNL A   1      43.272  37.493  34.427  1.00  0.00     0.055 A 
ATOM     88  C   UNL A   1      42.814  36.297  36.465  1.00  0.00     0.041 A 
ATOM     89  F   UNL A   1      42.159  34.049  36.373  1.00  0.00    -0.206 F 
ATOM     90  C   UNL A   1      43.215  37.465  35.823  1.00  0.00     0.022 A 
BRANCH  87  91
ATOM     91  S   UNL A   1      43.909  38.961  33.574  1.00  0.00     0.124 S 
ATOM     92  O   UNL A   1      42.706  39.773  33.428  1.00  0.00    -0.237 OA
ATOM     93  O   UNL A   1      44.905  39.461  34.516  1.00  0.00    -0.237 OA
ATOM     94  O   UNL A   1      44.452  38.426  32.327  1.00  0.00    -0.744 OA
ENDBRANCH  87  91
ENDBRANCH  61  84
ENDBRANCH  35  36
ENDBRANCH  27  30
ENDBRANCH  25  26
ENDBRANCH  24  25
ENDBRANCH  23  24
ENDBRANCH   1  23
TORSDOF 19
ENDMDL
MODEL 3
REMARK VINA RESULT:      -8.7      4.748      7.507
REMARK SMILES N#CCSCC(=O)N1Cc2ccccc2C[C@@H]1C(=O)NCCCCNC(=O)c1ccc(-c2c3nc(c(-c4cc(S(=O)(=O)[O-])ccc4F)c4ccc([nH]4)c(-c4cc(S(=O)(=O)[O-])ccc4F)c4nc(c(-c5cc(S(=O)(=O)[O-])ccc5F)c5ccc2[nH]5)C=C4)C=C3)cc1
REMARK SMILES IDX 21 1 20 2 18 3 19 4 17 6 8 7 9 8 10 9 16 10 11 11 15 12
REMARK SMILES IDX 12 13 14 14 13 15 6 16 7 17 5 18 4 19 3 20 2 21 1 22 22 23
REMARK SMILES IDX 23 24 24 25 25 26 26 27 27 29 28 30 29 31 90 32 30 33 89 34
REMARK SMILES IDX 31 35 32 36 33 37 83 38 34 39 88 40 82 41 84 42 35 43 87 44
REMARK SMILES IDX 81 45 80 46 36 48 68 49 48 50 67 51 49 52 52 53 66 54 85 55
REMARK SMILES IDX 50 56 51 57 65 59 86 60 53 61 37 62 38 63 46 64 39 65 45 66
REMARK SMILES IDX 47 67 44 68 40 69 41 70 42 71 43 72 69 73 70 74 78 75 71 76
REMARK SMILES IDX 77 77 79 78 76 79 72 80 73 81 74 82 75 83 54 84 55 85 63 86
REMARK SMILES IDX 56 87 62 88 64 89 61 90 57 91 58 92 59 93 60 94
REMARK H PARENT 20 5 25 28 84 47 52 58
REMARK Flexibility Score: inf
ROOT
ATOM      1  C   UNL A   1      37.674  23.719  26.278  1.00  0.00     0.116 C 
ENDROOT
BRANCH   1   2
ATOM      2  N   UNL A   1      36.895  23.647  25.066  1.00  0.00    -0.354 N 
ATOM      3  C   UNL A   1      35.554  23.646  24.872  1.00  0.00     0.243 C 
ATOM      4  O   UNL A   1      35.221  23.986  23.726  1.00  0.00    -0.273 OA
ATOM      5  H   UNL A   1      37.428  23.589  24.239  1.00  0.00     0.163 HD
BRANCH   3   6
ATOM      6  C   UNL A   1      34.485  23.125  25.898  1.00  0.00     0.179 C 
ATOM      7  N   UNL A   1      33.835  21.958  25.240  1.00  0.00    -0.325 N 
ATOM      8  C   UNL A   1      32.823  22.270  24.210  1.00  0.00     0.156 C 
ATOM      9  C   UNL A   1      32.449  23.736  24.084  1.00  0.00    -0.025 A 
ATOM     10  C   UNL A   1      33.388  24.089  26.354  1.00  0.00     0.071 C 
ATOM     11  C   UNL A   1      31.875  24.227  22.906  1.00  0.00     0.006 A 
ATOM     12  C   UNL A   1      32.683  24.625  25.145  1.00  0.00    -0.040 A 
ATOM     13  C   UNL A   1      31.574  25.585  22.782  1.00  0.00     0.000 A 
ATOM     14  C   UNL A   1      32.339  25.977  25.035  1.00  0.00     0.004 A 
ATOM     15  C   UNL A   1      31.804  26.458  23.844  1.00  0.00     0.000 A 
BRANCH   7  16
ATOM     16  C   UNL A   1      34.296  20.646  25.268  1.00  0.00     0.233 C 
ATOM     17  O   UNL A   1      35.430  20.379  24.844  1.00  0.00    -0.274 OA
BRANCH  16  18
ATOM     18  C   UNL A   1      33.378  19.472  25.593  1.00  0.00     0.170 C 
BRANCH  18  19
ATOM     19  S   UNL A   1      32.776  18.391  24.271  1.00  0.00    -0.137 SA
BRANCH  19  20
ATOM     20  C   UNL A   1      32.569  16.811  25.128  1.00  0.00     0.189 C 
BRANCH  20  21
ATOM     21  C   UNL A   1      33.782  15.896  25.182  1.00  0.00     0.073 C 
ATOM     22  N   UNL A   1      34.789  15.138  25.226  1.00  0.00    -0.197 NA
ENDBRANCH  20  21
ENDBRANCH  19  20
ENDBRANCH  18  19
ENDBRANCH  16  18
ENDBRANCH   7  16
ENDBRANCH   3   6
ENDBRANCH   1   2
BRANCH   1  23
ATOM     23  C   UNL A   1      39.057  23.086  26.156  1.00  0.00     0.023 C 
BRANCH  23  24
ATOM     24  C   UNL A   1      39.107  21.630  25.689  1.00  0.00     0.023 C 
BRANCH  24  25
ATOM     25  C   UNL A   1      39.734  20.626  26.653  1.00  0.00     0.116 C 
BRANCH  25  26
ATOM     26  N   UNL A   1      40.873  19.919  26.090  1.00  0.00    -0.352 N 
ATOM     27  C   UNL A   1      42.153  20.354  25.835  1.00  0.00     0.251 C 
ATOM     28  H   UNL A   1      40.700  18.980  25.854  1.00  0.00     0.163 HD
ATOM     29  O   UNL A   1      42.931  19.611  25.240  1.00  0.00    -0.269 OA
BRANCH  27  30
ATOM     30  C   UNL A   1      42.580  21.714  26.233  1.00  0.00     0.039 A 
ATOM     31  C   UNL A   1      42.737  22.688  25.243  1.00  0.00     0.014 A 
ATOM     32  C   UNL A   1      42.819  22.037  27.570  1.00  0.00     0.014 A 
ATOM     33  C   UNL A   1      43.038  24.006  25.604  1.00  0.00     0.010 A 
ATOM     34  C   UNL A   1      43.043  23.364  27.935  1.00  0.00     0.010 A 
ATOM     35  C   UNL A   1      43.144  24.365  26.956  1.00  0.00    -0.014 A 
BRANCH  35  36
ATOM     36  C   UNL A   1      43.343  25.781  27.371  1.00  0.00     0.031 A 
ATOM     37  C   UNL A   1      44.716  26.395  27.333  1.00  0.00     0.074 A 
ATOM     38  C   UNL A   1      42.303  26.486  27.861  1.00  0.00     0.049 A 
ATOM     39  N   UNL A   1      45.112  27.569  27.755  1.00  0.00    -0.248 NA
ATOM     40  C   UNL A   1      45.792  25.561  26.778  1.00  0.00     0.031 C 
ATOM     41  C   UNL A   1      40.931  25.988  27.995  1.00  0.00     0.029 A 
ATOM     42  N   UNL A   1      42.238  27.767  28.352  1.00  0.00    -0.354 N 
ATOM     43  C   UNL A   1      46.485  27.607  27.536  1.00  0.00     0.074 A 
ATOM     44  C   UNL A   1      46.857  26.316  26.998  1.00  0.00     0.031 C 
ATOM     45  C   UNL A   1      40.160  26.957  28.514  1.00  0.00     0.029 A 
ATOM     46  C   UNL A   1      40.985  28.128  28.792  1.00  0.00     0.049 A 
ATOM     47  H   UNL A   1      43.015  28.369  28.387  1.00  0.00     0.167 HD
ATOM     48  C   UNL A   1      47.351  28.631  27.744  1.00  0.00     0.034 A 
ATOM     49  C   UNL A   1      40.550  29.268  29.365  1.00  0.00     0.034 A 
ATOM     50  C   UNL A   1      46.962  29.920  28.263  1.00  0.00     0.049 A 
ATOM     51  C   UNL A   1      41.530  30.392  29.588  1.00  0.00     0.074 A 
ATOM     52  C   UNL A   1      47.746  31.046  28.456  1.00  0.00     0.029 A 
ATOM     53  N   UNL A   1      45.679  30.257  28.675  1.00  0.00    -0.354 N 
ATOM     54  N   UNL A   1      42.817  30.428  29.332  1.00  0.00    -0.248 NA
ATOM     55  C   UNL A   1      40.995  31.631  30.167  1.00  0.00     0.031 C 
ATOM     56  C   UNL A   1      46.951  32.042  29.037  1.00  0.00     0.029 A 
ATOM     57  C   UNL A   1      45.655  31.562  29.143  1.00  0.00     0.049 A 
ATOM     58  H   UNL A   1      44.900  29.656  28.640  1.00  0.00     0.167 HD
ATOM     59  C   UNL A   1      43.239  31.705  29.693  1.00  0.00     0.074 A 
ATOM     60  C   UNL A   1      42.067  32.409  30.172  1.00  0.00     0.031 C 
ATOM     61  C   UNL A   1      44.480  32.248  29.629  1.00  0.00     0.034 A 
BRANCH  48  62
ATOM     62  C   UNL A   1      48.807  28.380  27.429  1.00  0.00     0.023 A 
ATOM     63  C   UNL A   1      49.327  28.582  26.138  1.00  0.00     0.031 A 
ATOM     64  C   UNL A   1      49.679  27.897  28.420  1.00  0.00     0.131 A 
ATOM     65  C   UNL A   1      50.652  28.221  25.852  1.00  0.00     0.055 A 
ATOM     66  C   UNL A   1      51.021  27.619  28.149  1.00  0.00     0.041 A 
ATOM     67  F   UNL A   1      49.238  27.666  29.667  1.00  0.00    -0.206 F 
ATOM     68  C   UNL A   1      51.510  27.765  26.854  1.00  0.00     0.022 A 
BRANCH  65  69
ATOM     69  S   UNL A   1      51.189  28.215  24.119  1.00  0.00     0.124 S 
ATOM     70  O   UNL A   1      51.783  29.544  23.991  1.00  0.00    -0.237 OA
ATOM     71  O   UNL A   1      52.120  27.092  24.081  1.00  0.00    -0.237 OA
ATOM     72  O   UNL A   1      49.946  28.021  23.375  1.00  0.00    -0.744 OA
ENDBRANCH  65  69
ENDBRANCH  48  62
BRANCH  49  73
ATOM     73  C   UNL A   1      39.126  29.411  29.779  1.00  0.00     0.023 A 
ATOM     74  C   UNL A   1      38.208  30.107  28.977  1.00  0.00     0.031 A 
ATOM     75  C   UNL A   1      38.671  28.885  31.001  1.00  0.00     0.131 A 
ATOM     76  C   UNL A   1      36.892  30.299  29.426  1.00  0.00     0.055 A 
ATOM     77  C   UNL A   1      37.348  29.038  31.421  1.00  0.00     0.041 A 
ATOM     78  F   UNL A   1      39.506  28.202  31.800  1.00  0.00    -0.206 F 
ATOM     79  C   UNL A   1      36.453  29.760  30.638  1.00  0.00     0.022 A 
BRANCH  76  80
ATOM     80  S   UNL A   1      35.779  31.330  28.433  1.00  0.00     0.124 S 
ATOM     81  O   UNL A   1      35.389  30.410  27.371  1.00  0.00    -0.237 OA
ATOM     82  O   UNL A   1      34.741  31.671  29.400  1.00  0.00    -0.237 OA
ATOM     83  O   UNL A   1      36.628  32.443  28.015  1.00  0.00    -0.744 OA
ENDBRANCH  76  80
ENDBRANCH  49  73
BRANCH  61  84
ATOM     84  C   UNL A   1      44.616  33.691  30.046  1.00  0.00     0.023 A 
ATOM     85  C   UNL A   1      44.410  34.745  29.140  1.00  0.00     0.031 A 
ATOM     86  C   UNL A   1      44.973  34.013  31.368  1.00  0.00     0.131 A 
ATOM     87  C   UNL A   1      44.613  36.071  29.554  1.00  0.00     0.055 A 
ATOM     88  C   UNL A   1      45.120  35.335  31.788  1.00  0.00     0.041 A 
ATOM     89  F   UNL A   1      45.184  33.043  32.273  1.00  0.00    -0.206 F 
ATOM     90  C   UNL A   1      44.953  36.373  30.876  1.00  0.00     0.022 A 
BRANCH  87  91
ATOM     91  S   UNL A   1      44.510  37.395  28.319  1.00  0.00     0.124 S 
ATOM     92  O   UNL A   1      45.667  37.114  27.476  1.00  0.00    -0.237 OA
ATOM     93  O   UNL A   1      43.205  37.154  27.711  1.00  0.00    -0.237 OA
ATOM     94  O   UNL A   1      44.605  38.617  29.116  1.00  0.00    -0.744 OA
ENDBRANCH  87  91
ENDBRANCH  61  84
ENDBRANCH  35  36
ENDBRANCH  27  30
ENDBRANCH  25  26
ENDBRANCH  24  25
ENDBRANCH  23  24
ENDBRANCH   1  23
TORSDOF 19
ENDMDL
