MODEL 1
REMARK VINA RESULT:     -11.3      0.000      0.000
REMARK SMILES COc1ccc(C(=O)C2=C(NCCCCNC(=O)c3ccc(-c4c5nc(c(-c6cc(S(=O)(=O)[O-])ccc6F)c6ccc([nH]6)c(-c6cc(S(=O)(=O)[O-])ccc6F)c6nc(c(-c7cc(S(=O)(=O)[O-])ccc7F)c7ccc4[nH]7)C=C6)C=C5)cc3)C(=O)N(CCC(=O)[O-])[C@H]2c2ccccc2F)cc1
REMARK SMILES IDX 13 1 12 2 11 3 10 5 9 6 90 7 82 8 84 9 83 10 7 11 8 12 6 13
REMARK SMILES IDX 3 14 4 15 99 16 5 17 98 18 2 19 1 20 91 21 92 22 96 23 93 24
REMARK SMILES IDX 95 25 97 26 94 27 85 28 86 29 87 30 88 31 89 32 14 33 15 34
REMARK SMILES IDX 16 35 17 36 18 38 19 39 20 40 81 41 21 42 80 43 22 44 23 45
REMARK SMILES IDX 24 46 74 47 25 48 79 49 73 50 75 51 26 52 78 53 72 54 71 55
REMARK SMILES IDX 27 57 59 58 39 59 58 60 40 61 43 62 57 63 76 64 41 65 42 66
REMARK SMILES IDX 56 68 77 69 44 70 28 71 29 72 37 73 30 74 36 75 38 76 35 77
REMARK SMILES IDX 31 78 32 79 33 80 34 81 60 82 61 83 69 84 62 85 68 86 70 87
REMARK SMILES IDX 67 88 63 89 64 90 65 91 66 92 45 93 46 94 54 95 47 96 53 97
REMARK SMILES IDX 55 98 52 99 48 100 49 101 50 102 51 103
REMARK H PARENT 11 4 16 37 75 56 43 67
REMARK Flexibility Score: inf
ROOT
ATOM      1  C   UNL A   1      37.070  23.296  23.912  1.00  0.00     0.023 C 
ENDROOT
BRANCH   1   2
ATOM      2  C   UNL A   1      35.971  22.358  23.421  1.00  0.00     0.113 C 
BRANCH   2   3
ATOM      3  N   UNL A   1      34.819  23.127  23.013  1.00  0.00    -0.380 N 
ATOM      4  H   UNL A   1      34.720  23.248  22.041  1.00  0.00     0.160 HD
BRANCH   3   5
ATOM      5  C   UNL A   1      33.844  23.712  23.775  1.00  0.00     0.110 C 
ATOM      6  C   UNL A   1      33.078  24.805  23.697  1.00  0.00     0.056 C 
ATOM      7  C   UNL A   1      32.081  24.952  24.807  1.00  0.00     0.155 C 
ATOM      8  C   UNL A   1      33.393  23.027  25.033  1.00  0.00     0.271 C 
ATOM      9  N   UNL A   1      32.304  23.715  25.527  1.00  0.00    -0.326 N 
ATOM     10  O   UNL A   1      33.921  22.032  25.492  1.00  0.00    -0.267 OA
BRANCH   6  11
ATOM     11  C   UNL A   1      33.074  25.717  22.543  1.00  0.00     0.193 C 
ATOM     12  O   UNL A   1      33.747  25.444  21.554  1.00  0.00    -0.289 OA
BRANCH  11  13
ATOM     13  C   UNL A   1      32.220  26.941  22.571  1.00  0.00     0.023 A 
ATOM     14  C   UNL A   1      30.507  29.147  22.948  1.00  0.00     0.118 A 
ATOM     15  C   UNL A   1      29.988  27.897  22.604  1.00  0.00     0.047 A 
ATOM     16  C   UNL A   1      31.888  29.309  23.014  1.00  0.00     0.047 A 
ATOM     17  C   UNL A   1      30.835  26.797  22.428  1.00  0.00     0.016 A 
ATOM     18  C   UNL A   1      32.737  28.221  22.788  1.00  0.00     0.016 A 
BRANCH  14  19
ATOM     19  O   UNL A   1      29.577  30.118  23.192  1.00  0.00    -0.497 OA
ATOM     20  C   UNL A   1      29.204  30.933  22.086  1.00  0.00     0.278 C 
ENDBRANCH  14  19
ENDBRANCH  11  13
ENDBRANCH   6  11
BRANCH   7  21
ATOM     21  C   UNL A   1      32.339  26.159  25.692  1.00  0.00     0.015 A 
ATOM     22  C   UNL A   1      33.641  26.634  25.953  1.00  0.00     0.009 A 
ATOM     23  C   UNL A   1      31.264  26.873  26.223  1.00  0.00     0.128 A 
ATOM     24  C   UNL A   1      33.844  27.806  26.684  1.00  0.00     0.001 A 
ATOM     25  C   UNL A   1      31.460  28.035  26.967  1.00  0.00     0.039 A 
ATOM     26  F   UNL A   1      30.011  26.447  26.013  1.00  0.00    -0.207 F 
ATOM     27  C   UNL A   1      32.752  28.510  27.187  1.00  0.00     0.003 A 
ENDBRANCH   7  21
BRANCH   9  28
ATOM     28  C   UNL A   1      31.518  23.310  26.687  1.00  0.00     0.127 C 
BRANCH  28  29
ATOM     29  C   UNL A   1      30.446  22.278  26.364  1.00  0.00     0.074 C 
BRANCH  29  30
ATOM     30  C   UNL A   1      29.191  22.575  27.128  1.00  0.00     0.043 C 
ATOM     31  O   UNL A   1      28.287  21.784  27.339  1.00  0.00    -0.550 OA
ATOM     32  O   UNL A   1      29.119  23.858  27.523  1.00  0.00    -0.550 OA
ENDBRANCH  29  30
ENDBRANCH  28  29
ENDBRANCH   9  28
ENDBRANCH   3   5
ENDBRANCH   2   3
ENDBRANCH   1   2
BRANCH   1  33
ATOM     33  C   UNL A   1      36.760  24.001  25.236  1.00  0.00     0.023 C 
BRANCH  33  34
ATOM     34  C   UNL A   1      37.112  23.205  26.489  1.00  0.00     0.116 C 
BRANCH  34  35
ATOM     35  N   UNL A   1      38.209  22.275  26.269  1.00  0.00    -0.352 N 
ATOM     36  C   UNL A   1      39.564  22.499  26.310  1.00  0.00     0.251 C 
ATOM     37  H   UNL A   1      37.942  21.351  26.062  1.00  0.00     0.163 HD
ATOM     38  O   UNL A   1      40.335  21.627  25.920  1.00  0.00    -0.269 OA
BRANCH  36  39
ATOM     39  C   UNL A   1      40.083  23.796  26.794  1.00  0.00     0.039 A 
ATOM     40  C   UNL A   1      40.261  24.836  25.879  1.00  0.00     0.014 A 
ATOM     41  C   UNL A   1      40.386  23.992  28.145  1.00  0.00     0.014 A 
ATOM     42  C   UNL A   1      40.679  26.090  26.330  1.00  0.00     0.010 A 
ATOM     43  C   UNL A   1      40.718  25.264  28.604  1.00  0.00     0.010 A 
ATOM     44  C   UNL A   1      40.873  26.327  27.701  1.00  0.00    -0.014 A 
BRANCH  44  45
ATOM     45  C   UNL A   1      41.238  27.678  28.202  1.00  0.00     0.031 A 
ATOM     46  C   UNL A   1      42.678  28.113  28.228  1.00  0.00     0.074 A 
ATOM     47  C   UNL A   1      40.277  28.495  28.677  1.00  0.00     0.049 A 
ATOM     48  N   UNL A   1      43.198  29.237  28.655  1.00  0.00    -0.248 NA
ATOM     49  C   UNL A   1      43.668  27.145  27.736  1.00  0.00     0.031 C 
ATOM     50  C   UNL A   1      38.850  28.172  28.741  1.00  0.00     0.029 A 
ATOM     51  N   UNL A   1      40.350  29.766  29.192  1.00  0.00    -0.354 N 
ATOM     52  C   UNL A   1      44.573  29.106  28.492  1.00  0.00     0.074 A 
ATOM     53  C   UNL A   1      44.807  27.766  27.998  1.00  0.00     0.031 C 
ATOM     54  C   UNL A   1      38.180  29.231  29.222  1.00  0.00     0.029 A 
ATOM     55  C   UNL A   1      39.129  30.288  29.551  1.00  0.00     0.049 A 
ATOM     56  H   UNL A   1      41.197  30.255  29.296  1.00  0.00     0.167 HD
ATOM     57  C   UNL A   1      45.547  30.026  28.709  1.00  0.00     0.034 A 
ATOM     58  C   UNL A   1      38.811  31.484  30.086  1.00  0.00     0.034 A 
ATOM     59  C   UNL A   1      45.293  31.359  29.203  1.00  0.00     0.049 A 
ATOM     60  C   UNL A   1      39.916  32.474  30.363  1.00  0.00     0.074 A 
ATOM     61  C   UNL A   1      46.195  32.387  29.411  1.00  0.00     0.029 A 
ATOM     62  N   UNL A   1      44.047  31.845  29.582  1.00  0.00    -0.354 N 
ATOM     63  N   UNL A   1      41.206  32.357  30.147  1.00  0.00    -0.248 NA
ATOM     64  C   UNL A   1      39.516  33.760  30.946  1.00  0.00     0.031 C 
ATOM     65  C   UNL A   1      45.511  33.462  29.991  1.00  0.00     0.029 A 
ATOM     66  C   UNL A   1      44.165  33.143  30.059  1.00  0.00     0.049 A 
ATOM     67  H   UNL A   1      43.204  31.341  29.520  1.00  0.00     0.167 HD
ATOM     68  C   UNL A   1      41.766  33.572  30.533  1.00  0.00     0.074 A 
ATOM     69  C   UNL A   1      40.669  34.409  30.978  1.00  0.00     0.031 C 
ATOM     70  C   UNL A   1      43.066  33.964  30.515  1.00  0.00     0.034 A 
BRANCH  57  71
ATOM     71  C   UNL A   1      46.973  29.601  28.440  1.00  0.00     0.023 A 
ATOM     72  C   UNL A   1      47.773  29.016  29.439  1.00  0.00     0.031 A 
ATOM     73  C   UNL A   1      47.561  29.824  27.181  1.00  0.00     0.131 A 
ATOM     74  C   UNL A   1      49.131  28.766  29.195  1.00  0.00     0.055 A 
ATOM     75  C   UNL A   1      48.889  29.483  26.916  1.00  0.00     0.041 A 
ATOM     76  F   UNL A   1      46.860  30.398  26.191  1.00  0.00    -0.206 F 
ATOM     77  C   UNL A   1      49.689  28.968  27.931  1.00  0.00     0.022 A 
BRANCH  74  78
ATOM     78  S   UNL A   1      50.198  28.342  30.601  1.00  0.00     0.124 S 
ATOM     79  O   UNL A   1      49.485  28.969  31.711  1.00  0.00    -0.237 OA
ATOM     80  O   UNL A   1      50.187  26.884  30.577  1.00  0.00    -0.237 OA
ATOM     81  O   UNL A   1      51.476  28.964  30.262  1.00  0.00    -0.744 OA
ENDBRANCH  74  78
ENDBRANCH  57  71
BRANCH  58  82
ATOM     82  C   UNL A   1      37.391  31.825  30.393  1.00  0.00     0.023 A 
ATOM     83  C   UNL A   1      36.510  32.220  29.374  1.00  0.00     0.031 A 
ATOM     84  C   UNL A   1      36.905  31.807  31.712  1.00  0.00     0.131 A 
ATOM     85  C   UNL A   1      35.207  32.631  29.694  1.00  0.00     0.055 A 
ATOM     86  C   UNL A   1      35.590  32.159  32.019  1.00  0.00     0.041 A 
ATOM     87  F   UNL A   1      37.705  31.435  32.725  1.00  0.00    -0.206 F 
ATOM     88  C   UNL A   1      34.736  32.588  31.008  1.00  0.00     0.022 A 
BRANCH  85  89
ATOM     89  S   UNL A   1      34.163  33.312  28.376  1.00  0.00     0.124 S 
ATOM     90  O   UNL A   1      33.608  32.102  27.782  1.00  0.00    -0.237 OA
ATOM     91  O   UNL A   1      33.230  34.145  29.130  1.00  0.00    -0.237 OA
ATOM     92  O   UNL A   1      35.110  34.044  27.538  1.00  0.00    -0.744 OA
ENDBRANCH  85  89
ENDBRANCH  58  82
BRANCH  70  93
ATOM     93  C   UNL A   1      43.360  35.383  30.947  1.00  0.00     0.023 A 
ATOM     94  C   UNL A   1      43.436  36.441  30.024  1.00  0.00     0.031 A 
ATOM     95  C   UNL A   1      43.598  35.674  32.303  1.00  0.00     0.131 A 
ATOM     96  C   UNL A   1      43.813  37.722  30.457  1.00  0.00     0.055 A 
ATOM     97  C   UNL A   1      43.899  36.965  32.737  1.00  0.00     0.041 A 
ATOM     98  F   UNL A   1      43.545  34.704  33.230  1.00  0.00    -0.206 F 
ATOM     99  C   UNL A   1      44.024  37.995  31.810  1.00  0.00     0.022 A 
BRANCH  96 100
ATOM    100  S   UNL A   1      44.141  39.000  29.211  1.00  0.00     0.124 S 
ATOM    101  O   UNL A   1      44.260  38.209  27.990  1.00  0.00    -0.237 OA
ATOM    102  O   UNL A   1      42.957  39.845  29.310  1.00  0.00    -0.237 OA
ATOM    103  O   UNL A   1      45.383  39.618  29.673  1.00  0.00    -0.744 OA
ENDBRANCH  96 100
ENDBRANCH  70  93
ENDBRANCH  44  45
ENDBRANCH  36  39
ENDBRANCH  34  35
ENDBRANCH  33  34
ENDBRANCH   1  33
TORSDOF 21
ENDMDL
MODEL 2
REMARK VINA RESULT:     -10.9      4.652      9.325
REMARK SMILES COc1ccc(C(=O)C2=C(NCCCCNC(=O)c3ccc(-c4c5nc(c(-c6cc(S(=O)(=O)[O-])ccc6F)c6ccc([nH]6)c(-c6cc(S(=O)(=O)[O-])ccc6F)c6nc(c(-c7cc(S(=O)(=O)[O-])ccc7F)c7ccc4[nH]7)C=C6)C=C5)cc3)C(=O)N(CCC(=O)[O-])[C@H]2c2ccccc2F)cc1
REMARK SMILES IDX 13 1 12 2 11 3 10 5 9 6 90 7 82 8 84 9 83 10 7 11 8 12 6 13
REMARK SMILES IDX 3 14 4 15 99 16 5 17 98 18 2 19 1 20 91 21 92 22 96 23 93 24
REMARK SMILES IDX 95 25 97 26 94 27 85 28 86 29 87 30 88 31 89 32 14 33 15 34
REMARK SMILES IDX 16 35 17 36 18 38 19 39 20 40 81 41 21 42 80 43 22 44 23 45
REMARK SMILES IDX 24 46 74 47 25 48 79 49 73 50 75 51 26 52 78 53 72 54 71 55
REMARK SMILES IDX 27 57 59 58 39 59 58 60 40 61 43 62 57 63 76 64 41 65 42 66
REMARK SMILES IDX 56 68 77 69 44 70 28 71 29 72 37 73 30 74 36 75 38 76 35 77
REMARK SMILES IDX 31 78 32 79 33 80 34 81 60 82 61 83 69 84 62 85 68 86 70 87
REMARK SMILES IDX 67 88 63 89 64 90 65 91 66 92 45 93 46 94 54 95 47 96 53 97
REMARK SMILES IDX 55 98 52 99 48 100 49 101 50 102 51 103
REMARK H PARENT 11 4 16 37 75 56 43 67
REMARK Flexibility Score: inf
ROOT
ATOM      1  C   UNL A   1      34.397  30.572  27.599  1.00  0.00     0.023 C 
ENDROOT
BRANCH   1   2
ATOM      2  C   UNL A   1      33.930  29.120  27.647  1.00  0.00     0.113 C 
BRANCH   2   3
ATOM      3  N   UNL A   1      32.518  29.051  27.351  1.00  0.00    -0.380 N 
ATOM      4  H   UNL A   1      31.925  29.370  28.069  1.00  0.00     0.160 HD
BRANCH   3   5
ATOM      5  C   UNL A   1      31.882  28.608  26.223  1.00  0.00     0.110 C 
ATOM      6  C   UNL A   1      31.530  27.424  25.710  1.00  0.00     0.056 C 
ATOM      7  C   UNL A   1      30.760  27.502  24.427  1.00  0.00     0.155 C 
ATOM      8  C   UNL A   1      31.353  29.614  25.242  1.00  0.00     0.271 C 
ATOM      9  N   UNL A   1      30.618  28.937  24.290  1.00  0.00    -0.326 N 
ATOM     10  O   UNL A   1      31.554  30.811  25.320  1.00  0.00    -0.267 OA
BRANCH   6  11
ATOM     11  C   UNL A   1      31.721  26.144  26.408  1.00  0.00     0.193 C 
ATOM     12  O   UNL A   1      30.873  25.758  27.207  1.00  0.00    -0.289 OA
BRANCH  11  13
ATOM     13  C   UNL A   1      32.923  25.310  26.110  1.00  0.00     0.023 A 
ATOM     14  C   UNL A   1      34.991  23.577  25.297  1.00  0.00     0.118 A 
ATOM     15  C   UNL A   1      33.964  23.116  26.123  1.00  0.00     0.047 A 
ATOM     16  C   UNL A   1      35.028  24.926  24.954  1.00  0.00     0.047 A 
ATOM     17  C   UNL A   1      32.928  23.972  26.518  1.00  0.00     0.016 A 
ATOM     18  C   UNL A   1      34.020  25.792  25.391  1.00  0.00     0.016 A 
BRANCH  14  19
ATOM     19  O   UNL A   1      35.888  22.627  24.896  1.00  0.00    -0.497 OA
ATOM     20  C   UNL A   1      36.389  22.746  23.569  1.00  0.00     0.278 C 
ENDBRANCH  14  19
ENDBRANCH  11  13
ENDBRANCH   6  11
BRANCH   7  21
ATOM     21  C   UNL A   1      31.499  26.904  23.243  1.00  0.00     0.015 A 
ATOM     22  C   UNL A   1      32.553  27.584  22.596  1.00  0.00     0.009 A 
ATOM     23  C   UNL A   1      31.183  25.618  22.803  1.00  0.00     0.128 A 
ATOM     24  C   UNL A   1      33.285  26.969  21.578  1.00  0.00     0.001 A 
ATOM     25  C   UNL A   1      31.900  25.005  21.777  1.00  0.00     0.039 A 
ATOM     26  F   UNL A   1      30.178  24.945  23.379  1.00  0.00    -0.207 F 
ATOM     27  C   UNL A   1      32.960  25.677  21.171  1.00  0.00     0.003 A 
ENDBRANCH   7  21
BRANCH   9  28
ATOM     28  C   UNL A   1      29.861  29.569  23.215  1.00  0.00     0.127 C 
BRANCH  28  29
ATOM     29  C   UNL A   1      28.726  28.705  22.683  1.00  0.00     0.074 C 
BRANCH  29  30
ATOM     30  C   UNL A   1      27.404  29.245  23.139  1.00  0.00     0.043 C 
ATOM     31  O   UNL A   1      26.444  28.573  23.476  1.00  0.00    -0.550 OA
ATOM     32  O   UNL A   1      27.348  30.587  23.083  1.00  0.00    -0.550 OA
ENDBRANCH  29  30
ENDBRANCH  28  29
ENDBRANCH   9  28
ENDBRANCH   3   5
ENDBRANCH   2   3
ENDBRANCH   1   2
BRANCH   1  33
ATOM     33  C   UNL A   1      33.309  31.601  27.916  1.00  0.00     0.023 C 
BRANCH  33  34
ATOM     34  C   UNL A   1      33.534  32.985  27.316  1.00  0.00     0.116 C 
BRANCH  34  35
ATOM     35  N   UNL A   1      33.000  34.049  28.151  1.00  0.00    -0.352 N 
ATOM     36  C   UNL A   1      33.375  34.438  29.415  1.00  0.00     0.251 C 
ATOM     37  H   UNL A   1      32.264  34.567  27.754  1.00  0.00     0.163 HD
ATOM     38  O   UNL A   1      32.685  35.244  30.031  1.00  0.00    -0.269 OA
BRANCH  36  39
ATOM     39  C   UNL A   1      34.587  33.861  30.036  1.00  0.00     0.039 A 
ATOM     40  C   UNL A   1      34.440  32.903  31.041  1.00  0.00     0.014 A 
ATOM     41  C   UNL A   1      35.864  34.254  29.623  1.00  0.00     0.014 A 
ATOM     42  C   UNL A   1      35.573  32.293  31.584  1.00  0.00     0.010 A 
ATOM     43  C   UNL A   1      36.985  33.584  30.104  1.00  0.00     0.010 A 
ATOM     44  C   UNL A   1      36.853  32.598  31.094  1.00  0.00    -0.014 A 
BRANCH  44  45
ATOM     45  C   UNL A   1      38.059  31.897  31.607  1.00  0.00     0.031 A 
ATOM     46  C   UNL A   1      38.695  32.329  32.901  1.00  0.00     0.074 A 
ATOM     47  C   UNL A   1      38.609  30.900  30.885  1.00  0.00     0.049 A 
ATOM     48  N   UNL A   1      39.764  31.864  33.496  1.00  0.00    -0.248 NA
ATOM     49  C   UNL A   1      38.060  33.453  33.603  1.00  0.00     0.031 C 
ATOM     50  C   UNL A   1      38.109  30.417  29.596  1.00  0.00     0.029 A 
ATOM     51  N   UNL A   1      39.706  30.112  31.129  1.00  0.00    -0.354 N 
ATOM     52  C   UNL A   1      39.935  32.644  34.635  1.00  0.00     0.074 A 
ATOM     53  C   UNL A   1      38.902  33.658  34.604  1.00  0.00     0.031 C 
ATOM     54  C   UNL A   1      38.867  29.388  29.188  1.00  0.00     0.029 A 
ATOM     55  C   UNL A   1      39.938  29.170  30.154  1.00  0.00     0.049 A 
ATOM     56  H   UNL A   1      40.273  30.212  31.927  1.00  0.00     0.167 HD
ATOM     57  C   UNL A   1      40.851  32.511  35.628  1.00  0.00     0.034 A 
ATOM     58  C   UNL A   1      40.907  28.238  30.048  1.00  0.00     0.034 A 
ATOM     59  C   UNL A   1      41.875  31.494  35.642  1.00  0.00     0.049 A 
ATOM     60  C   UNL A   1      41.943  28.140  31.141  1.00  0.00     0.074 A 
ATOM     61  C   UNL A   1      42.820  31.235  36.618  1.00  0.00     0.029 A 
ATOM     62  N   UNL A   1      42.098  30.573  34.623  1.00  0.00    -0.354 N 
ATOM     63  N   UNL A   1      42.055  28.847  32.242  1.00  0.00    -0.248 NA
ATOM     64  C   UNL A   1      42.976  27.110  30.977  1.00  0.00     0.031 C 
ATOM     65  C   UNL A   1      43.664  30.218  36.155  1.00  0.00     0.029 A 
ATOM     66  C   UNL A   1      43.191  29.775  34.931  1.00  0.00     0.049 A 
ATOM     67  H   UNL A   1      41.559  30.500  33.803  1.00  0.00     0.167 HD
ATOM     68  C   UNL A   1      43.150  28.318  32.921  1.00  0.00     0.074 A 
ATOM     69  C   UNL A   1      43.649  27.225  32.111  1.00  0.00     0.031 C 
ATOM     70  C   UNL A   1      43.690  28.696  34.109  1.00  0.00     0.034 A 
BRANCH  57  71
ATOM     71  C   UNL A   1      40.797  33.515  36.759  1.00  0.00     0.023 A 
ATOM     72  C   UNL A   1      40.097  33.252  37.950  1.00  0.00     0.031 A 
ATOM     73  C   UNL A   1      41.414  34.772  36.628  1.00  0.00     0.131 A 
ATOM     74  C   UNL A   1      39.950  34.258  38.916  1.00  0.00     0.055 A 
ATOM     75  C   UNL A   1      41.345  35.737  37.636  1.00  0.00     0.041 A 
ATOM     76  F   UNL A   1      42.079  35.095  35.509  1.00  0.00    -0.206 F 
ATOM     77  C   UNL A   1      40.593  35.490  38.781  1.00  0.00     0.022 A 
BRANCH  74  78
ATOM     78  S   UNL A   1      38.762  33.997  40.263  1.00  0.00     0.124 S 
ATOM     79  O   UNL A   1      39.502  33.091  41.138  1.00  0.00    -0.237 OA
ATOM     80  O   UNL A   1      38.556  35.348  40.769  1.00  0.00    -0.237 OA
ATOM     81  O   UNL A   1      37.609  33.397  39.592  1.00  0.00    -0.744 OA
ENDBRANCH  74  78
ENDBRANCH  57  71
BRANCH  58  82
ATOM     82  C   UNL A   1      40.950  27.317  28.875  1.00  0.00     0.023 A 
ATOM     83  C   UNL A   1      41.908  27.486  27.864  1.00  0.00     0.031 A 
ATOM     84  C   UNL A   1      40.007  26.286  28.722  1.00  0.00     0.131 A 
ATOM     85  C   UNL A   1      41.873  26.673  26.721  1.00  0.00     0.055 A 
ATOM     86  C   UNL A   1      40.012  25.440  27.612  1.00  0.00     0.041 A 
ATOM     87  F   UNL A   1      39.069  26.079  29.661  1.00  0.00    -0.206 F 
ATOM     88  C   UNL A   1      40.940  25.641  26.596  1.00  0.00     0.022 A 
BRANCH  85  89
ATOM     89  S   UNL A   1      43.007  27.044  25.355  1.00  0.00     0.124 S 
ATOM     90  O   UNL A   1      42.302  28.121  24.669  1.00  0.00    -0.237 OA
ATOM     91  O   UNL A   1      44.224  27.422  26.066  1.00  0.00    -0.237 OA
ATOM     92  O   UNL A   1      43.082  25.782  24.624  1.00  0.00    -0.744 OA
ENDBRANCH  85  89
ENDBRANCH  58  82
BRANCH  70  93
ATOM     93  C   UNL A   1      44.856  27.882  34.622  1.00  0.00     0.023 A 
ATOM     94  C   UNL A   1      46.189  28.233  34.344  1.00  0.00     0.031 A 
ATOM     95  C   UNL A   1      44.626  26.717  35.377  1.00  0.00     0.131 A 
ATOM     96  C   UNL A   1      47.235  27.391  34.753  1.00  0.00     0.055 A 
ATOM     97  C   UNL A   1      45.674  25.924  35.846  1.00  0.00     0.041 A 
ATOM     98  F   UNL A   1      43.375  26.328  35.670  1.00  0.00    -0.206 F 
ATOM     99  C   UNL A   1      46.987  26.250  35.520  1.00  0.00     0.022 A 
BRANCH  96 100
ATOM    100  S   UNL A   1      48.915  27.742  34.167  1.00  0.00     0.124 S 
ATOM    101  O   UNL A   1      48.859  29.181  33.932  1.00  0.00    -0.237 OA
ATOM    102  O   UNL A   1      49.736  27.312  35.292  1.00  0.00    -0.237 OA
ATOM    103  O   UNL A   1      49.037  26.922  32.963  1.00  0.00    -0.744 OA
ENDBRANCH  96 100
ENDBRANCH  70  93
ENDBRANCH  44  45
ENDBRANCH  36  39
ENDBRANCH  34  35
ENDBRANCH  33  34
ENDBRANCH   1  33
TORSDOF 21
ENDMDL
MODEL 3
REMARK VINA RESULT:     -10.8      4.694      9.225
REMARK SMILES COc1ccc(C(=O)C2=C(NCCCCNC(=O)c3ccc(-c4c5nc(c(-c6cc(S(=O)(=O)[O-])ccc6F)c6ccc([nH]6)c(-c6cc(S(=O)(=O)[O-])ccc6F)c6nc(c(-c7cc(S(=O)(=O)[O-])ccc7F)c7ccc4[nH]7)C=C6)C=C5)cc3)C(=O)N(CCC(=O)[O-])[C@H]2c2ccccc2F)cc1
REMARK SMILES IDX 13 1 12 2 11 3 10 5 9 6 90 7 82 8 84 9 83 10 7 11 8 12 6 13
REMARK SMILES IDX 3 14 4 15 99 16 5 17 98 18 2 19 1 20 91 21 92 22 96 23 93 24
REMARK SMILES IDX 95 25 97 26 94 27 85 28 86 29 87 30 88 31 89 32 14 33 15 34
REMARK SMILES IDX 16 35 17 36 18 38 19 39 20 40 81 41 21 42 80 43 22 44 23 45
REMARK SMILES IDX 24 46 74 47 25 48 79 49 73 50 75 51 26 52 78 53 72 54 71 55
REMARK SMILES IDX 27 57 59 58 39 59 58 60 40 61 43 62 57 63 76 64 41 65 42 66
REMARK SMILES IDX 56 68 77 69 44 70 28 71 29 72 37 73 30 74 36 75 38 76 35 77
REMARK SMILES IDX 31 78 32 79 33 80 34 81 60 82 61 83 69 84 62 85 68 86 70 87
REMARK SMILES IDX 67 88 63 89 64 90 65 91 66 92 45 93 46 94 54 95 47 96 53 97
REMARK SMILES IDX 55 98 52 99 48 100 49 101 50 102 51 103
REMARK H PARENT 11 4 16 37 75 56 43 67
REMARK Flexibility Score: inf
ROOT
ATOM      1  C   UNL A   1      31.929  30.301  26.627  1.00  0.00     0.023 C 
ENDROOT
BRANCH   1   2
ATOM      2  C   UNL A   1      31.395  29.711  25.325  1.00  0.00     0.113 C 
BRANCH   2   3
ATOM      3  N   UNL A   1      32.438  28.963  24.664  1.00  0.00    -0.380 N 
ATOM      4  H   UNL A   1      33.017  29.490  24.068  1.00  0.00     0.160 HD
BRANCH   3   5
ATOM      5  C   UNL A   1      32.742  27.631  24.742  1.00  0.00     0.110 C 
ATOM      6  C   UNL A   1      32.398  26.517  24.086  1.00  0.00     0.056 C 
ATOM      7  C   UNL A   1      33.100  25.276  24.548  1.00  0.00     0.155 C 
ATOM      8  C   UNL A   1      33.744  27.170  25.762  1.00  0.00     0.271 C 
ATOM      9  N   UNL A   1      34.001  25.834  25.536  1.00  0.00    -0.326 N 
ATOM     10  O   UNL A   1      34.226  27.891  26.615  1.00  0.00    -0.267 OA
BRANCH   6  11
ATOM     11  C   UNL A   1      31.534  26.506  22.897  1.00  0.00     0.193 C 
ATOM     12  O   UNL A   1      31.758  25.707  21.992  1.00  0.00    -0.289 OA
BRANCH  11  13
ATOM     13  C   UNL A   1      30.371  27.440  22.819  1.00  0.00     0.023 A 
ATOM     14  C   UNL A   1      28.247  29.281  23.013  1.00  0.00     0.118 A 
ATOM     15  C   UNL A   1      28.127  28.001  23.557  1.00  0.00     0.047 A 
ATOM     16  C   UNL A   1      29.396  29.605  22.296  1.00  0.00     0.047 A 
ATOM     17  C   UNL A   1      29.185  27.088  23.473  1.00  0.00     0.016 A 
ATOM     18  C   UNL A   1      30.432  28.674  22.169  1.00  0.00     0.016 A 
BRANCH  14  19
ATOM     19  O   UNL A   1      27.190  30.116  23.245  1.00  0.00    -0.497 OA
ATOM     20  C   UNL A   1      27.412  31.502  23.013  1.00  0.00     0.278 C 
ENDBRANCH  14  19
ENDBRANCH  11  13
ENDBRANCH   6  11
BRANCH   7  21
ATOM     21  C   UNL A   1      32.166  24.251  25.169  1.00  0.00     0.015 A 
ATOM     22  C   UNL A   1      31.193  24.607  26.125  1.00  0.00     0.009 A 
ATOM     23  C   UNL A   1      32.216  22.922  24.749  1.00  0.00     0.128 A 
ATOM     24  C   UNL A   1      30.279  23.665  26.603  1.00  0.00     0.001 A 
ATOM     25  C   UNL A   1      31.317  21.973  25.233  1.00  0.00     0.039 A 
ATOM     26  F   UNL A   1      33.137  22.539  23.855  1.00  0.00    -0.207 F 
ATOM     27  C   UNL A   1      30.339  22.348  26.152  1.00  0.00     0.003 A 
ENDBRANCH   7  21
BRANCH   9  28
ATOM     28  C   UNL A   1      34.991  25.041  26.256  1.00  0.00     0.127 C 
BRANCH  28  29
ATOM     29  C   UNL A   1      35.780  24.095  25.360  1.00  0.00     0.074 C 
BRANCH  29  30
ATOM     30  C   UNL A   1      35.800  22.717  25.949  1.00  0.00     0.043 C 
ATOM     31  O   UNL A   1      36.490  21.790  25.559  1.00  0.00    -0.550 OA
ATOM     32  O   UNL A   1      34.908  22.569  26.945  1.00  0.00    -0.550 OA
ENDBRANCH  29  30
ENDBRANCH  28  29
ENDBRANCH   9  28
ENDBRANCH   3   5
ENDBRANCH   2   3
ENDBRANCH   1   2
BRANCH   1  33
ATOM     33  C   UNL A   1      31.588  31.777  26.843  1.00  0.00     0.023 C 
BRANCH  33  34
ATOM     34  C   UNL A   1      32.772  32.734  26.742  1.00  0.00     0.116 C 
BRANCH  34  35
ATOM     35  N   UNL A   1      32.607  33.917  27.572  1.00  0.00    -0.352 N 
ATOM     36  C   UNL A   1      33.277  34.281  28.716  1.00  0.00     0.251 C 
ATOM     37  H   UNL A   1      31.915  34.549  27.272  1.00  0.00     0.163 HD
ATOM     38  O   UNL A   1      32.873  35.231  29.379  1.00  0.00    -0.269 OA
BRANCH  36  39
ATOM     39  C   UNL A   1      34.459  33.509  29.156  1.00  0.00     0.039 A 
ATOM     40  C   UNL A   1      35.733  34.017  28.896  1.00  0.00     0.014 A 
ATOM     41  C   UNL A   1      34.313  32.292  29.829  1.00  0.00     0.014 A 
ATOM     42  C   UNL A   1      36.858  33.339  29.371  1.00  0.00     0.010 A 
ATOM     43  C   UNL A   1      35.429  31.664  30.375  1.00  0.00     0.010 A 
ATOM     44  C   UNL A   1      36.715  32.177  30.149  1.00  0.00    -0.014 A 
BRANCH  44  45
ATOM     45  C   UNL A   1      37.900  31.492  30.728  1.00  0.00     0.031 A 
ATOM     46  C   UNL A   1      38.366  31.828  32.119  1.00  0.00     0.074 A 
ATOM     47  C   UNL A   1      38.584  30.600  29.984  1.00  0.00     0.049 A 
ATOM     48  N   UNL A   1      39.393  31.363  32.785  1.00  0.00    -0.248 NA
ATOM     49  C   UNL A   1      37.593  32.845  32.845  1.00  0.00     0.031 C 
ATOM     50  C   UNL A   1      38.255  30.219  28.609  1.00  0.00     0.029 A 
ATOM     51  N   UNL A   1      39.695  29.848  30.277  1.00  0.00    -0.354 N 
ATOM     52  C   UNL A   1      39.393  32.035  34.002  1.00  0.00     0.074 A 
ATOM     53  C   UNL A   1      38.308  32.993  33.948  1.00  0.00     0.031 C 
ATOM     54  C   UNL A   1      39.115  29.274  28.196  1.00  0.00     0.029 A 
ATOM     55  C   UNL A   1      40.088  29.019  29.252  1.00  0.00     0.049 A 
ATOM     56  H   UNL A   1      40.166  29.899  31.139  1.00  0.00     0.167 HD
ATOM     57  C   UNL A   1      40.204  31.854  35.076  1.00  0.00     0.034 A 
ATOM     58  C   UNL A   1      41.118  28.153  29.171  1.00  0.00     0.034 A 
ATOM     59  C   UNL A   1      41.281  30.894  35.111  1.00  0.00     0.049 A 
ATOM     60  C   UNL A   1      42.036  28.002  30.359  1.00  0.00     0.074 A 
ATOM     61  C   UNL A   1      42.131  30.590  36.159  1.00  0.00     0.029 A 
ATOM     62  N   UNL A   1      41.668  30.089  34.044  1.00  0.00    -0.354 N 
ATOM     63  N   UNL A   1      41.986  28.603  31.526  1.00  0.00    -0.248 NA
ATOM     64  C   UNL A   1      43.141  27.046  30.219  1.00  0.00     0.031 C 
ATOM     65  C   UNL A   1      43.080  29.667  35.703  1.00  0.00     0.029 A 
ATOM     66  C   UNL A   1      42.768  29.322  34.398  1.00  0.00     0.049 A 
ATOM     67  H   UNL A   1      41.225  30.069  33.166  1.00  0.00     0.167 HD
ATOM     68  C   UNL A   1      43.032  28.067  32.272  1.00  0.00     0.074 A 
ATOM     69  C   UNL A   1      43.681  27.085  31.427  1.00  0.00     0.031 C 
ATOM     70  C   UNL A   1      43.418  28.355  33.543  1.00  0.00     0.034 A 
BRANCH  57  71
ATOM     71  C   UNL A   1      39.968  32.739  36.280  1.00  0.00     0.023 A 
ATOM     72  C   UNL A   1      39.138  32.338  37.342  1.00  0.00     0.031 A 
ATOM     73  C   UNL A   1      40.542  34.021  36.348  1.00  0.00     0.131 A 
ATOM     74  C   UNL A   1      38.830  33.239  38.372  1.00  0.00     0.055 A 
ATOM     75  C   UNL A   1      40.308  34.879  37.425  1.00  0.00     0.041 A 
ATOM     76  F   UNL A   1      41.326  34.473  35.357  1.00  0.00    -0.206 F 
ATOM     77  C   UNL A   1      39.431  34.497  38.436  1.00  0.00     0.022 A 
BRANCH  74  78
ATOM     78  S   UNL A   1      37.497  32.810  39.526  1.00  0.00     0.124 S 
ATOM     79  O   UNL A   1      37.517  33.951  40.438  1.00  0.00    -0.237 OA
ATOM     80  O   UNL A   1      36.337  32.715  38.647  1.00  0.00    -0.237 OA
ATOM     81  O   UNL A   1      37.943  31.547  40.112  1.00  0.00    -0.744 OA
ENDBRANCH  74  78
ENDBRANCH  57  71
BRANCH  58  82
ATOM     82  C   UNL A   1      41.342  27.354  27.932  1.00  0.00     0.023 A 
ATOM     83  C   UNL A   1      40.986  25.997  27.877  1.00  0.00     0.031 A 
ATOM     84  C   UNL A   1      41.958  27.918  26.801  1.00  0.00     0.131 A 
ATOM     85  C   UNL A   1      41.293  25.236  26.738  1.00  0.00     0.055 A 
ATOM     86  C   UNL A   1      42.208  27.173  25.647  1.00  0.00     0.041 A 
ATOM     87  F   UNL A   1      42.318  29.212  26.799  1.00  0.00    -0.206 F 
ATOM     88  C   UNL A   1      41.889  25.819  25.617  1.00  0.00     0.022 A 
BRANCH  85  89
ATOM     89  S   UNL A   1      40.989  23.449  26.779  1.00  0.00     0.124 S 
ATOM     90  O   UNL A   1      41.886  22.971  25.734  1.00  0.00    -0.237 OA
ATOM     91  O   UNL A   1      41.360  23.110  28.150  1.00  0.00    -0.237 OA
ATOM     92  O   UNL A   1      39.563  23.341  26.478  1.00  0.00    -0.744 OA
ENDBRANCH  85  89
ENDBRANCH  58  82
BRANCH  70  93
ATOM     93  C   UNL A   1      44.570  27.555  34.107  1.00  0.00     0.023 A 
ATOM     94  C   UNL A   1      44.367  26.368  34.833  1.00  0.00     0.031 A 
ATOM     95  C   UNL A   1      45.892  28.005  33.940  1.00  0.00     0.131 A 
ATOM     96  C   UNL A   1      45.458  25.714  35.426  1.00  0.00     0.055 A 
ATOM     97  C   UNL A   1      46.980  27.310  34.468  1.00  0.00     0.041 A 
ATOM     98  F   UNL A   1      46.149  29.135  33.261  1.00  0.00    -0.206 F 
ATOM     99  C   UNL A   1      46.765  26.166  35.231  1.00  0.00     0.022 A 
BRANCH  96 100
ATOM    100  S   UNL A   1      45.135  24.332  36.557  1.00  0.00     0.124 S 
ATOM    101  O   UNL A   1      44.487  23.366  35.677  1.00  0.00    -0.237 OA
ATOM    102  O   UNL A   1      46.475  23.981  37.013  1.00  0.00    -0.237 OA
ATOM    103  O   UNL A   1      44.269  24.920  37.577  1.00  0.00    -0.744 OA
ENDBRANCH  96 100
ENDBRANCH  70  93
ENDBRANCH  44  45
ENDBRANCH  36  39
ENDBRANCH  34  35
ENDBRANCH  33  34
ENDBRANCH   1  33
TORSDOF 21
ENDMDL
