MODEL 1
REMARK VINA RESULT:     -12.0      0.000      0.000
REMARK SMILES O=C(NCCCCNC(=O)[C@@H](Cc1ccccc1F)C1CCOCC1)c1ccc(-c2c3nc(c(-c4cc(S(=O)(=O)[O-])ccc4F)c4ccc([nH]4)c(-c4cc(S(=O)(=O)[O-])ccc4F)c4nc(c(-c5cc(S(=O)(=O)[O-])ccc5F)c5ccc2[nH]5)C=C4)C=C3)cc1
REMARK SMILES IDX 5 1 4 2 3 3 1 4 2 5 26 7 27 8 88 9 28 10 87 11 29 12 30 13
REMARK SMILES IDX 31 14 81 15 32 16 86 17 80 18 82 19 33 20 85 21 79 22 78 23
REMARK SMILES IDX 34 25 66 26 46 27 65 28 47 29 50 30 64 31 83 32 48 33 49 34
REMARK SMILES IDX 63 36 84 37 51 38 35 39 36 40 44 41 37 42 43 43 45 44 42 45
REMARK SMILES IDX 38 46 39 47 40 48 41 49 67 50 68 51 76 52 69 53 75 54 77 55
REMARK SMILES IDX 74 56 70 57 71 58 72 59 73 60 52 61 53 62 61 63 54 64 60 65
REMARK SMILES IDX 62 66 59 67 55 68 56 69 57 70 58 71 6 72 7 73 8 74 9 75
REMARK SMILES IDX 10 77 11 78 12 79 13 80 14 81 18 82 15 83 17 84 19 85 16 86
REMARK SMILES IDX 20 87 21 88 25 89 22 90 24 91 23 92
REMARK H PARENT 3 6 82 24 50 35 8 76
REMARK Flexibility Score: inf
ROOT
ATOM      1  C   UNL A   1      34.831  22.057  26.856  1.00  0.00     0.023 C 
ENDROOT
BRANCH   1   2
ATOM      2  C   UNL A   1      35.990  22.539  25.991  1.00  0.00     0.116 C 
BRANCH   2   3
ATOM      3  N   UNL A   1      36.970  21.499  25.687  1.00  0.00    -0.352 N 
ATOM      4  O   UNL A   1      39.034  20.606  25.439  1.00  0.00    -0.269 OA
ATOM      5  C   UNL A   1      38.339  21.528  25.838  1.00  0.00     0.251 C 
ATOM      6  H   UNL A   1      36.602  20.662  25.324  1.00  0.00     0.163 HD
BRANCH   5   7
ATOM      7  C   UNL A   1      38.944  22.723  26.460  1.00  0.00     0.039 A 
ATOM      8  C   UNL A   1      38.470  23.989  26.118  1.00  0.00     0.014 A 
ATOM      9  C   UNL A   1      40.062  22.576  27.283  1.00  0.00     0.014 A 
ATOM     10  C   UNL A   1      39.232  25.104  26.429  1.00  0.00     0.010 A 
ATOM     11  C   UNL A   1      40.763  23.712  27.691  1.00  0.00     0.010 A 
ATOM     12  C   UNL A   1      40.380  24.981  27.229  1.00  0.00    -0.014 A 
BRANCH  12  13
ATOM     13  C   UNL A   1      41.147  26.200  27.593  1.00  0.00     0.031 A 
ATOM     14  C   UNL A   1      40.562  27.236  28.515  1.00  0.00     0.074 A 
ATOM     15  C   UNL A   1      42.400  26.340  27.118  1.00  0.00     0.049 A 
ATOM     16  N   UNL A   1      41.039  28.409  28.839  1.00  0.00    -0.248 NA
ATOM     17  C   UNL A   1      39.276  26.916  29.158  1.00  0.00     0.031 C 
ATOM     18  C   UNL A   1      43.088  25.372  26.256  1.00  0.00     0.029 A 
ATOM     19  N   UNL A   1      43.328  27.329  27.307  1.00  0.00    -0.354 N 
ATOM     20  C   UNL A   1      40.106  28.983  29.694  1.00  0.00     0.074 A 
ATOM     21  C   UNL A   1      39.028  28.029  29.840  1.00  0.00     0.031 C 
ATOM     22  C   UNL A   1      44.344  25.787  26.042  1.00  0.00     0.029 A 
ATOM     23  C   UNL A   1      44.516  27.096  26.657  1.00  0.00     0.049 A 
ATOM     24  H   UNL A   1      43.159  28.130  27.854  1.00  0.00     0.167 HD
ATOM     25  C   UNL A   1      40.151  30.196  30.296  1.00  0.00     0.034 A 
ATOM     26  C   UNL A   1      45.610  27.868  26.527  1.00  0.00     0.034 A 
ATOM     27  C   UNL A   1      41.246  31.125  30.155  1.00  0.00     0.049 A 
ATOM     28  C   UNL A   1      45.602  29.232  27.152  1.00  0.00     0.074 A 
ATOM     29  C   UNL A   1      41.379  32.390  30.700  1.00  0.00     0.029 A 
ATOM     30  N   UNL A   1      42.402  30.883  29.426  1.00  0.00    -0.354 N 
ATOM     31  N   UNL A   1      44.664  29.802  27.871  1.00  0.00    -0.248 NA
ATOM     32  C   UNL A   1      46.788  30.067  26.926  1.00  0.00     0.031 C 
ATOM     33  C   UNL A   1      42.595  32.929  30.266  1.00  0.00     0.029 A 
ATOM     34  C   UNL A   1      43.247  31.979  29.497  1.00  0.00     0.049 A 
ATOM     35  H   UNL A   1      42.595  30.054  28.932  1.00  0.00     0.167 HD
ATOM     36  C   UNL A   1      45.146  31.068  28.182  1.00  0.00     0.074 A 
ATOM     37  C   UNL A   1      46.468  31.165  27.596  1.00  0.00     0.031 C 
ATOM     38  C   UNL A   1      44.547  32.064  28.880  1.00  0.00     0.034 A 
BRANCH  25  39
ATOM     39  C   UNL A   1      38.967  30.620  31.124  1.00  0.00     0.023 A 
ATOM     40  C   UNL A   1      37.885  31.321  30.567  1.00  0.00     0.031 A 
ATOM     41  C   UNL A   1      38.900  30.267  32.484  1.00  0.00     0.131 A 
ATOM     42  C   UNL A   1      36.788  31.665  31.374  1.00  0.00     0.055 A 
ATOM     43  C   UNL A   1      37.786  30.568  33.269  1.00  0.00     0.041 A 
ATOM     44  F   UNL A   1      39.916  29.612  33.068  1.00  0.00    -0.206 F 
ATOM     45  C   UNL A   1      36.721  31.273  32.714  1.00  0.00     0.022 A 
BRANCH  42  46
ATOM     46  S   UNL A   1      35.455  32.669  30.662  1.00  0.00     0.124 S 
ATOM     47  O   UNL A   1      35.364  32.119  29.312  1.00  0.00    -0.237 OA
ATOM     48  O   UNL A   1      34.331  32.379  31.546  1.00  0.00    -0.237 OA
ATOM     49  O   UNL A   1      35.973  34.032  30.744  1.00  0.00    -0.744 OA
ENDBRANCH  42  46
ENDBRANCH  25  39
BRANCH  26  50
ATOM     50  C   UNL A   1      46.762  27.400  25.712  1.00  0.00     0.023 A 
ATOM     51  C   UNL A   1      46.926  27.826  24.385  1.00  0.00     0.031 A 
ATOM     52  C   UNL A   1      47.712  26.512  26.247  1.00  0.00     0.131 A 
ATOM     53  C   UNL A   1      48.005  27.343  23.629  1.00  0.00     0.055 A 
ATOM     54  C   UNL A   1      48.809  26.072  25.506  1.00  0.00     0.041 A 
ATOM     55  F   UNL A   1      47.602  26.081  27.514  1.00  0.00    -0.206 F 
ATOM     56  C   UNL A   1      48.955  26.481  24.184  1.00  0.00     0.022 A 
BRANCH  53  57
ATOM     57  S   UNL A   1      48.122  27.820  21.884  1.00  0.00     0.124 S 
ATOM     58  O   UNL A   1      46.827  28.452  21.661  1.00  0.00    -0.237 OA
ATOM     59  O   UNL A   1      49.279  28.709  21.889  1.00  0.00    -0.237 OA
ATOM     60  O   UNL A   1      48.323  26.546  21.197  1.00  0.00    -0.744 OA
ENDBRANCH  53  57
ENDBRANCH  26  50
BRANCH  38  61
ATOM     61  C   UNL A   1      45.337  33.331  29.049  1.00  0.00     0.023 A 
ATOM     62  C   UNL A   1      45.157  34.420  28.182  1.00  0.00     0.031 A 
ATOM     63  C   UNL A   1      46.296  33.440  30.071  1.00  0.00     0.131 A 
ATOM     64  C   UNL A   1      45.963  35.558  28.318  1.00  0.00     0.055 A 
ATOM     65  C   UNL A   1      47.061  34.594  30.233  1.00  0.00     0.041 A 
ATOM     66  F   UNL A   1      46.504  32.423  30.922  1.00  0.00    -0.206 F 
ATOM     67  C   UNL A   1      46.905  35.657  29.347  1.00  0.00     0.022 A 
BRANCH  64  68
ATOM     68  S   UNL A   1      45.816  36.880  27.086  1.00  0.00     0.124 S 
ATOM     69  O   UNL A   1      44.375  36.922  26.859  1.00  0.00    -0.237 OA
ATOM     70  O   UNL A   1      46.384  38.027  27.786  1.00  0.00    -0.237 OA
ATOM     71  O   UNL A   1      46.608  36.389  25.960  1.00  0.00    -0.744 OA
ENDBRANCH  64  68
ENDBRANCH  38  61
ENDBRANCH  12  13
ENDBRANCH   5   7
ENDBRANCH   2   3
ENDBRANCH   1   2
BRANCH   1  72
ATOM     72  C   UNL A   1      33.458  22.464  26.347  1.00  0.00     0.023 C 
BRANCH  72  73
ATOM     73  C   UNL A   1      33.266  23.966  26.193  1.00  0.00     0.116 C 
BRANCH  73  74
ATOM     74  N   UNL A   1      31.913  24.363  26.490  1.00  0.00    -0.356 N 
ATOM     75  C   UNL A   1      31.159  25.366  25.987  1.00  0.00     0.223 C 
ATOM     76  H   UNL A   1      31.464  23.813  27.171  1.00  0.00     0.163 HD
ATOM     77  O   UNL A   1      29.991  25.440  26.388  1.00  0.00    -0.275 OA
BRANCH  75  78
ATOM     78  C   UNL A   1      31.664  26.378  24.954  1.00  0.00     0.086 C 
BRANCH  78  79
ATOM     79  C   UNL A   1      30.885  26.407  23.607  1.00  0.00     0.052 C 
BRANCH  79  80
ATOM     80  C   UNL A   1      30.005  27.568  23.202  1.00  0.00    -0.011 A 
ATOM     81  C   UNL A   1      30.495  28.677  22.496  1.00  0.00     0.007 A 
ATOM     82  C   UNL A   1      28.626  27.530  23.465  1.00  0.00     0.126 A 
ATOM     83  C   UNL A   1      29.655  29.744  22.153  1.00  0.00     0.000 A 
ATOM     84  C   UNL A   1      27.778  28.578  23.105  1.00  0.00     0.039 A 
ATOM     85  F   UNL A   1      28.096  26.481  24.109  1.00  0.00    -0.207 F 
ATOM     86  C   UNL A   1      28.297  29.699  22.465  1.00  0.00     0.003 A 
ENDBRANCH  79  80
ENDBRANCH  78  79
BRANCH  78  87
ATOM     87  C   UNL A   1      32.231  27.741  25.459  1.00  0.00     0.006 C 
ATOM     88  C   UNL A   1      33.715  27.568  25.867  1.00  0.00     0.033 C 
ATOM     89  C   UNL A   1      31.506  28.418  26.634  1.00  0.00     0.033 C 
ATOM     90  C   UNL A   1      34.324  28.882  26.338  1.00  0.00     0.160 C 
ATOM     91  C   UNL A   1      32.226  29.698  27.053  1.00  0.00     0.160 C 
ATOM     92  O   UNL A   1      33.575  29.429  27.419  1.00  0.00    -0.381 OA
ENDBRANCH  78  87
ENDBRANCH  75  78
ENDBRANCH  73  74
ENDBRANCH  72  73
ENDBRANCH   1  72
TORSDOF 17
ENDMDL
MODEL 2
REMARK VINA RESULT:     -12.0      5.010     10.008
REMARK SMILES O=C(NCCCCNC(=O)[C@@H](Cc1ccccc1F)C1CCOCC1)c1ccc(-c2c3nc(c(-c4cc(S(=O)(=O)[O-])ccc4F)c4ccc([nH]4)c(-c4cc(S(=O)(=O)[O-])ccc4F)c4nc(c(-c5cc(S(=O)(=O)[O-])ccc5F)c5ccc2[nH]5)C=C4)C=C3)cc1
REMARK SMILES IDX 5 1 4 2 3 3 1 4 2 5 26 7 27 8 88 9 28 10 87 11 29 12 30 13
REMARK SMILES IDX 31 14 81 15 32 16 86 17 80 18 82 19 33 20 85 21 79 22 78 23
REMARK SMILES IDX 34 25 66 26 46 27 65 28 47 29 50 30 64 31 83 32 48 33 49 34
REMARK SMILES IDX 63 36 84 37 51 38 35 39 36 40 44 41 37 42 43 43 45 44 42 45
REMARK SMILES IDX 38 46 39 47 40 48 41 49 67 50 68 51 76 52 69 53 75 54 77 55
REMARK SMILES IDX 74 56 70 57 71 58 72 59 73 60 52 61 53 62 61 63 54 64 60 65
REMARK SMILES IDX 62 66 59 67 55 68 56 69 57 70 58 71 6 72 7 73 8 74 9 75
REMARK SMILES IDX 10 77 11 78 12 79 13 80 14 81 18 82 15 83 17 84 19 85 16 86
REMARK SMILES IDX 20 87 21 88 25 89 22 90 24 91 23 92
REMARK H PARENT 3 6 82 24 50 35 8 76
REMARK Flexibility Score: inf
ROOT
ATOM      1  C   UNL A   1      31.861  28.885  26.907  1.00  0.00     0.023 C 
ENDROOT
BRANCH   1   2
ATOM      2  C   UNL A   1      32.955  29.826  26.417  1.00  0.00     0.116 C 
BRANCH   2   3
ATOM      3  N   UNL A   1      32.741  31.223  26.788  1.00  0.00    -0.352 N 
ATOM      4  O   UNL A   1      33.182  33.181  27.833  1.00  0.00    -0.269 OA
ATOM      5  C   UNL A   1      33.554  32.059  27.521  1.00  0.00     0.251 C 
ATOM      6  H   UNL A   1      31.899  31.622  26.471  1.00  0.00     0.163 HD
BRANCH   5   7
ATOM      7  C   UNL A   1      34.871  31.548  27.950  1.00  0.00     0.039 A 
ATOM      8  C   UNL A   1      34.981  30.233  28.403  1.00  0.00     0.014 A 
ATOM      9  C   UNL A   1      35.959  32.421  28.014  1.00  0.00     0.014 A 
ATOM     10  C   UNL A   1      36.113  29.853  29.107  1.00  0.00     0.010 A 
ATOM     11  C   UNL A   1      37.140  31.995  28.623  1.00  0.00     0.010 A 
ATOM     12  C   UNL A   1      37.210  30.724  29.216  1.00  0.00    -0.014 A 
BRANCH  12  13
ATOM     13  C   UNL A   1      38.431  30.270  29.928  1.00  0.00     0.031 A 
ATOM     14  C   UNL A   1      39.405  29.327  29.273  1.00  0.00     0.074 A 
ATOM     15  C   UNL A   1      38.677  30.756  31.161  1.00  0.00     0.049 A 
ATOM     16  N   UNL A   1      40.450  28.737  29.792  1.00  0.00    -0.248 NA
ATOM     17  C   UNL A   1      39.178  29.003  27.855  1.00  0.00     0.031 C 
ATOM     18  C   UNL A   1      37.828  31.716  31.874  1.00  0.00     0.029 A 
ATOM     19  N   UNL A   1      39.718  30.535  32.023  1.00  0.00    -0.354 N 
ATOM     20  C   UNL A   1      40.990  27.950  28.781  1.00  0.00     0.074 A 
ATOM     21  C   UNL A   1      40.153  28.135  27.614  1.00  0.00     0.031 C 
ATOM     22  C   UNL A   1      38.411  32.045  33.034  1.00  0.00     0.029 A 
ATOM     23  C   UNL A   1      39.615  31.242  33.198  1.00  0.00     0.049 A 
ATOM     24  H   UNL A   1      40.466  29.928  31.822  1.00  0.00     0.167 HD
ATOM     25  C   UNL A   1      42.081  27.148  28.831  1.00  0.00     0.034 A 
ATOM     26  C   UNL A   1      40.376  31.214  34.307  1.00  0.00     0.034 A 
ATOM     27  C   UNL A   1      42.914  26.995  29.998  1.00  0.00     0.049 A 
ATOM     28  C   UNL A   1      41.540  30.268  34.353  1.00  0.00     0.074 A 
ATOM     29  C   UNL A   1      44.027  26.189  30.162  1.00  0.00     0.029 A 
ATOM     30  N   UNL A   1      42.734  27.673  31.196  1.00  0.00    -0.354 N 
ATOM     31  N   UNL A   1      41.973  29.451  33.423  1.00  0.00    -0.248 NA
ATOM     32  C   UNL A   1      42.300  30.221  35.607  1.00  0.00     0.031 C 
ATOM     33  C   UNL A   1      44.493  26.346  31.473  1.00  0.00     0.029 A 
ATOM     34  C   UNL A   1      43.706  27.293  32.107  1.00  0.00     0.049 A 
ATOM     35  H   UNL A   1      42.021  28.327  31.372  1.00  0.00     0.167 HD
ATOM     36  C   UNL A   1      43.058  28.787  33.982  1.00  0.00     0.074 A 
ATOM     37  C   UNL A   1      43.229  29.321  35.319  1.00  0.00     0.031 C 
ATOM     38  C   UNL A   1      43.838  27.817  33.444  1.00  0.00     0.034 A 
BRANCH  25  39
ATOM     39  C   UNL A   1      42.417  26.333  27.610  1.00  0.00     0.023 A 
ATOM     40  C   UNL A   1      42.061  24.979  27.501  1.00  0.00     0.031 A 
ATOM     41  C   UNL A   1      43.058  26.942  26.515  1.00  0.00     0.131 A 
ATOM     42  C   UNL A   1      42.367  24.271  26.328  1.00  0.00     0.055 A 
ATOM     43  C   UNL A   1      43.315  26.246  25.333  1.00  0.00     0.041 A 
ATOM     44  F   UNL A   1      43.434  28.229  26.575  1.00  0.00    -0.206 F 
ATOM     45  C   UNL A   1      42.971  24.901  25.235  1.00  0.00     0.022 A 
BRANCH  42  46
ATOM     46  S   UNL A   1      42.002  22.495  26.253  1.00  0.00     0.124 S 
ATOM     47  O   UNL A   1      42.707  22.103  25.036  1.00  0.00    -0.237 OA
ATOM     48  O   UNL A   1      42.566  22.001  27.504  1.00  0.00    -0.237 OA
ATOM     49  O   UNL A   1      40.544  22.450  26.169  1.00  0.00    -0.744 OA
ENDBRANCH  42  46
ENDBRANCH  25  39
BRANCH  26  50
ATOM     50  C   UNL A   1      40.013  32.049  35.483  1.00  0.00     0.023 A 
ATOM     51  C   UNL A   1      39.065  31.606  36.416  1.00  0.00     0.031 A 
ATOM     52  C   UNL A   1      40.606  33.309  35.685  1.00  0.00     0.131 A 
ATOM     53  C   UNL A   1      38.718  32.429  37.498  1.00  0.00     0.055 A 
ATOM     54  C   UNL A   1      40.293  34.102  36.788  1.00  0.00     0.041 A 
ATOM     55  F   UNL A   1      41.525  33.774  34.823  1.00  0.00    -0.206 F 
ATOM     56  C   UNL A   1      39.335  33.666  37.699  1.00  0.00     0.022 A 
BRANCH  53  57
ATOM     57  S   UNL A   1      37.404  31.878  38.618  1.00  0.00     0.124 S 
ATOM     58  O   UNL A   1      36.346  32.841  38.333  1.00  0.00    -0.237 OA
ATOM     59  O   UNL A   1      37.169  30.512  38.163  1.00  0.00    -0.237 OA
ATOM     60  O   UNL A   1      38.015  31.993  39.941  1.00  0.00    -0.744 OA
ENDBRANCH  53  57
ENDBRANCH  26  50
BRANCH  38  61
ATOM     61  C   UNL A   1      44.948  27.294  34.311  1.00  0.00     0.023 A 
ATOM     62  C   UNL A   1      44.744  26.203  35.172  1.00  0.00     0.031 A 
ATOM     63  C   UNL A   1      46.212  27.906  34.294  1.00  0.00     0.131 A 
ATOM     64  C   UNL A   1      45.777  25.788  36.024  1.00  0.00     0.055 A 
ATOM     65  C   UNL A   1      47.252  27.457  35.108  1.00  0.00     0.041 A 
ATOM     66  F   UNL A   1      46.453  28.953  33.488  1.00  0.00    -0.206 F 
ATOM     67  C   UNL A   1      47.033  26.399  35.987  1.00  0.00     0.022 A 
BRANCH  64  68
ATOM     68  S   UNL A   1      45.432  24.483  37.234  1.00  0.00     0.124 S 
ATOM     69  O   UNL A   1      46.637  24.509  38.058  1.00  0.00    -0.237 OA
ATOM     70  O   UNL A   1      44.211  24.963  37.875  1.00  0.00    -0.237 OA
ATOM     71  O   UNL A   1      45.269  23.286  36.412  1.00  0.00    -0.744 OA
ENDBRANCH  64  68
ENDBRANCH  38  61
ENDBRANCH  12  13
ENDBRANCH   5   7
ENDBRANCH   2   3
ENDBRANCH   1   2
BRANCH   1  72
ATOM     72  C   UNL A   1      31.650  27.661  26.032  1.00  0.00     0.023 C 
BRANCH  72  73
ATOM     73  C   UNL A   1      32.393  26.418  26.501  1.00  0.00     0.116 C 
BRANCH  73  74
ATOM     74  N   UNL A   1      31.488  25.416  27.004  1.00  0.00    -0.356 N 
ATOM     75  C   UNL A   1      31.162  24.198  26.513  1.00  0.00     0.223 C 
ATOM     76  H   UNL A   1      31.032  25.656  27.841  1.00  0.00     0.163 HD
ATOM     77  O   UNL A   1      30.389  23.514  27.193  1.00  0.00    -0.275 OA
BRANCH  75  78
ATOM     78  C   UNL A   1      31.708  23.634  25.198  1.00  0.00     0.086 C 
BRANCH  78  79
ATOM     79  C   UNL A   1      30.848  23.926  23.935  1.00  0.00     0.052 C 
BRANCH  79  80
ATOM     80  C   UNL A   1      30.475  25.328  23.510  1.00  0.00    -0.011 A 
ATOM     81  C   UNL A   1      29.319  25.975  23.971  1.00  0.00     0.007 A 
ATOM     82  C   UNL A   1      31.336  26.063  22.678  1.00  0.00     0.126 A 
ATOM     83  C   UNL A   1      28.994  27.268  23.541  1.00  0.00     0.000 A 
ATOM     84  C   UNL A   1      31.032  27.360  22.265  1.00  0.00     0.039 A 
ATOM     85  F   UNL A   1      32.470  25.507  22.232  1.00  0.00    -0.207 F 
ATOM     86  C   UNL A   1      29.846  27.958  22.681  1.00  0.00     0.003 A 
ENDBRANCH  79  80
ENDBRANCH  78  79
BRANCH  78  87
ATOM     87  C   UNL A   1      33.254  23.587  24.991  1.00  0.00     0.006 C 
ATOM     88  C   UNL A   1      33.581  22.806  23.695  1.00  0.00     0.033 C 
ATOM     89  C   UNL A   1      34.103  22.981  26.121  1.00  0.00     0.033 C 
ATOM     90  C   UNL A   1      35.080  22.760  23.431  1.00  0.00     0.160 C 
ATOM     91  C   UNL A   1      35.580  22.943  25.732  1.00  0.00     0.160 C 
ATOM     92  O   UNL A   1      35.774  22.192  24.538  1.00  0.00    -0.381 OA
ENDBRANCH  78  87
ENDBRANCH  75  78
ENDBRANCH  73  74
ENDBRANCH  72  73
ENDBRANCH   1  72
TORSDOF 17
ENDMDL
MODEL 3
REMARK VINA RESULT:     -12.0      5.018     10.311
REMARK SMILES O=C(NCCCCNC(=O)[C@@H](Cc1ccccc1F)C1CCOCC1)c1ccc(-c2c3nc(c(-c4cc(S(=O)(=O)[O-])ccc4F)c4ccc([nH]4)c(-c4cc(S(=O)(=O)[O-])ccc4F)c4nc(c(-c5cc(S(=O)(=O)[O-])ccc5F)c5ccc2[nH]5)C=C4)C=C3)cc1
REMARK SMILES IDX 5 1 4 2 3 3 1 4 2 5 26 7 27 8 88 9 28 10 87 11 29 12 30 13
REMARK SMILES IDX 31 14 81 15 32 16 86 17 80 18 82 19 33 20 85 21 79 22 78 23
REMARK SMILES IDX 34 25 66 26 46 27 65 28 47 29 50 30 64 31 83 32 48 33 49 34
REMARK SMILES IDX 63 36 84 37 51 38 35 39 36 40 44 41 37 42 43 43 45 44 42 45
REMARK SMILES IDX 38 46 39 47 40 48 41 49 67 50 68 51 76 52 69 53 75 54 77 55
REMARK SMILES IDX 74 56 70 57 71 58 72 59 73 60 52 61 53 62 61 63 54 64 60 65
REMARK SMILES IDX 62 66 59 67 55 68 56 69 57 70 58 71 6 72 7 73 8 74 9 75
REMARK SMILES IDX 10 77 11 78 12 79 13 80 14 81 18 82 15 83 17 84 19 85 16 86
REMARK SMILES IDX 20 87 21 88 25 89 22 90 24 91 23 92
REMARK H PARENT 3 6 82 24 50 35 8 76
REMARK Flexibility Score: inf
ROOT
ATOM      1  C   UNL A   1      31.645  28.700  25.823  1.00  0.00     0.023 C 
ENDROOT
BRANCH   1   2
ATOM      2  C   UNL A   1      32.854  29.610  26.008  1.00  0.00     0.116 C 
BRANCH   2   3
ATOM      3  N   UNL A   1      32.512  30.965  26.435  1.00  0.00    -0.352 N 
ATOM      4  O   UNL A   1      32.742  32.891  27.601  1.00  0.00    -0.269 OA
ATOM      5  C   UNL A   1      33.215  31.818  27.255  1.00  0.00     0.251 C 
ATOM      6  H   UNL A   1      31.660  31.317  26.089  1.00  0.00     0.163 HD
BRANCH   5   7
ATOM      7  C   UNL A   1      34.542  31.384  27.736  1.00  0.00     0.039 A 
ATOM      8  C   UNL A   1      34.737  30.052  28.102  1.00  0.00     0.014 A 
ATOM      9  C   UNL A   1      35.546  32.334  27.935  1.00  0.00     0.014 A 
ATOM     10  C   UNL A   1      35.852  29.713  28.853  1.00  0.00     0.010 A 
ATOM     11  C   UNL A   1      36.719  31.960  28.591  1.00  0.00     0.010 A 
ATOM     12  C   UNL A   1      36.861  30.658  29.097  1.00  0.00    -0.014 A 
BRANCH  12  13
ATOM     13  C   UNL A   1      38.070  30.252  29.856  1.00  0.00     0.031 A 
ATOM     14  C   UNL A   1      39.108  29.353  29.238  1.00  0.00     0.074 A 
ATOM     15  C   UNL A   1      38.246  30.742  31.099  1.00  0.00     0.049 A 
ATOM     16  N   UNL A   1      40.155  28.804  29.797  1.00  0.00    -0.248 NA
ATOM     17  C   UNL A   1      38.951  29.026  27.811  1.00  0.00     0.031 C 
ATOM     18  C   UNL A   1      37.330  31.664  31.780  1.00  0.00     0.029 A 
ATOM     19  N   UNL A   1      39.260  30.560  32.002  1.00  0.00    -0.354 N 
ATOM     20  C   UNL A   1      40.767  28.045  28.806  1.00  0.00     0.074 A 
ATOM     21  C   UNL A   1      39.971  28.200  27.607  1.00  0.00     0.031 C 
ATOM     22  C   UNL A   1      37.852  32.010  32.964  1.00  0.00     0.029 A 
ATOM     23  C   UNL A   1      39.081  31.257  33.173  1.00  0.00     0.049 A 
ATOM     24  H   UNL A   1      40.040  29.986  31.829  1.00  0.00     0.167 HD
ATOM     25  C   UNL A   1      41.887  27.288  28.898  1.00  0.00     0.034 A 
ATOM     26  C   UNL A   1      39.797  31.256  34.312  1.00  0.00     0.034 A 
ATOM     27  C   UNL A   1      42.678  27.164  30.097  1.00  0.00     0.049 A 
ATOM     28  C   UNL A   1      40.996  30.358  34.403  1.00  0.00     0.074 A 
ATOM     29  C   UNL A   1      43.816  26.403  30.304  1.00  0.00     0.029 A 
ATOM     30  N   UNL A   1      42.423  27.828  31.289  1.00  0.00    -0.354 N 
ATOM     31  N   UNL A   1      41.500  29.564  33.488  1.00  0.00    -0.248 NA
ATOM     32  C   UNL A   1      41.707  30.337  35.687  1.00  0.00     0.031 C 
ATOM     33  C   UNL A   1      44.222  26.574  31.633  1.00  0.00     0.029 A 
ATOM     34  C   UNL A   1      43.372  27.485  32.238  1.00  0.00     0.049 A 
ATOM     35  H   UNL A   1      41.676  28.452  31.438  1.00  0.00     0.167 HD
ATOM     36  C   UNL A   1      42.588  28.943  34.089  1.00  0.00     0.074 A 
ATOM     37  C   UNL A   1      42.683  29.477  35.433  1.00  0.00     0.031 C 
ATOM     38  C   UNL A   1      43.428  28.008  33.580  1.00  0.00     0.034 A 
BRANCH  25  39
ATOM     39  C   UNL A   1      42.306  26.493  27.689  1.00  0.00     0.023 A 
ATOM     40  C   UNL A   1      41.977  25.135  27.545  1.00  0.00     0.031 A 
ATOM     41  C   UNL A   1      42.999  27.124  26.640  1.00  0.00     0.131 A 
ATOM     42  C   UNL A   1      42.361  24.446  26.383  1.00  0.00     0.055 A 
ATOM     43  C   UNL A   1      43.334  26.446  25.468  1.00  0.00     0.041 A 
ATOM     44  F   UNL A   1      43.351  28.416  26.737  1.00  0.00    -0.206 F 
ATOM     45  C   UNL A   1      43.017  25.098  25.335  1.00  0.00     0.022 A 
BRANCH  42  46
ATOM     46  S   UNL A   1      42.028  22.666  26.268  1.00  0.00     0.124 S 
ATOM     47  O   UNL A   1      40.568  22.640  26.289  1.00  0.00    -0.237 OA
ATOM     48  O   UNL A   1      42.654  22.306  25.001  1.00  0.00    -0.237 OA
ATOM     49  O   UNL A   1      42.676  22.119  27.458  1.00  0.00    -0.744 OA
ENDBRANCH  42  46
ENDBRANCH  25  39
BRANCH  26  50
ATOM     50  C   UNL A   1      39.353  32.070  35.475  1.00  0.00     0.023 A 
ATOM     51  C   UNL A   1      39.783  33.396  35.632  1.00  0.00     0.031 A 
ATOM     52  C   UNL A   1      38.497  31.529  36.450  1.00  0.00     0.131 A 
ATOM     53  C   UNL A   1      39.374  34.129  36.756  1.00  0.00     0.055 A 
ATOM     54  C   UNL A   1      38.055  32.278  37.540  1.00  0.00     0.041 A 
ATOM     55  F   UNL A   1      38.053  30.266  36.340  1.00  0.00    -0.206 F 
ATOM     56  C   UNL A   1      38.502  33.585  37.703  1.00  0.00     0.022 A 
BRANCH  53  57
ATOM     57  S   UNL A   1      40.042  35.798  36.991  1.00  0.00     0.124 S 
ATOM     58  O   UNL A   1      39.352  36.228  38.201  1.00  0.00    -0.237 OA
ATOM     59  O   UNL A   1      41.471  35.537  37.125  1.00  0.00    -0.237 OA
ATOM     60  O   UNL A   1      39.653  36.495  35.767  1.00  0.00    -0.744 OA
ENDBRANCH  53  57
ENDBRANCH  26  50
BRANCH  38  61
ATOM     61  C   UNL A   1      44.524  27.527  34.489  1.00  0.00     0.023 A 
ATOM     62  C   UNL A   1      44.398  26.324  35.203  1.00  0.00     0.031 A 
ATOM     63  C   UNL A   1      45.690  28.290  34.663  1.00  0.00     0.131 A 
ATOM     64  C   UNL A   1      45.403  25.941  36.102  1.00  0.00     0.055 A 
ATOM     65  C   UNL A   1      46.710  27.880  35.521  1.00  0.00     0.041 A 
ATOM     66  F   UNL A   1      45.853  29.448  34.003  1.00  0.00    -0.206 F 
ATOM     67  C   UNL A   1      46.565  26.704  36.255  1.00  0.00     0.022 A 
BRANCH  64  68
ATOM     68  S   UNL A   1      45.139  24.467  37.124  1.00  0.00     0.124 S 
ATOM     69  O   UNL A   1      44.460  25.025  38.289  1.00  0.00    -0.237 OA
ATOM     70  O   UNL A   1      44.326  23.624  36.255  1.00  0.00    -0.237 OA
ATOM     71  O   UNL A   1      46.493  23.975  37.372  1.00  0.00    -0.744 OA
ENDBRANCH  64  68
ENDBRANCH  38  61
ENDBRANCH  12  13
ENDBRANCH   5   7
ENDBRANCH   2   3
ENDBRANCH   1   2
BRANCH   1  72
ATOM     72  C   UNL A   1      31.650  27.466  26.710  1.00  0.00     0.023 C 
BRANCH  72  73
ATOM     73  C   UNL A   1      31.239  26.183  26.003  1.00  0.00     0.116 C 
BRANCH  73  74
ATOM     74  N   UNL A   1      31.331  25.041  26.877  1.00  0.00    -0.356 N 
ATOM     75  C   UNL A   1      31.686  23.761  26.619  1.00  0.00     0.223 C 
ATOM     76  H   UNL A   1      31.099  25.222  27.815  1.00  0.00     0.163 HD
ATOM     77  O   UNL A   1      31.734  22.992  27.587  1.00  0.00    -0.275 OA
BRANCH  75  78
ATOM     78  C   UNL A   1      32.039  23.238  25.224  1.00  0.00     0.086 C 
BRANCH  78  79
ATOM     79  C   UNL A   1      33.109  24.062  24.451  1.00  0.00     0.052 C 
BRANCH  79  80
ATOM     80  C   UNL A   1      34.591  23.785  24.567  1.00  0.00    -0.011 A 
ATOM     81  C   UNL A   1      35.310  24.007  25.751  1.00  0.00     0.007 A 
ATOM     82  C   UNL A   1      35.287  23.217  23.488  1.00  0.00     0.126 A 
ATOM     83  C   UNL A   1      36.686  23.757  25.818  1.00  0.00     0.000 A 
ATOM     84  C   UNL A   1      36.653  22.942  23.555  1.00  0.00     0.039 A 
ATOM     85  F   UNL A   1      34.644  22.954  22.342  1.00  0.00    -0.207 F 
ATOM     86  C   UNL A   1      37.361  23.233  24.717  1.00  0.00     0.003 A 
ENDBRANCH  79  80
ENDBRANCH  78  79
BRANCH  78  87
ATOM     87  C   UNL A   1      32.041  21.697  24.983  1.00  0.00     0.006 C 
ATOM     88  C   UNL A   1      33.179  21.043  25.805  1.00  0.00     0.033 C 
ATOM     89  C   UNL A   1      32.181  21.206  23.532  1.00  0.00     0.033 C 
ATOM     90  C   UNL A   1      33.201  19.531  25.627  1.00  0.00     0.160 C 
ATOM     91  C   UNL A   1      32.239  19.681  23.476  1.00  0.00     0.160 C 
ATOM     92  O   UNL A   1      33.324  19.183  24.252  1.00  0.00    -0.381 OA
ENDBRANCH  78  87
ENDBRANCH  75  78
ENDBRANCH  73  74
ENDBRANCH  72  73
ENDBRANCH   1  72
TORSDOF 17
ENDMDL
