MODEL 1
REMARK VINA RESULT:     -13.0      0.000      0.000
REMARK SMILES Cc1ccc(C)c(-n2nc(C)c(/C=C(/C#N)C(=O)NCCCCNC(=O)c3ccc(-c4c5nc(c(-c6cc(S(=O)(=O)[O-])ccc6F)c6ccc([nH]6)c(-c6cc(S(=O)(=O)[O-])ccc6F)c6nc(c(-c7cc(S(=O)(=O)[O-])ccc7F)c7ccc4[nH]7)C=C6)C=C5)cc3)c2Cl)c1
REMARK SMILES IDX 22 1 21 2 20 3 19 4 17 5 18 6 14 8 13 9 12 10 8 11 9 12
REMARK SMILES IDX 90 13 10 14 91 15 11 16 7 17 1 18 2 19 3 20 92 21 4 22 5 23
REMARK SMILES IDX 6 24 15 25 16 26 23 27 24 28 25 29 26 31 27 32 28 33 89 34
REMARK SMILES IDX 29 35 88 36 30 37 31 38 32 39 82 40 33 41 87 42 81 43 83 44
REMARK SMILES IDX 34 45 86 46 80 47 79 48 35 50 67 51 47 52 66 53 48 54 51 55
REMARK SMILES IDX 65 56 84 57 49 58 50 59 64 61 85 62 52 63 36 64 37 65 45 66
REMARK SMILES IDX 38 67 44 68 46 69 43 70 39 71 40 72 41 73 42 74 68 75 69 76
REMARK SMILES IDX 77 77 70 78 76 79 78 80 75 81 71 82 72 83 73 84 74 85 53 86
REMARK SMILES IDX 54 87 62 88 55 89 61 90 63 91 60 92 56 93 57 94 58 95 59 96
REMARK H PARENT 19 7 24 30 83 49 51 60
REMARK Flexibility Score: inf
ROOT
ATOM      1  C   UNL A   1      33.420  28.404  26.525  1.00  0.00     0.023 C 
ENDROOT
BRANCH   1   2
ATOM      2  C   UNL A   1      31.963  28.903  26.600  1.00  0.00     0.023 C 
BRANCH   2   3
ATOM      3  C   UNL A   1      31.529  29.856  25.469  1.00  0.00     0.116 C 
BRANCH   3   4
ATOM      4  N   UNL A   1      32.416  29.721  24.324  1.00  0.00    -0.351 N 
ATOM      5  C   UNL A   1      32.409  28.887  23.244  1.00  0.00     0.261 C 
ATOM      6  O   UNL A   1      33.497  28.663  22.714  1.00  0.00    -0.268 OA
ATOM      7  H   UNL A   1      33.168  30.357  24.327  1.00  0.00     0.163 HD
BRANCH   5   8
ATOM      8  C   UNL A   1      31.147  28.267  22.715  1.00  0.00     0.117 C 
ATOM      9  C   UNL A   1      30.760  27.021  23.045  1.00  0.00     0.038 C 
BRANCH   9  10
ATOM     10  C   UNL A   1      31.418  26.048  23.888  1.00  0.00     0.036 A 
ATOM     11  N   UNL A   1      32.888  24.478  24.504  1.00  0.00    -0.221 N 
ATOM     12  N   UNL A   1      31.977  24.509  25.505  1.00  0.00    -0.171 NA
ATOM     13  C   UNL A   1      32.565  25.381  23.515  1.00  0.00     0.140 A 
ATOM     14  C   UNL A   1      31.142  25.510  25.187  1.00  0.00     0.069 A 
ATOM     15  Cl  UNL A   1      33.439  25.421  22.040  1.00  0.00    -0.061 Cl
ATOM     16  C   UNL A   1      30.116  25.868  26.206  1.00  0.00     0.069 C 
BRANCH  11  17
ATOM     17  C   UNL A   1      34.036  23.654  24.626  1.00  0.00     0.069 A 
ATOM     18  C   UNL A   1      37.548  24.048  26.061  1.00  0.00     0.044 C 
ATOM     19  C   UNL A   1      36.338  23.454  25.402  1.00  0.00    -0.049 A 
ATOM     20  C   UNL A   1      36.340  22.117  24.998  1.00  0.00     0.004 A 
ATOM     21  C   UNL A   1      35.186  24.221  25.203  1.00  0.00     0.032 A 
ATOM     22  C   UNL A   1      35.199  21.548  24.430  1.00  0.00     0.006 A 
ATOM     23  C   UNL A   1      34.025  22.298  24.242  1.00  0.00    -0.025 A 
ATOM     24  C   UNL A   1      32.863  21.602  23.586  1.00  0.00     0.047 C 
ENDBRANCH  11  17
ENDBRANCH   9  10
BRANCH   8  25
ATOM     25  C   UNL A   1      30.259  29.269  21.993  1.00  0.00     0.105 C 
ATOM     26  N   UNL A   1      29.524  30.099  21.394  1.00  0.00    -0.192 NA
ENDBRANCH   8  25
ENDBRANCH   5   8
ENDBRANCH   3   4
ENDBRANCH   2   3
ENDBRANCH   1   2
BRANCH   1  27
ATOM     27  C   UNL A   1      34.429  29.036  27.497  1.00  0.00     0.116 C 
BRANCH  27  28
ATOM     28  N   UNL A   1      34.728  30.453  27.224  1.00  0.00    -0.352 N 
ATOM     29  C   UNL A   1      35.659  31.348  27.740  1.00  0.00     0.251 C 
ATOM     30  H   UNL A   1      34.148  30.849  26.532  1.00  0.00     0.163 HD
ATOM     31  O   UNL A   1      35.494  32.556  27.559  1.00  0.00    -0.269 OA
BRANCH  29  32
ATOM     32  C   UNL A   1      36.855  30.877  28.472  1.00  0.00     0.039 A 
ATOM     33  C   UNL A   1      37.770  31.686  29.153  1.00  0.00     0.014 A 
ATOM     34  C   UNL A   1      37.220  29.572  28.256  1.00  0.00     0.014 A 
ATOM     35  C   UNL A   1      39.031  31.149  29.486  1.00  0.00     0.010 A 
ATOM     36  C   UNL A   1      38.173  28.978  29.015  1.00  0.00     0.010 A 
ATOM     37  C   UNL A   1      39.250  29.783  29.310  1.00  0.00    -0.014 A 
BRANCH  37  38
ATOM     38  C   UNL A   1      40.482  29.039  29.525  1.00  0.00     0.031 A 
ATOM     39  C   UNL A   1      40.769  28.742  30.948  1.00  0.00     0.074 A 
ATOM     40  C   UNL A   1      41.020  28.241  28.575  1.00  0.00     0.049 A 
ATOM     41  N   UNL A   1      41.516  29.415  31.759  1.00  0.00    -0.248 NA
ATOM     42  C   UNL A   1      39.915  27.739  31.619  1.00  0.00     0.031 C 
ATOM     43  C   UNL A   1      40.542  27.976  27.213  1.00  0.00     0.029 A 
ATOM     44  N   UNL A   1      42.072  27.386  28.695  1.00  0.00    -0.354 N 
ATOM     45  C   UNL A   1      41.410  28.744  32.972  1.00  0.00     0.074 A 
ATOM     46  C   UNL A   1      40.166  28.040  32.892  1.00  0.00     0.031 C 
ATOM     47  C   UNL A   1      41.195  26.901  26.709  1.00  0.00     0.029 A 
ATOM     48  C   UNL A   1      42.215  26.473  27.656  1.00  0.00     0.049 A 
ATOM     49  H   UNL A   1      42.688  27.413  29.462  1.00  0.00     0.167 HD
ATOM     50  C   UNL A   1      42.489  28.516  33.777  1.00  0.00     0.034 A 
ATOM     51  C   UNL A   1      43.075  25.416  27.620  1.00  0.00     0.034 A 
ATOM     52  C   UNL A   1      43.654  29.217  33.255  1.00  0.00     0.049 A 
ATOM     53  C   UNL A   1      44.114  25.672  28.659  1.00  0.00     0.074 A 
ATOM     54  C   UNL A   1      43.927  30.532  32.922  1.00  0.00     0.029 A 
ATOM     55  N   UNL A   1      44.614  28.469  32.598  1.00  0.00    -0.354 N 
ATOM     56  N   UNL A   1      44.955  26.671  28.612  1.00  0.00    -0.248 NA
ATOM     57  C   UNL A   1      43.909  25.108  29.987  1.00  0.00     0.031 C 
ATOM     58  C   UNL A   1      44.685  30.458  31.714  1.00  0.00     0.029 A 
ATOM     59  C   UNL A   1      44.919  29.112  31.423  1.00  0.00     0.049 A 
ATOM     60  H   UNL A   1      45.010  27.625  32.915  1.00  0.00     0.167 HD
ATOM     61  C   UNL A   1      45.053  27.129  29.920  1.00  0.00     0.074 A 
ATOM     62  C   UNL A   1      44.472  26.064  30.734  1.00  0.00     0.031 C 
ATOM     63  C   UNL A   1      45.316  28.442  30.196  1.00  0.00     0.034 A 
BRANCH  50  64
ATOM     64  C   UNL A   1      42.634  27.364  34.765  1.00  0.00     0.023 A 
ATOM     65  C   UNL A   1      43.477  26.309  34.366  1.00  0.00     0.031 A 
ATOM     66  C   UNL A   1      41.873  27.105  35.929  1.00  0.00     0.131 A 
ATOM     67  C   UNL A   1      43.407  25.046  34.974  1.00  0.00     0.055 A 
ATOM     68  C   UNL A   1      41.843  25.859  36.565  1.00  0.00     0.041 A 
ATOM     69  F   UNL A   1      41.083  28.004  36.516  1.00  0.00    -0.206 F 
ATOM     70  C   UNL A   1      42.579  24.804  36.061  1.00  0.00     0.022 A 
BRANCH  67  71
ATOM     71  S   UNL A   1      44.289  23.681  34.184  1.00  0.00     0.124 S 
ATOM     72  O   UNL A   1      45.449  24.372  33.630  1.00  0.00    -0.237 OA
ATOM     73  O   UNL A   1      44.541  22.797  35.317  1.00  0.00    -0.237 OA
ATOM     74  O   UNL A   1      43.328  23.183  33.203  1.00  0.00    -0.744 OA
ENDBRANCH  67  71
ENDBRANCH  50  64
BRANCH  51  75
ATOM     75  C   UNL A   1      42.879  24.091  26.962  1.00  0.00     0.023 A 
ATOM     76  C   UNL A   1      43.783  23.554  26.016  1.00  0.00     0.031 A 
ATOM     77  C   UNL A   1      41.883  23.213  27.443  1.00  0.00     0.131 A 
ATOM     78  C   UNL A   1      43.661  22.206  25.592  1.00  0.00     0.055 A 
ATOM     79  C   UNL A   1      41.772  21.887  27.018  1.00  0.00     0.041 A 
ATOM     80  F   UNL A   1      41.024  23.592  28.403  1.00  0.00    -0.206 F 
ATOM     81  C   UNL A   1      42.664  21.373  26.095  1.00  0.00     0.022 A 
BRANCH  78  82
ATOM     82  S   UNL A   1      44.861  21.481  24.425  1.00  0.00     0.124 S 
ATOM     83  O   UNL A   1      44.428  20.090  24.361  1.00  0.00    -0.237 OA
ATOM     84  O   UNL A   1      44.654  22.286  23.227  1.00  0.00    -0.237 OA
ATOM     85  O   UNL A   1      46.151  21.690  25.086  1.00  0.00    -0.744 OA
ENDBRANCH  78  82
ENDBRANCH  51  75
BRANCH  63  86
ATOM     86  C   UNL A   1      45.851  29.328  29.089  1.00  0.00     0.023 A 
ATOM     87  C   UNL A   1      45.087  30.269  28.364  1.00  0.00     0.031 A 
ATOM     88  C   UNL A   1      47.242  29.314  28.876  1.00  0.00     0.131 A 
ATOM     89  C   UNL A   1      45.724  31.152  27.469  1.00  0.00     0.055 A 
ATOM     90  C   UNL A   1      47.870  30.201  28.005  1.00  0.00     0.041 A 
ATOM     91  F   UNL A   1      48.025  28.460  29.556  1.00  0.00    -0.206 F 
ATOM     92  C   UNL A   1      47.113  31.123  27.295  1.00  0.00     0.022 A 
BRANCH  89  93
ATOM     93  S   UNL A   1      44.755  32.364  26.515  1.00  0.00     0.124 S 
ATOM     94  O   UNL A   1      45.745  32.968  25.631  1.00  0.00    -0.237 OA
ATOM     95  O   UNL A   1      43.749  31.524  25.870  1.00  0.00    -0.237 OA
ATOM     96  O   UNL A   1      44.227  33.264  27.543  1.00  0.00    -0.744 OA
ENDBRANCH  89  93
ENDBRANCH  63  86
ENDBRANCH  37  38
ENDBRANCH  29  32
ENDBRANCH  27  28
ENDBRANCH   1  27
TORSDOF 17
ENDMDL
MODEL 2
REMARK VINA RESULT:     -13.0      2.077      6.969
REMARK SMILES Cc1ccc(C)c(-n2nc(C)c(/C=C(/C#N)C(=O)NCCCCNC(=O)c3ccc(-c4c5nc(c(-c6cc(S(=O)(=O)[O-])ccc6F)c6ccc([nH]6)c(-c6cc(S(=O)(=O)[O-])ccc6F)c6nc(c(-c7cc(S(=O)(=O)[O-])ccc7F)c7ccc4[nH]7)C=C6)C=C5)cc3)c2Cl)c1
REMARK SMILES IDX 22 1 21 2 20 3 19 4 17 5 18 6 14 8 13 9 12 10 8 11 9 12
REMARK SMILES IDX 90 13 10 14 91 15 11 16 7 17 1 18 2 19 3 20 92 21 4 22 5 23
REMARK SMILES IDX 6 24 15 25 16 26 23 27 24 28 25 29 26 31 27 32 28 33 89 34
REMARK SMILES IDX 29 35 88 36 30 37 31 38 32 39 82 40 33 41 87 42 81 43 83 44
REMARK SMILES IDX 34 45 86 46 80 47 79 48 35 50 67 51 47 52 66 53 48 54 51 55
REMARK SMILES IDX 65 56 84 57 49 58 50 59 64 61 85 62 52 63 36 64 37 65 45 66
REMARK SMILES IDX 38 67 44 68 46 69 43 70 39 71 40 72 41 73 42 74 68 75 69 76
REMARK SMILES IDX 77 77 70 78 76 79 78 80 75 81 71 82 72 83 73 84 74 85 53 86
REMARK SMILES IDX 54 87 62 88 55 89 61 90 63 91 60 92 56 93 57 94 58 95 59 96
REMARK H PARENT 19 7 24 30 83 49 51 60
REMARK Flexibility Score: inf
ROOT
ATOM      1  C   UNL A   1      33.465  28.586  27.238  1.00  0.00     0.023 C 
ENDROOT
BRANCH   1   2
ATOM      2  C   UNL A   1      32.539  29.804  27.050  1.00  0.00     0.023 C 
BRANCH   2   3
ATOM      3  C   UNL A   1      31.715  29.816  25.747  1.00  0.00     0.116 C 
BRANCH   3   4
ATOM      4  N   UNL A   1      32.596  29.790  24.589  1.00  0.00    -0.351 N 
ATOM      5  C   UNL A   1      32.650  28.985  23.488  1.00  0.00     0.261 C 
ATOM      6  O   UNL A   1      33.747  28.873  22.942  1.00  0.00    -0.268 OA
ATOM      7  H   UNL A   1      33.288  30.490  24.601  1.00  0.00     0.163 HD
BRANCH   5   8
ATOM      8  C   UNL A   1      31.442  28.267  22.957  1.00  0.00     0.117 C 
ATOM      9  C   UNL A   1      31.142  27.002  23.305  1.00  0.00     0.038 C 
BRANCH   9  10
ATOM     10  C   UNL A   1      31.858  26.094  24.171  1.00  0.00     0.036 A 
ATOM     11  N   UNL A   1      33.346  24.543  24.793  1.00  0.00    -0.221 N 
ATOM     12  N   UNL A   1      32.539  24.697  25.869  1.00  0.00    -0.171 NA
ATOM     13  C   UNL A   1      32.947  25.358  23.756  1.00  0.00     0.140 A 
ATOM     14  C   UNL A   1      31.699  25.690  25.536  1.00  0.00     0.069 A 
ATOM     15  Cl  UNL A   1      33.672  25.230  22.208  1.00  0.00    -0.061 Cl
ATOM     16  C   UNL A   1      30.787  26.175  26.610  1.00  0.00     0.069 C 
BRANCH  11  17
ATOM     17  C   UNL A   1      34.481  23.697  24.884  1.00  0.00     0.069 A 
ATOM     18  C   UNL A   1      38.050  24.040  26.187  1.00  0.00     0.044 C 
ATOM     19  C   UNL A   1      36.805  23.462  25.580  1.00  0.00    -0.049 A 
ATOM     20  C   UNL A   1      36.767  22.121  25.192  1.00  0.00     0.004 A 
ATOM     21  C   UNL A   1      35.662  24.249  25.412  1.00  0.00     0.032 A 
ATOM     22  C   UNL A   1      35.596  21.567  24.673  1.00  0.00     0.006 A 
ATOM     23  C   UNL A   1      34.430  22.338  24.517  1.00  0.00    -0.025 A 
ATOM     24  C   UNL A   1      33.232  21.657  23.912  1.00  0.00     0.047 C 
ENDBRANCH  11  17
ENDBRANCH   9  10
BRANCH   8  25
ATOM     25  C   UNL A   1      30.494  29.191  22.208  1.00  0.00     0.105 C 
ATOM     26  N   UNL A   1      29.707  29.956  21.587  1.00  0.00    -0.192 NA
ENDBRANCH   8  25
ENDBRANCH   5   8
ENDBRANCH   3   4
ENDBRANCH   2   3
ENDBRANCH   1   2
BRANCH   1  27
ATOM     27  C   UNL A   1      34.947  28.770  26.876  1.00  0.00     0.116 C 
BRANCH  27  28
ATOM     28  N   UNL A   1      35.527  30.050  27.321  1.00  0.00    -0.352 N 
ATOM     29  C   UNL A   1      36.666  30.380  28.046  1.00  0.00     0.251 C 
ATOM     30  H   UNL A   1      34.996  30.834  27.048  1.00  0.00     0.163 HD
ATOM     31  O   UNL A   1      36.755  31.504  28.544  1.00  0.00    -0.269 OA
BRANCH  29  32
ATOM     32  C   UNL A   1      37.783  29.423  28.203  1.00  0.00     0.039 A 
ATOM     33  C   UNL A   1      37.950  28.525  29.262  1.00  0.00     0.014 A 
ATOM     34  C   UNL A   1      38.857  29.606  27.369  1.00  0.00     0.014 A 
ATOM     35  C   UNL A   1      39.219  27.945  29.464  1.00  0.00     0.010 A 
ATOM     36  C   UNL A   1      39.844  28.681  27.287  1.00  0.00     0.010 A 
ATOM     37  C   UNL A   1      40.204  28.124  28.493  1.00  0.00    -0.014 A 
BRANCH  37  38
ATOM     38  C   UNL A   1      41.587  27.673  28.528  1.00  0.00     0.031 A 
ATOM     39  C   UNL A   1      41.847  26.455  27.725  1.00  0.00     0.074 A 
ATOM     40  C   UNL A   1      42.616  28.515  28.782  1.00  0.00     0.049 A 
ATOM     41  N   UNL A   1      41.868  25.230  28.135  1.00  0.00    -0.248 NA
ATOM     42  C   UNL A   1      41.812  26.589  26.254  1.00  0.00     0.031 C 
ATOM     43  C   UNL A   1      42.582  29.951  29.077  1.00  0.00     0.029 A 
ATOM     44  N   UNL A   1      43.950  28.257  28.698  1.00  0.00    -0.354 N 
ATOM     45  C   UNL A   1      42.108  24.480  26.989  1.00  0.00     0.074 A 
ATOM     46  C   UNL A   1      41.664  25.311  25.911  1.00  0.00     0.031 C 
ATOM     47  C   UNL A   1      43.832  30.462  28.969  1.00  0.00     0.029 A 
ATOM     48  C   UNL A   1      44.772  29.378  28.716  1.00  0.00     0.049 A 
ATOM     49  H   UNL A   1      44.307  27.342  28.632  1.00  0.00     0.167 HD
ATOM     50  C   UNL A   1      42.973  23.424  26.976  1.00  0.00     0.034 A 
ATOM     51  C   UNL A   1      46.114  29.401  28.481  1.00  0.00     0.034 A 
ATOM     52  C   UNL A   1      43.423  23.135  28.329  1.00  0.00     0.049 A 
ATOM     53  C   UNL A   1      46.603  28.003  28.644  1.00  0.00     0.074 A 
ATOM     54  C   UNL A   1      42.786  22.856  29.526  1.00  0.00     0.029 A 
ATOM     55  N   UNL A   1      44.700  23.534  28.682  1.00  0.00    -0.354 N 
ATOM     56  N   UNL A   1      46.567  27.350  29.775  1.00  0.00    -0.248 NA
ATOM     57  C   UNL A   1      46.687  27.162  27.456  1.00  0.00     0.031 C 
ATOM     58  C   UNL A   1      43.524  23.576  30.514  1.00  0.00     0.029 A 
ATOM     59  C   UNL A   1      44.621  24.177  29.893  1.00  0.00     0.049 A 
ATOM     60  H   UNL A   1      45.520  23.385  28.158  1.00  0.00     0.167 HD
ATOM     61  C   UNL A   1      46.197  26.054  29.439  1.00  0.00     0.074 A 
ATOM     62  C   UNL A   1      46.389  25.973  27.993  1.00  0.00     0.031 C 
ATOM     63  C   UNL A   1      45.490  25.267  30.305  1.00  0.00     0.034 A 
BRANCH  50  64
ATOM     64  C   UNL A   1      43.742  22.920  25.759  1.00  0.00     0.023 A 
ATOM     65  C   UNL A   1      43.708  21.530  25.539  1.00  0.00     0.031 A 
ATOM     66  C   UNL A   1      44.661  23.625  24.948  1.00  0.00     0.131 A 
ATOM     67  C   UNL A   1      44.652  20.895  24.716  1.00  0.00     0.055 A 
ATOM     68  C   UNL A   1      45.569  22.994  24.090  1.00  0.00     0.041 A 
ATOM     69  F   UNL A   1      44.782  24.953  24.943  1.00  0.00    -0.206 F 
ATOM     70  C   UNL A   1      45.599  21.617  24.003  1.00  0.00     0.022 A 
BRANCH  67  71
ATOM     71  S   UNL A   1      44.724  19.091  24.753  1.00  0.00     0.124 S 
ATOM     72  O   UNL A   1      44.829  18.779  23.331  1.00  0.00    -0.237 OA
ATOM     73  O   UNL A   1      45.919  18.859  25.557  1.00  0.00    -0.237 OA
ATOM     74  O   UNL A   1      43.461  18.717  25.385  1.00  0.00    -0.744 OA
ENDBRANCH  67  71
ENDBRANCH  50  64
BRANCH  51  75
ATOM     75  C   UNL A   1      46.919  30.485  27.843  1.00  0.00     0.023 A 
ATOM     76  C   UNL A   1      46.341  31.579  27.159  1.00  0.00     0.031 A 
ATOM     77  C   UNL A   1      48.304  30.573  28.107  1.00  0.00     0.131 A 
ATOM     78  C   UNL A   1      47.140  32.684  26.767  1.00  0.00     0.055 A 
ATOM     79  C   UNL A   1      49.081  31.667  27.718  1.00  0.00     0.041 A 
ATOM     80  F   UNL A   1      48.938  29.631  28.824  1.00  0.00    -0.206 F 
ATOM     81  C   UNL A   1      48.504  32.731  27.051  1.00  0.00     0.022 A 
BRANCH  78  82
ATOM     82  S   UNL A   1      46.396  34.131  25.944  1.00  0.00     0.124 S 
ATOM     83  O   UNL A   1      47.505  34.634  25.141  1.00  0.00    -0.237 OA
ATOM     84  O   UNL A   1      45.281  33.535  25.217  1.00  0.00    -0.237 OA
ATOM     85  O   UNL A   1      46.007  34.996  27.059  1.00  0.00    -0.744 OA
ENDBRANCH  78  82
ENDBRANCH  51  75
BRANCH  63  86
ATOM     86  C   UNL A   1      45.413  25.673  31.763  1.00  0.00     0.023 A 
ATOM     87  C   UNL A   1      46.415  25.428  32.728  1.00  0.00     0.031 A 
ATOM     88  C   UNL A   1      44.327  26.484  32.142  1.00  0.00     0.131 A 
ATOM     89  C   UNL A   1      46.306  25.993  34.014  1.00  0.00     0.055 A 
ATOM     90  C   UNL A   1      44.233  27.056  33.409  1.00  0.00     0.041 A 
ATOM     91  F   UNL A   1      43.355  26.776  31.261  1.00  0.00    -0.206 F 
ATOM     92  C   UNL A   1      45.222  26.811  34.352  1.00  0.00     0.022 A 
BRANCH  89  93
ATOM     93  S   UNL A   1      47.583  25.679  35.276  1.00  0.00     0.124 S 
ATOM     94  O   UNL A   1      48.810  26.133  34.635  1.00  0.00    -0.237 OA
ATOM     95  O   UNL A   1      47.114  26.481  36.403  1.00  0.00    -0.237 OA
ATOM     96  O   UNL A   1      47.504  24.231  35.486  1.00  0.00    -0.744 OA
ENDBRANCH  89  93
ENDBRANCH  63  86
ENDBRANCH  37  38
ENDBRANCH  29  32
ENDBRANCH  27  28
ENDBRANCH   1  27
TORSDOF 17
ENDMDL
MODEL 3
REMARK VINA RESULT:     -12.6      1.366      2.079
REMARK SMILES Cc1ccc(C)c(-n2nc(C)c(/C=C(/C#N)C(=O)NCCCCNC(=O)c3ccc(-c4c5nc(c(-c6cc(S(=O)(=O)[O-])ccc6F)c6ccc([nH]6)c(-c6cc(S(=O)(=O)[O-])ccc6F)c6nc(c(-c7cc(S(=O)(=O)[O-])ccc7F)c7ccc4[nH]7)C=C6)C=C5)cc3)c2Cl)c1
REMARK SMILES IDX 22 1 21 2 20 3 19 4 17 5 18 6 14 8 13 9 12 10 8 11 9 12
REMARK SMILES IDX 90 13 10 14 91 15 11 16 7 17 1 18 2 19 3 20 92 21 4 22 5 23
REMARK SMILES IDX 6 24 15 25 16 26 23 27 24 28 25 29 26 31 27 32 28 33 89 34
REMARK SMILES IDX 29 35 88 36 30 37 31 38 32 39 82 40 33 41 87 42 81 43 83 44
REMARK SMILES IDX 34 45 86 46 80 47 79 48 35 50 67 51 47 52 66 53 48 54 51 55
REMARK SMILES IDX 65 56 84 57 49 58 50 59 64 61 85 62 52 63 36 64 37 65 45 66
REMARK SMILES IDX 38 67 44 68 46 69 43 70 39 71 40 72 41 73 42 74 68 75 69 76
REMARK SMILES IDX 77 77 70 78 76 79 78 80 75 81 71 82 72 83 73 84 74 85 53 86
REMARK SMILES IDX 54 87 62 88 55 89 61 90 63 91 60 92 56 93 57 94 58 95 59 96
REMARK H PARENT 19 7 24 30 83 49 51 60
REMARK Flexibility Score: inf
ROOT
ATOM      1  C   UNL A   1      33.342  29.048  26.407  1.00  0.00     0.023 C 
ENDROOT
BRANCH   1   2
ATOM      2  C   UNL A   1      33.866  28.458  25.082  1.00  0.00     0.023 C 
BRANCH   2   3
ATOM      3  C   UNL A   1      33.612  26.951  24.880  1.00  0.00     0.116 C 
BRANCH   3   4
ATOM      4  N   UNL A   1      32.600  26.478  25.813  1.00  0.00    -0.351 N 
ATOM      5  C   UNL A   1      31.267  26.217  25.674  1.00  0.00     0.261 C 
ATOM      6  O   UNL A   1      30.581  26.305  26.692  1.00  0.00    -0.268 OA
ATOM      7  H   UNL A   1      32.942  26.314  26.721  1.00  0.00     0.163 HD
BRANCH   5   8
ATOM      8  C   UNL A   1      30.656  25.838  24.356  1.00  0.00     0.117 C 
ATOM      9  C   UNL A   1      30.597  24.565  23.924  1.00  0.00     0.038 C 
BRANCH   9  10
ATOM     10  C   UNL A   1      31.091  23.360  24.551  1.00  0.00     0.036 A 
ATOM     11  N   UNL A   1      32.280  21.483  24.812  1.00  0.00    -0.221 N 
ATOM     12  N   UNL A   1      31.400  21.479  25.841  1.00  0.00    -0.171 NA
ATOM     13  C   UNL A   1      32.103  22.593  24.015  1.00  0.00     0.140 A 
ATOM     14  C   UNL A   1      30.743  22.646  25.743  1.00  0.00     0.069 A 
ATOM     15  Cl  UNL A   1      32.953  22.758  22.536  1.00  0.00    -0.061 Cl
ATOM     16  C   UNL A   1      29.805  22.974  26.852  1.00  0.00     0.069 C 
BRANCH  11  17
ATOM     17  C   UNL A   1      33.272  20.472  24.736  1.00  0.00     0.069 A 
ATOM     18  C   UNL A   1      33.405  16.855  23.532  1.00  0.00     0.044 C 
ATOM     19  C   UNL A   1      33.814  18.183  24.096  1.00  0.00    -0.049 A 
ATOM     20  C   UNL A   1      35.143  18.415  24.458  1.00  0.00     0.004 A 
ATOM     21  C   UNL A   1      32.880  19.213  24.248  1.00  0.00     0.032 A 
ATOM     22  C   UNL A   1      35.539  19.666  24.937  1.00  0.00     0.006 A 
ATOM     23  C   UNL A   1      34.617  20.719  25.076  1.00  0.00    -0.025 A 
ATOM     24  C   UNL A   1      35.136  22.015  25.637  1.00  0.00     0.047 C 
ENDBRANCH  11  17
ENDBRANCH   9  10
BRANCH   8  25
ATOM     25  C   UNL A   1      29.908  26.992  23.704  1.00  0.00     0.105 C 
ATOM     26  N   UNL A   1      29.288  27.947  23.164  1.00  0.00    -0.192 NA
ENDBRANCH   8  25
ENDBRANCH   5   8
ENDBRANCH   3   4
ENDBRANCH   2   3
ENDBRANCH   1   2
BRANCH   1  27
ATOM     27  C   UNL A   1      34.388  29.557  27.410  1.00  0.00     0.116 C 
BRANCH  27  28
ATOM     28  N   UNL A   1      34.805  30.954  27.196  1.00  0.00    -0.352 N 
ATOM     29  C   UNL A   1      35.787  31.755  27.769  1.00  0.00     0.251 C 
ATOM     30  H   UNL A   1      34.278  31.418  26.504  1.00  0.00     0.163 HD
ATOM     31  O   UNL A   1      35.723  32.977  27.626  1.00  0.00    -0.269 OA
BRANCH  29  32
ATOM     32  C   UNL A   1      36.922  31.167  28.515  1.00  0.00     0.039 A 
ATOM     33  C   UNL A   1      37.747  31.844  29.418  1.00  0.00     0.014 A 
ATOM     34  C   UNL A   1      37.339  29.927  28.101  1.00  0.00     0.014 A 
ATOM     35  C   UNL A   1      38.985  31.265  29.768  1.00  0.00     0.010 A 
ATOM     36  C   UNL A   1      38.231  29.211  28.827  1.00  0.00     0.010 A 
ATOM     37  C   UNL A   1      39.254  29.956  29.367  1.00  0.00    -0.014 A 
BRANCH  37  38
ATOM     38  C   UNL A   1      40.479  29.196  29.561  1.00  0.00     0.031 A 
ATOM     39  C   UNL A   1      40.770  28.867  30.976  1.00  0.00     0.074 A 
ATOM     40  C   UNL A   1      41.005  28.411  28.592  1.00  0.00     0.049 A 
ATOM     41  N   UNL A   1      41.528  29.515  31.797  1.00  0.00    -0.248 NA
ATOM     42  C   UNL A   1      39.909  27.859  31.632  1.00  0.00     0.031 C 
ATOM     43  C   UNL A   1      40.518  28.179  27.228  1.00  0.00     0.029 A 
ATOM     44  N   UNL A   1      42.049  27.543  28.691  1.00  0.00    -0.354 N 
ATOM     45  C   UNL A   1      41.421  28.822  32.997  1.00  0.00     0.074 A 
ATOM     46  C   UNL A   1      40.169  28.132  32.909  1.00  0.00     0.031 C 
ATOM     47  C   UNL A   1      41.158  27.108  26.699  1.00  0.00     0.029 A 
ATOM     48  C   UNL A   1      42.178  26.650  27.633  1.00  0.00     0.049 A 
ATOM     49  H   UNL A   1      42.669  27.549  29.455  1.00  0.00     0.167 HD
ATOM     50  C   UNL A   1      42.501  28.567  33.792  1.00  0.00     0.034 A 
ATOM     51  C   UNL A   1      43.027  25.586  27.571  1.00  0.00     0.034 A 
ATOM     52  C   UNL A   1      43.670  29.266  33.278  1.00  0.00     0.049 A 
ATOM     53  C   UNL A   1      44.073  25.809  28.610  1.00  0.00     0.074 A 
ATOM     54  C   UNL A   1      43.956  30.584  32.971  1.00  0.00     0.029 A 
ATOM     55  N   UNL A   1      44.620  28.521  32.602  1.00  0.00    -0.354 N 
ATOM     56  N   UNL A   1      44.924  26.800  28.579  1.00  0.00    -0.248 NA
ATOM     57  C   UNL A   1      43.868  25.221  29.928  1.00  0.00     0.031 C 
ATOM     58  C   UNL A   1      44.708  30.527  31.758  1.00  0.00     0.029 A 
ATOM     59  C   UNL A   1      44.926  29.185  31.439  1.00  0.00     0.049 A 
ATOM     60  H   UNL A   1      45.008  27.667  32.900  1.00  0.00     0.167 HD
ATOM     61  C   UNL A   1      45.032  27.231  29.895  1.00  0.00     0.074 A 
ATOM     62  C   UNL A   1      44.444  26.156  30.691  1.00  0.00     0.031 C 
ATOM     63  C   UNL A   1      45.311  28.535  30.197  1.00  0.00     0.034 A 
BRANCH  50  64
ATOM     64  C   UNL A   1      42.639  27.393  34.756  1.00  0.00     0.023 A 
ATOM     65  C   UNL A   1      43.493  26.352  34.345  1.00  0.00     0.031 A 
ATOM     66  C   UNL A   1      41.863  27.104  35.903  1.00  0.00     0.131 A 
ATOM     67  C   UNL A   1      43.422  25.075  34.923  1.00  0.00     0.055 A 
ATOM     68  C   UNL A   1      41.831  25.843  36.510  1.00  0.00     0.041 A 
ATOM     69  F   UNL A   1      41.059  27.985  36.498  1.00  0.00    -0.206 F 
ATOM     70  C   UNL A   1      42.580  24.805  35.994  1.00  0.00     0.022 A 
BRANCH  67  71
ATOM     71  S   UNL A   1      44.323  23.733  34.117  1.00  0.00     0.124 S 
ATOM     72  O   UNL A   1      44.534  22.818  35.234  1.00  0.00    -0.237 OA
ATOM     73  O   UNL A   1      43.369  23.305  33.100  1.00  0.00    -0.237 OA
ATOM     74  O   UNL A   1      45.524  24.392  33.611  1.00  0.00    -0.744 OA
ENDBRANCH  67  71
ENDBRANCH  50  64
BRANCH  51  75
ATOM     75  C   UNL A   1      42.814  24.276  26.887  1.00  0.00     0.023 A 
ATOM     76  C   UNL A   1      43.798  23.650  26.088  1.00  0.00     0.031 A 
ATOM     77  C   UNL A   1      41.681  23.496  27.209  1.00  0.00     0.131 A 
ATOM     78  C   UNL A   1      43.621  22.314  25.646  1.00  0.00     0.055 A 
ATOM     79  C   UNL A   1      41.517  22.180  26.769  1.00  0.00     0.041 A 
ATOM     80  F   UNL A   1      40.725  23.961  28.030  1.00  0.00    -0.206 F 
ATOM     81  C   UNL A   1      42.488  21.579  25.990  1.00  0.00     0.022 A 
BRANCH  78  82
ATOM     82  S   UNL A   1      44.913  21.472  24.672  1.00  0.00     0.124 S 
ATOM     83  O   UNL A   1      46.134  22.077  25.192  1.00  0.00    -0.237 OA
ATOM     84  O   UNL A   1      44.686  20.070  25.002  1.00  0.00    -0.237 OA
ATOM     85  O   UNL A   1      44.591  21.834  23.291  1.00  0.00    -0.744 OA
ENDBRANCH  78  82
ENDBRANCH  51  75
BRANCH  63  86
ATOM     86  C   UNL A   1      45.849  29.439  29.105  1.00  0.00     0.023 A 
ATOM     87  C   UNL A   1      45.081  30.368  28.369  1.00  0.00     0.031 A 
ATOM     88  C   UNL A   1      47.244  29.453  28.920  1.00  0.00     0.131 A 
ATOM     89  C   UNL A   1      45.718  31.268  27.492  1.00  0.00     0.055 A 
ATOM     90  C   UNL A   1      47.872  30.357  28.066  1.00  0.00     0.041 A 
ATOM     91  F   UNL A   1      48.031  28.611  29.612  1.00  0.00    -0.206 F 
ATOM     92  C   UNL A   1      47.111  31.268  27.346  1.00  0.00     0.022 A 
BRANCH  89  93
ATOM     93  S   UNL A   1      44.744  32.466  26.525  1.00  0.00     0.124 S 
ATOM     94  O   UNL A   1      45.744  33.114  25.684  1.00  0.00    -0.237 OA
ATOM     95  O   UNL A   1      43.786  31.607  25.834  1.00  0.00    -0.237 OA
ATOM     96  O   UNL A   1      44.154  33.331  27.549  1.00  0.00    -0.744 OA
ENDBRANCH  89  93
ENDBRANCH  63  86
ENDBRANCH  37  38
ENDBRANCH  29  32
ENDBRANCH  27  28
ENDBRANCH   1  27
TORSDOF 17
ENDMDL
