MODEL 1
REMARK VINA RESULT:     -11.4      0.000      0.000
REMARK SMILES Cc1c(CC(=O)N[C@H](CO)C(=O)NCCCCNC(=O)c2ccc(-c3c4nc(c(-c5cc(S(=O)(=O)[O-])ccc5F)c5ccc([nH]5)c(-c5cc(S(=O)(=O)[O-])ccc5F)c5nc(c(-c6cc(S(=O)(=O)[O-])ccc6F)c6ccc3[nH]6)C=C5)C=C4)cc2)cc(-c2ccc(S(C)(=O)=O)cc2)n1-c1cccc(F)c1
REMARK SMILES IDX 14 1 13 2 11 3 12 4 8 6 7 7 5 8 6 9 4 11 3 12 1 13 2 14
REMARK SMILES IDX 96 15 84 16 85 17 97 18 98 19 103 20 99 21 101 22 100 23
REMARK SMILES IDX 102 24 86 25 87 26 95 27 88 28 94 29 89 30 90 31 91 32 92 33
REMARK SMILES IDX 93 34 9 35 10 36 15 38 16 39 17 40 18 41 19 42 20 44 21 45
REMARK SMILES IDX 22 46 83 47 23 48 82 49 24 50 25 51 26 52 76 53 27 54 81 55
REMARK SMILES IDX 75 56 77 57 28 58 80 59 74 60 73 61 29 63 61 64 41 65 60 66
REMARK SMILES IDX 42 67 45 68 59 69 78 70 43 71 44 72 58 74 79 75 46 76 30 77
REMARK SMILES IDX 31 78 39 79 32 80 38 81 40 82 37 83 33 84 34 85 35 86 36 87
REMARK SMILES IDX 62 88 63 89 71 90 64 91 70 92 72 93 69 94 65 95 66 96 67 97
REMARK SMILES IDX 68 98 47 99 48 100 56 101 49 102 55 103 57 104 54 105 50 106
REMARK SMILES IDX 51 107 52 108 53 109
REMARK H PARENT 13 5 7 10 10 37 18 43 77 62 45 73
REMARK Flexibility Score: inf
ROOT
ATOM      1  C   UNL A   1      37.056  32.282  32.682  1.00  0.00     0.116 C 
ENDROOT
BRANCH   1   2
ATOM      2  N   UNL A   1      35.623  32.237  32.893  1.00  0.00    -0.354 N 
ATOM      3  C   UNL A   1      34.584  32.593  32.091  1.00  0.00     0.244 C 
ATOM      4  O   UNL A   1      33.584  33.036  32.666  1.00  0.00    -0.273 OA
ATOM      5  H   UNL A   1      35.353  31.886  33.772  1.00  0.00     0.163 HD
BRANCH   3   6
ATOM      6  C   UNL A   1      34.701  32.637  30.560  1.00  0.00     0.197 C 
BRANCH   6   7
ATOM      7  N   UNL A   1      35.495  31.531  30.025  1.00  0.00    -0.342 N 
ATOM      8  C   UNL A   1      35.360  30.824  28.870  1.00  0.00     0.225 C 
ATOM      9  O   UNL A   1      36.095  29.841  28.735  1.00  0.00    -0.275 OA
ATOM     10  H   UNL A   1      36.249  31.251  30.593  1.00  0.00     0.164 HD
BRANCH   8  11
ATOM     11  C   UNL A   1      34.474  31.283  27.718  1.00  0.00     0.137 C 
BRANCH  11  12
ATOM     12  C   UNL A   1      33.765  30.222  26.935  1.00  0.00    -0.017 A 
ATOM     13  C   UNL A   1      31.496  31.373  26.445  1.00  0.00     0.065 C 
ATOM     14  C   UNL A   1      32.511  30.277  26.336  1.00  0.00     0.024 A 
ATOM     15  N   UNL A   1      32.291  29.069  25.669  1.00  0.00    -0.313 N 
ATOM     16  C   UNL A   1      34.260  28.909  26.725  1.00  0.00     0.033 A 
ATOM     17  C   UNL A   1      33.381  28.224  25.910  1.00  0.00     0.053 A 
BRANCH  15  18
ATOM     18  C   UNL A   1      31.187  28.752  24.829  1.00  0.00     0.049 A 
ATOM     19  C   UNL A   1      30.440  27.588  25.052  1.00  0.00     0.027 A 
ATOM     20  C   UNL A   1      30.934  29.539  23.703  1.00  0.00     0.065 A 
ATOM     21  C   UNL A   1      29.440  27.219  24.148  1.00  0.00     0.005 A 
ATOM     22  C   UNL A   1      29.951  29.149  22.803  1.00  0.00     0.125 A 
ATOM     23  C   UNL A   1      29.199  27.999  23.015  1.00  0.00     0.039 A 
ATOM     24  F   UNL A   1      29.753  29.875  21.693  1.00  0.00    -0.207 F 
ENDBRANCH  15  18
BRANCH  17  25
ATOM     25  C   UNL A   1      33.600  26.917  25.273  1.00  0.00    -0.001 A 
ATOM     26  C   UNL A   1      33.677  25.749  26.048  1.00  0.00     0.011 A 
ATOM     27  C   UNL A   1      33.729  26.821  23.882  1.00  0.00     0.011 A 
ATOM     28  C   UNL A   1      33.969  24.519  25.458  1.00  0.00     0.021 A 
ATOM     29  C   UNL A   1      34.013  25.592  23.281  1.00  0.00     0.021 A 
ATOM     30  C   UNL A   1      34.164  24.455  24.078  1.00  0.00     0.067 A 
BRANCH  30  31
ATOM     31  S   UNL A   1      34.623  22.905  23.344  1.00  0.00     0.175 S 
ATOM     32  C   UNL A   1      33.257  22.529  22.274  1.00  0.00     0.163 C 
ATOM     33  O   UNL A   1      35.795  23.152  22.516  1.00  0.00    -0.224 OA
ATOM     34  O   UNL A   1      34.654  21.905  24.389  1.00  0.00    -0.224 OA
ENDBRANCH  30  31
ENDBRANCH  17  25
ENDBRANCH  11  12
ENDBRANCH   8  11
ENDBRANCH   6   7
BRANCH   6  35
ATOM     35  C   UNL A   1      35.221  34.030  30.161  1.00  0.00     0.191 C 
BRANCH  35  36
ATOM     36  O   UNL A   1      34.298  35.078  30.458  1.00  0.00    -0.394 OA
ATOM     37  H   UNL A   1      33.796  34.851  31.255  1.00  0.00     0.210 HD
ENDBRANCH  35  36
ENDBRANCH   6  35
ENDBRANCH   3   6
ENDBRANCH   1   2
BRANCH   1  38
ATOM     38  C   UNL A   1      37.756  32.716  33.975  1.00  0.00     0.023 C 
BRANCH  38  39
ATOM     39  C   UNL A   1      39.191  32.187  34.187  1.00  0.00     0.023 C 
BRANCH  39  40
ATOM     40  C   UNL A   1      40.374  33.009  33.638  1.00  0.00     0.116 C 
BRANCH  40  41
ATOM     41  N   UNL A   1      40.005  34.123  32.805  1.00  0.00    -0.352 N 
ATOM     42  C   UNL A   1      39.992  34.180  31.419  1.00  0.00     0.251 C 
ATOM     43  H   UNL A   1      39.727  34.942  33.274  1.00  0.00     0.163 HD
ATOM     44  O   UNL A   1      39.696  35.256  30.905  1.00  0.00    -0.269 OA
BRANCH  42  45
ATOM     45  C   UNL A   1      40.406  33.010  30.553  1.00  0.00     0.039 A 
ATOM     46  C   UNL A   1      39.551  31.925  30.446  1.00  0.00     0.014 A 
ATOM     47  C   UNL A   1      41.705  32.825  30.042  1.00  0.00     0.014 A 
ATOM     48  C   UNL A   1      39.975  30.719  29.806  1.00  0.00     0.010 A 
ATOM     49  C   UNL A   1      42.158  31.560  29.461  1.00  0.00     0.010 A 
ATOM     50  C   UNL A   1      41.314  30.439  29.335  1.00  0.00    -0.014 A 
BRANCH  50  51
ATOM     51  C   UNL A   1      41.752  28.866  29.311  1.00  0.00     0.031 A 
ATOM     52  C   UNL A   1      42.304  28.691  30.689  1.00  0.00     0.074 A 
ATOM     53  C   UNL A   1      41.883  27.733  28.495  1.00  0.00     0.049 A 
ATOM     54  N   UNL A   1      43.247  29.488  31.113  1.00  0.00    -0.248 NA
ATOM     55  C   UNL A   1      41.583  27.987  31.751  1.00  0.00     0.031 C 
ATOM     56  C   UNL A   1      41.632  27.623  27.048  1.00  0.00     0.029 A 
ATOM     57  N   UNL A   1      42.279  26.370  28.761  1.00  0.00    -0.354 N 
ATOM     58  C   UNL A   1      43.467  29.165  32.428  1.00  0.00     0.074 A 
ATOM     59  C   UNL A   1      42.268  28.428  32.814  1.00  0.00     0.031 C 
ATOM     60  C   UNL A   1      41.719  26.330  26.606  1.00  0.00     0.029 A 
ATOM     61  C   UNL A   1      42.107  25.413  27.681  1.00  0.00     0.049 A 
ATOM     62  H   UNL A   1      42.648  26.102  29.634  1.00  0.00     0.167 HD
ATOM     63  C   UNL A   1      44.764  28.874  32.742  1.00  0.00     0.034 A 
ATOM     64  C   UNL A   1      42.327  24.027  27.606  1.00  0.00     0.034 A 
ATOM     65  C   UNL A   1      45.000  27.453  32.731  1.00  0.00     0.049 A 
ATOM     66  C   UNL A   1      43.361  23.704  28.588  1.00  0.00     0.074 A 
ATOM     67  C   UNL A   1      44.305  26.386  33.263  1.00  0.00     0.029 A 
ATOM     68  N   UNL A   1      45.781  26.951  31.710  1.00  0.00    -0.354 N 
ATOM     69  N   UNL A   1      44.609  23.979  28.378  1.00  0.00    -0.248 NA
ATOM     70  C   UNL A   1      43.073  22.995  29.828  1.00  0.00     0.031 C 
ATOM     71  C   UNL A   1      44.300  25.420  32.234  1.00  0.00     0.029 A 
ATOM     72  C   UNL A   1      45.279  25.736  31.298  1.00  0.00     0.049 A 
ATOM     73  H   UNL A   1      46.575  27.394  31.333  1.00  0.00     0.167 HD
ATOM     74  C   UNL A   1      45.111  24.025  29.640  1.00  0.00     0.074 A 
ATOM     75  C   UNL A   1      44.262  23.140  30.417  1.00  0.00     0.031 C 
ATOM     76  C   UNL A   1      45.688  25.195  30.014  1.00  0.00     0.034 A 
BRANCH  63  77
ATOM     77  C   UNL A   1      45.752  29.893  32.243  1.00  0.00     0.023 A 
ATOM     78  C   UNL A   1      45.740  30.245  30.888  1.00  0.00     0.031 A 
ATOM     79  C   UNL A   1      46.771  30.439  33.055  1.00  0.00     0.131 A 
ATOM     80  C   UNL A   1      46.757  31.066  30.373  1.00  0.00     0.055 A 
ATOM     81  C   UNL A   1      47.810  31.202  32.530  1.00  0.00     0.041 A 
ATOM     82  F   UNL A   1      46.767  30.247  34.385  1.00  0.00    -0.206 F 
ATOM     83  C   UNL A   1      47.812  31.513  31.176  1.00  0.00     0.022 A 
BRANCH  80  84
ATOM     84  S   UNL A   1      46.659  31.581  28.638  1.00  0.00     0.124 S 
ATOM     85  O   UNL A   1      45.460  30.892  28.169  1.00  0.00    -0.237 OA
ATOM     86  O   UNL A   1      46.543  33.033  28.753  1.00  0.00    -0.237 OA
ATOM     87  O   UNL A   1      47.916  31.108  28.062  1.00  0.00    -0.744 OA
ENDBRANCH  80  84
ENDBRANCH  63  77
BRANCH  64  88
ATOM     88  C   UNL A   1      42.017  22.735  26.780  1.00  0.00     0.023 A 
ATOM     89  C   UNL A   1      43.055  21.938  26.137  1.00  0.00     0.031 A 
ATOM     90  C   UNL A   1      40.811  22.050  26.975  1.00  0.00     0.131 A 
ATOM     91  C   UNL A   1      42.872  20.564  25.784  1.00  0.00     0.055 A 
ATOM     92  C   UNL A   1      40.632  20.692  26.611  1.00  0.00     0.041 A 
ATOM     93  F   UNL A   1      39.801  22.638  27.632  1.00  0.00    -0.206 F 
ATOM     94  C   UNL A   1      41.657  19.942  26.035  1.00  0.00     0.022 A 
BRANCH  91  95
ATOM     95  S   UNL A   1      44.249  19.494  25.154  1.00  0.00     0.124 S 
ATOM     96  O   UNL A   1      43.958  19.384  23.731  1.00  0.00    -0.237 OA
ATOM     97  O   UNL A   1      45.441  20.251  25.524  1.00  0.00    -0.237 OA
ATOM     98  O   UNL A   1      44.083  18.243  25.902  1.00  0.00    -0.744 OA
ENDBRANCH  91  95
ENDBRANCH  64  88
BRANCH  76  99
ATOM     99  C   UNL A   1      46.564  25.901  28.971  1.00  0.00     0.023 A 
ATOM    100  C   UNL A   1      47.850  25.483  28.528  1.00  0.00     0.031 A 
ATOM    101  C   UNL A   1      46.113  27.133  28.472  1.00  0.00     0.131 A 
ATOM    102  C   UNL A   1      48.638  26.299  27.689  1.00  0.00     0.055 A 
ATOM    103  C   UNL A   1      46.873  27.920  27.602  1.00  0.00     0.041 A 
ATOM    104  F   UNL A   1      44.913  27.611  28.838  1.00  0.00    -0.206 F 
ATOM    105  C   UNL A   1      48.148  27.517  27.223  1.00  0.00     0.022 A 
BRANCH 102 106
ATOM    106  S   UNL A   1      50.354  25.824  27.269  1.00  0.00     0.124 S 
ATOM    107  O   UNL A   1      51.163  26.675  28.133  1.00  0.00    -0.237 OA
ATOM    108  O   UNL A   1      50.377  24.398  27.581  1.00  0.00    -0.237 OA
ATOM    109  O   UNL A   1      50.455  26.138  25.842  1.00  0.00    -0.744 OA
ENDBRANCH 102 106
ENDBRANCH  76  99
ENDBRANCH  50  51
ENDBRANCH  42  45
ENDBRANCH  40  41
ENDBRANCH  39  40
ENDBRANCH  38  39
ENDBRANCH   1  38
TORSDOF 22
ENDMDL
MODEL 2
REMARK VINA RESULT:     -10.6      5.825     10.208
REMARK SMILES Cc1c(CC(=O)N[C@H](CO)C(=O)NCCCCNC(=O)c2ccc(-c3c4nc(c(-c5cc(S(=O)(=O)[O-])ccc5F)c5ccc([nH]5)c(-c5cc(S(=O)(=O)[O-])ccc5F)c5nc(c(-c6cc(S(=O)(=O)[O-])ccc6F)c6ccc3[nH]6)C=C5)C=C4)cc2)cc(-c2ccc(S(C)(=O)=O)cc2)n1-c1cccc(F)c1
REMARK SMILES IDX 14 1 13 2 11 3 12 4 8 6 7 7 5 8 6 9 4 11 3 12 1 13 2 14
REMARK SMILES IDX 96 15 84 16 85 17 97 18 98 19 103 20 99 21 101 22 100 23
REMARK SMILES IDX 102 24 86 25 87 26 95 27 88 28 94 29 89 30 90 31 91 32 92 33
REMARK SMILES IDX 93 34 9 35 10 36 15 38 16 39 17 40 18 41 19 42 20 44 21 45
REMARK SMILES IDX 22 46 83 47 23 48 82 49 24 50 25 51 26 52 76 53 27 54 81 55
REMARK SMILES IDX 75 56 77 57 28 58 80 59 74 60 73 61 29 63 61 64 41 65 60 66
REMARK SMILES IDX 42 67 45 68 59 69 78 70 43 71 44 72 58 74 79 75 46 76 30 77
REMARK SMILES IDX 31 78 39 79 32 80 38 81 40 82 37 83 33 84 34 85 35 86 36 87
REMARK SMILES IDX 62 88 63 89 71 90 64 91 70 92 72 93 69 94 65 95 66 96 67 97
REMARK SMILES IDX 68 98 47 99 48 100 56 101 49 102 55 103 57 104 54 105 50 106
REMARK SMILES IDX 51 107 52 108 53 109
REMARK H PARENT 13 5 7 10 10 37 18 43 77 62 45 73
REMARK Flexibility Score: inf
ROOT
ATOM      1  C   UNL A   1      34.023  33.904  29.884  1.00  0.00     0.116 C 
ENDROOT
BRANCH   1   2
ATOM      2  N   UNL A   1      33.233  35.107  30.059  1.00  0.00    -0.354 N 
ATOM      3  C   UNL A   1      33.097  35.947  31.120  1.00  0.00     0.244 C 
ATOM      4  O   UNL A   1      31.988  36.475  31.253  1.00  0.00    -0.273 OA
ATOM      5  H   UNL A   1      32.701  35.360  29.271  1.00  0.00     0.163 HD
BRANCH   3   6
ATOM      6  C   UNL A   1      34.176  36.088  32.204  1.00  0.00     0.197 C 
BRANCH   6   7
ATOM      7  N   UNL A   1      34.200  34.951  33.124  1.00  0.00    -0.342 N 
ATOM      8  C   UNL A   1      35.180  34.041  33.378  1.00  0.00     0.225 C 
ATOM      9  O   UNL A   1      34.875  33.093  34.111  1.00  0.00    -0.275 OA
ATOM     10  H   UNL A   1      33.373  34.822  33.643  1.00  0.00     0.164 HD
BRANCH   8  11
ATOM     11  C   UNL A   1      36.623  34.232  32.931  1.00  0.00     0.137 C 
BRANCH  11  12
ATOM     12  C   UNL A   1      37.675  34.245  33.997  1.00  0.00    -0.017 A 
ATOM     13  C   UNL A   1      39.835  34.476  32.587  1.00  0.00     0.065 C 
ATOM     14  C   UNL A   1      39.048  34.409  33.859  1.00  0.00     0.024 A 
ATOM     15  N   UNL A   1      39.620  34.405  35.134  1.00  0.00    -0.313 N 
ATOM     16  C   UNL A   1      37.427  34.017  35.376  1.00  0.00     0.033 A 
ATOM     17  C   UNL A   1      38.610  34.166  36.073  1.00  0.00     0.053 A 
BRANCH  15  18
ATOM     18  C   UNL A   1      40.983  34.663  35.455  1.00  0.00     0.049 A 
ATOM     19  C   UNL A   1      41.875  33.602  35.653  1.00  0.00     0.027 A 
ATOM     20  C   UNL A   1      41.393  35.976  35.699  1.00  0.00     0.065 A 
ATOM     21  C   UNL A   1      43.177  33.861  36.092  1.00  0.00     0.005 A 
ATOM     22  C   UNL A   1      42.683  36.216  36.154  1.00  0.00     0.125 A 
ATOM     23  C   UNL A   1      43.580  35.172  36.350  1.00  0.00     0.039 A 
ATOM     24  F   UNL A   1      43.052  37.471  36.445  1.00  0.00    -0.207 F 
ENDBRANCH  15  18
BRANCH  17  25
ATOM     25  C   UNL A   1      38.774  34.224  37.533  1.00  0.00    -0.001 A 
ATOM     26  C   UNL A   1      39.122  35.429  38.164  1.00  0.00     0.011 A 
ATOM     27  C   UNL A   1      38.582  33.078  38.313  1.00  0.00     0.011 A 
ATOM     28  C   UNL A   1      39.362  35.472  39.538  1.00  0.00     0.021 A 
ATOM     29  C   UNL A   1      38.812  33.113  39.691  1.00  0.00     0.021 A 
ATOM     30  C   UNL A   1      39.233  34.303  40.288  1.00  0.00     0.067 A 
BRANCH  30  31
ATOM     31  S   UNL A   1      39.627  34.343  42.019  1.00  0.00     0.175 S 
ATOM     32  C   UNL A   1      41.399  34.456  42.041  1.00  0.00     0.163 C 
ATOM     33  O   UNL A   1      39.084  35.582  42.556  1.00  0.00    -0.224 OA
ATOM     34  O   UNL A   1      39.259  33.065  42.592  1.00  0.00    -0.224 OA
ENDBRANCH  30  31
ENDBRANCH  17  25
ENDBRANCH  11  12
ENDBRANCH   8  11
ENDBRANCH   6   7
BRANCH   6  35
ATOM     35  C   UNL A   1      33.982  37.449  32.897  1.00  0.00     0.191 C 
BRANCH  35  36
ATOM     36  O   UNL A   1      33.565  38.479  32.000  1.00  0.00    -0.394 OA
ATOM     37  H   UNL A   1      33.104  39.173  32.495  1.00  0.00     0.210 HD
ENDBRANCH  35  36
ENDBRANCH   6  35
ENDBRANCH   3   6
ENDBRANCH   1   2
BRANCH   1  38
ATOM     38  C   UNL A   1      35.319  34.242  29.138  1.00  0.00     0.023 C 
BRANCH  38  39
ATOM     39  C   UNL A   1      35.825  33.184  28.134  1.00  0.00     0.023 C 
BRANCH  39  40
ATOM     40  C   UNL A   1      36.553  31.936  28.672  1.00  0.00     0.116 C 
BRANCH  40  41
ATOM     41  N   UNL A   1      36.063  31.444  29.933  1.00  0.00    -0.352 N 
ATOM     42  C   UNL A   1      36.790  31.194  31.088  1.00  0.00     0.251 C 
ATOM     43  H   UNL A   1      35.097  31.264  29.982  1.00  0.00     0.163 HD
ATOM     44  O   UNL A   1      36.179  30.718  32.042  1.00  0.00    -0.269 OA
BRANCH  42  45
ATOM     45  C   UNL A   1      38.286  31.406  31.169  1.00  0.00     0.039 A 
ATOM     46  C   UNL A   1      38.945  31.933  30.070  1.00  0.00     0.014 A 
ATOM     47  C   UNL A   1      39.105  30.877  32.185  1.00  0.00     0.014 A 
ATOM     48  C   UNL A   1      40.374  31.969  30.021  1.00  0.00     0.010 A 
ATOM     49  C   UNL A   1      40.565  30.843  32.092  1.00  0.00     0.010 A 
ATOM     50  C   UNL A   1      41.267  31.373  30.990  1.00  0.00    -0.014 A 
BRANCH  50  51
ATOM     51  C   UNL A   1      42.728  30.908  30.429  1.00  0.00     0.031 A 
ATOM     52  C   UNL A   1      43.642  31.509  31.447  1.00  0.00     0.074 A 
ATOM     53  C   UNL A   1      43.392  30.284  29.363  1.00  0.00     0.049 A 
ATOM     54  N   UNL A   1      43.567  32.785  31.710  1.00  0.00    -0.248 NA
ATOM     55  C   UNL A   1      44.311  30.717  32.481  1.00  0.00     0.031 C 
ATOM     56  C   UNL A   1      42.815  29.774  28.108  1.00  0.00     0.029 A 
ATOM     57  N   UNL A   1      44.776  29.944  29.131  1.00  0.00    -0.354 N 
ATOM     58  C   UNL A   1      44.432  33.021  32.747  1.00  0.00     0.074 A 
ATOM     59  C   UNL A   1      44.660  31.699  33.322  1.00  0.00     0.031 C 
ATOM     60  C   UNL A   1      43.734  29.093  27.356  1.00  0.00     0.029 A 
ATOM     61  C   UNL A   1      45.064  29.116  27.972  1.00  0.00     0.049 A 
ATOM     62  H   UNL A   1      45.491  30.258  29.731  1.00  0.00     0.167 HD
ATOM     63  C   UNL A   1      45.354  34.003  32.520  1.00  0.00     0.034 A 
ATOM     64  C   UNL A   1      46.259  28.559  27.485  1.00  0.00     0.034 A 
ATOM     65  C   UNL A   1      46.608  33.452  32.076  1.00  0.00     0.049 A 
ATOM     66  C   UNL A   1      47.350  29.418  27.943  1.00  0.00     0.074 A 
ATOM     67  C   UNL A   1      47.380  32.401  32.530  1.00  0.00     0.029 A 
ATOM     68  N   UNL A   1      46.963  33.668  30.760  1.00  0.00    -0.354 N 
ATOM     69  N   UNL A   1      47.587  30.567  27.397  1.00  0.00    -0.248 NA
ATOM     70  C   UNL A   1      48.280  29.014  28.990  1.00  0.00     0.031 C 
ATOM     71  C   UNL A   1      47.767  31.717  31.358  1.00  0.00     0.029 A 
ATOM     72  C   UNL A   1      47.575  32.542  30.255  1.00  0.00     0.049 A 
ATOM     73  H   UNL A   1      46.801  34.499  30.258  1.00  0.00     0.167 HD
ATOM     74  C   UNL A   1      48.254  31.223  28.383  1.00  0.00     0.074 A 
ATOM     75  C   UNL A   1      48.906  30.181  29.156  1.00  0.00     0.031 C 
ATOM     76  C   UNL A   1      47.697  32.382  28.816  1.00  0.00     0.034 A 
BRANCH  63  77
ATOM     77  C   UNL A   1      44.761  35.278  31.985  1.00  0.00     0.023 A 
ATOM     78  C   UNL A   1      44.269  35.302  30.674  1.00  0.00     0.031 A 
ATOM     79  C   UNL A   1      44.772  36.494  32.704  1.00  0.00     0.131 A 
ATOM     80  C   UNL A   1      43.866  36.521  30.103  1.00  0.00     0.055 A 
ATOM     81  C   UNL A   1      44.429  37.708  32.116  1.00  0.00     0.041 A 
ATOM     82  F   UNL A   1      45.109  36.519  34.005  1.00  0.00    -0.206 F 
ATOM     83  C   UNL A   1      43.980  37.728  30.801  1.00  0.00     0.022 A 
BRANCH  80  84
ATOM     84  S   UNL A   1      43.146  36.502  28.440  1.00  0.00     0.124 S 
ATOM     85  O   UNL A   1      42.664  35.130  28.318  1.00  0.00    -0.237 OA
ATOM     86  O   UNL A   1      42.108  37.525  28.542  1.00  0.00    -0.237 OA
ATOM     87  O   UNL A   1      44.267  36.849  27.569  1.00  0.00    -0.744 OA
ENDBRANCH  80  84
ENDBRANCH  63  77
BRANCH  64  88
ATOM     88  C   UNL A   1      46.857  27.483  26.519  1.00  0.00     0.023 A 
ATOM     89  C   UNL A   1      47.143  27.750  25.114  1.00  0.00     0.031 A 
ATOM     90  C   UNL A   1      47.539  26.375  27.039  1.00  0.00     0.131 A 
ATOM     91  C   UNL A   1      48.076  26.979  24.352  1.00  0.00     0.055 A 
ATOM     92  C   UNL A   1      48.454  25.609  26.274  1.00  0.00     0.041 A 
ATOM     93  F   UNL A   1      47.434  26.069  28.340  1.00  0.00    -0.206 F 
ATOM     94  C   UNL A   1      48.738  25.913  24.944  1.00  0.00     0.022 A 
BRANCH  91  95
ATOM     95  S   UNL A   1      48.592  27.438  22.631  1.00  0.00     0.124 S 
ATOM     96  O   UNL A   1      49.832  28.173  22.842  1.00  0.00    -0.237 OA
ATOM     97  O   UNL A   1      48.702  26.142  21.970  1.00  0.00    -0.237 OA
ATOM     98  O   UNL A   1      47.479  28.261  22.146  1.00  0.00    -0.744 OA
ENDBRANCH  91  95
ENDBRANCH  64  88
BRANCH  76  99
ATOM     99  C   UNL A   1      47.100  33.307  27.749  1.00  0.00     0.023 A 
ATOM    100  C   UNL A   1      45.885  33.100  27.038  1.00  0.00     0.031 A 
ATOM    101  C   UNL A   1      47.864  34.415  27.350  1.00  0.00     0.131 A 
ATOM    102  C   UNL A   1      45.515  33.930  25.958  1.00  0.00     0.055 A 
ATOM    103  C   UNL A   1      47.476  35.267  26.312  1.00  0.00     0.041 A 
ATOM    104  F   UNL A   1      49.028  34.688  27.960  1.00  0.00    -0.206 F 
ATOM    105  C   UNL A   1      46.310  35.016  25.597  1.00  0.00     0.022 A 
BRANCH 102 106
ATOM    106  S   UNL A   1      44.039  33.547  24.948  1.00  0.00     0.124 S 
ATOM    107  O   UNL A   1      43.144  34.667  25.217  1.00  0.00    -0.237 OA
ATOM    108  O   UNL A   1      44.585  33.480  23.596  1.00  0.00    -0.237 OA
ATOM    109  O   UNL A   1      43.582  32.264  25.486  1.00  0.00    -0.744 OA
ENDBRANCH 102 106
ENDBRANCH  76  99
ENDBRANCH  50  51
ENDBRANCH  42  45
ENDBRANCH  40  41
ENDBRANCH  39  40
ENDBRANCH  38  39
ENDBRANCH   1  38
TORSDOF 22
ENDMDL
MODEL 3
REMARK VINA RESULT:     -10.3      4.971      9.274
REMARK SMILES Cc1c(CC(=O)N[C@H](CO)C(=O)NCCCCNC(=O)c2ccc(-c3c4nc(c(-c5cc(S(=O)(=O)[O-])ccc5F)c5ccc([nH]5)c(-c5cc(S(=O)(=O)[O-])ccc5F)c5nc(c(-c6cc(S(=O)(=O)[O-])ccc6F)c6ccc3[nH]6)C=C5)C=C4)cc2)cc(-c2ccc(S(C)(=O)=O)cc2)n1-c1cccc(F)c1
REMARK SMILES IDX 14 1 13 2 11 3 12 4 8 6 7 7 5 8 6 9 4 11 3 12 1 13 2 14
REMARK SMILES IDX 96 15 84 16 85 17 97 18 98 19 103 20 99 21 101 22 100 23
REMARK SMILES IDX 102 24 86 25 87 26 95 27 88 28 94 29 89 30 90 31 91 32 92 33
REMARK SMILES IDX 93 34 9 35 10 36 15 38 16 39 17 40 18 41 19 42 20 44 21 45
REMARK SMILES IDX 22 46 83 47 23 48 82 49 24 50 25 51 26 52 76 53 27 54 81 55
REMARK SMILES IDX 75 56 77 57 28 58 80 59 74 60 73 61 29 63 61 64 41 65 60 66
REMARK SMILES IDX 42 67 45 68 59 69 78 70 43 71 44 72 58 74 79 75 46 76 30 77
REMARK SMILES IDX 31 78 39 79 32 80 38 81 40 82 37 83 33 84 34 85 35 86 36 87
REMARK SMILES IDX 62 88 63 89 71 90 64 91 70 92 72 93 69 94 65 95 66 96 67 97
REMARK SMILES IDX 68 98 47 99 48 100 56 101 49 102 55 103 57 104 54 105 50 106
REMARK SMILES IDX 51 107 52 108 53 109
REMARK H PARENT 13 5 7 10 10 37 18 43 77 62 45 73
REMARK Flexibility Score: inf
ROOT
ATOM      1  C   UNL A   1      33.977  34.049  29.839  1.00  0.00     0.116 C 
ENDROOT
BRANCH   1   2
ATOM      2  N   UNL A   1      33.234  35.273  30.066  1.00  0.00    -0.354 N 
ATOM      3  C   UNL A   1      33.112  36.060  31.168  1.00  0.00     0.244 C 
ATOM      4  O   UNL A   1      32.024  36.627  31.310  1.00  0.00    -0.273 OA
ATOM      5  H   UNL A   1      32.731  35.592  29.284  1.00  0.00     0.163 HD
BRANCH   3   6
ATOM      6  C   UNL A   1      34.173  36.095  32.278  1.00  0.00     0.197 C 
BRANCH   6   7
ATOM      7  N   UNL A   1      34.153  34.894  33.114  1.00  0.00    -0.342 N 
ATOM      8  C   UNL A   1      35.073  33.903  33.258  1.00  0.00     0.225 C 
ATOM      9  O   UNL A   1      34.732  32.927  33.935  1.00  0.00    -0.275 OA
ATOM     10  H   UNL A   1      33.341  34.785  33.660  1.00  0.00     0.164 HD
BRANCH   8  11
ATOM     11  C   UNL A   1      36.507  34.026  32.760  1.00  0.00     0.137 C 
BRANCH  11  12
ATOM     12  C   UNL A   1      37.597  33.955  33.783  1.00  0.00    -0.017 A 
ATOM     13  C   UNL A   1      39.530  32.914  32.409  1.00  0.00     0.065 C 
ATOM     14  C   UNL A   1      38.913  33.534  33.624  1.00  0.00     0.024 A 
ATOM     15  N   UNL A   1      39.575  33.694  34.844  1.00  0.00    -0.313 N 
ATOM     16  C   UNL A   1      37.431  34.262  35.160  1.00  0.00     0.033 A 
ATOM     17  C   UNL A   1      38.653  34.150  35.793  1.00  0.00     0.053 A 
BRANCH  15  18
ATOM     18  C   UNL A   1      40.964  33.497  35.089  1.00  0.00     0.049 A 
ATOM     19  C   UNL A   1      41.415  32.313  35.686  1.00  0.00     0.027 A 
ATOM     20  C   UNL A   1      41.857  34.544  34.850  1.00  0.00     0.065 A 
ATOM     21  C   UNL A   1      42.761  32.181  36.039  1.00  0.00     0.005 A 
ATOM     22  C   UNL A   1      43.188  34.406  35.224  1.00  0.00     0.125 A 
ATOM     23  C   UNL A   1      43.649  33.234  35.813  1.00  0.00     0.039 A 
ATOM     24  F   UNL A   1      44.028  35.435  35.048  1.00  0.00    -0.207 F 
ENDBRANCH  15  18
BRANCH  17  25
ATOM     25  C   UNL A   1      38.982  34.574  37.162  1.00  0.00    -0.001 A 
ATOM     26  C   UNL A   1      38.543  33.827  38.266  1.00  0.00     0.011 A 
ATOM     27  C   UNL A   1      39.742  35.729  37.381  1.00  0.00     0.011 A 
ATOM     28  C   UNL A   1      38.779  34.271  39.568  1.00  0.00     0.021 A 
ATOM     29  C   UNL A   1      39.992  36.177  38.681  1.00  0.00     0.021 A 
ATOM     30  C   UNL A   1      39.479  35.461  39.765  1.00  0.00     0.067 A 
BRANCH  30  31
ATOM     31  S   UNL A   1      39.699  36.068  41.419  1.00  0.00     0.175 S 
ATOM     32  C   UNL A   1      41.427  36.474  41.487  1.00  0.00     0.163 C 
ATOM     33  O   UNL A   1      38.936  37.302  41.530  1.00  0.00    -0.224 OA
ATOM     34  O   UNL A   1      39.468  34.970  42.334  1.00  0.00    -0.224 OA
ENDBRANCH  30  31
ENDBRANCH  17  25
ENDBRANCH  11  12
ENDBRANCH   8  11
ENDBRANCH   6   7
BRANCH   6  35
ATOM     35  C   UNL A   1      33.998  37.407  33.065  1.00  0.00     0.191 C 
BRANCH  35  36
ATOM     36  O   UNL A   1      33.856  38.550  32.222  1.00  0.00    -0.394 OA
ATOM     37  H   UNL A   1      32.944  38.600  31.894  1.00  0.00     0.210 HD
ENDBRANCH  35  36
ENDBRANCH   6  35
ENDBRANCH   3   6
ENDBRANCH   1   2
BRANCH   1  38
ATOM     38  C   UNL A   1      35.336  34.378  29.211  1.00  0.00     0.023 C 
BRANCH  38  39
ATOM     39  C   UNL A   1      35.918  33.321  28.249  1.00  0.00     0.023 C 
BRANCH  39  40
ATOM     40  C   UNL A   1      36.858  32.238  28.815  1.00  0.00     0.116 C 
BRANCH  40  41
ATOM     41  N   UNL A   1      36.201  31.183  29.542  1.00  0.00    -0.352 N 
ATOM     42  C   UNL A   1      36.784  30.214  30.345  1.00  0.00     0.251 C 
ATOM     43  H   UNL A   1      35.221  31.145  29.460  1.00  0.00     0.163 HD
ATOM     44  O   UNL A   1      36.039  29.366  30.830  1.00  0.00    -0.269 OA
BRANCH  42  45
ATOM     45  C   UNL A   1      38.279  30.128  30.561  1.00  0.00     0.039 A 
ATOM     46  C   UNL A   1      39.123  30.447  29.510  1.00  0.00     0.014 A 
ATOM     47  C   UNL A   1      38.883  29.508  31.671  1.00  0.00     0.014 A 
ATOM     48  C   UNL A   1      40.528  30.195  29.596  1.00  0.00     0.010 A 
ATOM     49  C   UNL A   1      40.308  29.178  31.720  1.00  0.00     0.010 A 
ATOM     50  C   UNL A   1      41.195  29.491  30.670  1.00  0.00    -0.014 A 
BRANCH  50  51
ATOM     51  C   UNL A   1      42.574  28.712  30.271  1.00  0.00     0.031 A 
ATOM     52  C   UNL A   1      43.375  28.868  31.523  1.00  0.00     0.074 A 
ATOM     53  C   UNL A   1      43.265  28.087  29.224  1.00  0.00     0.049 A 
ATOM     54  N   UNL A   1      43.575  30.058  32.019  1.00  0.00    -0.248 NA
ATOM     55  C   UNL A   1      43.587  27.773  32.472  1.00  0.00     0.031 C 
ATOM     56  C   UNL A   1      42.854  27.954  27.816  1.00  0.00     0.029 A 
ATOM     57  N   UNL A   1      44.533  27.400  29.155  1.00  0.00    -0.354 N 
ATOM     58  C   UNL A   1      44.234  29.879  33.208  1.00  0.00     0.074 A 
ATOM     59  C   UNL A   1      43.990  28.478  33.537  1.00  0.00     0.031 C 
ATOM     60  C   UNL A   1      43.705  27.155  27.102  1.00  0.00     0.029 A 
ATOM     61  C   UNL A   1      44.837  26.703  27.916  1.00  0.00     0.049 A 
ATOM     62  H   UNL A   1      45.162  27.402  29.913  1.00  0.00     0.167 HD
ATOM     63  C   UNL A   1      45.402  30.576  33.332  1.00  0.00     0.034 A 
ATOM     64  C   UNL A   1      45.925  25.903  27.528  1.00  0.00     0.034 A 
ATOM     65  C   UNL A   1      46.538  29.757  32.997  1.00  0.00     0.049 A 
ATOM     66  C   UNL A   1      47.077  26.333  28.318  1.00  0.00     0.074 A 
ATOM     67  C   UNL A   1      46.903  28.474  33.351  1.00  0.00     0.029 A 
ATOM     68  N   UNL A   1      47.205  30.052  31.824  1.00  0.00    -0.354 N 
ATOM     69  N   UNL A   1      47.709  27.432  28.057  1.00  0.00    -0.248 NA
ATOM     70  C   UNL A   1      47.632  25.528  29.400  1.00  0.00     0.031 C 
ATOM     71  C   UNL A   1      47.340  27.886  32.144  1.00  0.00     0.029 A 
ATOM     72  C   UNL A   1      47.601  28.884  31.211  1.00  0.00     0.049 A 
ATOM     73  H   UNL A   1      47.370  30.959  31.479  1.00  0.00     0.167 HD
ATOM     74  C   UNL A   1      48.299  27.715  29.249  1.00  0.00     0.074 A 
ATOM     75  C   UNL A   1      48.486  26.428  29.893  1.00  0.00     0.031 C 
ATOM     76  C   UNL A   1      47.978  28.910  29.808  1.00  0.00     0.034 A 
BRANCH  63  77
ATOM     77  C   UNL A   1      45.281  32.032  32.973  1.00  0.00     0.023 A 
ATOM     78  C   UNL A   1      44.269  32.433  32.092  1.00  0.00     0.031 A 
ATOM     79  C   UNL A   1      46.208  33.009  33.399  1.00  0.00     0.131 A 
ATOM     80  C   UNL A   1      44.243  33.755  31.617  1.00  0.00     0.055 A 
ATOM     81  C   UNL A   1      46.215  34.301  32.880  1.00  0.00     0.041 A 
ATOM     82  F   UNL A   1      47.122  32.725  34.341  1.00  0.00    -0.206 F 
ATOM     83  C   UNL A   1      45.231  34.679  31.974  1.00  0.00     0.022 A 
BRANCH  80  84
ATOM     84  S   UNL A   1      42.867  34.267  30.554  1.00  0.00     0.124 S 
ATOM     85  O   UNL A   1      42.300  32.990  30.132  1.00  0.00    -0.237 OA
ATOM     86  O   UNL A   1      42.042  35.048  31.473  1.00  0.00    -0.237 OA
ATOM     87  O   UNL A   1      43.513  35.043  29.497  1.00  0.00    -0.744 OA
ENDBRANCH  80  84
ENDBRANCH  63  77
BRANCH  64  88
ATOM     88  C   UNL A   1      46.417  24.853  26.477  1.00  0.00     0.023 A 
ATOM     89  C   UNL A   1      45.907  23.488  26.421  1.00  0.00     0.031 A 
ATOM     90  C   UNL A   1      47.031  25.281  25.293  1.00  0.00     0.131 A 
ATOM     91  C   UNL A   1      45.983  22.678  25.244  1.00  0.00     0.055 A 
ATOM     92  C   UNL A   1      47.114  24.469  24.134  1.00  0.00     0.041 A 
ATOM     93  F   UNL A   1      47.468  26.543  25.178  1.00  0.00    -0.206 F 
ATOM     94  C   UNL A   1      46.581  23.182  24.097  1.00  0.00     0.022 A 
BRANCH  91  95
ATOM     95  S   UNL A   1      45.160  21.023  25.107  1.00  0.00     0.124 S 
ATOM     96  O   UNL A   1      44.739  20.978  23.713  1.00  0.00    -0.237 OA
ATOM     97  O   UNL A   1      46.219  20.100  25.503  1.00  0.00    -0.237 OA
ATOM     98  O   UNL A   1      44.054  21.108  26.067  1.00  0.00    -0.744 OA
ENDBRANCH  91  95
ENDBRANCH  64  88
BRANCH  76  99
ATOM     99  C   UNL A   1      47.876  30.113  28.864  1.00  0.00     0.023 A 
ATOM    100  C   UNL A   1      46.675  30.736  28.419  1.00  0.00     0.031 A 
ATOM    101  C   UNL A   1      49.065  30.595  28.295  1.00  0.00     0.131 A 
ATOM    102  C   UNL A   1      46.692  31.732  27.419  1.00  0.00     0.055 A 
ATOM    103  C   UNL A   1      49.087  31.614  27.339  1.00  0.00     0.041 A 
ATOM    104  F   UNL A   1      50.246  30.066  28.651  1.00  0.00    -0.206 F 
ATOM    105  C   UNL A   1      47.899  32.173  26.881  1.00  0.00     0.022 A 
BRANCH 102 106
ATOM    106  S   UNL A   1      45.131  32.397  26.739  1.00  0.00     0.124 S 
ATOM    107  O   UNL A   1      44.103  31.629  27.433  1.00  0.00    -0.237 OA
ATOM    108  O   UNL A   1      45.208  33.813  27.085  1.00  0.00    -0.237 OA
ATOM    109  O   UNL A   1      45.235  32.113  25.306  1.00  0.00    -0.744 OA
ENDBRANCH 102 106
ENDBRANCH  76  99
ENDBRANCH  50  51
ENDBRANCH  42  45
ENDBRANCH  40  41
ENDBRANCH  39  40
ENDBRANCH  38  39
ENDBRANCH   1  38
TORSDOF 22
ENDMDL
