MODEL 1
REMARK VINA RESULT:     -11.1      0.000      0.000
REMARK SMILES CC(C)[C@H](NC(=O)OCc1ccccc1)C(=O)NCC(=O)NCCCCNC(=O)c1ccc(-c2c3nc(c(-c4cc(S(=O)(=O)[O-])ccc4F)c4ccc([nH]4)c(-c4cc(S(=O)(=O)[O-])ccc4F)c4nc(c(-c5cc(S(=O)(=O)[O-])ccc5F)c5ccc2[nH]5)C=C4)C=C3)cc1
REMARK SMILES IDX 23 1 22 2 20 3 21 4 19 6 18 7 16 8 17 9 4 11 2 12 1 13 3 14
REMARK SMILES IDX 5 15 6 16 7 18 8 19 9 20 10 21 11 22 15 23 12 24 14 25 13 26
REMARK SMILES IDX 24 27 25 28 26 29 27 30 28 31 29 33 30 34 31 35 92 36 32 37
REMARK SMILES IDX 91 38 33 39 34 40 35 41 85 42 36 43 90 44 84 45 86 46 37 47
REMARK SMILES IDX 89 48 83 49 82 50 38 52 70 53 50 54 69 55 51 56 54 57 68 58
REMARK SMILES IDX 87 59 52 60 53 61 67 63 88 64 55 65 39 66 40 67 48 68 41 69
REMARK SMILES IDX 47 70 49 71 46 72 42 73 43 74 44 75 45 76 71 77 72 78 80 79
REMARK SMILES IDX 73 80 79 81 81 82 78 83 74 84 75 85 76 86 77 87 56 88 57 89
REMARK SMILES IDX 65 90 58 91 64 92 66 93 63 94 59 95 60 96 61 97 62 98
REMARK H PARENT 22 5 18 10 5 17 27 32 86 51 54 62
REMARK Flexibility Score: inf
ROOT
ATOM      1  C   UNL A   1      35.303  23.209  23.488  1.00  0.00     0.116 C 
ENDROOT
BRANCH   1   2
ATOM      2  N   UNL A   1      35.081  24.031  24.671  1.00  0.00    -0.355 N 
ATOM      3  C   UNL A   1      34.289  25.138  24.810  1.00  0.00     0.239 C 
ATOM      4  O   UNL A   1      34.337  25.794  25.853  1.00  0.00    -0.273 OA
ATOM      5  H   UNL A   1      35.568  23.753  25.479  1.00  0.00     0.163 HD
BRANCH   3   6
ATOM      6  C   UNL A   1      33.355  25.542  23.671  1.00  0.00     0.216 C 
BRANCH   6   7
ATOM      7  N   UNL A   1      32.365  24.552  23.316  1.00  0.00    -0.345 N 
ATOM      8  C   UNL A   1      31.156  24.288  23.874  1.00  0.00     0.243 C 
ATOM      9  O   UNL A   1      30.413  23.520  23.249  1.00  0.00    -0.273 OA
ATOM     10  H   UNL A   1      32.605  23.981  22.551  1.00  0.00     0.164 HD
BRANCH   8  11
ATOM     11  C   UNL A   1      30.663  24.888  25.230  1.00  0.00     0.177 C 
BRANCH  11  12
ATOM     12  C   UNL A   1      30.257  26.406  25.229  1.00  0.00     0.015 C 
ATOM     13  C   UNL A   1      31.219  27.433  25.852  1.00  0.00     0.010 C 
ATOM     14  C   UNL A   1      29.780  26.895  23.857  1.00  0.00     0.010 C 
ENDBRANCH  11  12
BRANCH  11  15
ATOM     15  N   UNL A   1      31.435  24.498  26.411  1.00  0.00    -0.309 N 
ATOM     16  C   UNL A   1      31.836  23.226  26.747  1.00  0.00     0.408 C 
ATOM     17  H   UNL A   1      31.695  25.221  27.028  1.00  0.00     0.167 HD
ATOM     18  O   UNL A   1      32.095  22.965  27.915  1.00  0.00    -0.225 OA
BRANCH  16  19
ATOM     19  O   UNL A   1      32.038  22.409  25.689  1.00  0.00    -0.445 OA
BRANCH  19  20
ATOM     20  C   UNL A   1      33.052  21.380  25.816  1.00  0.00     0.270 C 
BRANCH  20  21
ATOM     21  C   UNL A   1      32.852  20.255  24.812  1.00  0.00    -0.011 A 
ATOM     22  C   UNL A   1      32.909  18.909  25.195  1.00  0.00     0.007 A 
ATOM     23  C   UNL A   1      32.591  20.543  23.461  1.00  0.00     0.007 A 
ATOM     24  C   UNL A   1      32.598  17.887  24.291  1.00  0.00     0.000 A 
ATOM     25  C   UNL A   1      32.280  19.520  22.555  1.00  0.00     0.000 A 
ATOM     26  C   UNL A   1      32.260  18.194  22.977  1.00  0.00     0.000 A 
ENDBRANCH  20  21
ENDBRANCH  19  20
ENDBRANCH  16  19
ENDBRANCH  11  15
ENDBRANCH   8  11
ENDBRANCH   6   7
ENDBRANCH   3   6
ENDBRANCH   1   2
BRANCH   1  27
ATOM     27  C   UNL A   1      36.721  22.665  23.464  1.00  0.00     0.023 C 
BRANCH  27  28
ATOM     28  C   UNL A   1      36.897  21.367  24.235  1.00  0.00     0.023 C 
BRANCH  28  29
ATOM     29  C   UNL A   1      37.468  21.554  25.626  1.00  0.00     0.116 C 
BRANCH  29  30
ATOM     30  N   UNL A   1      38.647  20.728  25.881  1.00  0.00    -0.352 N 
ATOM     31  C   UNL A   1      39.871  21.044  26.437  1.00  0.00     0.251 C 
ATOM     32  H   UNL A   1      38.552  19.785  25.612  1.00  0.00     0.163 HD
ATOM     33  O   UNL A   1      40.747  20.184  26.489  1.00  0.00    -0.269 OA
BRANCH  31  34
ATOM     34  C   UNL A   1      40.173  22.422  26.907  1.00  0.00     0.039 A 
ATOM     35  C   UNL A   1      41.081  22.604  27.957  1.00  0.00     0.014 A 
ATOM     36  C   UNL A   1      39.605  23.542  26.309  1.00  0.00     0.014 A 
ATOM     37  C   UNL A   1      41.484  23.896  28.322  1.00  0.00     0.010 A 
ATOM     38  C   UNL A   1      40.132  24.803  26.551  1.00  0.00     0.010 A 
ATOM     39  C   UNL A   1      41.061  25.008  27.579  1.00  0.00    -0.014 A 
BRANCH  39  40
ATOM     40  C   UNL A   1      41.519  26.398  27.871  1.00  0.00     0.031 A 
ATOM     41  C   UNL A   1      42.912  26.824  27.463  1.00  0.00     0.074 A 
ATOM     42  C   UNL A   1      40.739  27.240  28.579  1.00  0.00     0.049 A 
ATOM     43  N   UNL A   1      43.576  27.908  27.774  1.00  0.00    -0.248 NA
ATOM     44  C   UNL A   1      43.684  25.871  26.648  1.00  0.00     0.031 C 
ATOM     45  C   UNL A   1      39.399  26.936  29.088  1.00  0.00     0.029 A 
ATOM     46  N   UNL A   1      40.965  28.527  29.007  1.00  0.00    -0.354 N 
ATOM     47  C   UNL A   1      44.850  27.740  27.238  1.00  0.00     0.074 A 
ATOM     48  C   UNL A   1      44.889  26.416  26.659  1.00  0.00     0.031 C 
ATOM     49  C   UNL A   1      38.907  28.017  29.716  1.00  0.00     0.029 A 
ATOM     50  C   UNL A   1      39.913  29.071  29.712  1.00  0.00     0.049 A 
ATOM     51  H   UNL A   1      41.799  29.014  28.825  1.00  0.00     0.167 HD
ATOM     52  C   UNL A   1      45.881  28.618  27.196  1.00  0.00     0.034 A 
ATOM     53  C   UNL A   1      39.781  30.279  30.298  1.00  0.00     0.034 A 
ATOM     54  C   UNL A   1      45.802  29.960  27.715  1.00  0.00     0.049 A 
ATOM     55  C   UNL A   1      40.929  31.254  30.210  1.00  0.00     0.074 A 
ATOM     56  C   UNL A   1      46.749  30.967  27.654  1.00  0.00     0.029 A 
ATOM     57  N   UNL A   1      44.703  30.488  28.382  1.00  0.00    -0.354 N 
ATOM     58  N   UNL A   1      42.110  31.094  29.656  1.00  0.00    -0.248 NA
ATOM     59  C   UNL A   1      40.722  32.578  30.812  1.00  0.00     0.031 C 
ATOM     60  C   UNL A   1      46.248  32.081  28.335  1.00  0.00     0.029 A 
ATOM     61  C   UNL A   1      44.958  31.797  28.756  1.00  0.00     0.049 A 
ATOM     62  H   UNL A   1      43.866  30.002  28.563  1.00  0.00     0.167 HD
ATOM     63  C   UNL A   1      42.772  32.308  29.818  1.00  0.00     0.074 A 
ATOM     64  C   UNL A   1      41.851  33.194  30.501  1.00  0.00     0.031 C 
ATOM     65  C   UNL A   1      44.027  32.663  29.438  1.00  0.00     0.034 A 
BRANCH  52  66
ATOM     66  C   UNL A   1      47.177  28.151  26.570  1.00  0.00     0.023 A 
ATOM     67  C   UNL A   1      47.366  28.137  25.176  1.00  0.00     0.031 A 
ATOM     68  C   UNL A   1      48.230  27.684  27.377  1.00  0.00     0.131 A 
ATOM     69  C   UNL A   1      48.536  27.587  24.631  1.00  0.00     0.055 A 
ATOM     70  C   UNL A   1      49.430  27.224  26.830  1.00  0.00     0.041 A 
ATOM     71  F   UNL A   1      48.105  27.653  28.713  1.00  0.00    -0.206 F 
ATOM     72  C   UNL A   1      49.582  27.157  25.449  1.00  0.00     0.022 A 
BRANCH  69  73
ATOM     73  S   UNL A   1      48.603  27.302  22.841  1.00  0.00     0.124 S 
ATOM     74  O   UNL A   1      48.337  25.867  22.762  1.00  0.00    -0.237 OA
ATOM     75  O   UNL A   1      47.548  28.176  22.341  1.00  0.00    -0.237 OA
ATOM     76  O   UNL A   1      49.964  27.696  22.482  1.00  0.00    -0.744 OA
ENDBRANCH  69  73
ENDBRANCH  52  66
BRANCH  53  77
ATOM     77  C   UNL A   1      38.526  30.644  31.018  1.00  0.00     0.023 A 
ATOM     78  C   UNL A   1      37.484  31.316  30.355  1.00  0.00     0.031 A 
ATOM     79  C   UNL A   1      38.364  30.374  32.388  1.00  0.00     0.131 A 
ATOM     80  C   UNL A   1      36.355  31.742  31.071  1.00  0.00     0.055 A 
ATOM     81  C   UNL A   1      37.213  30.748  33.084  1.00  0.00     0.041 A 
ATOM     82  F   UNL A   1      39.324  29.730  33.071  1.00  0.00    -0.206 F 
ATOM     83  C   UNL A   1      36.206  31.451  32.429  1.00  0.00     0.022 A 
BRANCH  80  84
ATOM     84  S   UNL A   1      35.126  32.773  30.223  1.00  0.00     0.124 S 
ATOM     85  O   UNL A   1      34.714  31.903  29.128  1.00  0.00    -0.237 OA
ATOM     86  O   UNL A   1      34.139  32.993  31.275  1.00  0.00    -0.237 OA
ATOM     87  O   UNL A   1      35.888  33.955  29.829  1.00  0.00    -0.744 OA
ENDBRANCH  80  84
ENDBRANCH  53  77
BRANCH  65  88
ATOM     88  C   UNL A   1      44.448  34.086  29.709  1.00  0.00     0.023 A 
ATOM     89  C   UNL A   1      44.235  35.111  28.772  1.00  0.00     0.031 A 
ATOM     90  C   UNL A   1      45.078  34.416  30.922  1.00  0.00     0.131 A 
ATOM     91  C   UNL A   1      44.705  36.406  29.036  1.00  0.00     0.055 A 
ATOM     92  C   UNL A   1      45.485  35.719  31.207  1.00  0.00     0.041 A 
ATOM     93  F   UNL A   1      45.305  33.475  31.853  1.00  0.00    -0.206 F 
ATOM     94  C   UNL A   1      45.313  36.720  30.255  1.00  0.00     0.022 A 
BRANCH  91  95
ATOM     95  S   UNL A   1      44.600  37.653  27.725  1.00  0.00     0.124 S 
ATOM     96  O   UNL A   1      44.552  38.894  28.490  1.00  0.00    -0.237 OA
ATOM     97  O   UNL A   1      45.828  37.417  26.971  1.00  0.00    -0.237 OA
ATOM     98  O   UNL A   1      43.366  37.309  27.021  1.00  0.00    -0.744 OA
ENDBRANCH  91  95
ENDBRANCH  65  88
ENDBRANCH  39  40
ENDBRANCH  31  34
ENDBRANCH  29  30
ENDBRANCH  28  29
ENDBRANCH  27  28
ENDBRANCH   1  27
TORSDOF 21
ENDMDL
MODEL 2
REMARK VINA RESULT:     -11.1      1.955      3.616
REMARK SMILES CC(C)[C@H](NC(=O)OCc1ccccc1)C(=O)NCC(=O)NCCCCNC(=O)c1ccc(-c2c3nc(c(-c4cc(S(=O)(=O)[O-])ccc4F)c4ccc([nH]4)c(-c4cc(S(=O)(=O)[O-])ccc4F)c4nc(c(-c5cc(S(=O)(=O)[O-])ccc5F)c5ccc2[nH]5)C=C4)C=C3)cc1
REMARK SMILES IDX 23 1 22 2 20 3 21 4 19 6 18 7 16 8 17 9 4 11 2 12 1 13 3 14
REMARK SMILES IDX 5 15 6 16 7 18 8 19 9 20 10 21 11 22 15 23 12 24 14 25 13 26
REMARK SMILES IDX 24 27 25 28 26 29 27 30 28 31 29 33 30 34 31 35 92 36 32 37
REMARK SMILES IDX 91 38 33 39 34 40 35 41 85 42 36 43 90 44 84 45 86 46 37 47
REMARK SMILES IDX 89 48 83 49 82 50 38 52 70 53 50 54 69 55 51 56 54 57 68 58
REMARK SMILES IDX 87 59 52 60 53 61 67 63 88 64 55 65 39 66 40 67 48 68 41 69
REMARK SMILES IDX 47 70 49 71 46 72 42 73 43 74 44 75 45 76 71 77 72 78 80 79
REMARK SMILES IDX 73 80 79 81 81 82 78 83 74 84 75 85 76 86 77 87 56 88 57 89
REMARK SMILES IDX 65 90 58 91 64 92 66 93 63 94 59 95 60 96 61 97 62 98
REMARK H PARENT 22 5 18 10 5 17 27 32 86 51 54 62
REMARK Flexibility Score: inf
ROOT
ATOM      1  C   UNL A   1      35.420  21.870  26.021  1.00  0.00     0.116 C 
ENDROOT
BRANCH   1   2
ATOM      2  N   UNL A   1      34.291  21.846  26.942  1.00  0.00    -0.355 N 
ATOM      3  C   UNL A   1      33.441  22.862  27.285  1.00  0.00     0.239 C 
ATOM      4  O   UNL A   1      32.627  22.694  28.195  1.00  0.00    -0.273 OA
ATOM      5  H   UNL A   1      34.116  20.980  27.376  1.00  0.00     0.163 HD
BRANCH   3   6
ATOM      6  C   UNL A   1      33.513  24.189  26.532  1.00  0.00     0.216 C 
BRANCH   6   7
ATOM      7  N   UNL A   1      32.235  24.757  26.176  1.00  0.00    -0.345 N 
ATOM      8  C   UNL A   1      31.523  24.652  25.024  1.00  0.00     0.243 C 
ATOM      9  O   UNL A   1      30.357  25.070  25.052  1.00  0.00    -0.273 OA
ATOM     10  H   UNL A   1      31.814  25.305  26.877  1.00  0.00     0.164 HD
BRANCH   8  11
ATOM     11  C   UNL A   1      32.082  24.046  23.697  1.00  0.00     0.177 C 
BRANCH  11  12
ATOM     12  C   UNL A   1      32.367  22.501  23.686  1.00  0.00     0.015 C 
ATOM     13  C   UNL A   1      31.525  21.584  24.592  1.00  0.00     0.010 C 
ATOM     14  C   UNL A   1      32.442  21.919  22.271  1.00  0.00     0.010 C 
ENDBRANCH  11  12
BRANCH  11  15
ATOM     15  N   UNL A   1      33.127  24.831  23.035  1.00  0.00    -0.309 N 
ATOM     16  C   UNL A   1      32.948  25.971  22.287  1.00  0.00     0.408 C 
ATOM     17  H   UNL A   1      34.052  24.509  23.136  1.00  0.00     0.167 HD
ATOM     18  O   UNL A   1      33.796  26.291  21.465  1.00  0.00    -0.225 OA
BRANCH  16  19
ATOM     19  O   UNL A   1      31.879  26.714  22.653  1.00  0.00    -0.445 OA
BRANCH  19  20
ATOM     20  C   UNL A   1      32.117  28.092  23.040  1.00  0.00     0.270 C 
BRANCH  20  21
ATOM     21  C   UNL A   1      32.429  28.222  24.522  1.00  0.00    -0.011 A 
ATOM     22  C   UNL A   1      31.416  28.377  25.476  1.00  0.00     0.007 A 
ATOM     23  C   UNL A   1      33.759  28.177  24.978  1.00  0.00     0.007 A 
ATOM     24  C   UNL A   1      31.704  28.367  26.846  1.00  0.00     0.000 A 
ATOM     25  C   UNL A   1      34.049  28.168  26.349  1.00  0.00     0.000 A 
ATOM     26  C   UNL A   1      33.019  28.240  27.283  1.00  0.00     0.000 A 
ENDBRANCH  20  21
ENDBRANCH  19  20
ENDBRANCH  16  19
ENDBRANCH  11  15
ENDBRANCH   8  11
ENDBRANCH   6   7
ENDBRANCH   3   6
ENDBRANCH   1   2
BRANCH   1  27
ATOM     27  C   UNL A   1      35.281  20.788  24.964  1.00  0.00     0.023 C 
BRANCH  27  28
ATOM     28  C   UNL A   1      36.481  19.859  24.873  1.00  0.00     0.023 C 
BRANCH  28  29
ATOM     29  C   UNL A   1      37.815  20.570  24.982  1.00  0.00     0.116 C 
BRANCH  29  30
ATOM     30  N   UNL A   1      38.909  19.686  25.380  1.00  0.00    -0.352 N 
ATOM     31  C   UNL A   1      40.082  19.946  26.061  1.00  0.00     0.251 C 
ATOM     32  H   UNL A   1      38.791  18.744  25.118  1.00  0.00     0.163 HD
ATOM     33  O   UNL A   1      40.897  19.041  26.224  1.00  0.00    -0.269 OA
BRANCH  31  34
ATOM     34  C   UNL A   1      40.410  21.316  26.538  1.00  0.00     0.039 A 
ATOM     35  C   UNL A   1      41.463  21.493  27.443  1.00  0.00     0.014 A 
ATOM     36  C   UNL A   1      39.720  22.436  26.084  1.00  0.00     0.014 A 
ATOM     37  C   UNL A   1      41.876  22.784  27.798  1.00  0.00     0.010 A 
ATOM     38  C   UNL A   1      40.239  23.706  26.295  1.00  0.00     0.010 A 
ATOM     39  C   UNL A   1      41.309  23.907  27.177  1.00  0.00    -0.014 A 
BRANCH  39  40
ATOM     40  C   UNL A   1      41.762  25.301  27.455  1.00  0.00     0.031 A 
ATOM     41  C   UNL A   1      43.138  25.740  27.004  1.00  0.00     0.074 A 
ATOM     42  C   UNL A   1      40.997  26.136  28.187  1.00  0.00     0.049 A 
ATOM     43  N   UNL A   1      43.801  26.831  27.295  1.00  0.00    -0.248 NA
ATOM     44  C   UNL A   1      43.893  24.795  26.166  1.00  0.00     0.031 C 
ATOM     45  C   UNL A   1      39.676  25.820  28.737  1.00  0.00     0.029 A 
ATOM     46  N   UNL A   1      41.224  27.425  28.608  1.00  0.00    -0.354 N 
ATOM     47  C   UNL A   1      45.060  26.674  26.720  1.00  0.00     0.074 A 
ATOM     48  C   UNL A   1      45.093  25.351  26.140  1.00  0.00     0.031 C 
ATOM     49  C   UNL A   1      39.193  26.896  29.380  1.00  0.00     0.029 A 
ATOM     50  C   UNL A   1      40.190  27.960  29.345  1.00  0.00     0.049 A 
ATOM     51  H   UNL A   1      42.048  27.920  28.400  1.00  0.00     0.167 HD
ATOM     52  C   UNL A   1      46.081  27.562  26.645  1.00  0.00     0.034 A 
ATOM     53  C   UNL A   1      40.064  29.166  29.935  1.00  0.00     0.034 A 
ATOM     54  C   UNL A   1      46.005  28.903  27.168  1.00  0.00     0.049 A 
ATOM     55  C   UNL A   1      41.200  30.152  29.811  1.00  0.00     0.074 A 
ATOM     56  C   UNL A   1      46.940  29.919  27.077  1.00  0.00     0.029 A 
ATOM     57  N   UNL A   1      44.922  29.421  27.868  1.00  0.00    -0.354 N 
ATOM     58  N   UNL A   1      42.365  30.003  29.222  1.00  0.00    -0.248 NA
ATOM     59  C   UNL A   1      40.999  31.474  30.420  1.00  0.00     0.031 C 
ATOM     60  C   UNL A   1      46.451  31.028  27.773  1.00  0.00     0.029 A 
ATOM     61  C   UNL A   1      45.177  30.733  28.234  1.00  0.00     0.049 A 
ATOM     62  H   UNL A   1      44.096  28.927  28.075  1.00  0.00     0.167 HD
ATOM     63  C   UNL A   1      43.020  31.223  29.364  1.00  0.00     0.074 A 
ATOM     64  C   UNL A   1      42.112  32.101  30.074  1.00  0.00     0.031 C 
ATOM     65  C   UNL A   1      44.259  31.590  28.945  1.00  0.00     0.034 A 
BRANCH  52  66
ATOM     66  C   UNL A   1      47.361  27.107  25.980  1.00  0.00     0.023 A 
ATOM     67  C   UNL A   1      48.321  26.339  26.664  1.00  0.00     0.031 A 
ATOM     68  C   UNL A   1      47.641  27.471  24.650  1.00  0.00     0.131 A 
ATOM     69  C   UNL A   1      49.546  26.036  26.051  1.00  0.00     0.055 A 
ATOM     70  C   UNL A   1      48.824  27.087  24.014  1.00  0.00     0.041 A 
ATOM     71  F   UNL A   1      46.775  28.220  23.949  1.00  0.00    -0.206 F 
ATOM     72  C   UNL A   1      49.793  26.380  24.720  1.00  0.00     0.022 A 
BRANCH  69  73
ATOM     73  S   UNL A   1      50.868  25.324  27.067  1.00  0.00     0.124 S 
ATOM     74  O   UNL A   1      50.145  24.292  27.807  1.00  0.00    -0.237 OA
ATOM     75  O   UNL A   1      51.815  24.847  26.066  1.00  0.00    -0.237 OA
ATOM     76  O   UNL A   1      51.327  26.453  27.874  1.00  0.00    -0.744 OA
ENDBRANCH  69  73
ENDBRANCH  52  66
BRANCH  53  77
ATOM     77  C   UNL A   1      38.828  29.520  30.693  1.00  0.00     0.023 A 
ATOM     78  C   UNL A   1      37.862  30.376  30.137  1.00  0.00     0.031 A 
ATOM     79  C   UNL A   1      38.614  29.050  32.001  1.00  0.00     0.131 A 
ATOM     80  C   UNL A   1      36.757  30.779  30.903  1.00  0.00     0.055 A 
ATOM     81  C   UNL A   1      37.483  29.407  32.738  1.00  0.00     0.041 A 
ATOM     82  F   UNL A   1      39.501  28.225  32.580  1.00  0.00    -0.206 F 
ATOM     83  C   UNL A   1      36.554  30.289  32.195  1.00  0.00     0.022 A 
BRANCH  80  84
ATOM     84  S   UNL A   1      35.638  32.033  30.221  1.00  0.00     0.124 S 
ATOM     85  O   UNL A   1      34.662  32.176  31.294  1.00  0.00    -0.237 OA
ATOM     86  O   UNL A   1      36.539  33.163  30.018  1.00  0.00    -0.237 OA
ATOM     87  O   UNL A   1      35.136  31.412  28.997  1.00  0.00    -0.744 OA
ENDBRANCH  80  84
ENDBRANCH  53  77
BRANCH  65  88
ATOM     88  C   UNL A   1      44.674  33.016  29.203  1.00  0.00     0.023 A 
ATOM     89  C   UNL A   1      44.111  34.091  28.493  1.00  0.00     0.031 A 
ATOM     90  C   UNL A   1      45.656  33.301  30.170  1.00  0.00     0.131 A 
ATOM     91  C   UNL A   1      44.577  35.394  28.717  1.00  0.00     0.055 A 
ATOM     92  C   UNL A   1      46.068  34.607  30.434  1.00  0.00     0.041 A 
ATOM     93  F   UNL A   1      46.226  32.313  30.876  1.00  0.00    -0.206 F 
ATOM     94  C   UNL A   1      45.539  35.661  29.695  1.00  0.00     0.022 A 
BRANCH  91  95
ATOM     95  S   UNL A   1      43.980  36.727  27.643  1.00  0.00     0.124 S 
ATOM     96  O   UNL A   1      42.834  37.231  28.393  1.00  0.00    -0.237 OA
ATOM     97  O   UNL A   1      45.137  37.614  27.573  1.00  0.00    -0.237 OA
ATOM     98  O   UNL A   1      43.651  36.041  26.394  1.00  0.00    -0.744 OA
ENDBRANCH  91  95
ENDBRANCH  65  88
ENDBRANCH  39  40
ENDBRANCH  31  34
ENDBRANCH  29  30
ENDBRANCH  28  29
ENDBRANCH  27  28
ENDBRANCH   1  27
TORSDOF 21
ENDMDL
MODEL 3
REMARK VINA RESULT:     -10.9      1.448      8.024
REMARK SMILES CC(C)[C@H](NC(=O)OCc1ccccc1)C(=O)NCC(=O)NCCCCNC(=O)c1ccc(-c2c3nc(c(-c4cc(S(=O)(=O)[O-])ccc4F)c4ccc([nH]4)c(-c4cc(S(=O)(=O)[O-])ccc4F)c4nc(c(-c5cc(S(=O)(=O)[O-])ccc5F)c5ccc2[nH]5)C=C4)C=C3)cc1
REMARK SMILES IDX 23 1 22 2 20 3 21 4 19 6 18 7 16 8 17 9 4 11 2 12 1 13 3 14
REMARK SMILES IDX 5 15 6 16 7 18 8 19 9 20 10 21 11 22 15 23 12 24 14 25 13 26
REMARK SMILES IDX 24 27 25 28 26 29 27 30 28 31 29 33 30 34 31 35 92 36 32 37
REMARK SMILES IDX 91 38 33 39 34 40 35 41 85 42 36 43 90 44 84 45 86 46 37 47
REMARK SMILES IDX 89 48 83 49 82 50 38 52 70 53 50 54 69 55 51 56 54 57 68 58
REMARK SMILES IDX 87 59 52 60 53 61 67 63 88 64 55 65 39 66 40 67 48 68 41 69
REMARK SMILES IDX 47 70 49 71 46 72 42 73 43 74 44 75 45 76 71 77 72 78 80 79
REMARK SMILES IDX 73 80 79 81 81 82 78 83 74 84 75 85 76 86 77 87 56 88 57 89
REMARK SMILES IDX 65 90 58 91 64 92 66 93 63 94 59 95 60 96 61 97 62 98
REMARK H PARENT 22 5 18 10 5 17 27 32 86 51 54 62
REMARK Flexibility Score: inf
ROOT
ATOM      1  C   UNL A   1      34.953  21.111  25.596  1.00  0.00     0.116 C 
ENDROOT
BRANCH   1   2
ATOM      2  N   UNL A   1      34.052  19.978  25.432  1.00  0.00    -0.355 N 
ATOM      3  C   UNL A   1      32.694  19.979  25.258  1.00  0.00     0.239 C 
ATOM      4  O   UNL A   1      32.075  18.913  25.281  1.00  0.00    -0.273 OA
ATOM      5  H   UNL A   1      34.476  19.090  25.449  1.00  0.00     0.163 HD
BRANCH   3   6
ATOM      6  C   UNL A   1      31.967  21.304  25.035  1.00  0.00     0.216 C 
BRANCH   6   7
ATOM      7  N   UNL A   1      31.172  21.757  26.152  1.00  0.00    -0.345 N 
ATOM      8  C   UNL A   1      30.900  23.017  26.575  1.00  0.00     0.243 C 
ATOM      9  O   UNL A   1      30.022  23.135  27.442  1.00  0.00    -0.273 OA
ATOM     10  H   UNL A   1      30.765  21.040  26.690  1.00  0.00     0.164 HD
BRANCH   8  11
ATOM     11  C   UNL A   1      31.616  24.299  26.041  1.00  0.00     0.177 C 
BRANCH  11  12
ATOM     12  C   UNL A   1      30.956  25.022  24.812  1.00  0.00     0.015 C 
ATOM     13  C   UNL A   1      30.634  24.198  23.551  1.00  0.00     0.010 C 
ATOM     14  C   UNL A   1      29.749  25.880  25.203  1.00  0.00     0.010 C 
ENDBRANCH  11  12
BRANCH  11  15
ATOM     15  N   UNL A   1      33.075  24.213  25.944  1.00  0.00    -0.309 N 
ATOM     16  C   UNL A   1      33.944  25.250  25.697  1.00  0.00     0.408 C 
ATOM     17  H   UNL A   1      33.475  23.322  26.070  1.00  0.00     0.167 HD
ATOM     18  O   UNL A   1      35.052  25.010  25.235  1.00  0.00    -0.225 OA
BRANCH  16  19
ATOM     19  O   UNL A   1      33.512  26.455  26.134  1.00  0.00    -0.445 OA
BRANCH  19  20
ATOM     20  C   UNL A   1      33.884  27.625  25.363  1.00  0.00     0.270 C 
BRANCH  20  21
ATOM     21  C   UNL A   1      32.732  28.138  24.514  1.00  0.00    -0.011 A 
ATOM     22  C   UNL A   1      32.551  27.721  23.190  1.00  0.00     0.007 A 
ATOM     23  C   UNL A   1      31.801  29.047  25.049  1.00  0.00     0.007 A 
ATOM     24  C   UNL A   1      31.418  28.099  22.461  1.00  0.00     0.000 A 
ATOM     25  C   UNL A   1      30.667  29.427  24.319  1.00  0.00     0.000 A 
ATOM     26  C   UNL A   1      30.464  28.933  23.033  1.00  0.00     0.000 A 
ENDBRANCH  20  21
ENDBRANCH  19  20
ENDBRANCH  16  19
ENDBRANCH  11  15
ENDBRANCH   8  11
ENDBRANCH   6   7
ENDBRANCH   3   6
ENDBRANCH   1   2
BRANCH   1  27
ATOM     27  C   UNL A   1      35.415  21.636  24.247  1.00  0.00     0.023 C 
BRANCH  27  28
ATOM     28  C   UNL A   1      36.861  22.104  24.231  1.00  0.00     0.023 C 
BRANCH  28  29
ATOM     29  C   UNL A   1      37.477  22.236  25.609  1.00  0.00     0.116 C 
BRANCH  29  30
ATOM     30  N   UNL A   1      38.462  21.197  25.903  1.00  0.00    -0.352 N 
ATOM     31  C   UNL A   1      39.717  21.275  26.475  1.00  0.00     0.251 C 
ATOM     32  H   UNL A   1      38.185  20.286  25.651  1.00  0.00     0.163 HD
ATOM     33  O   UNL A   1      40.403  20.258  26.561  1.00  0.00    -0.269 OA
BRANCH  31  34
ATOM     34  C   UNL A   1      40.282  22.575  26.923  1.00  0.00     0.039 A 
ATOM     35  C   UNL A   1      41.283  22.587  27.901  1.00  0.00     0.014 A 
ATOM     36  C   UNL A   1      39.870  23.783  26.370  1.00  0.00     0.014 A 
ATOM     37  C   UNL A   1      41.924  23.787  28.237  1.00  0.00     0.010 A 
ATOM     38  C   UNL A   1      40.620  24.934  26.572  1.00  0.00     0.010 A 
ATOM     39  C   UNL A   1      41.643  24.965  27.529  1.00  0.00    -0.014 A 
BRANCH  39  40
ATOM     40  C   UNL A   1      42.350  26.253  27.787  1.00  0.00     0.031 A 
ATOM     41  C   UNL A   1      41.641  27.351  28.548  1.00  0.00     0.074 A 
ATOM     42  C   UNL A   1      43.573  26.478  27.266  1.00  0.00     0.049 A 
ATOM     43  N   UNL A   1      41.990  28.601  28.726  1.00  0.00    -0.248 NA
ATOM     44  C   UNL A   1      40.332  27.014  29.132  1.00  0.00     0.031 C 
ATOM     45  C   UNL A   1      44.345  25.528  26.460  1.00  0.00     0.029 A 
ATOM     46  N   UNL A   1      44.384  27.587  27.325  1.00  0.00    -0.354 N 
ATOM     47  C   UNL A   1      40.925  29.201  29.393  1.00  0.00     0.074 A 
ATOM     48  C   UNL A   1      39.887  28.202  29.508  1.00  0.00     0.031 C 
ATOM     49  C   UNL A   1      45.529  26.075  26.140  1.00  0.00     0.029 A 
ATOM     50  C   UNL A   1      45.583  27.436  26.662  1.00  0.00     0.049 A 
ATOM     51  H   UNL A   1      44.132  28.412  27.797  1.00  0.00     0.167 HD
ATOM     52  C   UNL A   1      40.832  30.455  29.897  1.00  0.00     0.034 A 
ATOM     53  C   UNL A   1      46.603  28.300  26.486  1.00  0.00     0.034 A 
ATOM     54  C   UNL A   1      41.904  31.417  29.835  1.00  0.00     0.049 A 
ATOM     55  C   UNL A   1      46.493  29.680  27.085  1.00  0.00     0.074 A 
ATOM     56  C   UNL A   1      41.958  32.685  30.384  1.00  0.00     0.029 A 
ATOM     57  N   UNL A   1      43.119  31.208  29.194  1.00  0.00    -0.354 N 
ATOM     58  N   UNL A   1      45.495  30.214  27.753  1.00  0.00    -0.248 NA
ATOM     59  C   UNL A   1      47.650  30.569  26.917  1.00  0.00     0.031 C 
ATOM     60  C   UNL A   1      43.178  33.266  30.025  1.00  0.00     0.029 A 
ATOM     61  C   UNL A   1      43.919  32.333  29.316  1.00  0.00     0.049 A 
ATOM     62  H   UNL A   1      43.373  30.383  28.723  1.00  0.00     0.167 HD
ATOM     63  C   UNL A   1      45.921  31.491  28.112  1.00  0.00     0.074 A 
ATOM     64  C   UNL A   1      47.270  31.636  27.604  1.00  0.00     0.031 C 
ATOM     65  C   UNL A   1      45.261  32.458  28.800  1.00  0.00     0.034 A 
BRANCH  52  66
ATOM     66  C   UNL A   1      39.529  30.853  30.554  1.00  0.00     0.023 A 
ATOM     67  C   UNL A   1      38.432  31.318  29.805  1.00  0.00     0.031 A 
ATOM     68  C   UNL A   1      39.389  30.796  31.952  1.00  0.00     0.131 A 
ATOM     69  C   UNL A   1      37.283  31.788  30.459  1.00  0.00     0.055 A 
ATOM     70  C   UNL A   1      38.207  31.179  32.592  1.00  0.00     0.041 A 
ATOM     71  F   UNL A   1      40.405  30.381  32.725  1.00  0.00    -0.206 F 
ATOM     72  C   UNL A   1      37.151  31.695  31.846  1.00  0.00     0.022 A 
BRANCH  69  73
ATOM     73  S   UNL A   1      36.030  32.664  29.483  1.00  0.00     0.124 S 
ATOM     74  O   UNL A   1      34.801  32.289  30.179  1.00  0.00    -0.237 OA
ATOM     75  O   UNL A   1      36.441  34.056  29.617  1.00  0.00    -0.237 OA
ATOM     76  O   UNL A   1      36.178  32.094  28.145  1.00  0.00    -0.744 OA
ENDBRANCH  69  73
ENDBRANCH  52  66
BRANCH  53  77
ATOM     77  C   UNL A   1      47.818  27.899  25.716  1.00  0.00     0.023 A 
ATOM     78  C   UNL A   1      47.875  28.066  24.322  1.00  0.00     0.031 A 
ATOM     79  C   UNL A   1      48.920  27.299  26.350  1.00  0.00     0.131 A 
ATOM     80  C   UNL A   1      48.982  27.590  23.602  1.00  0.00     0.055 A 
ATOM     81  C   UNL A   1      50.045  26.880  25.638  1.00  0.00     0.041 A 
ATOM     82  F   UNL A   1      48.922  27.119  27.681  1.00  0.00    -0.206 F 
ATOM     83  C   UNL A   1      50.074  27.010  24.252  1.00  0.00     0.022 A 
BRANCH  80  84
ATOM     84  S   UNL A   1      48.931  27.650  21.790  1.00  0.00     0.124 S 
ATOM     85  O   UNL A   1      49.441  26.331  21.435  1.00  0.00    -0.237 OA
ATOM     86  O   UNL A   1      47.513  27.879  21.535  1.00  0.00    -0.237 OA
ATOM     87  O   UNL A   1      49.810  28.769  21.461  1.00  0.00    -0.744 OA
ENDBRANCH  80  84
ENDBRANCH  53  77
BRANCH  65  88
ATOM     88  C   UNL A   1      46.014  33.733  29.082  1.00  0.00     0.023 A 
ATOM     89  C   UNL A   1      45.988  34.820  28.191  1.00  0.00     0.031 A 
ATOM     90  C   UNL A   1      46.776  33.857  30.258  1.00  0.00     0.131 A 
ATOM     91  C   UNL A   1      46.759  35.960  28.460  1.00  0.00     0.055 A 
ATOM     92  C   UNL A   1      47.489  35.020  30.551  1.00  0.00     0.041 A 
ATOM     93  F   UNL A   1      46.836  32.850  31.143  1.00  0.00    -0.206 F 
ATOM     94  C   UNL A   1      47.495  36.074  29.642  1.00  0.00     0.022 A 
BRANCH  91  95
ATOM     95  S   UNL A   1      46.866  37.254  27.195  1.00  0.00     0.124 S 
ATOM     96  O   UNL A   1      48.240  37.720  27.352  1.00  0.00    -0.237 OA
ATOM     97  O   UNL A   1      46.581  36.516  25.968  1.00  0.00    -0.237 OA
ATOM     98  O   UNL A   1      45.836  38.211  27.594  1.00  0.00    -0.744 OA
ENDBRANCH  91  95
ENDBRANCH  65  88
ENDBRANCH  39  40
ENDBRANCH  31  34
ENDBRANCH  29  30
ENDBRANCH  28  29
ENDBRANCH  27  28
ENDBRANCH   1  27
TORSDOF 21
ENDMDL
