MODEL 1
REMARK VINA RESULT:     -12.4      0.000      0.000
REMARK SMILES CCN(C(=O)Cc1c(C(=O)NCCCCNC(=O)c2ccc(-c3c4nc(c(-c5cc(S(=O)(=O)[O-])ccc5F)c5ccc([nH]5)c(-c5cc(S(=O)(=O)[O-])ccc5F)c5nc(c(-c6cc(S(=O)(=O)[O-])ccc6F)c6ccc3[nH]6)C=C5)C=C4)cc2)[nH]c2ccc(Cl)cc12)c1ccc(C)c(C)c1
REMARK SMILES IDX 13 1 12 2 11 3 9 4 10 5 8 7 7 8 89 9 82 10 83 11 88 12 84 14
REMARK SMILES IDX 86 15 85 16 87 17 6 18 4 19 5 20 3 21 2 22 1 23 90 24 91 25
REMARK SMILES IDX 97 26 92 27 95 28 93 29 96 30 94 31 14 32 15 33 16 34 17 35
REMARK SMILES IDX 18 37 19 38 20 39 81 40 21 41 80 42 22 43 23 44 24 45 74 46
REMARK SMILES IDX 25 47 79 48 73 49 75 50 26 51 78 52 72 53 71 54 27 56 59 57
REMARK SMILES IDX 39 58 58 59 40 60 43 61 57 62 76 63 41 64 42 65 56 67 77 68
REMARK SMILES IDX 44 69 28 70 29 71 37 72 30 73 36 74 38 75 35 76 31 77 32 78
REMARK SMILES IDX 33 79 34 80 60 81 61 82 69 83 62 84 68 85 70 86 67 87 63 88
REMARK SMILES IDX 64 89 65 90 66 91 45 92 46 93 54 94 47 95 53 96 55 97 52 98
REMARK SMILES IDX 48 99 49 100 50 101 51 102
REMARK H PARENT 11 6 82 13 16 36 75 55 43 66
REMARK Flexibility Score: inf
ROOT
ATOM      1  C   UNL A   1      30.878  29.484  24.461  1.00  0.00     0.023 C 
ENDROOT
BRANCH   1   2
ATOM      2  C   UNL A   1      31.108  28.423  23.396  1.00  0.00     0.116 C 
BRANCH   2   3
ATOM      3  N   UNL A   1      32.223  28.632  22.513  1.00  0.00    -0.351 N 
ATOM      4  C   UNL A   1      33.374  27.890  22.387  1.00  0.00     0.268 C 
ATOM      5  O   UNL A   1      34.207  28.311  21.580  1.00  0.00    -0.268 OA
ATOM      6  H   UNL A   1      32.154  29.412  21.917  1.00  0.00     0.163 HD
BRANCH   4   7
ATOM      7  C   UNL A   1      33.653  26.675  23.157  1.00  0.00     0.109 A 
ATOM      8  C   UNL A   1      33.676  26.235  24.494  1.00  0.00    -0.000 A 
ATOM      9  C   UNL A   1      34.426  24.991  24.466  1.00  0.00     0.005 A 
ATOM     10  N   UNL A   1      33.872  25.524  22.407  1.00  0.00    -0.350 N 
ATOM     11  C   UNL A   1      34.442  24.535  23.157  1.00  0.00     0.046 A 
ATOM     12  C   UNL A   1      35.092  24.214  25.442  1.00  0.00     0.031 A 
ATOM     13  H   UNL A   1      33.644  25.433  21.454  1.00  0.00     0.167 HD
ATOM     14  C   UNL A   1      34.980  23.300  22.772  1.00  0.00     0.028 A 
ATOM     15  C   UNL A   1      35.721  23.024  25.061  1.00  0.00     0.041 A 
ATOM     16  C   UNL A   1      35.636  22.553  23.755  1.00  0.00     0.022 A 
ATOM     17  Cl  UNL A   1      36.637  22.139  26.222  1.00  0.00    -0.084 Cl
BRANCH   8  18
ATOM     18  C   UNL A   1      33.250  26.866  25.799  1.00  0.00     0.139 C 
BRANCH  18  19
ATOM     19  C   UNL A   1      31.918  26.504  26.474  1.00  0.00     0.231 C 
ATOM     20  O   UNL A   1      31.640  27.163  27.491  1.00  0.00    -0.274 OA
BRANCH  19  21
ATOM     21  N   UNL A   1      31.009  25.586  25.948  1.00  0.00    -0.312 N 
BRANCH  21  22
ATOM     22  C   UNL A   1      29.595  25.833  25.646  1.00  0.00     0.122 C 
ATOM     23  C   UNL A   1      29.270  26.151  24.193  1.00  0.00     0.028 C 
ENDBRANCH  21  22
BRANCH  21  24
ATOM     24  C   UNL A   1      31.366  24.200  25.864  1.00  0.00     0.044 A 
ATOM     25  C   UNL A   1      31.158  23.468  24.695  1.00  0.00     0.026 A 
ATOM     26  C   UNL A   1      32.079  23.605  26.910  1.00  0.00     0.030 A 
ATOM     27  C   UNL A   1      31.687  22.180  24.575  1.00  0.00     0.006 A 
ATOM     28  C   UNL A   1      32.650  22.330  26.794  1.00  0.00    -0.046 A 
ATOM     29  C   UNL A   1      32.441  21.600  25.613  1.00  0.00    -0.048 A 
ATOM     30  C   UNL A   1      33.456  21.812  27.951  1.00  0.00     0.044 C 
ATOM     31  C   UNL A   1      32.963  20.204  25.413  1.00  0.00     0.044 C 
ENDBRANCH  21  24
ENDBRANCH  19  21
ENDBRANCH  18  19
ENDBRANCH   8  18
ENDBRANCH   4   7
ENDBRANCH   2   3
ENDBRANCH   1   2
BRANCH   1  32
ATOM     32  C   UNL A   1      32.140  30.060  25.106  1.00  0.00     0.023 C 
BRANCH  32  33
ATOM     33  C   UNL A   1      32.032  30.470  26.578  1.00  0.00     0.116 C 
BRANCH  33  34
ATOM     34  N   UNL A   1      31.984  31.911  26.786  1.00  0.00    -0.352 N 
ATOM     35  C   UNL A   1      32.872  32.749  27.433  1.00  0.00     0.251 C 
ATOM     36  H   UNL A   1      31.194  32.359  26.405  1.00  0.00     0.163 HD
ATOM     37  O   UNL A   1      32.581  33.918  27.615  1.00  0.00    -0.269 OA
BRANCH  35  38
ATOM     38  C   UNL A   1      34.155  32.207  27.942  1.00  0.00     0.039 A 
ATOM     39  C   UNL A   1      35.236  33.076  28.112  1.00  0.00     0.014 A 
ATOM     40  C   UNL A   1      34.281  30.857  28.273  1.00  0.00     0.014 A 
ATOM     41  C   UNL A   1      36.407  32.610  28.718  1.00  0.00     0.010 A 
ATOM     42  C   UNL A   1      35.414  30.418  28.953  1.00  0.00     0.010 A 
ATOM     43  C   UNL A   1      36.486  31.292  29.195  1.00  0.00    -0.014 A 
BRANCH  43  44
ATOM     44  C   UNL A   1      37.670  30.814  29.962  1.00  0.00     0.031 A 
ATOM     45  C   UNL A   1      38.639  29.848  29.335  1.00  0.00     0.074 A 
ATOM     46  C   UNL A   1      37.836  31.194  31.246  1.00  0.00     0.049 A 
ATOM     47  N   UNL A   1      39.680  29.256  29.863  1.00  0.00    -0.248 NA
ATOM     48  C   UNL A   1      38.381  29.473  27.937  1.00  0.00     0.031 C 
ATOM     49  C   UNL A   1      36.943  32.092  31.983  1.00  0.00     0.029 A 
ATOM     50  N   UNL A   1      38.807  30.871  32.163  1.00  0.00    -0.354 N 
ATOM     51  C   UNL A   1      40.193  28.431  28.868  1.00  0.00     0.074 A 
ATOM     52  C   UNL A   1      39.306  28.548  27.731  1.00  0.00     0.031 C 
ATOM     53  C   UNL A   1      37.424  32.271  33.225  1.00  0.00     0.029 A 
ATOM     54  C   UNL A   1      38.629  31.465  33.393  1.00  0.00     0.049 A 
ATOM     55  H   UNL A   1      39.559  30.271  31.960  1.00  0.00     0.167 HD
ATOM     56  C   UNL A   1      41.316  27.669  28.889  1.00  0.00     0.034 A 
ATOM     57  C   UNL A   1      39.345  31.362  34.530  1.00  0.00     0.034 A 
ATOM     58  C   UNL A   1      42.197  27.571  30.029  1.00  0.00     0.049 A 
ATOM     59  C   UNL A   1      40.571  30.483  34.542  1.00  0.00     0.074 A 
ATOM     60  C   UNL A   1      43.386  26.872  30.141  1.00  0.00     0.029 A 
ATOM     61  N   UNL A   1      41.981  28.182  31.258  1.00  0.00    -0.354 N 
ATOM     62  N   UNL A   1      41.071  29.751  33.575  1.00  0.00    -0.248 NA
ATOM     63  C   UNL A   1      41.333  30.426  35.796  1.00  0.00     0.031 C 
ATOM     64  C   UNL A   1      43.848  26.999  31.455  1.00  0.00     0.029 A 
ATOM     65  C   UNL A   1      42.996  27.848  32.142  1.00  0.00     0.049 A 
ATOM     66  H   UNL A   1      41.218  28.768  31.470  1.00  0.00     0.167 HD
ATOM     67  C   UNL A   1      42.227  29.173  34.096  1.00  0.00     0.074 A 
ATOM     68  C   UNL A   1      42.355  29.655  35.455  1.00  0.00     0.031 C 
ATOM     69  C   UNL A   1      43.106  28.326  33.501  1.00  0.00     0.034 A 
BRANCH  56  70
ATOM     70  C   UNL A   1      41.633  26.867  27.649  1.00  0.00     0.023 A 
ATOM     71  C   UNL A   1      41.387  25.483  27.581  1.00  0.00     0.031 A 
ATOM     72  C   UNL A   1      42.221  27.483  26.529  1.00  0.00     0.131 A 
ATOM     73  C   UNL A   1      41.804  24.750  26.461  1.00  0.00     0.055 A 
ATOM     74  C   UNL A   1      42.552  26.761  25.379  1.00  0.00     0.041 A 
ATOM     75  F   UNL A   1      42.501  28.795  26.539  1.00  0.00    -0.206 F 
ATOM     76  C   UNL A   1      42.360  25.382  25.348  1.00  0.00     0.022 A 
BRANCH  73  77
ATOM     77  S   UNL A   1      41.758  22.939  26.549  1.00  0.00     0.124 S 
ATOM     78  O   UNL A   1      40.398  22.657  26.095  1.00  0.00    -0.237 OA
ATOM     79  O   UNL A   1      42.829  22.551  25.640  1.00  0.00    -0.237 OA
ATOM     80  O   UNL A   1      42.005  22.659  27.962  1.00  0.00    -0.744 OA
ENDBRANCH  73  77
ENDBRANCH  56  70
BRANCH  57  81
ATOM     81  C   UNL A   1      38.928  32.101  35.759  1.00  0.00     0.023 A 
ATOM     82  C   UNL A   1      38.239  31.451  36.795  1.00  0.00     0.031 A 
ATOM     83  C   UNL A   1      39.174  33.480  35.896  1.00  0.00     0.131 A 
ATOM     84  C   UNL A   1      37.776  32.187  37.898  1.00  0.00     0.055 A 
ATOM     85  C   UNL A   1      38.761  34.195  37.021  1.00  0.00     0.041 A 
ATOM     86  F   UNL A   1      39.831  34.151  34.937  1.00  0.00    -0.206 F 
ATOM     87  C   UNL A   1      38.044  33.552  38.024  1.00  0.00     0.022 A 
BRANCH  84  88
ATOM     88  S   UNL A   1      36.735  31.350  39.126  1.00  0.00     0.124 S 
ATOM     89  O   UNL A   1      36.492  30.064  38.482  1.00  0.00    -0.237 OA
ATOM     90  O   UNL A   1      37.606  31.329  40.297  1.00  0.00    -0.237 OA
ATOM     91  O   UNL A   1      35.570  32.225  39.236  1.00  0.00    -0.744 OA
ENDBRANCH  84  88
ENDBRANCH  57  81
BRANCH  69  92
ATOM     92  C   UNL A   1      44.312  27.907  34.310  1.00  0.00     0.023 A 
ATOM     93  C   UNL A   1      44.308  26.743  35.099  1.00  0.00     0.031 A 
ATOM     94  C   UNL A   1      45.479  28.691  34.293  1.00  0.00     0.131 A 
ATOM     95  C   UNL A   1      45.429  26.428  35.884  1.00  0.00     0.055 A 
ATOM     96  C   UNL A   1      46.613  28.337  35.025  1.00  0.00     0.041 A 
ATOM     97  F   UNL A   1      45.538  29.815  33.561  1.00  0.00    -0.206 F 
ATOM     98  C   UNL A   1      46.588  27.207  35.837  1.00  0.00     0.022 A 
BRANCH  95  99
ATOM     99  S   UNL A   1      45.317  25.038  37.043  1.00  0.00     0.124 S 
ATOM    100  O   UNL A   1      46.581  25.143  37.765  1.00  0.00    -0.237 OA
ATOM    101  O   UNL A   1      44.117  25.364  37.807  1.00  0.00    -0.237 OA
ATOM    102  O   UNL A   1      45.198  23.872  36.170  1.00  0.00    -0.744 OA
ENDBRANCH  95  99
ENDBRANCH  69  92
ENDBRANCH  43  44
ENDBRANCH  35  38
ENDBRANCH  33  34
ENDBRANCH  32  33
ENDBRANCH   1  32
TORSDOF 19
ENDMDL
MODEL 2
REMARK VINA RESULT:     -12.3      1.371      2.743
REMARK SMILES CCN(C(=O)Cc1c(C(=O)NCCCCNC(=O)c2ccc(-c3c4nc(c(-c5cc(S(=O)(=O)[O-])ccc5F)c5ccc([nH]5)c(-c5cc(S(=O)(=O)[O-])ccc5F)c5nc(c(-c6cc(S(=O)(=O)[O-])ccc6F)c6ccc3[nH]6)C=C5)C=C4)cc2)[nH]c2ccc(Cl)cc12)c1ccc(C)c(C)c1
REMARK SMILES IDX 13 1 12 2 11 3 9 4 10 5 8 7 7 8 89 9 82 10 83 11 88 12 84 14
REMARK SMILES IDX 86 15 85 16 87 17 6 18 4 19 5 20 3 21 2 22 1 23 90 24 91 25
REMARK SMILES IDX 97 26 92 27 95 28 93 29 96 30 94 31 14 32 15 33 16 34 17 35
REMARK SMILES IDX 18 37 19 38 20 39 81 40 21 41 80 42 22 43 23 44 24 45 74 46
REMARK SMILES IDX 25 47 79 48 73 49 75 50 26 51 78 52 72 53 71 54 27 56 59 57
REMARK SMILES IDX 39 58 58 59 40 60 43 61 57 62 76 63 41 64 42 65 56 67 77 68
REMARK SMILES IDX 44 69 28 70 29 71 37 72 30 73 36 74 38 75 35 76 31 77 32 78
REMARK SMILES IDX 33 79 34 80 60 81 61 82 69 83 62 84 68 85 70 86 67 87 63 88
REMARK SMILES IDX 64 89 65 90 66 91 45 92 46 93 54 94 47 95 53 96 55 97 52 98
REMARK SMILES IDX 48 99 49 100 50 101 51 102
REMARK H PARENT 11 6 82 13 16 36 75 55 43 66
REMARK Flexibility Score: inf
ROOT
ATOM      1  C   UNL A   1      32.287  27.319  26.840  1.00  0.00     0.023 C 
ENDROOT
BRANCH   1   2
ATOM      2  C   UNL A   1      31.824  26.040  26.159  1.00  0.00     0.116 C 
BRANCH   2   3
ATOM      3  N   UNL A   1      30.858  25.248  26.872  1.00  0.00    -0.351 N 
ATOM      4  C   UNL A   1      30.583  23.907  26.747  1.00  0.00     0.268 C 
ATOM      5  O   UNL A   1      29.665  23.473  27.448  1.00  0.00    -0.268 OA
ATOM      6  H   UNL A   1      30.321  25.732  27.540  1.00  0.00     0.163 HD
BRANCH   4   7
ATOM      7  C   UNL A   1      31.293  23.007  25.834  1.00  0.00     0.109 A 
ATOM      8  C   UNL A   1      31.453  22.789  24.453  1.00  0.00    -0.000 A 
ATOM      9  C   UNL A   1      32.021  21.455  24.347  1.00  0.00     0.005 A 
ATOM     10  N   UNL A   1      32.191  22.129  26.432  1.00  0.00    -0.350 N 
ATOM     11  C   UNL A   1      32.554  21.123  25.583  1.00  0.00     0.046 A 
ATOM     12  C   UNL A   1      32.127  20.504  23.306  1.00  0.00     0.031 A 
ATOM     13  H   UNL A   1      32.525  22.222  27.354  1.00  0.00     0.167 HD
ATOM     14  C   UNL A   1      33.286  19.953  25.822  1.00  0.00     0.028 A 
ATOM     15  C   UNL A   1      32.769  19.286  23.553  1.00  0.00     0.041 A 
ATOM     16  C   UNL A   1      33.373  19.027  24.779  1.00  0.00     0.022 A 
ATOM     17  Cl  UNL A   1      32.792  18.075  22.326  1.00  0.00    -0.084 Cl
BRANCH   8  18
ATOM     18  C   UNL A   1      31.016  23.556  23.226  1.00  0.00     0.139 C 
BRANCH  18  19
ATOM     19  C   UNL A   1      31.547  24.966  22.925  1.00  0.00     0.231 C 
ATOM     20  O   UNL A   1      30.689  25.865  22.904  1.00  0.00    -0.274 OA
BRANCH  19  21
ATOM     21  N   UNL A   1      32.902  25.270  22.792  1.00  0.00    -0.312 N 
BRANCH  21  22
ATOM     22  C   UNL A   1      33.477  26.367  22.005  1.00  0.00     0.122 C 
ATOM     23  C   UNL A   1      33.635  27.695  22.732  1.00  0.00     0.028 C 
ENDBRANCH  21  22
BRANCH  21  24
ATOM     24  C   UNL A   1      33.889  24.345  23.269  1.00  0.00     0.044 A 
ATOM     25  C   UNL A   1      34.451  23.388  22.425  1.00  0.00     0.026 A 
ATOM     26  C   UNL A   1      34.418  24.499  24.554  1.00  0.00     0.030 A 
ATOM     27  C   UNL A   1      35.542  22.630  22.859  1.00  0.00     0.006 A 
ATOM     28  C   UNL A   1      35.535  23.776  24.994  1.00  0.00    -0.046 A 
ATOM     29  C   UNL A   1      36.100  22.817  24.138  1.00  0.00    -0.048 A 
ATOM     30  C   UNL A   1      36.066  24.068  26.368  1.00  0.00     0.044 C 
ATOM     31  C   UNL A   1      37.263  21.951  24.536  1.00  0.00     0.044 C 
ENDBRANCH  21  24
ENDBRANCH  19  21
ENDBRANCH  18  19
ENDBRANCH   8  18
ENDBRANCH   4   7
ENDBRANCH   2   3
ENDBRANCH   1   2
BRANCH   1  32
ATOM     32  C   UNL A   1      31.715  28.618  26.271  1.00  0.00     0.023 C 
BRANCH  32  33
ATOM     33  C   UNL A   1      32.728  29.679  25.830  1.00  0.00     0.116 C 
BRANCH  33  34
ATOM     34  N   UNL A   1      32.422  31.021  26.307  1.00  0.00    -0.352 N 
ATOM     35  C   UNL A   1      33.095  31.823  27.208  1.00  0.00     0.251 C 
ATOM     36  H   UNL A   1      31.605  31.419  25.926  1.00  0.00     0.163 HD
ATOM     37  O   UNL A   1      32.598  32.872  27.576  1.00  0.00    -0.269 OA
BRANCH  35  38
ATOM     38  C   UNL A   1      34.399  31.379  27.755  1.00  0.00     0.039 A 
ATOM     39  C   UNL A   1      35.407  32.326  27.955  1.00  0.00     0.014 A 
ATOM     40  C   UNL A   1      34.616  30.042  28.093  1.00  0.00     0.014 A 
ATOM     41  C   UNL A   1      36.592  31.949  28.596  1.00  0.00     0.010 A 
ATOM     42  C   UNL A   1      35.759  29.689  28.807  1.00  0.00     0.010 A 
ATOM     43  C   UNL A   1      36.755  30.640  29.078  1.00  0.00    -0.014 A 
BRANCH  43  44
ATOM     44  C   UNL A   1      37.949  30.251  29.880  1.00  0.00     0.031 A 
ATOM     45  C   UNL A   1      38.943  29.265  29.329  1.00  0.00     0.074 A 
ATOM     46  C   UNL A   1      38.102  30.733  31.131  1.00  0.00     0.049 A 
ATOM     47  N   UNL A   1      39.997  28.742  29.901  1.00  0.00    -0.248 NA
ATOM     48  C   UNL A   1      38.698  28.778  27.963  1.00  0.00     0.031 C 
ATOM     49  C   UNL A   1      37.184  31.662  31.797  1.00  0.00     0.029 A 
ATOM     50  N   UNL A   1      39.077  30.505  32.071  1.00  0.00    -0.354 N 
ATOM     51  C   UNL A   1      40.533  27.857  28.973  1.00  0.00     0.074 A 
ATOM     52  C   UNL A   1      39.646  27.864  27.829  1.00  0.00     0.031 C 
ATOM     53  C   UNL A   1      37.657  31.947  33.021  1.00  0.00     0.029 A 
ATOM     54  C   UNL A   1      38.881  31.186  33.251  1.00  0.00     0.049 A 
ATOM     55  H   UNL A   1      39.845  29.910  31.915  1.00  0.00     0.167 HD
ATOM     56  C   UNL A   1      41.674  27.127  29.052  1.00  0.00     0.034 A 
ATOM     57  C   UNL A   1      39.597  31.189  34.394  1.00  0.00     0.034 A 
ATOM     58  C   UNL A   1      42.554  27.138  30.197  1.00  0.00     0.049 A 
ATOM     59  C   UNL A   1      40.844  30.344  34.474  1.00  0.00     0.074 A 
ATOM     60  C   UNL A   1      43.760  26.479  30.363  1.00  0.00     0.029 A 
ATOM     61  N   UNL A   1      42.320  27.836  31.376  1.00  0.00    -0.354 N 
ATOM     62  N   UNL A   1      41.365  29.553  33.565  1.00  0.00    -0.248 NA
ATOM     63  C   UNL A   1      41.604  30.402  35.729  1.00  0.00     0.031 C 
ATOM     64  C   UNL A   1      44.215  26.718  31.664  1.00  0.00     0.029 A 
ATOM     65  C   UNL A   1      43.341  27.595  32.283  1.00  0.00     0.049 A 
ATOM     66  H   UNL A   1      41.543  28.417  31.542  1.00  0.00     0.167 HD
ATOM     67  C   UNL A   1      42.534  29.046  34.130  1.00  0.00     0.074 A 
ATOM     68  C   UNL A   1      42.646  29.633  35.449  1.00  0.00     0.031 C 
ATOM     69  C   UNL A   1      43.436  28.178  33.602  1.00  0.00     0.034 A 
BRANCH  56  70
ATOM     70  C   UNL A   1      42.015  26.240  27.877  1.00  0.00     0.023 A 
ATOM     71  C   UNL A   1      41.601  24.896  27.821  1.00  0.00     0.031 A 
ATOM     72  C   UNL A   1      42.791  26.731  26.813  1.00  0.00     0.131 A 
ATOM     73  C   UNL A   1      42.037  24.071  26.774  1.00  0.00     0.055 A 
ATOM     74  C   UNL A   1      43.146  25.927  25.726  1.00  0.00     0.041 A 
ATOM     75  F   UNL A   1      43.236  27.998  26.817  1.00  0.00    -0.206 F 
ATOM     76  C   UNL A   1      42.783  24.583  25.712  1.00  0.00     0.022 A 
BRANCH  73  77
ATOM     77  S   UNL A   1      41.749  22.285  26.907  1.00  0.00     0.124 S 
ATOM     78  O   UNL A   1      41.870  21.864  25.513  1.00  0.00    -0.237 OA
ATOM     79  O   UNL A   1      42.819  21.859  27.800  1.00  0.00    -0.237 OA
ATOM     80  O   UNL A   1      40.400  22.197  27.461  1.00  0.00    -0.744 OA
ENDBRANCH  73  77
ENDBRANCH  56  70
BRANCH  57  81
ATOM     81  C   UNL A   1      39.159  32.008  35.562  1.00  0.00     0.023 A 
ATOM     82  C   UNL A   1      38.465  31.426  36.635  1.00  0.00     0.031 A 
ATOM     83  C   UNL A   1      39.388  33.396  35.603  1.00  0.00     0.131 A 
ATOM     84  C   UNL A   1      37.981  32.234  37.678  1.00  0.00     0.055 A 
ATOM     85  C   UNL A   1      38.955  34.185  36.669  1.00  0.00     0.041 A 
ATOM     86  F   UNL A   1      40.049  34.005  34.606  1.00  0.00    -0.206 F 
ATOM     87  C   UNL A   1      38.234  33.606  37.709  1.00  0.00     0.022 A 
BRANCH  84  88
ATOM     88  S   UNL A   1      36.936  31.475  38.951  1.00  0.00     0.124 S 
ATOM     89  O   UNL A   1      36.782  30.118  38.439  1.00  0.00    -0.237 OA
ATOM     90  O   UNL A   1      37.761  31.620  40.146  1.00  0.00    -0.237 OA
ATOM     91  O   UNL A   1      35.726  32.293  38.930  1.00  0.00    -0.744 OA
ENDBRANCH  84  88
ENDBRANCH  57  81
BRANCH  69  92
ATOM     92  C   UNL A   1      44.649  27.852  34.441  1.00  0.00     0.023 A 
ATOM     93  C   UNL A   1      44.666  26.763  35.330  1.00  0.00     0.031 A 
ATOM     94  C   UNL A   1      45.802  28.652  34.352  1.00  0.00     0.131 A 
ATOM     95  C   UNL A   1      45.793  26.537  36.137  1.00  0.00     0.055 A 
ATOM     96  C   UNL A   1      46.944  28.383  35.109  1.00  0.00     0.041 A 
ATOM     97  F   UNL A   1      45.841  29.707  33.524  1.00  0.00    -0.206 F 
ATOM     98  C   UNL A   1      46.939  27.328  36.018  1.00  0.00     0.022 A 
BRANCH  95  99
ATOM     99  S   UNL A   1      45.707  25.253  37.414  1.00  0.00     0.124 S 
ATOM    100  O   UNL A   1      47.093  24.804  37.487  1.00  0.00    -0.237 OA
ATOM    101  O   UNL A   1      45.215  25.995  38.570  1.00  0.00    -0.237 OA
ATOM    102  O   UNL A   1      44.768  24.279  36.858  1.00  0.00    -0.744 OA
ENDBRANCH  95  99
ENDBRANCH  69  92
ENDBRANCH  43  44
ENDBRANCH  35  38
ENDBRANCH  33  34
ENDBRANCH  32  33
ENDBRANCH   1  32
TORSDOF 19
ENDMDL
MODEL 3
REMARK VINA RESULT:     -12.3      1.440      7.314
REMARK SMILES CCN(C(=O)Cc1c(C(=O)NCCCCNC(=O)c2ccc(-c3c4nc(c(-c5cc(S(=O)(=O)[O-])ccc5F)c5ccc([nH]5)c(-c5cc(S(=O)(=O)[O-])ccc5F)c5nc(c(-c6cc(S(=O)(=O)[O-])ccc6F)c6ccc3[nH]6)C=C5)C=C4)cc2)[nH]c2ccc(Cl)cc12)c1ccc(C)c(C)c1
REMARK SMILES IDX 13 1 12 2 11 3 9 4 10 5 8 7 7 8 89 9 82 10 83 11 88 12 84 14
REMARK SMILES IDX 86 15 85 16 87 17 6 18 4 19 5 20 3 21 2 22 1 23 90 24 91 25
REMARK SMILES IDX 97 26 92 27 95 28 93 29 96 30 94 31 14 32 15 33 16 34 17 35
REMARK SMILES IDX 18 37 19 38 20 39 81 40 21 41 80 42 22 43 23 44 24 45 74 46
REMARK SMILES IDX 25 47 79 48 73 49 75 50 26 51 78 52 72 53 71 54 27 56 59 57
REMARK SMILES IDX 39 58 58 59 40 60 43 61 57 62 76 63 41 64 42 65 56 67 77 68
REMARK SMILES IDX 44 69 28 70 29 71 37 72 30 73 36 74 38 75 35 76 31 77 32 78
REMARK SMILES IDX 33 79 34 80 60 81 61 82 69 83 62 84 68 85 70 86 67 87 63 88
REMARK SMILES IDX 64 89 65 90 66 91 45 92 46 93 54 94 47 95 53 96 55 97 52 98
REMARK SMILES IDX 48 99 49 100 50 101 51 102
REMARK H PARENT 11 6 82 13 16 36 75 55 43 66
REMARK Flexibility Score: inf
ROOT
ATOM      1  C   UNL A   1      30.668  28.939  24.475  1.00  0.00     0.023 C 
ENDROOT
BRANCH   1   2
ATOM      2  C   UNL A   1      30.938  27.890  23.407  1.00  0.00     0.116 C 
BRANCH   2   3
ATOM      3  N   UNL A   1      31.996  28.180  22.477  1.00  0.00    -0.351 N 
ATOM      4  C   UNL A   1      33.209  27.548  22.328  1.00  0.00     0.268 C 
ATOM      5  O   UNL A   1      33.968  28.024  21.480  1.00  0.00    -0.268 OA
ATOM      6  H   UNL A   1      31.830  28.932  21.865  1.00  0.00     0.163 HD
BRANCH   4   7
ATOM      7  C   UNL A   1      33.632  26.390  23.118  1.00  0.00     0.109 A 
ATOM      8  C   UNL A   1      33.772  26.004  24.465  1.00  0.00    -0.000 A 
ATOM      9  C   UNL A   1      34.616  24.822  24.430  1.00  0.00     0.005 A 
ATOM     10  N   UNL A   1      33.896  25.231  22.395  1.00  0.00    -0.350 N 
ATOM     11  C   UNL A   1      34.589  24.319  23.138  1.00  0.00     0.046 A 
ATOM     12  C   UNL A   1      35.401  24.137  25.387  1.00  0.00     0.031 A 
ATOM     13  H   UNL A   1      33.618  25.086  21.461  1.00  0.00     0.167 HD
ATOM     14  C   UNL A   1      35.199  23.116  22.761  1.00  0.00     0.028 A 
ATOM     15  C   UNL A   1      36.099  22.986  25.005  1.00  0.00     0.041 A 
ATOM     16  C   UNL A   1      35.972  22.460  23.723  1.00  0.00     0.022 A 
ATOM     17  Cl  UNL A   1      37.154  22.221  26.133  1.00  0.00    -0.084 Cl
BRANCH   8  18
ATOM     18  C   UNL A   1      33.378  26.649  25.773  1.00  0.00     0.139 C 
BRANCH  18  19
ATOM     19  C   UNL A   1      32.070  26.284  26.492  1.00  0.00     0.231 C 
ATOM     20  O   UNL A   1      31.826  26.938  27.520  1.00  0.00    -0.274 OA
BRANCH  19  21
ATOM     21  N   UNL A   1      31.144  25.367  25.993  1.00  0.00    -0.312 N 
BRANCH  21  22
ATOM     22  C   UNL A   1      29.703  25.586  25.824  1.00  0.00     0.122 C 
ATOM     23  C   UNL A   1      28.804  24.927  26.860  1.00  0.00     0.028 C 
ENDBRANCH  21  22
BRANCH  21  24
ATOM     24  C   UNL A   1      31.529  23.998  25.805  1.00  0.00     0.044 A 
ATOM     25  C   UNL A   1      31.275  23.333  24.606  1.00  0.00     0.026 A 
ATOM     26  C   UNL A   1      32.312  23.360  26.773  1.00  0.00     0.030 A 
ATOM     27  C   UNL A   1      31.827  22.069  24.379  1.00  0.00     0.006 A 
ATOM     28  C   UNL A   1      32.906  22.111  26.548  1.00  0.00    -0.046 A 
ATOM     29  C   UNL A   1      32.650  21.448  25.337  1.00  0.00    -0.048 A 
ATOM     30  C   UNL A   1      33.785  21.546  27.627  1.00  0.00     0.044 C 
ATOM     31  C   UNL A   1      33.193  20.082  25.024  1.00  0.00     0.044 C 
ENDBRANCH  21  24
ENDBRANCH  19  21
ENDBRANCH  18  19
ENDBRANCH   8  18
ENDBRANCH   4   7
ENDBRANCH   2   3
ENDBRANCH   1   2
BRANCH   1  32
ATOM     32  C   UNL A   1      31.821  29.901  24.766  1.00  0.00     0.023 C 
BRANCH  32  33
ATOM     33  C   UNL A   1      32.122  30.184  26.241  1.00  0.00     0.116 C 
BRANCH  33  34
ATOM     34  N   UNL A   1      32.050  31.595  26.596  1.00  0.00    -0.352 N 
ATOM     35  C   UNL A   1      32.915  32.373  27.342  1.00  0.00     0.251 C 
ATOM     36  H   UNL A   1      31.259  32.070  26.249  1.00  0.00     0.163 HD
ATOM     37  O   UNL A   1      32.603  33.513  27.638  1.00  0.00    -0.269 OA
BRANCH  35  38
ATOM     38  C   UNL A   1      34.196  31.798  27.814  1.00  0.00     0.039 A 
ATOM     39  C   UNL A   1      35.283  32.651  28.026  1.00  0.00     0.014 A 
ATOM     40  C   UNL A   1      34.317  30.432  28.072  1.00  0.00     0.014 A 
ATOM     41  C   UNL A   1      36.454  32.147  28.601  1.00  0.00     0.010 A 
ATOM     42  C   UNL A   1      35.451  29.951  28.723  1.00  0.00     0.010 A 
ATOM     43  C   UNL A   1      36.529  30.805  29.006  1.00  0.00    -0.014 A 
BRANCH  43  44
ATOM     44  C   UNL A   1      37.713  30.280  29.740  1.00  0.00     0.031 A 
ATOM     45  C   UNL A   1      37.994  30.733  31.148  1.00  0.00     0.074 A 
ATOM     46  C   UNL A   1      38.575  29.450  29.116  1.00  0.00     0.049 A 
ATOM     47  N   UNL A   1      39.012  30.455  31.921  1.00  0.00    -0.248 NA
ATOM     48  C   UNL A   1      37.014  31.648  31.752  1.00  0.00     0.031 C 
ATOM     49  C   UNL A   1      38.439  28.971  27.738  1.00  0.00     0.029 A 
ATOM     50  N   UNL A   1      39.739  28.866  29.553  1.00  0.00    -0.354 N 
ATOM     51  C   UNL A   1      38.802  31.168  33.097  1.00  0.00     0.074 A 
ATOM     52  C   UNL A   1      37.596  31.945  32.903  1.00  0.00     0.031 C 
ATOM     53  C   UNL A   1      39.460  28.146  27.455  1.00  0.00     0.029 A 
ATOM     54  C   UNL A   1      40.351  28.072  28.609  1.00  0.00     0.049 A 
ATOM     55  H   UNL A   1      40.102  29.002  30.457  1.00  0.00     0.167 HD
ATOM     56  C   UNL A   1      39.530  31.156  34.242  1.00  0.00     0.034 A 
ATOM     57  C   UNL A   1      41.504  27.375  28.660  1.00  0.00     0.034 A 
ATOM     58  C   UNL A   1      40.725  30.367  34.423  1.00  0.00     0.049 A 
ATOM     59  C   UNL A   1      42.315  27.401  29.931  1.00  0.00     0.074 A 
ATOM     60  C   UNL A   1      41.509  30.239  35.556  1.00  0.00     0.029 A 
ATOM     61  N   UNL A   1      41.317  29.580  33.442  1.00  0.00    -0.354 N 
ATOM     62  N   UNL A   1      42.073  28.040  31.052  1.00  0.00    -0.248 NA
ATOM     63  C   UNL A   1      43.548  26.605  29.947  1.00  0.00     0.031 C 
ATOM     64  C   UNL A   1      42.612  29.437  35.239  1.00  0.00     0.029 A 
ATOM     65  C   UNL A   1      42.473  28.992  33.935  1.00  0.00     0.049 A 
ATOM     66  H   UNL A   1      40.966  29.457  32.531  1.00  0.00     0.167 HD
ATOM     67  C   UNL A   1      43.109  27.693  31.917  1.00  0.00     0.074 A 
ATOM     68  C   UNL A   1      43.966  26.778  31.192  1.00  0.00     0.031 C 
ATOM     69  C   UNL A   1      43.327  28.090  33.197  1.00  0.00     0.034 A 
BRANCH  56  70
ATOM     70  C   UNL A   1      39.060  32.041  35.373  1.00  0.00     0.023 A 
ATOM     71  C   UNL A   1      39.487  33.376  35.492  1.00  0.00     0.031 A 
ATOM     72  C   UNL A   1      38.199  31.537  36.364  1.00  0.00     0.131 A 
ATOM     73  C   UNL A   1      39.127  34.130  36.619  1.00  0.00     0.055 A 
ATOM     74  C   UNL A   1      37.771  32.324  37.437  1.00  0.00     0.041 A 
ATOM     75  F   UNL A   1      37.773  30.265  36.319  1.00  0.00    -0.206 F 
ATOM     76  C   UNL A   1      38.250  33.623  37.578  1.00  0.00     0.022 A 
BRANCH  73  77
ATOM     77  S   UNL A   1      39.952  35.722  36.891  1.00  0.00     0.124 S 
ATOM     78  O   UNL A   1      39.274  36.203  38.093  1.00  0.00    -0.237 OA
ATOM     79  O   UNL A   1      41.346  35.331  37.056  1.00  0.00    -0.237 OA
ATOM     80  O   UNL A   1      39.653  36.474  35.674  1.00  0.00    -0.744 OA
ENDBRANCH  73  77
ENDBRANCH  56  70
BRANCH  57  81
ATOM     81  C   UNL A   1      41.973  26.596  27.476  1.00  0.00     0.023 A 
ATOM     82  C   UNL A   1      41.722  25.218  27.370  1.00  0.00     0.031 A 
ATOM     83  C   UNL A   1      42.718  27.209  26.452  1.00  0.00     0.131 A 
ATOM     84  C   UNL A   1      42.254  24.489  26.294  1.00  0.00     0.055 A 
ATOM     85  C   UNL A   1      43.195  26.491  25.355  1.00  0.00     0.041 A 
ATOM     86  F   UNL A   1      42.984  28.524  26.500  1.00  0.00    -0.206 F 
ATOM     87  C   UNL A   1      42.976  25.119  25.278  1.00  0.00     0.022 A 
BRANCH  84  88
ATOM     88  S   UNL A   1      42.063  22.686  26.286  1.00  0.00     0.124 S 
ATOM     89  O   UNL A   1      42.835  22.301  27.463  1.00  0.00    -0.237 OA
ATOM     90  O   UNL A   1      40.615  22.534  26.390  1.00  0.00    -0.237 OA
ATOM     91  O   UNL A   1      42.638  22.288  25.003  1.00  0.00    -0.744 OA
ENDBRANCH  84  88
ENDBRANCH  57  81
BRANCH  69  92
ATOM     92  C   UNL A   1      44.519  27.494  33.909  1.00  0.00     0.023 A 
ATOM     93  C   UNL A   1      44.422  26.305  34.653  1.00  0.00     0.031 A 
ATOM     94  C   UNL A   1      45.770  28.132  33.843  1.00  0.00     0.131 A 
ATOM     95  C   UNL A   1      45.541  25.823  35.350  1.00  0.00     0.055 A 
ATOM     96  C   UNL A   1      46.896  27.613  34.485  1.00  0.00     0.041 A 
ATOM     97  F   UNL A   1      45.921  29.272  33.150  1.00  0.00    -0.206 F 
ATOM     98  C   UNL A   1      46.782  26.459  35.255  1.00  0.00     0.022 A 
BRANCH  95  99
ATOM     99  S   UNL A   1      45.331  24.407  36.463  1.00  0.00     0.124 S 
ATOM    100  O   UNL A   1      44.246  24.859  37.328  1.00  0.00    -0.237 OA
ATOM    101  O   UNL A   1      45.001  23.328  35.537  1.00  0.00    -0.237 OA
ATOM    102  O   UNL A   1      46.634  24.287  37.115  1.00  0.00    -0.744 OA
ENDBRANCH  95  99
ENDBRANCH  69  92
ENDBRANCH  43  44
ENDBRANCH  35  38
ENDBRANCH  33  34
ENDBRANCH  32  33
ENDBRANCH   1  32
TORSDOF 19
ENDMDL
