MODEL 1
REMARK VINA RESULT:     -11.7      0.000      0.000
REMARK SMILES CCc1ccc(Nc2nc(OCC(=O)NCCCCNC(=O)c3ccc(-c4c5nc(c(-c6cc(S(=O)(=O)[O-])ccc6F)c6ccc([nH]6)c(-c6cc(S(=O)(=O)[O-])ccc6F)c6nc(c(-c7cc(S(=O)(=O)[O-])ccc7F)c7ccc4[nH]7)C=C6)C=C5)cc3)cc(-c3cccnc3)n2)cc1
REMARK SMILES IDX 16 1 15 2 13 3 14 4 12 6 11 7 10 8 8 9 9 10 94 11 87 12
REMARK SMILES IDX 86 13 7 14 6 16 3 17 4 18 96 19 5 20 95 21 2 22 1 23 88 24
REMARK SMILES IDX 89 25 93 26 90 27 92 28 91 29 17 30 18 31 19 32 20 33 21 34
REMARK SMILES IDX 22 36 23 37 24 38 85 39 25 40 84 41 26 42 27 43 28 44 78 45
REMARK SMILES IDX 29 46 83 47 77 48 79 49 30 50 82 51 76 52 75 53 31 55 63 56
REMARK SMILES IDX 43 57 62 58 44 59 47 60 61 61 80 62 45 63 46 64 60 66 81 67
REMARK SMILES IDX 48 68 32 69 33 70 41 71 34 72 40 73 42 74 39 75 35 76 36 77
REMARK SMILES IDX 37 78 38 79 64 80 65 81 73 82 66 83 72 84 74 85 71 86 67 87
REMARK SMILES IDX 68 88 69 89 70 90 49 91 50 92 58 93 51 94 57 95 59 96 56 97
REMARK SMILES IDX 52 98 53 99 54 100 55 101
REMARK H PARENT 15 5 7 15 20 35 79 54 47 65
REMARK Flexibility Score: inf
ROOT
ATOM      1  C   UNL A   1      36.126  20.390  24.983  1.00  0.00     0.116 C 
ENDROOT
BRANCH   1   2
ATOM      2  N   UNL A   1      36.568  21.657  25.530  1.00  0.00    -0.353 N 
ATOM      3  C   UNL A   1      36.691  22.855  24.894  1.00  0.00     0.258 C 
ATOM      4  O   UNL A   1      37.091  23.832  25.533  1.00  0.00    -0.271 OA
ATOM      5  H   UNL A   1      36.809  21.651  26.484  1.00  0.00     0.163 HD
BRANCH   3   6
ATOM      6  C   UNL A   1      36.320  22.977  23.408  1.00  0.00     0.331 C 
BRANCH   6   7
ATOM      7  O   UNL A   1      35.550  24.099  23.013  1.00  0.00    -0.467 OA
BRANCH   7   8
ATOM      8  C   UNL A   1      34.188  23.991  23.062  1.00  0.00     0.219 A 
ATOM      9  C   UNL A   1      32.447  22.512  22.865  1.00  0.00     0.231 A 
ATOM     10  N   UNL A   1      33.767  22.720  22.952  1.00  0.00    -0.177 NA
ATOM     11  N   UNL A   1      31.537  23.492  22.965  1.00  0.00    -0.212 NA
ATOM     12  C   UNL A   1      31.981  24.748  23.107  1.00  0.00     0.081 A 
ATOM     13  C   UNL A   1      33.320  25.048  23.174  1.00  0.00     0.097 A 
BRANCH   9  14
ATOM     14  N   UNL A   1      32.026  21.210  22.606  1.00  0.00    -0.324 N 
ATOM     15  H   UNL A   1      31.459  21.089  21.810  1.00  0.00     0.170 HD
BRANCH  14  16
ATOM     16  C   UNL A   1      32.312  20.049  23.341  1.00  0.00     0.041 A 
ATOM     17  C   UNL A   1      32.882  17.687  24.817  1.00  0.00    -0.048 A 
ATOM     18  C   UNL A   1      32.786  18.925  25.456  1.00  0.00     0.006 A 
ATOM     19  C   UNL A   1      32.722  17.650  23.423  1.00  0.00     0.006 A 
ATOM     20  C   UNL A   1      32.512  20.083  24.726  1.00  0.00     0.026 A 
ATOM     21  C   UNL A   1      32.436  18.816  22.696  1.00  0.00     0.026 A 
BRANCH  17  22
ATOM     22  C   UNL A   1      33.190  16.410  25.563  1.00  0.00     0.032 C 
ATOM     23  C   UNL A   1      34.578  15.818  25.339  1.00  0.00     0.009 C 
ENDBRANCH  17  22
ENDBRANCH  14  16
ENDBRANCH   9  14
BRANCH  12  24
ATOM     24  C   UNL A   1      30.963  25.795  23.144  1.00  0.00     0.019 A 
ATOM     25  C   UNL A   1      31.197  27.069  22.612  1.00  0.00     0.013 A 
ATOM     26  C   UNL A   1      29.721  25.583  23.737  1.00  0.00     0.121 A 
ATOM     27  C   UNL A   1      30.223  28.060  22.712  1.00  0.00     0.021 A 
ATOM     28  N   UNL A   1      28.760  26.532  23.872  1.00  0.00    -0.264 NA
ATOM     29  C   UNL A   1      29.037  27.748  23.354  1.00  0.00     0.111 A 
ENDBRANCH  12  24
ENDBRANCH   7   8
ENDBRANCH   6   7
ENDBRANCH   3   6
ENDBRANCH   1   2
BRANCH   1  30
ATOM     30  C   UNL A   1      37.245  19.350  24.966  1.00  0.00     0.023 C 
BRANCH  30  31
ATOM     31  C   UNL A   1      38.663  19.922  24.879  1.00  0.00     0.023 C 
BRANCH  31  32
ATOM     32  C   UNL A   1      39.467  19.905  26.177  1.00  0.00     0.116 C 
BRANCH  32  33
ATOM     33  N   UNL A   1      40.695  19.134  26.077  1.00  0.00    -0.352 N 
ATOM     34  C   UNL A   1      41.999  19.569  26.091  1.00  0.00     0.251 C 
ATOM     35  H   UNL A   1      40.576  18.162  25.986  1.00  0.00     0.163 HD
ATOM     36  O   UNL A   1      42.902  18.768  25.856  1.00  0.00    -0.269 OA
BRANCH  34  37
ATOM     37  C   UNL A   1      42.312  20.993  26.349  1.00  0.00     0.039 A 
ATOM     38  C   UNL A   1      42.578  21.395  27.660  1.00  0.00     0.014 A 
ATOM     39  C   UNL A   1      42.351  21.930  25.313  1.00  0.00     0.014 A 
ATOM     40  C   UNL A   1      42.945  22.718  27.922  1.00  0.00     0.010 A 
ATOM     41  C   UNL A   1      42.795  23.228  25.563  1.00  0.00     0.010 A 
ATOM     42  C   UNL A   1      43.098  23.638  26.870  1.00  0.00    -0.014 A 
BRANCH  42  43
ATOM     43  C   UNL A   1      43.580  25.023  27.133  1.00  0.00     0.031 A 
ATOM     44  C   UNL A   1      42.644  26.067  27.682  1.00  0.00     0.074 A 
ATOM     45  C   UNL A   1      44.855  25.349  26.840  1.00  0.00     0.049 A 
ATOM     46  N   UNL A   1      42.877  27.326  27.956  1.00  0.00    -0.248 NA
ATOM     47  C   UNL A   1      41.257  25.649  27.930  1.00  0.00     0.031 C 
ATOM     48  C   UNL A   1      45.846  24.440  26.258  1.00  0.00     0.029 A 
ATOM     49  N   UNL A   1      45.540  26.529  26.990  1.00  0.00    -0.354 N 
ATOM     50  C   UNL A   1      41.669  27.850  28.403  1.00  0.00     0.074 A 
ATOM     51  C   UNL A   1      40.690  26.790  28.294  1.00  0.00     0.031 C 
ATOM     52  C   UNL A   1      47.019  25.084  26.140  1.00  0.00     0.029 A 
ATOM     53  C   UNL A   1      46.855  26.463  26.588  1.00  0.00     0.049 A 
ATOM     54  H   UNL A   1      45.130  27.348  27.351  1.00  0.00     0.167 HD
ATOM     55  C   UNL A   1      41.405  29.092  28.884  1.00  0.00     0.034 A 
ATOM     56  C   UNL A   1      47.820  27.404  26.577  1.00  0.00     0.034 A 
ATOM     57  C   UNL A   1      42.394  30.139  28.988  1.00  0.00     0.049 A 
ATOM     58  C   UNL A   1      47.497  28.783  27.096  1.00  0.00     0.074 A 
ATOM     59  C   UNL A   1      42.245  31.418  29.499  1.00  0.00     0.029 A 
ATOM     60  N   UNL A   1      43.714  30.036  28.568  1.00  0.00    -0.354 N 
ATOM     61  N   UNL A   1      46.361  29.246  27.565  1.00  0.00    -0.248 NA
ATOM     62  C   UNL A   1      48.593  29.759  27.102  1.00  0.00     0.031 C 
ATOM     63  C   UNL A   1      43.447  32.109  29.317  1.00  0.00     0.029 A 
ATOM     64  C   UNL A   1      44.379  31.236  28.781  1.00  0.00     0.049 A 
ATOM     65  H   UNL A   1      44.119  29.229  28.176  1.00  0.00     0.167 HD
ATOM     66  C   UNL A   1      46.620  30.557  27.959  1.00  0.00     0.074 A 
ATOM     67  C   UNL A   1      48.022  30.800  27.688  1.00  0.00     0.031 C 
ATOM     68  C   UNL A   1      45.776  31.474  28.500  1.00  0.00     0.034 A 
BRANCH  55  69
ATOM     69  C   UNL A   1      39.985  29.387  29.308  1.00  0.00     0.023 A 
ATOM     70  C   UNL A   1      39.610  29.430  30.664  1.00  0.00     0.031 A 
ATOM     71  C   UNL A   1      38.983  29.611  28.347  1.00  0.00     0.131 A 
ATOM     72  C   UNL A   1      38.265  29.612  31.017  1.00  0.00     0.055 A 
ATOM     73  C   UNL A   1      37.661  29.881  28.708  1.00  0.00     0.041 A 
ATOM     74  F   UNL A   1      39.269  29.562  27.036  1.00  0.00    -0.206 F 
ATOM     75  C   UNL A   1      37.292  29.866  30.049  1.00  0.00     0.022 A 
BRANCH  72  76
ATOM     76  S   UNL A   1      37.781  29.357  32.747  1.00  0.00     0.124 S 
ATOM     77  O   UNL A   1      36.505  30.067  32.803  1.00  0.00    -0.237 OA
ATOM     78  O   UNL A   1      37.710  27.904  32.844  1.00  0.00    -0.237 OA
ATOM     79  O   UNL A   1      38.865  29.983  33.502  1.00  0.00    -0.744 OA
ENDBRANCH  72  76
ENDBRANCH  55  69
BRANCH  56  80
ATOM     80  C   UNL A   1      49.185  27.086  26.061  1.00  0.00     0.023 A 
ATOM     81  C   UNL A   1      49.611  27.543  24.804  1.00  0.00     0.031 A 
ATOM     82  C   UNL A   1      50.066  26.272  26.797  1.00  0.00     0.131 A 
ATOM     83  C   UNL A   1      50.856  27.140  24.296  1.00  0.00     0.055 A 
ATOM     84  C   UNL A   1      51.328  25.924  26.314  1.00  0.00     0.041 A 
ATOM     85  F   UNL A   1      49.712  25.809  28.006  1.00  0.00    -0.206 F 
ATOM     86  C   UNL A   1      51.724  26.346  25.048  1.00  0.00     0.022 A 
BRANCH  83  87
ATOM     87  S   UNL A   1      51.282  27.582  22.588  1.00  0.00     0.124 S 
ATOM     88  O   UNL A   1      51.014  29.015  22.577  1.00  0.00    -0.237 OA
ATOM     89  O   UNL A   1      52.685  27.188  22.515  1.00  0.00    -0.237 OA
ATOM     90  O   UNL A   1      50.366  26.770  21.789  1.00  0.00    -0.744 OA
ENDBRANCH  83  87
ENDBRANCH  56  80
BRANCH  68  91
ATOM     91  C   UNL A   1      46.372  32.807  28.892  1.00  0.00     0.023 A 
ATOM     92  C   UNL A   1      46.444  33.886  27.991  1.00  0.00     0.031 A 
ATOM     93  C   UNL A   1      46.909  32.989  30.179  1.00  0.00     0.131 A 
ATOM     94  C   UNL A   1      47.108  35.065  28.363  1.00  0.00     0.055 A 
ATOM     95  C   UNL A   1      47.500  34.192  30.569  1.00  0.00     0.041 A 
ATOM     96  F   UNL A   1      46.874  31.996  31.083  1.00  0.00    -0.206 F 
ATOM     97  C   UNL A   1      47.619  35.232  29.653  1.00  0.00     0.022 A 
BRANCH  94  98
ATOM     98  S   UNL A   1      47.412  36.328  27.096  1.00  0.00     0.124 S 
ATOM     99  O   UNL A   1      47.062  37.555  27.803  1.00  0.00    -0.237 OA
ATOM    100  O   UNL A   1      48.829  36.141  26.805  1.00  0.00    -0.237 OA
ATOM    101  O   UNL A   1      46.502  35.954  26.014  1.00  0.00    -0.744 OA
ENDBRANCH  94  98
ENDBRANCH  68  91
ENDBRANCH  42  43
ENDBRANCH  34  37
ENDBRANCH  32  33
ENDBRANCH  31  32
ENDBRANCH  30  31
ENDBRANCH   1  30
TORSDOF 20
ENDMDL
MODEL 2
REMARK VINA RESULT:     -11.5      5.931      9.963
REMARK SMILES CCc1ccc(Nc2nc(OCC(=O)NCCCCNC(=O)c3ccc(-c4c5nc(c(-c6cc(S(=O)(=O)[O-])ccc6F)c6ccc([nH]6)c(-c6cc(S(=O)(=O)[O-])ccc6F)c6nc(c(-c7cc(S(=O)(=O)[O-])ccc7F)c7ccc4[nH]7)C=C6)C=C5)cc3)cc(-c3cccnc3)n2)cc1
REMARK SMILES IDX 16 1 15 2 13 3 14 4 12 6 11 7 10 8 8 9 9 10 94 11 87 12
REMARK SMILES IDX 86 13 7 14 6 16 3 17 4 18 96 19 5 20 95 21 2 22 1 23 88 24
REMARK SMILES IDX 89 25 93 26 90 27 92 28 91 29 17 30 18 31 19 32 20 33 21 34
REMARK SMILES IDX 22 36 23 37 24 38 85 39 25 40 84 41 26 42 27 43 28 44 78 45
REMARK SMILES IDX 29 46 83 47 77 48 79 49 30 50 82 51 76 52 75 53 31 55 63 56
REMARK SMILES IDX 43 57 62 58 44 59 47 60 61 61 80 62 45 63 46 64 60 66 81 67
REMARK SMILES IDX 48 68 32 69 33 70 41 71 34 72 40 73 42 74 39 75 35 76 36 77
REMARK SMILES IDX 37 78 38 79 64 80 65 81 73 82 66 83 72 84 74 85 71 86 67 87
REMARK SMILES IDX 68 88 69 89 70 90 49 91 50 92 58 93 51 94 57 95 59 96 56 97
REMARK SMILES IDX 52 98 53 99 54 100 55 101
REMARK H PARENT 15 5 7 15 20 35 79 54 47 65
REMARK Flexibility Score: inf
ROOT
ATOM      1  C   UNL A   1      35.073  31.149  27.673  1.00  0.00     0.116 C 
ENDROOT
BRANCH   1   2
ATOM      2  N   UNL A   1      34.104  30.137  28.041  1.00  0.00    -0.353 N 
ATOM      3  C   UNL A   1      33.510  29.205  27.244  1.00  0.00     0.258 C 
ATOM      4  O   UNL A   1      32.698  28.423  27.744  1.00  0.00    -0.271 OA
ATOM      5  H   UNL A   1      33.841  30.120  28.990  1.00  0.00     0.163 HD
BRANCH   3   6
ATOM      6  C   UNL A   1      33.866  29.134  25.751  1.00  0.00     0.331 C 
BRANCH   6   7
ATOM      7  O   UNL A   1      33.459  27.982  25.034  1.00  0.00    -0.467 OA
BRANCH   7   8
ATOM      8  C   UNL A   1      32.178  27.941  24.559  1.00  0.00     0.219 A 
ATOM      9  C   UNL A   1      30.470  26.526  23.980  1.00  0.00     0.231 A 
ATOM     10  N   UNL A   1      31.674  26.695  24.540  1.00  0.00    -0.177 NA
ATOM     11  N   UNL A   1      29.720  27.538  23.519  1.00  0.00    -0.212 NA
ATOM     12  C   UNL A   1      30.231  28.775  23.579  1.00  0.00     0.081 A 
ATOM     13  C   UNL A   1      31.472  29.029  24.111  1.00  0.00     0.097 A 
BRANCH   9  14
ATOM     14  N   UNL A   1      30.018  25.216  23.832  1.00  0.00    -0.324 N 
ATOM     15  H   UNL A   1      29.120  25.109  23.444  1.00  0.00     0.170 HD
BRANCH  14  16
ATOM     16  C   UNL A   1      30.688  24.030  24.171  1.00  0.00     0.041 A 
ATOM     17  C   UNL A   1      32.048  21.634  24.874  1.00  0.00    -0.048 A 
ATOM     18  C   UNL A   1      32.123  22.146  23.577  1.00  0.00     0.006 A 
ATOM     19  C   UNL A   1      31.255  22.319  25.808  1.00  0.00     0.006 A 
ATOM     20  C   UNL A   1      31.449  23.320  23.235  1.00  0.00     0.026 A 
ATOM     21  C   UNL A   1      30.588  23.504  25.461  1.00  0.00     0.026 A 
BRANCH  17  22
ATOM     22  C   UNL A   1      32.749  20.362  25.288  1.00  0.00     0.032 C 
ATOM     23  C   UNL A   1      34.181  20.192  24.792  1.00  0.00     0.009 C 
ENDBRANCH  17  22
ENDBRANCH  14  16
ENDBRANCH   9  14
BRANCH  12  24
ATOM     24  C   UNL A   1      29.414  29.841  23.006  1.00  0.00     0.019 A 
ATOM     25  C   UNL A   1      29.086  30.991  23.736  1.00  0.00     0.013 A 
ATOM     26  C   UNL A   1      28.897  29.750  21.716  1.00  0.00     0.121 A 
ATOM     27  C   UNL A   1      28.260  31.963  23.177  1.00  0.00     0.021 A 
ATOM     28  N   UNL A   1      28.072  30.667  21.151  1.00  0.00    -0.264 NA
ATOM     29  C   UNL A   1      27.774  31.753  21.898  1.00  0.00     0.111 A 
ENDBRANCH  12  24
ENDBRANCH   7   8
ENDBRANCH   6   7
ENDBRANCH   3   6
ENDBRANCH   1   2
BRANCH   1  30
ATOM     30  C   UNL A   1      34.983  32.385  28.567  1.00  0.00     0.023 C 
BRANCH  30  31
ATOM     31  C   UNL A   1      33.886  33.384  28.186  1.00  0.00     0.023 C 
BRANCH  31  32
ATOM     32  C   UNL A   1      34.087  34.813  28.682  1.00  0.00     0.116 C 
BRANCH  32  33
ATOM     33  N   UNL A   1      33.215  35.158  29.793  1.00  0.00    -0.352 N 
ATOM     34  C   UNL A   1      33.360  34.880  31.132  1.00  0.00     0.251 C 
ATOM     35  H   UNL A   1      32.405  35.663  29.553  1.00  0.00     0.163 HD
ATOM     36  O   UNL A   1      32.438  35.142  31.903  1.00  0.00    -0.269 OA
BRANCH  34  37
ATOM     37  C   UNL A   1      34.595  34.237  31.635  1.00  0.00     0.039 A 
ATOM     38  C   UNL A   1      34.490  33.015  32.303  1.00  0.00     0.014 A 
ATOM     39  C   UNL A   1      35.849  34.824  31.450  1.00  0.00     0.014 A 
ATOM     40  C   UNL A   1      35.646  32.352  32.726  1.00  0.00     0.010 A 
ATOM     41  C   UNL A   1      37.004  34.125  31.800  1.00  0.00     0.010 A 
ATOM     42  C   UNL A   1      36.917  32.881  32.442  1.00  0.00    -0.014 A 
BRANCH  42  43
ATOM     43  C   UNL A   1      38.153  32.133  32.807  1.00  0.00     0.031 A 
ATOM     44  C   UNL A   1      38.863  32.416  34.105  1.00  0.00     0.074 A 
ATOM     45  C   UNL A   1      38.658  31.224  31.949  1.00  0.00     0.049 A 
ATOM     46  N   UNL A   1      39.958  31.882  34.583  1.00  0.00    -0.248 NA
ATOM     47  C   UNL A   1      38.280  33.455  34.966  1.00  0.00     0.031 C 
ATOM     48  C   UNL A   1      38.090  30.895  30.639  1.00  0.00     0.029 A 
ATOM     49  N   UNL A   1      39.758  30.409  32.044  1.00  0.00    -0.354 N 
ATOM     50  C   UNL A   1      40.198  32.521  35.795  1.00  0.00     0.074 A 
ATOM     51  C   UNL A   1      39.173  33.532  35.941  1.00  0.00     0.031 C 
ATOM     52  C   UNL A   1      38.821  29.921  30.073  1.00  0.00     0.029 A 
ATOM     53  C   UNL A   1      39.937  29.589  30.952  1.00  0.00     0.049 A 
ATOM     54  H   UNL A   1      40.363  30.409  32.820  1.00  0.00     0.167 HD
ATOM     55  C   UNL A   1      41.167  32.272  36.712  1.00  0.00     0.034 A 
ATOM     56  C   UNL A   1      40.893  28.675  30.686  1.00  0.00     0.034 A 
ATOM     57  C   UNL A   1      42.182  31.257  36.552  1.00  0.00     0.049 A 
ATOM     58  C   UNL A   1      41.972  28.431  31.712  1.00  0.00     0.074 A 
ATOM     59  C   UNL A   1      43.184  30.893  37.437  1.00  0.00     0.029 A 
ATOM     60  N   UNL A   1      42.335  30.449  35.432  1.00  0.00    -0.354 N 
ATOM     61  N   UNL A   1      42.152  29.009  32.878  1.00  0.00    -0.248 NA
ATOM     62  C   UNL A   1      42.963  27.398  31.392  1.00  0.00     0.031 C 
ATOM     63  C   UNL A   1      43.983  29.924  36.823  1.00  0.00     0.029 A 
ATOM     64  C   UNL A   1      43.429  29.611  35.592  1.00  0.00     0.049 A 
ATOM     65  H   UNL A   1      41.750  30.468  34.640  1.00  0.00     0.167 HD
ATOM     66  C   UNL A   1      43.256  28.377  33.446  1.00  0.00     0.074 A 
ATOM     67  C   UNL A   1      43.684  27.366  32.503  1.00  0.00     0.031 C 
ATOM     68  C   UNL A   1      43.856  28.609  34.642  1.00  0.00     0.034 A 
BRANCH  55  69
ATOM     69  C   UNL A   1      41.185  33.129  37.957  1.00  0.00     0.023 A 
ATOM     70  C   UNL A   1      40.482  32.763  39.120  1.00  0.00     0.031 A 
ATOM     71  C   UNL A   1      41.899  34.341  37.980  1.00  0.00     0.131 A 
ATOM     72  C   UNL A   1      40.443  33.630  40.221  1.00  0.00     0.055 A 
ATOM     73  C   UNL A   1      41.930  35.157  39.114  1.00  0.00     0.041 A 
ATOM     74  F   UNL A   1      42.572  34.760  36.897  1.00  0.00    -0.206 F 
ATOM     75  C   UNL A   1      41.187  34.812  40.237  1.00  0.00     0.022 A 
BRANCH  72  76
ATOM     76  S   UNL A   1      39.287  33.265  41.571  1.00  0.00     0.124 S 
ATOM     77  O   UNL A   1      39.047  31.837  41.376  1.00  0.00    -0.237 OA
ATOM     78  O   UNL A   1      40.059  33.628  42.754  1.00  0.00    -0.237 OA
ATOM     79  O   UNL A   1      38.142  34.126  41.283  1.00  0.00    -0.744 OA
ENDBRANCH  72  76
ENDBRANCH  55  69
BRANCH  56  80
ATOM     80  C   UNL A   1      40.882  27.919  29.399  1.00  0.00     0.023 A 
ATOM     81  C   UNL A   1      41.799  28.210  28.377  1.00  0.00     0.031 A 
ATOM     82  C   UNL A   1      39.914  26.927  29.150  1.00  0.00     0.131 A 
ATOM     83  C   UNL A   1      41.698  27.560  27.137  1.00  0.00     0.055 A 
ATOM     84  C   UNL A   1      39.857  26.239  27.937  1.00  0.00     0.041 A 
ATOM     85  F   UNL A   1      39.013  26.606  30.093  1.00  0.00    -0.206 F 
ATOM     86  C   UNL A   1      40.743  26.566  26.915  1.00  0.00     0.022 A 
BRANCH  83  87
ATOM     87  S   UNL A   1      42.768  28.108  25.778  1.00  0.00     0.124 S 
ATOM     88  O   UNL A   1      42.561  29.552  25.802  1.00  0.00    -0.237 OA
ATOM     89  O   UNL A   1      44.078  27.639  26.218  1.00  0.00    -0.237 OA
ATOM     90  O   UNL A   1      42.219  27.418  24.613  1.00  0.00    -0.744 OA
ENDBRANCH  83  87
ENDBRANCH  56  80
BRANCH  68  91
ATOM     91  C   UNL A   1      45.007  27.705  35.020  1.00  0.00     0.023 A 
ATOM     92  C   UNL A   1      44.803  26.450  35.623  1.00  0.00     0.031 A 
ATOM     93  C   UNL A   1      46.333  28.121  34.803  1.00  0.00     0.131 A 
ATOM     94  C   UNL A   1      45.903  25.696  36.059  1.00  0.00     0.055 A 
ATOM     95  C   UNL A   1      47.424  27.332  35.170  1.00  0.00     0.041 A 
ATOM     96  F   UNL A   1      46.593  29.310  34.235  1.00  0.00    -0.206 F 
ATOM     97  C   UNL A   1      47.212  26.120  35.819  1.00  0.00     0.022 A 
BRANCH  94  98
ATOM     98  S   UNL A   1      45.599  24.216  37.064  1.00  0.00     0.124 S 
ATOM     99  O   UNL A   1      44.689  23.455  36.214  1.00  0.00    -0.237 OA
ATOM    100  O   UNL A   1      46.940  23.663  37.217  1.00  0.00    -0.237 OA
ATOM    101  O   UNL A   1      45.004  24.749  38.289  1.00  0.00    -0.744 OA
ENDBRANCH  94  98
ENDBRANCH  68  91
ENDBRANCH  42  43
ENDBRANCH  34  37
ENDBRANCH  32  33
ENDBRANCH  31  32
ENDBRANCH  30  31
ENDBRANCH   1  30
TORSDOF 20
ENDMDL
MODEL 3
REMARK VINA RESULT:     -11.3      1.731      7.456
REMARK SMILES CCc1ccc(Nc2nc(OCC(=O)NCCCCNC(=O)c3ccc(-c4c5nc(c(-c6cc(S(=O)(=O)[O-])ccc6F)c6ccc([nH]6)c(-c6cc(S(=O)(=O)[O-])ccc6F)c6nc(c(-c7cc(S(=O)(=O)[O-])ccc7F)c7ccc4[nH]7)C=C6)C=C5)cc3)cc(-c3cccnc3)n2)cc1
REMARK SMILES IDX 16 1 15 2 13 3 14 4 12 6 11 7 10 8 8 9 9 10 94 11 87 12
REMARK SMILES IDX 86 13 7 14 6 16 3 17 4 18 96 19 5 20 95 21 2 22 1 23 88 24
REMARK SMILES IDX 89 25 93 26 90 27 92 28 91 29 17 30 18 31 19 32 20 33 21 34
REMARK SMILES IDX 22 36 23 37 24 38 85 39 25 40 84 41 26 42 27 43 28 44 78 45
REMARK SMILES IDX 29 46 83 47 77 48 79 49 30 50 82 51 76 52 75 53 31 55 63 56
REMARK SMILES IDX 43 57 62 58 44 59 47 60 61 61 80 62 45 63 46 64 60 66 81 67
REMARK SMILES IDX 48 68 32 69 33 70 41 71 34 72 40 73 42 74 39 75 35 76 36 77
REMARK SMILES IDX 37 78 38 79 64 80 65 81 73 82 66 83 72 84 74 85 71 86 67 87
REMARK SMILES IDX 68 88 69 89 70 90 49 91 50 92 58 93 51 94 57 95 59 96 56 97
REMARK SMILES IDX 52 98 53 99 54 100 55 101
REMARK H PARENT 15 5 7 15 20 35 79 54 47 65
REMARK Flexibility Score: inf
ROOT
ATOM      1  C   UNL A   1      36.753  20.344  25.041  1.00  0.00     0.116 C 
ENDROOT
BRANCH   1   2
ATOM      2  N   UNL A   1      36.858  21.678  25.597  1.00  0.00    -0.353 N 
ATOM      3  C   UNL A   1      36.694  22.873  24.965  1.00  0.00     0.258 C 
ATOM      4  O   UNL A   1      36.829  23.915  25.612  1.00  0.00    -0.271 OA
ATOM      5  H   UNL A   1      37.076  21.727  26.557  1.00  0.00     0.163 HD
BRANCH   3   6
ATOM      6  C   UNL A   1      36.332  22.908  23.472  1.00  0.00     0.331 C 
BRANCH   6   7
ATOM      7  O   UNL A   1      35.608  24.030  22.998  1.00  0.00    -0.467 OA
BRANCH   7   8
ATOM      8  C   UNL A   1      34.243  23.984  23.054  1.00  0.00     0.219 A 
ATOM      9  C   UNL A   1      32.440  22.574  22.934  1.00  0.00     0.231 A 
ATOM     10  N   UNL A   1      33.768  22.727  23.007  1.00  0.00    -0.177 NA
ATOM     11  N   UNL A   1      31.573  23.596  22.987  1.00  0.00    -0.212 NA
ATOM     12  C   UNL A   1      32.072  24.837  23.068  1.00  0.00     0.081 A 
ATOM     13  C   UNL A   1      33.423  25.081  23.117  1.00  0.00     0.097 A 
BRANCH   9  14
ATOM     14  N   UNL A   1      31.961  21.279  22.739  1.00  0.00    -0.324 N 
ATOM     15  H   UNL A   1      31.330  21.159  21.993  1.00  0.00     0.170 HD
BRANCH  14  16
ATOM     16  C   UNL A   1      32.270  20.126  23.477  1.00  0.00     0.041 A 
ATOM     17  C   UNL A   1      32.906  17.802  24.985  1.00  0.00    -0.048 A 
ATOM     18  C   UNL A   1      32.718  17.730  23.603  1.00  0.00     0.006 A 
ATOM     19  C   UNL A   1      32.738  19.048  25.609  1.00  0.00     0.006 A 
ATOM     20  C   UNL A   1      32.400  18.873  22.868  1.00  0.00     0.026 A 
ATOM     21  C   UNL A   1      32.429  20.196  24.864  1.00  0.00     0.026 A 
BRANCH  17  22
ATOM     22  C   UNL A   1      33.238  16.591  25.825  1.00  0.00     0.032 C 
ATOM     23  C   UNL A   1      33.501  15.296  25.063  1.00  0.00     0.009 C 
ENDBRANCH  17  22
ENDBRANCH  14  16
ENDBRANCH   9  14
BRANCH  12  24
ATOM     24  C   UNL A   1      31.100  25.927  23.055  1.00  0.00     0.019 A 
ATOM     25  C   UNL A   1      31.353  27.132  22.387  1.00  0.00     0.013 A 
ATOM     26  C   UNL A   1      29.888  25.831  23.734  1.00  0.00     0.121 A 
ATOM     27  C   UNL A   1      30.427  28.171  22.442  1.00  0.00     0.021 A 
ATOM     28  N   UNL A   1      28.975  26.830  23.826  1.00  0.00    -0.264 NA
ATOM     29  C   UNL A   1      29.268  27.977  23.175  1.00  0.00     0.111 A 
ENDBRANCH  12  24
ENDBRANCH   7   8
ENDBRANCH   6   7
ENDBRANCH   3   6
ENDBRANCH   1   2
BRANCH   1  30
ATOM     30  C   UNL A   1      38.112  19.651  24.949  1.00  0.00     0.023 C 
BRANCH  30  31
ATOM     31  C   UNL A   1      39.293  20.462  25.490  1.00  0.00     0.023 C 
BRANCH  31  32
ATOM     32  C   UNL A   1      40.114  19.790  26.588  1.00  0.00     0.116 C 
BRANCH  32  33
ATOM     33  N   UNL A   1      41.423  19.352  26.133  1.00  0.00    -0.352 N 
ATOM     34  C   UNL A   1      42.575  20.083  25.963  1.00  0.00     0.251 C 
ATOM     35  H   UNL A   1      41.495  18.395  25.915  1.00  0.00     0.163 HD
ATOM     36  O   UNL A   1      43.551  19.553  25.435  1.00  0.00    -0.269 OA
BRANCH  34  37
ATOM     37  C   UNL A   1      42.629  21.504  26.375  1.00  0.00     0.039 A 
ATOM     38  C   UNL A   1      42.794  21.803  27.730  1.00  0.00     0.014 A 
ATOM     39  C   UNL A   1      42.525  22.539  25.441  1.00  0.00     0.014 A 
ATOM     40  C   UNL A   1      42.919  23.134  28.137  1.00  0.00     0.010 A 
ATOM     41  C   UNL A   1      42.730  23.859  25.839  1.00  0.00     0.010 A 
ATOM     42  C   UNL A   1      42.930  24.173  27.191  1.00  0.00    -0.014 A 
BRANCH  42  43
ATOM     43  C   UNL A   1      43.158  25.585  27.611  1.00  0.00     0.031 A 
ATOM     44  C   UNL A   1      44.527  26.203  27.502  1.00  0.00     0.074 A 
ATOM     45  C   UNL A   1      42.137  26.298  28.127  1.00  0.00     0.049 A 
ATOM     46  N   UNL A   1      44.921  27.407  27.835  1.00  0.00    -0.248 NA
ATOM     47  C   UNL A   1      45.600  25.348  26.977  1.00  0.00     0.031 C 
ATOM     48  C   UNL A   1      40.775  25.796  28.330  1.00  0.00     0.029 A 
ATOM     49  N   UNL A   1      42.078  27.595  28.575  1.00  0.00    -0.354 N 
ATOM     50  C   UNL A   1      46.284  27.452  27.564  1.00  0.00     0.074 A 
ATOM     51  C   UNL A   1      46.661  26.131  27.108  1.00  0.00     0.031 C 
ATOM     52  C   UNL A   1      40.010  26.784  28.821  1.00  0.00     0.029 A 
ATOM     53  C   UNL A   1      40.831  27.974  29.017  1.00  0.00     0.049 A 
ATOM     54  H   UNL A   1      42.857  28.198  28.579  1.00  0.00     0.167 HD
ATOM     55  C   UNL A   1      47.138  28.503  27.662  1.00  0.00     0.034 A 
ATOM     56  C   UNL A   1      40.397  29.144  29.527  1.00  0.00     0.034 A 
ATOM     57  C   UNL A   1      46.745  29.816  28.117  1.00  0.00     0.049 A 
ATOM     58  C   UNL A   1      41.370  30.291  29.646  1.00  0.00     0.074 A 
ATOM     59  C   UNL A   1      47.518  30.961  28.214  1.00  0.00     0.029 A 
ATOM     60  N   UNL A   1      45.474  30.161  28.561  1.00  0.00    -0.354 N 
ATOM     61  N   UNL A   1      42.645  30.331  29.334  1.00  0.00    -0.248 NA
ATOM     62  C   UNL A   1      40.838  31.556  30.167  1.00  0.00     0.031 C 
ATOM     63  C   UNL A   1      46.739  31.972  28.785  1.00  0.00     0.029 A 
ATOM     64  C   UNL A   1      45.452  31.491  28.958  1.00  0.00     0.049 A 
ATOM     65  H   UNL A   1      44.702  29.551  28.588  1.00  0.00     0.167 HD
ATOM     66  C   UNL A   1      43.055  31.638  29.585  1.00  0.00     0.074 A 
ATOM     67  C   UNL A   1      41.888  32.355  30.055  1.00  0.00     0.031 C 
ATOM     68  C   UNL A   1      44.285  32.197  29.435  1.00  0.00     0.034 A 
BRANCH  55  69
ATOM     69  C   UNL A   1      48.583  28.263  27.291  1.00  0.00     0.023 A 
ATOM     70  C   UNL A   1      49.039  28.390  25.966  1.00  0.00     0.031 A 
ATOM     71  C   UNL A   1      49.519  27.883  28.270  1.00  0.00     0.131 A 
ATOM     72  C   UNL A   1      50.366  28.066  25.644  1.00  0.00     0.055 A 
ATOM     73  C   UNL A   1      50.860  27.649  27.958  1.00  0.00     0.041 A 
ATOM     74  F   UNL A   1      49.145  27.722  29.549  1.00  0.00    -0.206 F 
ATOM     75  C   UNL A   1      51.287  27.724  26.636  1.00  0.00     0.022 A 
BRANCH  72  76
ATOM     76  S   UNL A   1      50.829  27.949  23.894  1.00  0.00     0.124 S 
ATOM     77  O   UNL A   1      51.494  29.232  23.679  1.00  0.00    -0.237 OA
ATOM     78  O   UNL A   1      51.690  26.771  23.874  1.00  0.00    -0.237 OA
ATOM     79  O   UNL A   1      49.547  27.798  23.209  1.00  0.00    -0.744 OA
ENDBRANCH  72  76
ENDBRANCH  55  69
BRANCH  56  80
ATOM     80  C   UNL A   1      38.978  29.302  29.964  1.00  0.00     0.023 A 
ATOM     81  C   UNL A   1      38.024  29.906  29.131  1.00  0.00     0.031 A 
ATOM     82  C   UNL A   1      38.568  28.899  31.249  1.00  0.00     0.131 A 
ATOM     83  C   UNL A   1      36.724  30.140  29.607  1.00  0.00     0.055 A 
ATOM     84  C   UNL A   1      37.257  29.078  31.695  1.00  0.00     0.041 A 
ATOM     85  F   UNL A   1      39.437  28.314  32.087  1.00  0.00    -0.206 F 
ATOM     86  C   UNL A   1      36.330  29.717  30.878  1.00  0.00     0.022 A 
BRANCH  83  87
ATOM     87  S   UNL A   1      35.582  31.104  28.577  1.00  0.00     0.124 S 
ATOM     88  O   UNL A   1      34.844  31.860  29.582  1.00  0.00    -0.237 OA
ATOM     89  O   UNL A   1      36.502  31.871  27.743  1.00  0.00    -0.237 OA
ATOM     90  O   UNL A   1      34.812  30.080  27.875  1.00  0.00    -0.744 OA
ENDBRANCH  83  87
ENDBRANCH  56  80
BRANCH  68  91
ATOM     91  C   UNL A   1      44.407  33.675  29.726  1.00  0.00     0.023 A 
ATOM     92  C   UNL A   1      44.052  34.654  28.780  1.00  0.00     0.031 A 
ATOM     93  C   UNL A   1      44.922  34.111  30.960  1.00  0.00     0.131 A 
ATOM     94  C   UNL A   1      44.290  36.010  29.052  1.00  0.00     0.055 A 
ATOM     95  C   UNL A   1      45.085  35.465  31.255  1.00  0.00     0.041 A 
ATOM     96  F   UNL A   1      45.283  33.225  31.903  1.00  0.00    -0.206 F 
ATOM     97  C   UNL A   1      44.787  36.423  30.291  1.00  0.00     0.022 A 
BRANCH  94  98
ATOM     98  S   UNL A   1      44.068  37.217  27.716  1.00  0.00     0.124 S 
ATOM     99  O   UNL A   1      43.388  38.309  28.405  1.00  0.00    -0.237 OA
ATOM    100  O   UNL A   1      45.443  37.481  27.304  1.00  0.00    -0.237 OA
ATOM    101  O   UNL A   1      43.254  36.499  26.736  1.00  0.00    -0.744 OA
ENDBRANCH  94  98
ENDBRANCH  68  91
ENDBRANCH  42  43
ENDBRANCH  34  37
ENDBRANCH  32  33
ENDBRANCH  31  32
ENDBRANCH  30  31
ENDBRANCH   1  30
TORSDOF 20
ENDMDL
