MODEL 1
REMARK VINA RESULT:     -12.5      0.000      0.000
REMARK SMILES Cc1cc2c(c(C)c1Cl)C=C(C(=O)NCCCCNC(=O)c1ccc(-c3c4nc(c(-c5cc(S(=O)(=O)[O-])ccc5F)c5ccc([nH]5)c(-c5cc(S(=O)(=O)[O-])ccc5F)c5nc(c(-c6cc(S(=O)(=O)[O-])ccc6F)c6ccc3[nH]6)C=C5)C=C4)cc1)[C@@H](C(F)(F)F)O2
REMARK SMILES IDX 17 1 16 2 15 3 14 4 12 5 13 6 11 8 1 9 2 10 3 11 8 12 4 13
REMARK SMILES IDX 6 14 9 15 5 16 90 17 7 18 10 19 85 20 86 21 87 22 88 23
REMARK SMILES IDX 89 24 18 25 19 26 20 27 21 29 22 30 23 31 84 32 24 33 83 34
REMARK SMILES IDX 25 35 26 36 27 37 77 38 28 39 82 40 76 41 78 42 29 43 81 44
REMARK SMILES IDX 75 45 74 46 30 48 62 49 42 50 61 51 43 52 46 53 60 54 79 55
REMARK SMILES IDX 44 56 45 57 59 59 80 60 47 61 31 62 32 63 40 64 33 65 39 66
REMARK SMILES IDX 41 67 38 68 34 69 35 70 36 71 37 72 63 73 64 74 72 75 65 76
REMARK SMILES IDX 71 77 73 78 70 79 66 80 67 81 68 82 69 83 48 84 49 85 57 86
REMARK SMILES IDX 50 87 56 88 58 89 55 90 51 91 52 92 53 93 54 94
REMARK H PARENT 14 7 19 28 78 47 46 58
REMARK Flexibility Score: inf
ROOT
ATOM      1  C   UNL A   1      38.472  19.681  25.037  1.00  0.00     0.023 C 
ENDROOT
BRANCH   1   2
ATOM      2  C   UNL A   1      37.656  20.936  24.713  1.00  0.00     0.023 C 
BRANCH   2   3
ATOM      3  C   UNL A   1      36.345  21.043  25.486  1.00  0.00     0.116 C 
BRANCH   3   4
ATOM      4  N   UNL A   1      35.367  20.072  25.027  1.00  0.00    -0.352 N 
ATOM      5  C   UNL A   1      34.042  20.054  24.757  1.00  0.00     0.251 C 
ATOM      6  O   UNL A   1      33.595  18.963  24.385  1.00  0.00    -0.270 OA
ATOM      7  H   UNL A   1      35.779  19.190  24.871  1.00  0.00     0.163 HD
BRANCH   5   8
ATOM      8  C   UNL A   1      33.119  21.223  24.871  1.00  0.00     0.067 C 
ATOM      9  C   UNL A   1      29.503  26.584  24.161  1.00  0.00     0.046 C 
ATOM     10  C   UNL A   1      30.442  25.424  23.965  1.00  0.00    -0.028 A 
ATOM     11  C   UNL A   1      30.441  24.433  24.954  1.00  0.00     0.052 A 
ATOM     12  C   UNL A   1      31.346  25.309  22.891  1.00  0.00     0.047 A 
ATOM     13  C   UNL A   1      31.309  23.350  24.873  1.00  0.00     0.128 A 
ATOM     14  C   UNL A   1      32.218  24.194  22.783  1.00  0.00    -0.021 A 
ATOM     15  Cl  UNL A   1      31.382  26.565  21.689  1.00  0.00    -0.084 Cl
ATOM     16  C   UNL A   1      32.190  23.206  23.798  1.00  0.00     0.022 A 
ATOM     17  O   UNL A   1      31.201  22.436  25.882  1.00  0.00    -0.475 OA
ATOM     18  C   UNL A   1      33.175  24.035  21.624  1.00  0.00     0.047 C 
ATOM     19  C   UNL A   1      33.029  22.002  23.775  1.00  0.00     0.026 C 
ATOM     20  C   UNL A   1      32.356  21.583  26.108  1.00  0.00     0.314 C 
BRANCH  20  21
ATOM     21  C   UNL A   1      33.245  22.208  27.200  1.00  0.00     0.429 C 
ATOM     22  F   UNL A   1      34.042  23.168  26.669  1.00  0.00    -0.167 F 
ATOM     23  F   UNL A   1      32.525  22.804  28.179  1.00  0.00    -0.167 F 
ATOM     24  F   UNL A   1      34.049  21.300  27.799  1.00  0.00    -0.167 F 
ENDBRANCH  20  21
ENDBRANCH   5   8
ENDBRANCH   3   4
ENDBRANCH   2   3
ENDBRANCH   1   2
BRANCH   1  25
ATOM     25  C   UNL A   1      39.509  19.842  26.148  1.00  0.00     0.116 C 
BRANCH  25  26
ATOM     26  N   UNL A   1      40.661  18.966  25.997  1.00  0.00    -0.352 N 
ATOM     27  C   UNL A   1      41.994  19.296  26.032  1.00  0.00     0.251 C 
ATOM     28  H   UNL A   1      40.459  18.013  25.850  1.00  0.00     0.163 HD
ATOM     29  O   UNL A   1      42.845  18.449  25.782  1.00  0.00    -0.269 OA
BRANCH  27  30
ATOM     30  C   UNL A   1      42.381  20.687  26.336  1.00  0.00     0.039 A 
ATOM     31  C   UNL A   1      42.576  21.058  27.667  1.00  0.00     0.014 A 
ATOM     32  C   UNL A   1      42.587  21.606  25.302  1.00  0.00     0.014 A 
ATOM     33  C   UNL A   1      43.043  22.339  27.962  1.00  0.00     0.010 A 
ATOM     34  C   UNL A   1      43.106  22.863  25.593  1.00  0.00     0.010 A 
ATOM     35  C   UNL A   1      43.340  23.239  26.925  1.00  0.00    -0.014 A 
BRANCH  35  36
ATOM     36  C   UNL A   1      43.868  24.594  27.210  1.00  0.00     0.031 A 
ATOM     37  C   UNL A   1      42.937  25.657  27.722  1.00  0.00     0.074 A 
ATOM     38  C   UNL A   1      45.160  24.879  26.961  1.00  0.00     0.049 A 
ATOM     39  N   UNL A   1      43.161  26.930  27.913  1.00  0.00    -0.248 NA
ATOM     40  C   UNL A   1      41.564  25.231  28.037  1.00  0.00     0.031 C 
ATOM     41  C   UNL A   1      46.155  23.930  26.457  1.00  0.00     0.029 A 
ATOM     42  N   UNL A   1      45.858  26.052  27.095  1.00  0.00    -0.354 N 
ATOM     43  C   UNL A   1      41.956  27.461  28.358  1.00  0.00     0.074 A 
ATOM     44  C   UNL A   1      40.993  26.380  28.362  1.00  0.00     0.031 C 
ATOM     45  C   UNL A   1      47.341  24.552  26.351  1.00  0.00     0.029 A 
ATOM     46  C   UNL A   1      47.181  25.952  26.735  1.00  0.00     0.049 A 
ATOM     47  H   UNL A   1      45.450  26.888  27.418  1.00  0.00     0.167 HD
ATOM     48  C   UNL A   1      41.685  28.730  28.750  1.00  0.00     0.034 A 
ATOM     49  C   UNL A   1      48.151  26.886  26.707  1.00  0.00     0.034 A 
ATOM     50  C   UNL A   1      42.657  29.792  28.759  1.00  0.00     0.049 A 
ATOM     51  C   UNL A   1      47.817  28.296  27.113  1.00  0.00     0.074 A 
ATOM     52  C   UNL A   1      42.491  31.110  29.149  1.00  0.00     0.029 A 
ATOM     53  N   UNL A   1      43.982  29.657  28.365  1.00  0.00    -0.354 N 
ATOM     54  N   UNL A   1      46.665  28.791  27.505  1.00  0.00    -0.248 NA
ATOM     55  C   UNL A   1      48.911  29.276  27.069  1.00  0.00     0.031 C 
ATOM     56  C   UNL A   1      43.702  31.781  28.949  1.00  0.00     0.029 A 
ATOM     57  C   UNL A   1      44.640  30.870  28.489  1.00  0.00     0.049 A 
ATOM     58  H   UNL A   1      44.393  28.822  28.045  1.00  0.00     0.167 HD
ATOM     59  C   UNL A   1      46.901  30.137  27.769  1.00  0.00     0.074 A 
ATOM     60  C   UNL A   1      48.306  30.372  27.503  1.00  0.00     0.031 C 
ATOM     61  C   UNL A   1      46.036  31.090  28.197  1.00  0.00     0.034 A 
BRANCH  48  62
ATOM     62  C   UNL A   1      40.274  29.031  29.180  1.00  0.00     0.023 A 
ATOM     63  C   UNL A   1      39.889  28.957  30.530  1.00  0.00     0.031 A 
ATOM     64  C   UNL A   1      39.298  29.378  28.231  1.00  0.00     0.131 A 
ATOM     65  C   UNL A   1      38.550  29.173  30.888  1.00  0.00     0.055 A 
ATOM     66  C   UNL A   1      37.981  29.657  28.601  1.00  0.00     0.041 A 
ATOM     67  F   UNL A   1      39.606  29.442  26.926  1.00  0.00    -0.206 F 
ATOM     68  C   UNL A   1      37.598  29.546  29.935  1.00  0.00     0.022 A 
BRANCH  65  69
ATOM     69  S   UNL A   1      38.048  28.865  32.602  1.00  0.00     0.124 S 
ATOM     70  O   UNL A   1      36.652  29.295  32.580  1.00  0.00    -0.237 OA
ATOM     71  O   UNL A   1      38.272  27.432  32.747  1.00  0.00    -0.237 OA
ATOM     72  O   UNL A   1      38.944  29.718  33.379  1.00  0.00    -0.744 OA
ENDBRANCH  65  69
ENDBRANCH  48  62
BRANCH  49  73
ATOM     73  C   UNL A   1      49.527  26.525  26.272  1.00  0.00     0.023 A 
ATOM     74  C   UNL A   1      50.017  26.940  25.024  1.00  0.00     0.031 A 
ATOM     75  C   UNL A   1      50.367  25.755  27.093  1.00  0.00     0.131 A 
ATOM     76  C   UNL A   1      51.306  26.560  24.619  1.00  0.00     0.055 A 
ATOM     77  C   UNL A   1      51.662  25.408  26.700  1.00  0.00     0.041 A 
ATOM     78  F   UNL A   1      49.946  25.343  28.299  1.00  0.00    -0.206 F 
ATOM     79  C   UNL A   1      52.135  25.805  25.453  1.00  0.00     0.022 A 
BRANCH  76  80
ATOM     80  S   UNL A   1      51.879  27.046  22.969  1.00  0.00     0.124 S 
ATOM     81  O   UNL A   1      52.367  28.400  23.211  1.00  0.00    -0.237 OA
ATOM     82  O   UNL A   1      52.896  26.038  22.690  1.00  0.00    -0.237 OA
ATOM     83  O   UNL A   1      50.674  26.953  22.149  1.00  0.00    -0.744 OA
ENDBRANCH  76  80
ENDBRANCH  49  73
BRANCH  61  84
ATOM     84  C   UNL A   1      46.596  32.468  28.424  1.00  0.00     0.023 A 
ATOM     85  C   UNL A   1      46.757  33.376  27.364  1.00  0.00     0.031 A 
ATOM     86  C   UNL A   1      46.957  32.881  29.717  1.00  0.00     0.131 A 
ATOM     87  C   UNL A   1      47.307  34.642  27.611  1.00  0.00     0.055 A 
ATOM     88  C   UNL A   1      47.459  34.159  29.965  1.00  0.00     0.041 A 
ATOM     89  F   UNL A   1      46.821  32.050  30.763  1.00  0.00    -0.206 F 
ATOM     90  C   UNL A   1      47.644  35.045  28.907  1.00  0.00     0.022 A 
BRANCH  87  91
ATOM     91  S   UNL A   1      47.627  35.742  26.206  1.00  0.00     0.124 S 
ATOM     92  O   UNL A   1      48.903  36.345  26.579  1.00  0.00    -0.237 OA
ATOM     93  O   UNL A   1      47.668  34.813  25.081  1.00  0.00    -0.237 OA
ATOM     94  O   UNL A   1      46.485  36.653  26.214  1.00  0.00    -0.744 OA
ENDBRANCH  87  91
ENDBRANCH  61  84
ENDBRANCH  35  36
ENDBRANCH  27  30
ENDBRANCH  25  26
ENDBRANCH   1  25
TORSDOF 15
ENDMDL
MODEL 2
REMARK VINA RESULT:     -12.5      6.062     11.698
REMARK SMILES Cc1cc2c(c(C)c1Cl)C=C(C(=O)NCCCCNC(=O)c1ccc(-c3c4nc(c(-c5cc(S(=O)(=O)[O-])ccc5F)c5ccc([nH]5)c(-c5cc(S(=O)(=O)[O-])ccc5F)c5nc(c(-c6cc(S(=O)(=O)[O-])ccc6F)c6ccc3[nH]6)C=C5)C=C4)cc1)[C@@H](C(F)(F)F)O2
REMARK SMILES IDX 17 1 16 2 15 3 14 4 12 5 13 6 11 8 1 9 2 10 3 11 8 12 4 13
REMARK SMILES IDX 6 14 9 15 5 16 90 17 7 18 10 19 85 20 86 21 87 22 88 23
REMARK SMILES IDX 89 24 18 25 19 26 20 27 21 29 22 30 23 31 84 32 24 33 83 34
REMARK SMILES IDX 25 35 26 36 27 37 77 38 28 39 82 40 76 41 78 42 29 43 81 44
REMARK SMILES IDX 75 45 74 46 30 48 62 49 42 50 61 51 43 52 46 53 60 54 79 55
REMARK SMILES IDX 44 56 45 57 59 59 80 60 47 61 31 62 32 63 40 64 33 65 39 66
REMARK SMILES IDX 41 67 38 68 34 69 35 70 36 71 37 72 63 73 64 74 72 75 65 76
REMARK SMILES IDX 71 77 73 78 70 79 66 80 67 81 68 82 69 83 48 84 49 85 57 86
REMARK SMILES IDX 50 87 56 88 58 89 55 90 51 91 52 92 53 93 54 94
REMARK H PARENT 14 7 19 28 78 47 46 58
REMARK Flexibility Score: inf
ROOT
ATOM      1  C   UNL A   1      32.034  31.168  26.652  1.00  0.00     0.023 C 
ENDROOT
BRANCH   1   2
ATOM      2  C   UNL A   1      32.067  29.679  27.013  1.00  0.00     0.023 C 
BRANCH   2   3
ATOM      3  C   UNL A   1      33.426  29.019  26.804  1.00  0.00     0.116 C 
BRANCH   3   4
ATOM      4  N   UNL A   1      33.828  29.043  25.408  1.00  0.00    -0.352 N 
ATOM      5  C   UNL A   1      33.850  28.176  24.369  1.00  0.00     0.251 C 
ATOM      6  O   UNL A   1      34.305  28.631  23.314  1.00  0.00    -0.270 OA
ATOM      7  H   UNL A   1      34.179  29.926  25.148  1.00  0.00     0.163 HD
BRANCH   5   8
ATOM      8  C   UNL A   1      33.375  26.761  24.413  1.00  0.00     0.067 C 
ATOM      9  C   UNL A   1      32.520  20.338  24.986  1.00  0.00     0.046 C 
ATOM     10  C   UNL A   1      33.069  21.739  24.979  1.00  0.00    -0.028 A 
ATOM     11  C   UNL A   1      32.154  22.778  24.775  1.00  0.00     0.052 A 
ATOM     12  C   UNL A   1      34.437  22.055  25.107  1.00  0.00     0.047 A 
ATOM     13  C   UNL A   1      32.584  24.099  24.709  1.00  0.00     0.128 A 
ATOM     14  C   UNL A   1      34.884  23.401  25.070  1.00  0.00    -0.021 A 
ATOM     15  Cl  UNL A   1      35.579  20.760  25.312  1.00  0.00    -0.084 Cl
ATOM     16  C   UNL A   1      33.932  24.431  24.865  1.00  0.00     0.022 A 
ATOM     17  O   UNL A   1      31.599  25.028  24.530  1.00  0.00    -0.475 OA
ATOM     18  C   UNL A   1      36.342  23.765  25.235  1.00  0.00     0.047 C 
ATOM     19  C   UNL A   1      34.281  25.855  24.833  1.00  0.00     0.026 C 
ATOM     20  C   UNL A   1      32.012  26.311  23.987  1.00  0.00     0.314 C 
BRANCH  20  21
ATOM     21  C   UNL A   1      31.836  26.297  22.457  1.00  0.00     0.429 C 
ATOM     22  F   UNL A   1      31.264  27.453  22.036  1.00  0.00    -0.167 F 
ATOM     23  F   UNL A   1      33.014  26.189  21.799  1.00  0.00    -0.167 F 
ATOM     24  F   UNL A   1      31.053  25.280  22.032  1.00  0.00    -0.167 F 
ENDBRANCH  20  21
ENDBRANCH   5   8
ENDBRANCH   3   4
ENDBRANCH   2   3
ENDBRANCH   1   2
BRANCH   1  25
ATOM     25  C   UNL A   1      33.163  32.011  27.245  1.00  0.00     0.116 C 
BRANCH  25  26
ATOM     26  N   UNL A   1      32.761  33.371  27.569  1.00  0.00    -0.352 N 
ATOM     27  C   UNL A   1      33.272  34.204  28.534  1.00  0.00     0.251 C 
ATOM     28  H   UNL A   1      32.028  33.743  27.027  1.00  0.00     0.163 HD
ATOM     29  O   UNL A   1      32.748  35.293  28.749  1.00  0.00    -0.269 OA
BRANCH  27  30
ATOM     30  C   UNL A   1      34.431  33.755  29.330  1.00  0.00     0.039 A 
ATOM     31  C   UNL A   1      34.219  32.879  30.395  1.00  0.00     0.014 A 
ATOM     32  C   UNL A   1      35.723  34.170  28.993  1.00  0.00     0.014 A 
ATOM     33  C   UNL A   1      35.314  32.364  31.089  1.00  0.00     0.010 A 
ATOM     34  C   UNL A   1      36.816  33.612  29.649  1.00  0.00     0.010 A 
ATOM     35  C   UNL A   1      36.620  32.703  30.700  1.00  0.00    -0.014 A 
BRANCH  35  36
ATOM     36  C   UNL A   1      37.801  32.145  31.401  1.00  0.00     0.031 A 
ATOM     37  C   UNL A   1      38.585  31.036  30.759  1.00  0.00     0.074 A 
ATOM     38  C   UNL A   1      38.133  32.597  32.625  1.00  0.00     0.049 A 
ATOM     39  N   UNL A   1      39.566  30.325  31.249  1.00  0.00    -0.248 NA
ATOM     40  C   UNL A   1      38.196  30.664  29.390  1.00  0.00     0.031 C 
ATOM     41  C   UNL A   1      37.441  33.665  33.350  1.00  0.00     0.029 A 
ATOM     42  N   UNL A   1      39.135  32.212  33.478  1.00  0.00    -0.354 N 
ATOM     43  C   UNL A   1      39.903  29.413  30.256  1.00  0.00     0.074 A 
ATOM     44  C   UNL A   1      38.989  29.630  29.154  1.00  0.00     0.031 C 
ATOM     45  C   UNL A   1      38.058  33.868  34.527  1.00  0.00     0.029 A 
ATOM     46  C   UNL A   1      39.157  32.916  34.659  1.00  0.00     0.049 A 
ATOM     47  H   UNL A   1      39.779  31.498  33.266  1.00  0.00     0.167 HD
ATOM     48  C   UNL A   1      40.899  28.493  30.255  1.00  0.00     0.034 A 
ATOM     49  C   UNL A   1      39.964  32.798  35.731  1.00  0.00     0.034 A 
ATOM     50  C   UNL A   1      41.813  28.299  31.351  1.00  0.00     0.049 A 
ATOM     51  C   UNL A   1      41.040  31.746  35.721  1.00  0.00     0.074 A 
ATOM     52  C   UNL A   1      42.864  27.405  31.448  1.00  0.00     0.029 A 
ATOM     53  N   UNL A   1      41.788  29.017  32.540  1.00  0.00    -0.354 N 
ATOM     54  N   UNL A   1      41.329  30.871  34.785  1.00  0.00    -0.248 NA
ATOM     55  C   UNL A   1      41.897  31.663  36.911  1.00  0.00     0.031 C 
ATOM     56  C   UNL A   1      43.448  27.551  32.712  1.00  0.00     0.029 A 
ATOM     57  C   UNL A   1      42.796  28.575  33.382  1.00  0.00     0.049 A 
ATOM     58  H   UNL A   1      41.148  29.733  32.754  1.00  0.00     0.167 HD
ATOM     59  C   UNL A   1      42.412  30.143  35.270  1.00  0.00     0.074 A 
ATOM     60  C   UNL A   1      42.730  30.689  36.574  1.00  0.00     0.031 C 
ATOM     61  C   UNL A   1      43.083  29.118  34.688  1.00  0.00     0.034 A 
BRANCH  48  62
ATOM     62  C   UNL A   1      41.029  27.621  29.036  1.00  0.00     0.023 A 
ATOM     63  C   UNL A   1      42.009  27.870  28.059  1.00  0.00     0.031 A 
ATOM     64  C   UNL A   1      40.154  26.539  28.836  1.00  0.00     0.131 A 
ATOM     65  C   UNL A   1      42.056  27.081  26.900  1.00  0.00     0.055 A 
ATOM     66  C   UNL A   1      40.249  25.717  27.712  1.00  0.00     0.041 A 
ATOM     67  F   UNL A   1      39.187  26.270  29.726  1.00  0.00    -0.206 F 
ATOM     68  C   UNL A   1      41.198  25.992  26.731  1.00  0.00     0.022 A 
BRANCH  65  69
ATOM     69  S   UNL A   1      43.191  27.559  25.570  1.00  0.00     0.124 S 
ATOM     70  O   UNL A   1      42.282  28.203  24.626  1.00  0.00    -0.237 OA
ATOM     71  O   UNL A   1      44.131  28.440  26.254  1.00  0.00    -0.237 OA
ATOM     72  O   UNL A   1      43.746  26.284  25.120  1.00  0.00    -0.744 OA
ENDBRANCH  65  69
ENDBRANCH  48  62
BRANCH  49  73
ATOM     73  C   UNL A   1      39.784  33.692  36.906  1.00  0.00     0.023 A 
ATOM     74  C   UNL A   1      39.091  33.250  38.044  1.00  0.00     0.031 A 
ATOM     75  C   UNL A   1      40.295  35.001  36.906  1.00  0.00     0.131 A 
ATOM     76  C   UNL A   1      38.904  34.121  39.129  1.00  0.00     0.055 A 
ATOM     77  C   UNL A   1      40.136  35.852  38.001  1.00  0.00     0.041 A 
ATOM     78  F   UNL A   1      40.973  35.464  35.845  1.00  0.00    -0.206 F 
ATOM     79  C   UNL A   1      39.431  35.415  39.119  1.00  0.00     0.022 A 
BRANCH  76  80
ATOM     80  S   UNL A   1      37.937  33.545  40.551  1.00  0.00     0.124 S 
ATOM     81  O   UNL A   1      36.716  33.072  39.907  1.00  0.00    -0.237 OA
ATOM     82  O   UNL A   1      38.805  32.517  41.114  1.00  0.00    -0.237 OA
ATOM     83  O   UNL A   1      37.788  34.746  41.369  1.00  0.00    -0.744 OA
ENDBRANCH  76  80
ENDBRANCH  49  73
BRANCH  61  84
ATOM     84  C   UNL A   1      44.244  28.540  35.452  1.00  0.00     0.023 A 
ATOM     85  C   UNL A   1      44.050  27.592  36.470  1.00  0.00     0.031 A 
ATOM     86  C   UNL A   1      45.558  28.933  35.147  1.00  0.00     0.131 A 
ATOM     87  C   UNL A   1      45.155  27.096  37.178  1.00  0.00     0.055 A 
ATOM     88  C   UNL A   1      46.657  28.401  35.823  1.00  0.00     0.041 A 
ATOM     89  F   UNL A   1      45.795  29.836  34.182  1.00  0.00    -0.206 F 
ATOM     90  C   UNL A   1      46.458  27.483  36.850  1.00  0.00     0.022 A 
BRANCH  87  91
ATOM     91  S   UNL A   1      44.863  25.976  38.574  1.00  0.00     0.124 S 
ATOM     92  O   UNL A   1      45.927  26.361  39.496  1.00  0.00    -0.237 OA
ATOM     93  O   UNL A   1      43.507  26.328  38.983  1.00  0.00    -0.237 OA
ATOM     94  O   UNL A   1      45.006  24.647  37.983  1.00  0.00    -0.744 OA
ENDBRANCH  87  91
ENDBRANCH  61  84
ENDBRANCH  35  36
ENDBRANCH  27  30
ENDBRANCH  25  26
ENDBRANCH   1  25
TORSDOF 15
ENDMDL
MODEL 3
REMARK VINA RESULT:     -12.3      6.259     10.357
REMARK SMILES Cc1cc2c(c(C)c1Cl)C=C(C(=O)NCCCCNC(=O)c1ccc(-c3c4nc(c(-c5cc(S(=O)(=O)[O-])ccc5F)c5ccc([nH]5)c(-c5cc(S(=O)(=O)[O-])ccc5F)c5nc(c(-c6cc(S(=O)(=O)[O-])ccc6F)c6ccc3[nH]6)C=C5)C=C4)cc1)[C@@H](C(F)(F)F)O2
REMARK SMILES IDX 17 1 16 2 15 3 14 4 12 5 13 6 11 8 1 9 2 10 3 11 8 12 4 13
REMARK SMILES IDX 6 14 9 15 5 16 90 17 7 18 10 19 85 20 86 21 87 22 88 23
REMARK SMILES IDX 89 24 18 25 19 26 20 27 21 29 22 30 23 31 84 32 24 33 83 34
REMARK SMILES IDX 25 35 26 36 27 37 77 38 28 39 82 40 76 41 78 42 29 43 81 44
REMARK SMILES IDX 75 45 74 46 30 48 62 49 42 50 61 51 43 52 46 53 60 54 79 55
REMARK SMILES IDX 44 56 45 57 59 59 80 60 47 61 31 62 32 63 40 64 33 65 39 66
REMARK SMILES IDX 41 67 38 68 34 69 35 70 36 71 37 72 63 73 64 74 72 75 65 76
REMARK SMILES IDX 71 77 73 78 70 79 66 80 67 81 68 82 69 83 48 84 49 85 57 86
REMARK SMILES IDX 50 87 56 88 58 89 55 90 51 91 52 92 53 93 54 94
REMARK H PARENT 14 7 19 28 78 47 46 58
REMARK Flexibility Score: inf
ROOT
ATOM      1  C   UNL A   1      33.071  32.329  27.782  1.00  0.00     0.023 C 
ENDROOT
BRANCH   1   2
ATOM      2  C   UNL A   1      34.199  31.293  27.723  1.00  0.00     0.023 C 
BRANCH   2   3
ATOM      3  C   UNL A   1      33.834  30.020  26.967  1.00  0.00     0.116 C 
BRANCH   3   4
ATOM      4  N   UNL A   1      32.730  29.315  27.598  1.00  0.00    -0.352 N 
ATOM      5  C   UNL A   1      31.919  28.275  27.298  1.00  0.00     0.251 C 
ATOM      6  O   UNL A   1      31.070  28.006  28.154  1.00  0.00    -0.270 OA
ATOM      7  H   UNL A   1      32.515  29.698  28.480  1.00  0.00     0.163 HD
BRANCH   5   8
ATOM      8  C   UNL A   1      31.985  27.459  26.048  1.00  0.00     0.067 C 
ATOM      9  C   UNL A   1      33.268  23.320  21.197  1.00  0.00     0.046 C 
ATOM     10  C   UNL A   1      33.257  24.090  22.490  1.00  0.00    -0.028 A 
ATOM     11  C   UNL A   1      32.182  24.960  22.702  1.00  0.00     0.052 A 
ATOM     12  C   UNL A   1      34.281  24.029  23.457  1.00  0.00     0.047 A 
ATOM     13  C   UNL A   1      32.118  25.742  23.850  1.00  0.00     0.128 A 
ATOM     14  C   UNL A   1      34.213  24.801  24.645  1.00  0.00    -0.021 A 
ATOM     15  Cl  UNL A   1      35.641  22.985  23.170  1.00  0.00    -0.084 Cl
ATOM     16  C   UNL A   1      33.109  25.670  24.832  1.00  0.00     0.022 A 
ATOM     17  O   UNL A   1      31.011  26.535  23.958  1.00  0.00    -0.475 OA
ATOM     18  C   UNL A   1      35.284  24.729  25.709  1.00  0.00     0.047 C 
ATOM     19  C   UNL A   1      32.927  26.495  26.031  1.00  0.00     0.026 C 
ATOM     20  C   UNL A   1      31.121  27.680  24.845  1.00  0.00     0.314 C 
BRANCH  20  21
ATOM     21  C   UNL A   1      31.535  28.920  24.029  1.00  0.00     0.429 C 
ATOM     22  F   UNL A   1      31.027  28.851  22.774  1.00  0.00    -0.167 F 
ATOM     23  F   UNL A   1      31.076  30.073  24.568  1.00  0.00    -0.167 F 
ATOM     24  F   UNL A   1      32.877  29.044  23.918  1.00  0.00    -0.167 F 
ENDBRANCH  20  21
ENDBRANCH   5   8
ENDBRANCH   3   4
ENDBRANCH   2   3
ENDBRANCH   1   2
BRANCH   1  25
ATOM     25  C   UNL A   1      33.451  33.738  27.328  1.00  0.00     0.116 C 
BRANCH  25  26
ATOM     26  N   UNL A   1      32.866  34.788  28.147  1.00  0.00    -0.352 N 
ATOM     27  C   UNL A   1      33.187  35.143  29.435  1.00  0.00     0.251 C 
ATOM     28  H   UNL A   1      32.148  35.313  27.726  1.00  0.00     0.163 HD
ATOM     29  O   UNL A   1      32.524  35.990  30.025  1.00  0.00    -0.269 OA
BRANCH  27  30
ATOM     30  C   UNL A   1      34.314  34.466  30.106  1.00  0.00     0.039 A 
ATOM     31  C   UNL A   1      34.042  33.570  31.142  1.00  0.00     0.014 A 
ATOM     32  C   UNL A   1      35.627  34.689  29.683  1.00  0.00     0.014 A 
ATOM     33  C   UNL A   1      35.087  32.844  31.714  1.00  0.00     0.010 A 
ATOM     34  C   UNL A   1      36.660  33.925  30.215  1.00  0.00     0.010 A 
ATOM     35  C   UNL A   1      36.398  32.994  31.233  1.00  0.00    -0.014 A 
BRANCH  35  36
ATOM     36  C   UNL A   1      37.521  32.213  31.802  1.00  0.00     0.031 A 
ATOM     37  C   UNL A   1      38.045  32.557  33.168  1.00  0.00     0.074 A 
ATOM     38  C   UNL A   1      38.097  31.236  31.075  1.00  0.00     0.049 A 
ATOM     39  N   UNL A   1      39.091  32.089  33.795  1.00  0.00    -0.248 NA
ATOM     40  C   UNL A   1      37.302  33.584  33.915  1.00  0.00     0.031 C 
ATOM     41  C   UNL A   1      37.679  30.818  29.736  1.00  0.00     0.029 A 
ATOM     42  N   UNL A   1      39.162  30.420  31.361  1.00  0.00    -0.354 N 
ATOM     43  C   UNL A   1      39.141  32.771  35.004  1.00  0.00     0.074 A 
ATOM     44  C   UNL A   1      38.048  33.719  35.001  1.00  0.00     0.031 C 
ATOM     45  C   UNL A   1      38.461  29.805  29.328  1.00  0.00     0.029 A 
ATOM     46  C   UNL A   1      39.463  29.533  30.355  1.00  0.00     0.049 A 
ATOM     47  H   UNL A   1      39.664  30.465  32.206  1.00  0.00     0.167 HD
ATOM     48  C   UNL A   1      40.008  32.606  36.033  1.00  0.00     0.034 A 
ATOM     49  C   UNL A   1      40.443  28.613  30.266  1.00  0.00     0.034 A 
ATOM     50  C   UNL A   1      41.082  31.645  36.031  1.00  0.00     0.049 A 
ATOM     51  C   UNL A   1      41.415  28.471  31.407  1.00  0.00     0.074 A 
ATOM     52  C   UNL A   1      42.008  31.387  37.026  1.00  0.00     0.029 A 
ATOM     53  N   UNL A   1      41.369  30.780  34.984  1.00  0.00    -0.354 N 
ATOM     54  N   UNL A   1      41.467  29.144  32.534  1.00  0.00    -0.248 NA
ATOM     55  C   UNL A   1      42.461  27.450  31.263  1.00  0.00     0.031 C 
ATOM     56  C   UNL A   1      42.882  30.397  36.563  1.00  0.00     0.029 A 
ATOM     57  C   UNL A   1      42.466  29.997  35.303  1.00  0.00     0.049 A 
ATOM     58  H   UNL A   1      40.866  30.730  34.139  1.00  0.00     0.167 HD
ATOM     59  C   UNL A   1      42.544  28.616  33.240  1.00  0.00     0.074 A 
ATOM     60  C   UNL A   1      43.105  27.563  32.417  1.00  0.00     0.031 C 
ATOM     61  C   UNL A   1      43.023  28.967  34.459  1.00  0.00     0.034 A 
BRANCH  48  62
ATOM     62  C   UNL A   1      39.833  33.500  37.232  1.00  0.00     0.023 A 
ATOM     63  C   UNL A   1      39.100  33.081  38.356  1.00  0.00     0.031 A 
ATOM     64  C   UNL A   1      40.389  34.790  37.246  1.00  0.00     0.131 A 
ATOM     65  C   UNL A   1      38.895  33.966  39.425  1.00  0.00     0.055 A 
ATOM     66  C   UNL A   1      40.238  35.642  38.342  1.00  0.00     0.041 A 
ATOM     67  F   UNL A   1      41.080  35.248  36.190  1.00  0.00    -0.206 F 
ATOM     68  C   UNL A   1      39.479  35.235  39.436  1.00  0.00     0.022 A 
BRANCH  65  69
ATOM     69  S   UNL A   1      37.774  33.470  40.760  1.00  0.00     0.124 S 
ATOM     70  O   UNL A   1      37.564  34.739  41.452  1.00  0.00    -0.237 OA
ATOM     71  O   UNL A   1      36.626  32.942  40.032  1.00  0.00    -0.237 OA
ATOM     72  O   UNL A   1      38.547  32.480  41.506  1.00  0.00    -0.744 OA
ENDBRANCH  65  69
ENDBRANCH  48  62
BRANCH  49  73
ATOM     73  C   UNL A   1      40.562  27.759  29.054  1.00  0.00     0.023 A 
ATOM     74  C   UNL A   1      41.467  28.087  28.033  1.00  0.00     0.031 A 
ATOM     75  C   UNL A   1      39.770  26.609  28.897  1.00  0.00     0.131 A 
ATOM     76  C   UNL A   1      41.540  27.286  26.882  1.00  0.00     0.055 A 
ATOM     77  C   UNL A   1      39.870  25.797  27.766  1.00  0.00     0.041 A 
ATOM     78  F   UNL A   1      38.898  26.250  29.852  1.00  0.00    -0.206 F 
ATOM     79  C   UNL A   1      40.755  26.137  26.747  1.00  0.00     0.022 A 
BRANCH  76  80
ATOM     80  S   UNL A   1      42.662  27.780  25.546  1.00  0.00     0.124 S 
ATOM     81  O   UNL A   1      42.662  26.590  24.702  1.00  0.00    -0.237 OA
ATOM     82  O   UNL A   1      41.989  28.954  25.001  1.00  0.00    -0.237 OA
ATOM     83  O   UNL A   1      43.918  28.054  26.241  1.00  0.00    -0.744 OA
ENDBRANCH  76  80
ENDBRANCH  49  73
BRANCH  61  84
ATOM     84  C   UNL A   1      44.199  28.187  34.982  1.00  0.00     0.023 A 
ATOM     85  C   UNL A   1      44.028  26.959  35.642  1.00  0.00     0.031 A 
ATOM     86  C   UNL A   1      45.506  28.672  34.804  1.00  0.00     0.131 A 
ATOM     87  C   UNL A   1      45.147  26.274  36.139  1.00  0.00     0.055 A 
ATOM     88  C   UNL A   1      46.619  27.963  35.258  1.00  0.00     0.041 A 
ATOM     89  F   UNL A   1      45.722  29.840  34.178  1.00  0.00    -0.206 F 
ATOM     90  C   UNL A   1      46.442  26.761  35.937  1.00  0.00     0.022 A 
BRANCH  87  91
ATOM     91  S   UNL A   1      44.885  24.761  37.102  1.00  0.00     0.124 S 
ATOM     92  O   UNL A   1      43.868  25.186  38.061  1.00  0.00    -0.237 OA
ATOM     93  O   UNL A   1      44.444  23.812  36.085  1.00  0.00    -0.237 OA
ATOM     94  O   UNL A   1      46.201  24.486  37.675  1.00  0.00    -0.744 OA
ENDBRANCH  87  91
ENDBRANCH  61  84
ENDBRANCH  35  36
ENDBRANCH  27  30
ENDBRANCH  25  26
ENDBRANCH   1  25
TORSDOF 15
ENDMDL
