MODEL 1
REMARK VINA RESULT:     -12.7      0.000      0.000
REMARK SMILES NS(=O)(=O)c1ccc(-c2cc(Cl)cc3c2O[C@H](C(F)(F)F)C(C(=O)NCCCCNC(=O)c2ccc(-c4c5nc(c(-c6cc(S(=O)(=O)[O-])ccc6F)c6ccc([nH]6)c(-c6cc(S(=O)(=O)[O-])ccc6F)c6nc(c(-c7cc(S(=O)(=O)[O-])ccc7F)c7ccc4[nH]7)C=C6)C=C5)cc2)=C3)cc1
REMARK SMILES IDX 27 1 26 2 25 3 23 4 24 5 22 7 9 8 10 9 15 10 11 11 14 12
REMARK SMILES IDX 16 13 12 14 13 15 96 16 17 17 8 18 5 19 6 20 98 21 7 22
REMARK SMILES IDX 97 23 2 24 3 25 4 26 1 27 18 30 19 31 20 32 21 33 28 34
REMARK SMILES IDX 29 35 30 36 31 37 32 39 33 40 34 41 95 42 35 43 94 44 36 45
REMARK SMILES IDX 37 46 38 47 88 48 39 49 93 50 87 51 89 52 40 53 92 54 86 55
REMARK SMILES IDX 85 56 41 58 73 59 53 60 72 61 54 62 57 63 71 64 90 65 55 66
REMARK SMILES IDX 56 67 70 69 91 70 58 71 42 72 43 73 51 74 44 75 50 76 52 77
REMARK SMILES IDX 49 78 45 79 46 80 47 81 48 82 74 83 75 84 83 85 76 86 82 87
REMARK SMILES IDX 84 88 81 89 77 90 78 91 79 92 80 93 59 94 60 95 68 96 61 97
REMARK SMILES IDX 67 98 69 99 66 100 62 101 63 102 64 103 65 104
REMARK H PARENT 25 6 1 28 1 29 30 38 89 57 57 68
REMARK Flexibility Score: inf
ROOT
ATOM      1  C   UNL A   1      32.136  30.133  25.500  1.00  0.00     0.023 C 
ENDROOT
BRANCH   1   2
ATOM      2  C   UNL A   1      33.343  29.200  25.345  1.00  0.00     0.116 C 
BRANCH   2   3
ATOM      3  N   UNL A   1      33.207  28.070  26.239  1.00  0.00    -0.352 N 
ATOM      4  C   UNL A   1      32.432  26.968  26.125  1.00  0.00     0.251 C 
ATOM      5  O   UNL A   1      32.069  26.392  27.146  1.00  0.00    -0.270 OA
ATOM      6  H   UNL A   1      33.762  28.110  27.051  1.00  0.00     0.163 HD
BRANCH   4   7
ATOM      7  C   UNL A   1      32.106  26.454  24.759  1.00  0.00     0.067 C 
ATOM      8  C   UNL A   1      33.563  22.676  25.227  1.00  0.00     0.026 A 
ATOM      9  C   UNL A   1      34.872  22.762  25.766  1.00  0.00     0.033 A 
ATOM     10  C   UNL A   1      33.011  23.864  24.720  1.00  0.00     0.135 A 
ATOM     11  C   UNL A   1      35.640  23.922  25.677  1.00  0.00     0.042 A 
ATOM     12  C   UNL A   1      33.839  25.000  24.546  1.00  0.00     0.019 A 
ATOM     13  O   UNL A   1      31.666  23.985  24.413  1.00  0.00    -0.475 OA
ATOM     14  Cl  UNL A   1      37.211  23.955  26.373  1.00  0.00    -0.084 Cl
ATOM     15  C   UNL A   1      35.152  25.031  25.011  1.00  0.00     0.032 A 
ATOM     16  C   UNL A   1      33.215  26.235  24.021  1.00  0.00     0.025 C 
ATOM     17  C   UNL A   1      31.092  25.311  24.772  1.00  0.00     0.314 C 
BRANCH   8  18
ATOM     18  C   UNL A   1      33.025  21.301  25.089  1.00  0.00    -0.015 A 
ATOM     19  C   UNL A   1      33.093  18.525  24.601  1.00  0.00     0.082 A 
ATOM     20  C   UNL A   1      33.172  18.997  25.912  1.00  0.00     0.022 A 
ATOM     21  C   UNL A   1      32.841  19.409  23.550  1.00  0.00     0.022 A 
ATOM     22  C   UNL A   1      33.125  20.377  26.152  1.00  0.00     0.010 A 
ATOM     23  C   UNL A   1      32.797  20.788  23.798  1.00  0.00     0.010 A 
BRANCH  19  24
ATOM     24  S   UNL A   1      33.385  16.808  24.272  1.00  0.00     0.238 S 
ATOM     25  O   UNL A   1      34.535  16.360  25.025  1.00  0.00    -0.207 OA
ATOM     26  O   UNL A   1      33.241  16.564  22.858  1.00  0.00    -0.207 OA
BRANCH  24  27
ATOM     27  N   UNL A   1      32.062  16.071  25.009  1.00  0.00    -0.225 NA
ATOM     28  H   UNL A   1      31.205  16.532  24.706  1.00  0.00     0.137 HD
ATOM     29  H   UNL A   1      32.150  16.150  26.022  1.00  0.00     0.137 HD
ENDBRANCH  24  27
ENDBRANCH  19  24
ENDBRANCH   8  18
BRANCH  17  30
ATOM     30  C   UNL A   1      29.913  25.671  23.845  1.00  0.00     0.429 C 
ATOM     31  F   UNL A   1      28.792  26.000  24.529  1.00  0.00    -0.167 F 
ATOM     32  F   UNL A   1      30.223  26.721  23.044  1.00  0.00    -0.167 F 
ATOM     33  F   UNL A   1      29.571  24.651  23.015  1.00  0.00    -0.167 F 
ENDBRANCH  17  30
ENDBRANCH   4   7
ENDBRANCH   2   3
ENDBRANCH   1   2
BRANCH   1  34
ATOM     34  C   UNL A   1      31.973  30.766  26.889  1.00  0.00     0.023 C 
BRANCH  34  35
ATOM     35  C   UNL A   1      33.152  31.616  27.349  1.00  0.00     0.116 C 
BRANCH  35  36
ATOM     36  N   UNL A   1      32.779  33.010  27.526  1.00  0.00    -0.352 N 
ATOM     37  C   UNL A   1      33.259  33.930  28.430  1.00  0.00     0.251 C 
ATOM     38  H   UNL A   1      32.085  33.344  26.912  1.00  0.00     0.163 HD
ATOM     39  O   UNL A   1      32.681  35.004  28.573  1.00  0.00    -0.269 OA
BRANCH  37  40
ATOM     40  C   UNL A   1      34.448  33.604  29.248  1.00  0.00     0.039 A 
ATOM     41  C   UNL A   1      34.299  32.778  30.364  1.00  0.00     0.014 A 
ATOM     42  C   UNL A   1      35.709  34.091  28.896  1.00  0.00     0.014 A 
ATOM     43  C   UNL A   1      35.430  32.362  31.073  1.00  0.00     0.010 A 
ATOM     44  C   UNL A   1      36.840  33.627  29.566  1.00  0.00     0.010 A 
ATOM     45  C   UNL A   1      36.713  32.741  30.647  1.00  0.00    -0.014 A 
BRANCH  45  46
ATOM     46  C   UNL A   1      37.940  32.184  31.277  1.00  0.00     0.031 A 
ATOM     47  C   UNL A   1      38.676  31.044  30.630  1.00  0.00     0.074 A 
ATOM     48  C   UNL A   1      38.331  32.643  32.484  1.00  0.00     0.049 A 
ATOM     49  N   UNL A   1      39.675  30.337  31.091  1.00  0.00    -0.248 NA
ATOM     50  C   UNL A   1      38.207  30.633  29.299  1.00  0.00     0.031 C 
ATOM     51  C   UNL A   1      37.683  33.727  33.225  1.00  0.00     0.029 A 
ATOM     52  N   UNL A   1      39.353  32.244  33.310  1.00  0.00    -0.354 N 
ATOM     53  C   UNL A   1      39.951  29.388  30.111  1.00  0.00     0.074 A 
ATOM     54  C   UNL A   1      38.976  29.581  29.058  1.00  0.00     0.031 C 
ATOM     55  C   UNL A   1      38.326  33.911  34.388  1.00  0.00     0.029 A 
ATOM     56  C   UNL A   1      39.395  32.926  34.505  1.00  0.00     0.049 A 
ATOM     57  H   UNL A   1      39.994  31.537  33.070  1.00  0.00     0.167 HD
ATOM     58  C   UNL A   1      40.934  28.454  30.090  1.00  0.00     0.034 A 
ATOM     59  C   UNL A   1      40.183  32.757  35.587  1.00  0.00     0.034 A 
ATOM     60  C   UNL A   1      41.898  28.278  31.150  1.00  0.00     0.049 A 
ATOM     61  C   UNL A   1      41.224  31.668  35.568  1.00  0.00     0.074 A 
ATOM     62  C   UNL A   1      42.976  27.409  31.198  1.00  0.00     0.029 A 
ATOM     63  N   UNL A   1      41.895  28.970  32.354  1.00  0.00    -0.354 N 
ATOM     64  N   UNL A   1      41.504  30.810  34.613  1.00  0.00    -0.248 NA
ATOM     65  C   UNL A   1      42.054  31.520  36.772  1.00  0.00     0.031 C 
ATOM     66  C   UNL A   1      43.575  27.523  32.458  1.00  0.00     0.029 A 
ATOM     67  C   UNL A   1      42.921  28.515  33.170  1.00  0.00     0.049 A 
ATOM     68  H   UNL A   1      41.257  29.680  32.595  1.00  0.00     0.167 HD
ATOM     69  C   UNL A   1      42.557  30.037  35.095  1.00  0.00     0.074 A 
ATOM     70  C   UNL A   1      42.871  30.539  36.417  1.00  0.00     0.031 C 
ATOM     71  C   UNL A   1      43.208  29.009  34.496  1.00  0.00     0.034 A 
BRANCH  58  72
ATOM     72  C   UNL A   1      40.993  27.533  28.896  1.00  0.00     0.023 A 
ATOM     73  C   UNL A   1      41.961  27.691  27.888  1.00  0.00     0.031 A 
ATOM     74  C   UNL A   1      40.059  26.491  28.753  1.00  0.00     0.131 A 
ATOM     75  C   UNL A   1      41.927  26.873  26.750  1.00  0.00     0.055 A 
ATOM     76  C   UNL A   1      40.080  25.628  27.655  1.00  0.00     0.041 A 
ATOM     77  F   UNL A   1      39.099  26.302  29.672  1.00  0.00    -0.206 F 
ATOM     78  C   UNL A   1      41.008  25.826  26.637  1.00  0.00     0.022 A 
BRANCH  75  79
ATOM     79  S   UNL A   1      43.009  27.287  25.354  1.00  0.00     0.124 S 
ATOM     80  O   UNL A   1      44.214  27.745  26.041  1.00  0.00    -0.237 OA
ATOM     81  O   UNL A   1      43.118  26.013  24.652  1.00  0.00    -0.237 OA
ATOM     82  O   UNL A   1      42.271  28.330  24.645  1.00  0.00    -0.744 OA
ENDBRANCH  75  79
ENDBRANCH  58  72
BRANCH  59  83
ATOM     83  C   UNL A   1      39.997  33.609  36.796  1.00  0.00     0.023 A 
ATOM     84  C   UNL A   1      39.310  33.126  37.920  1.00  0.00     0.031 A 
ATOM     85  C   UNL A   1      40.467  34.934  36.830  1.00  0.00     0.131 A 
ATOM     86  C   UNL A   1      39.077  33.974  39.015  1.00  0.00     0.055 A 
ATOM     87  C   UNL A   1      40.280  35.756  37.942  1.00  0.00     0.041 A 
ATOM     88  F   UNL A   1      41.133  35.445  35.781  1.00  0.00    -0.206 F 
ATOM     89  C   UNL A   1      39.569  35.281  39.039  1.00  0.00     0.022 A 
BRANCH  86  90
ATOM     90  S   UNL A   1      38.047  33.367  40.379  1.00  0.00     0.124 S 
ATOM     91  O   UNL A   1      38.834  32.239  40.867  1.00  0.00    -0.237 OA
ATOM     92  O   UNL A   1      37.985  34.532  41.254  1.00  0.00    -0.237 OA
ATOM     93  O   UNL A   1      36.790  33.013  39.724  1.00  0.00    -0.744 OA
ENDBRANCH  86  90
ENDBRANCH  59  83
BRANCH  71  94
ATOM     94  C   UNL A   1      44.344  28.377  35.260  1.00  0.00     0.023 A 
ATOM     95  C   UNL A   1      44.160  27.214  36.027  1.00  0.00     0.031 A 
ATOM     96  C   UNL A   1      45.632  28.944  35.213  1.00  0.00     0.131 A 
ATOM     97  C   UNL A   1      45.236  26.675  36.749  1.00  0.00     0.055 A 
ATOM     98  C   UNL A   1      46.710  28.373  35.890  1.00  0.00     0.041 A 
ATOM     99  F   UNL A   1      45.861  30.056  34.498  1.00  0.00    -0.206 F 
ATOM    100  C   UNL A   1      46.514  27.237  36.670  1.00  0.00     0.022 A 
BRANCH  97 101
ATOM    101  S   UNL A   1      44.933  25.262  37.845  1.00  0.00     0.124 S 
ATOM    102  O   UNL A   1      45.463  25.746  39.115  1.00  0.00    -0.237 OA
ATOM    103  O   UNL A   1      43.483  25.116  37.774  1.00  0.00    -0.237 OA
ATOM    104  O   UNL A   1      45.695  24.179  37.226  1.00  0.00    -0.744 OA
ENDBRANCH  97 101
ENDBRANCH  71  94
ENDBRANCH  45  46
ENDBRANCH  37  40
ENDBRANCH  35  36
ENDBRANCH  34  35
ENDBRANCH   1  34
TORSDOF 18
ENDMDL
MODEL 2
REMARK VINA RESULT:     -12.5      3.493      8.289
REMARK SMILES NS(=O)(=O)c1ccc(-c2cc(Cl)cc3c2O[C@H](C(F)(F)F)C(C(=O)NCCCCNC(=O)c2ccc(-c4c5nc(c(-c6cc(S(=O)(=O)[O-])ccc6F)c6ccc([nH]6)c(-c6cc(S(=O)(=O)[O-])ccc6F)c6nc(c(-c7cc(S(=O)(=O)[O-])ccc7F)c7ccc4[nH]7)C=C6)C=C5)cc2)=C3)cc1
REMARK SMILES IDX 27 1 26 2 25 3 23 4 24 5 22 7 9 8 10 9 15 10 11 11 14 12
REMARK SMILES IDX 16 13 12 14 13 15 96 16 17 17 8 18 5 19 6 20 98 21 7 22
REMARK SMILES IDX 97 23 2 24 3 25 4 26 1 27 18 30 19 31 20 32 21 33 28 34
REMARK SMILES IDX 29 35 30 36 31 37 32 39 33 40 34 41 95 42 35 43 94 44 36 45
REMARK SMILES IDX 37 46 38 47 88 48 39 49 93 50 87 51 89 52 40 53 92 54 86 55
REMARK SMILES IDX 85 56 41 58 73 59 53 60 72 61 54 62 57 63 71 64 90 65 55 66
REMARK SMILES IDX 56 67 70 69 91 70 58 71 42 72 43 73 51 74 44 75 50 76 52 77
REMARK SMILES IDX 49 78 45 79 46 80 47 81 48 82 74 83 75 84 83 85 76 86 82 87
REMARK SMILES IDX 84 88 81 89 77 90 78 91 79 92 80 93 59 94 60 95 68 96 61 97
REMARK SMILES IDX 67 98 69 99 66 100 62 101 63 102 64 103 65 104
REMARK H PARENT 25 6 1 28 1 29 30 38 89 57 57 68
REMARK Flexibility Score: inf
ROOT
ATOM      1  C   UNL A   1      33.443  29.025  24.644  1.00  0.00     0.023 C 
ENDROOT
BRANCH   1   2
ATOM      2  C   UNL A   1      34.155  27.670  24.741  1.00  0.00     0.116 C 
BRANCH   2   3
ATOM      3  N   UNL A   1      33.526  26.721  23.847  1.00  0.00    -0.352 N 
ATOM      4  C   UNL A   1      33.974  25.525  23.404  1.00  0.00     0.251 C 
ATOM      5  O   UNL A   1      33.577  25.109  22.320  1.00  0.00    -0.270 OA
ATOM      6  H   UNL A   1      32.639  26.986  23.512  1.00  0.00     0.163 HD
BRANCH   4   7
ATOM      7  C   UNL A   1      34.880  24.723  24.285  1.00  0.00     0.067 C 
ATOM      8  C   UNL A   1      32.258  21.743  25.211  1.00  0.00     0.026 A 
ATOM      9  C   UNL A   1      31.038  22.332  25.631  1.00  0.00     0.033 A 
ATOM     10  C   UNL A   1      33.373  22.593  25.134  1.00  0.00     0.135 A 
ATOM     11  C   UNL A   1      30.962  23.649  26.083  1.00  0.00     0.042 A 
ATOM     12  C   UNL A   1      33.300  23.893  25.692  1.00  0.00     0.019 A 
ATOM     13  O   UNL A   1      34.545  22.223  24.495  1.00  0.00    -0.475 OA
ATOM     14  Cl  UNL A   1      29.442  24.297  26.556  1.00  0.00    -0.084 Cl
ATOM     15  C   UNL A   1      32.105  24.420  26.175  1.00  0.00     0.032 A 
ATOM     16  C   UNL A   1      34.494  24.761  25.578  1.00  0.00     0.025 C 
ATOM     17  C   UNL A   1      35.180  23.331  23.730  1.00  0.00     0.314 C 
BRANCH   8  18
ATOM     18  C   UNL A   1      32.241  20.264  25.099  1.00  0.00    -0.015 A 
ATOM     19  C   UNL A   1      33.291  17.684  24.671  1.00  0.00     0.082 A 
ATOM     20  C   UNL A   1      33.179  18.176  25.972  1.00  0.00     0.022 A 
ATOM     21  C   UNL A   1      32.759  18.403  23.599  1.00  0.00     0.022 A 
ATOM     22  C   UNL A   1      32.645  19.454  26.182  1.00  0.00     0.010 A 
ATOM     23  C   UNL A   1      32.228  19.682  23.817  1.00  0.00     0.010 A 
BRANCH  19  24
ATOM     24  S   UNL A   1      34.174  16.174  24.381  1.00  0.00     0.238 S 
ATOM     25  O   UNL A   1      35.325  16.112  25.253  1.00  0.00    -0.207 OA
ATOM     26  O   UNL A   1      34.265  15.942  22.960  1.00  0.00    -0.207 OA
BRANCH  24  27
ATOM     27  N   UNL A   1      33.108  15.015  24.975  1.00  0.00    -0.225 NA
ATOM     28  H   UNL A   1      32.214  15.454  25.191  1.00  0.00     0.137 HD
ATOM     29  H   UNL A   1      33.496  14.599  25.822  1.00  0.00     0.137 HD
ENDBRANCH  24  27
ENDBRANCH  19  24
ENDBRANCH   8  18
BRANCH  17  30
ATOM     30  C   UNL A   1      36.709  23.140  23.649  1.00  0.00     0.429 C 
ATOM     31  F   UNL A   1      37.246  23.697  22.539  1.00  0.00    -0.167 F 
ATOM     32  F   UNL A   1      37.329  23.691  24.721  1.00  0.00    -0.167 F 
ATOM     33  F   UNL A   1      37.071  21.830  23.634  1.00  0.00    -0.167 F 
ENDBRANCH  17  30
ENDBRANCH   4   7
ENDBRANCH   2   3
ENDBRANCH   1   2
BRANCH   1  34
ATOM     34  C   UNL A   1      32.621  29.421  25.879  1.00  0.00     0.023 C 
BRANCH  34  35
ATOM     35  C   UNL A   1      33.408  29.478  27.184  1.00  0.00     0.116 C 
BRANCH  35  36
ATOM     36  N   UNL A   1      33.538  30.839  27.680  1.00  0.00    -0.352 N 
ATOM     37  C   UNL A   1      34.517  31.382  28.479  1.00  0.00     0.251 C 
ATOM     38  H   UNL A   1      32.824  31.459  27.404  1.00  0.00     0.163 HD
ATOM     39  O   UNL A   1      34.354  32.496  28.969  1.00  0.00    -0.269 OA
BRANCH  37  40
ATOM     40  C   UNL A   1      35.742  30.606  28.770  1.00  0.00     0.039 A 
ATOM     41  C   UNL A   1      36.824  30.691  27.890  1.00  0.00     0.014 A 
ATOM     42  C   UNL A   1      35.832  29.821  29.922  1.00  0.00     0.014 A 
ATOM     43  C   UNL A   1      38.030  30.063  28.214  1.00  0.00     0.010 A 
ATOM     44  C   UNL A   1      37.052  29.247  30.273  1.00  0.00     0.010 A 
ATOM     45  C   UNL A   1      38.169  29.381  29.434  1.00  0.00    -0.014 A 
BRANCH  45  46
ATOM     46  C   UNL A   1      39.483  28.846  29.881  1.00  0.00     0.031 A 
ATOM     47  C   UNL A   1      40.276  29.564  30.937  1.00  0.00     0.074 A 
ATOM     48  C   UNL A   1      40.002  27.766  29.262  1.00  0.00     0.049 A 
ATOM     49  N   UNL A   1      41.493  29.333  31.357  1.00  0.00    -0.248 NA
ATOM     50  C   UNL A   1      39.618  30.707  31.587  1.00  0.00     0.031 C 
ATOM     51  C   UNL A   1      39.341  26.999  28.205  1.00  0.00     0.029 A 
ATOM     52  N   UNL A   1      41.214  27.137  29.416  1.00  0.00    -0.354 N 
ATOM     53  C   UNL A   1      41.754  30.308  32.315  1.00  0.00     0.074 A 
ATOM     54  C   UNL A   1      40.585  31.161  32.370  1.00  0.00     0.031 C 
ATOM     55  C   UNL A   1      40.149  26.001  27.813  1.00  0.00     0.029 A 
ATOM     56  C   UNL A   1      41.406  26.088  28.547  1.00  0.00     0.049 A 
ATOM     57  H   UNL A   1      41.882  27.412  30.086  1.00  0.00     0.167 HD
ATOM     58  C   UNL A   1      42.861  30.465  33.083  1.00  0.00     0.034 A 
ATOM     59  C   UNL A   1      42.484  25.304  28.339  1.00  0.00     0.034 A 
ATOM     60  C   UNL A   1      44.016  29.602  33.015  1.00  0.00     0.049 A 
ATOM     61  C   UNL A   1      43.728  25.541  29.157  1.00  0.00     0.074 A 
ATOM     62  C   UNL A   1      45.160  29.632  33.794  1.00  0.00     0.029 A 
ATOM     63  N   UNL A   1      44.184  28.567  32.106  1.00  0.00    -0.354 N 
ATOM     64  N   UNL A   1      43.941  26.437  30.094  1.00  0.00    -0.248 NA
ATOM     65  C   UNL A   1      44.876  24.665  28.890  1.00  0.00     0.031 C 
ATOM     66  C   UNL A   1      46.048  28.666  33.308  1.00  0.00     0.029 A 
ATOM     67  C   UNL A   1      45.431  27.981  32.274  1.00  0.00     0.049 A 
ATOM     68  H   UNL A   1      43.517  28.287  31.438  1.00  0.00     0.167 HD
ATOM     69  C   UNL A   1      45.240  26.215  30.541  1.00  0.00     0.074 A 
ATOM     70  C   UNL A   1      45.756  25.094  29.783  1.00  0.00     0.031 C 
ATOM     71  C   UNL A   1      45.941  26.877  31.496  1.00  0.00     0.034 A 
BRANCH  58  72
ATOM     72  C   UNL A   1      42.883  31.633  34.040  1.00  0.00     0.023 A 
ATOM     73  C   UNL A   1      42.420  31.513  35.362  1.00  0.00     0.031 A 
ATOM     74  C   UNL A   1      43.359  32.888  33.621  1.00  0.00     0.131 A 
ATOM     75  C   UNL A   1      42.372  32.642  36.192  1.00  0.00     0.055 A 
ATOM     76  C   UNL A   1      43.383  33.991  34.479  1.00  0.00     0.041 A 
ATOM     77  F   UNL A   1      43.796  33.070  32.365  1.00  0.00    -0.206 F 
ATOM     78  C   UNL A   1      42.874  33.875  35.769  1.00  0.00     0.022 A 
BRANCH  75  79
ATOM     79  S   UNL A   1      41.514  32.508  37.785  1.00  0.00     0.124 S 
ATOM     80  O   UNL A   1      41.606  33.879  38.285  1.00  0.00    -0.237 OA
ATOM     81  O   UNL A   1      40.184  32.060  37.390  1.00  0.00    -0.237 OA
ATOM     82  O   UNL A   1      42.310  31.530  38.523  1.00  0.00    -0.744 OA
ENDBRANCH  75  79
ENDBRANCH  58  72
BRANCH  59  83
ATOM     83  C   UNL A   1      42.457  24.247  27.287  1.00  0.00     0.023 A 
ATOM     84  C   UNL A   1      41.846  23.007  27.526  1.00  0.00     0.031 A 
ATOM     85  C   UNL A   1      43.078  24.447  26.041  1.00  0.00     0.131 A 
ATOM     86  C   UNL A   1      41.903  22.000  26.550  1.00  0.00     0.055 A 
ATOM     87  C   UNL A   1      43.086  23.461  25.054  1.00  0.00     0.041 A 
ATOM     88  F   UNL A   1      43.676  25.617  25.760  1.00  0.00    -0.206 F 
ATOM     89  C   UNL A   1      42.508  22.223  25.311  1.00  0.00     0.022 A 
BRANCH  86  90
ATOM     90  S   UNL A   1      41.245  20.359  26.956  1.00  0.00     0.124 S 
ATOM     91  O   UNL A   1      40.804  20.549  28.334  1.00  0.00    -0.237 OA
ATOM     92  O   UNL A   1      40.192  20.200  25.960  1.00  0.00    -0.237 OA
ATOM     93  O   UNL A   1      42.399  19.478  26.787  1.00  0.00    -0.744 OA
ENDBRANCH  86  90
ENDBRANCH  59  83
BRANCH  71  94
ATOM     94  C   UNL A   1      47.335  26.383  31.790  1.00  0.00     0.023 A 
ATOM     95  C   UNL A   1      47.587  25.445  32.806  1.00  0.00     0.031 A 
ATOM     96  C   UNL A   1      48.427  26.851  31.035  1.00  0.00     0.131 A 
ATOM     97  C   UNL A   1      48.902  25.035  33.069  1.00  0.00     0.055 A 
ATOM     98  C   UNL A   1      49.726  26.398  31.265  1.00  0.00     0.041 A 
ATOM     99  F   UNL A   1      48.243  27.749  30.054  1.00  0.00    -0.206 F 
ATOM    100  C   UNL A   1      49.971  25.492  32.293  1.00  0.00     0.022 A 
BRANCH  97 101
ATOM    101  S   UNL A   1      49.210  23.940  34.482  1.00  0.00     0.124 S 
ATOM    102  O   UNL A   1      47.856  23.628  34.923  1.00  0.00    -0.237 OA
ATOM    103  O   UNL A   1      49.950  22.840  33.870  1.00  0.00    -0.237 OA
ATOM    104  O   UNL A   1      49.987  24.773  35.399  1.00  0.00    -0.744 OA
ENDBRANCH  97 101
ENDBRANCH  71  94
ENDBRANCH  45  46
ENDBRANCH  37  40
ENDBRANCH  35  36
ENDBRANCH  34  35
ENDBRANCH   1  34
TORSDOF 18
ENDMDL
MODEL 3
REMARK VINA RESULT:     -12.5      1.947      2.437
REMARK SMILES NS(=O)(=O)c1ccc(-c2cc(Cl)cc3c2O[C@H](C(F)(F)F)C(C(=O)NCCCCNC(=O)c2ccc(-c4c5nc(c(-c6cc(S(=O)(=O)[O-])ccc6F)c6ccc([nH]6)c(-c6cc(S(=O)(=O)[O-])ccc6F)c6nc(c(-c7cc(S(=O)(=O)[O-])ccc7F)c7ccc4[nH]7)C=C6)C=C5)cc2)=C3)cc1
REMARK SMILES IDX 27 1 26 2 25 3 23 4 24 5 22 7 9 8 10 9 15 10 11 11 14 12
REMARK SMILES IDX 16 13 12 14 13 15 96 16 17 17 8 18 5 19 6 20 98 21 7 22
REMARK SMILES IDX 97 23 2 24 3 25 4 26 1 27 18 30 19 31 20 32 21 33 28 34
REMARK SMILES IDX 29 35 30 36 31 37 32 39 33 40 34 41 95 42 35 43 94 44 36 45
REMARK SMILES IDX 37 46 38 47 88 48 39 49 93 50 87 51 89 52 40 53 92 54 86 55
REMARK SMILES IDX 85 56 41 58 73 59 53 60 72 61 54 62 57 63 71 64 90 65 55 66
REMARK SMILES IDX 56 67 70 69 91 70 58 71 42 72 43 73 51 74 44 75 50 76 52 77
REMARK SMILES IDX 49 78 45 79 46 80 47 81 48 82 74 83 75 84 83 85 76 86 82 87
REMARK SMILES IDX 84 88 81 89 77 90 78 91 79 92 80 93 59 94 60 95 68 96 61 97
REMARK SMILES IDX 67 98 69 99 66 100 62 101 63 102 64 103 65 104
REMARK H PARENT 25 6 1 28 1 29 30 38 89 57 57 68
REMARK Flexibility Score: inf
ROOT
ATOM      1  C   UNL A   1      32.985  29.706  24.813  1.00  0.00     0.023 C 
ENDROOT
BRANCH   1   2
ATOM      2  C   UNL A   1      34.022  28.582  24.693  1.00  0.00     0.116 C 
BRANCH   2   3
ATOM      3  N   UNL A   1      33.747  27.555  25.676  1.00  0.00    -0.352 N 
ATOM      4  C   UNL A   1      32.852  26.542  25.639  1.00  0.00     0.251 C 
ATOM      5  O   UNL A   1      32.414  26.100  26.696  1.00  0.00    -0.270 OA
ATOM      6  H   UNL A   1      34.293  27.601  26.494  1.00  0.00     0.163 HD
BRANCH   4   7
ATOM      7  C   UNL A   1      32.486  25.952  24.313  1.00  0.00     0.067 C 
ATOM      8  C   UNL A   1      33.734  22.140  25.038  1.00  0.00     0.026 A 
ATOM      9  C   UNL A   1      35.051  22.191  25.563  1.00  0.00     0.033 A 
ATOM     10  C   UNL A   1      33.245  23.319  24.452  1.00  0.00     0.135 A 
ATOM     11  C   UNL A   1      35.881  23.297  25.389  1.00  0.00     0.042 A 
ATOM     12  C   UNL A   1      34.134  24.392  24.195  1.00  0.00     0.019 A 
ATOM     13  O   UNL A   1      31.906  23.494  24.144  1.00  0.00    -0.475 OA
ATOM     14  Cl  UNL A   1      37.458  23.290  26.074  1.00  0.00    -0.084 Cl
ATOM     15  C   UNL A   1      35.450  24.382  24.650  1.00  0.00     0.032 A 
ATOM     16  C   UNL A   1      33.574  25.621  23.587  1.00  0.00     0.025 C 
ATOM     17  C   UNL A   1      31.409  24.872  24.412  1.00  0.00     0.314 C 
BRANCH   8  18
ATOM     18  C   UNL A   1      33.119  20.792  25.000  1.00  0.00    -0.015 A 
ATOM     19  C   UNL A   1      33.045  17.978  24.850  1.00  0.00     0.082 A 
ATOM     20  C   UNL A   1      33.015  18.602  26.096  1.00  0.00     0.022 A 
ATOM     21  C   UNL A   1      32.970  18.738  23.680  1.00  0.00     0.022 A 
ATOM     22  C   UNL A   1      33.039  20.002  26.168  1.00  0.00     0.010 A 
ATOM     23  C   UNL A   1      32.997  20.137  23.760  1.00  0.00     0.010 A 
BRANCH  19  24
ATOM     24  S   UNL A   1      33.249  16.220  24.758  1.00  0.00     0.238 S 
ATOM     25  O   UNL A   1      33.500  15.832  23.388  1.00  0.00    -0.207 OA
ATOM     26  O   UNL A   1      32.243  15.581  25.571  1.00  0.00    -0.207 OA
BRANCH  24  27
ATOM     27  N   UNL A   1      34.712  15.985  25.557  1.00  0.00    -0.225 NA
ATOM     28  H   UNL A   1      35.308  15.371  25.002  1.00  0.00     0.137 HD
ATOM     29  H   UNL A   1      34.538  15.556  26.467  1.00  0.00     0.137 HD
ENDBRANCH  24  27
ENDBRANCH  19  24
ENDBRANCH   8  18
BRANCH  17  30
ATOM     30  C   UNL A   1      30.245  25.232  23.467  1.00  0.00     0.429 C 
ATOM     31  F   UNL A   1      30.612  26.097  22.493  1.00  0.00    -0.167 F 
ATOM     32  F   UNL A   1      29.745  24.127  22.862  1.00  0.00    -0.167 F 
ATOM     33  F   UNL A   1      29.202  25.810  24.121  1.00  0.00    -0.167 F 
ENDBRANCH  17  30
ENDBRANCH   4   7
ENDBRANCH   2   3
ENDBRANCH   1   2
BRANCH   1  34
ATOM     34  C   UNL A   1      31.842  29.438  25.802  1.00  0.00     0.023 C 
BRANCH  34  35
ATOM     35  C   UNL A   1      31.995  30.116  27.159  1.00  0.00     0.116 C 
BRANCH  35  36
ATOM     36  N   UNL A   1      31.947  31.565  27.050  1.00  0.00    -0.352 N 
ATOM     37  C   UNL A   1      32.871  32.498  27.459  1.00  0.00     0.251 C 
ATOM     38  H   UNL A   1      31.138  31.930  26.623  1.00  0.00     0.163 HD
ATOM     39  O   UNL A   1      32.571  33.688  27.472  1.00  0.00    -0.269 OA
BRANCH  37  40
ATOM     40  C   UNL A   1      34.209  32.057  27.910  1.00  0.00     0.039 A 
ATOM     41  C   UNL A   1      35.240  32.997  27.997  1.00  0.00     0.014 A 
ATOM     42  C   UNL A   1      34.437  30.727  28.271  1.00  0.00     0.014 A 
ATOM     43  C   UNL A   1      36.473  32.622  28.538  1.00  0.00     0.010 A 
ATOM     44  C   UNL A   1      35.646  30.371  28.867  1.00  0.00     0.010 A 
ATOM     45  C   UNL A   1      36.668  31.319  29.026  1.00  0.00    -0.014 A 
BRANCH  45  46
ATOM     46  C   UNL A   1      37.907  30.938  29.754  1.00  0.00     0.031 A 
ATOM     47  C   UNL A   1      38.868  29.950  29.152  1.00  0.00     0.074 A 
ATOM     48  C   UNL A   1      38.114  31.409  31.001  1.00  0.00     0.049 A 
ATOM     49  N   UNL A   1      39.922  29.391  29.687  1.00  0.00    -0.248 NA
ATOM     50  C   UNL A   1      38.588  29.519  27.775  1.00  0.00     0.031 C 
ATOM     51  C   UNL A   1      37.240  32.351  31.703  1.00  0.00     0.029 A 
ATOM     52  N   UNL A   1      39.110  31.144  31.909  1.00  0.00    -0.354 N 
ATOM     53  C   UNL A   1      40.429  28.532  28.717  1.00  0.00     0.074 A 
ATOM     54  C   UNL A   1      39.532  28.609  27.583  1.00  0.00     0.031 C 
ATOM     55  C   UNL A   1      37.742  32.591  32.924  1.00  0.00     0.029 A 
ATOM     56  C   UNL A   1      38.939  31.781  33.117  1.00  0.00     0.049 A 
ATOM     57  H   UNL A   1      39.874  30.555  31.713  1.00  0.00     0.167 HD
ATOM     58  C   UNL A   1      41.546  27.765  28.766  1.00  0.00     0.034 A 
ATOM     59  C   UNL A   1      39.647  31.698  34.263  1.00  0.00     0.034 A 
ATOM     60  C   UNL A   1      42.430  27.703  29.906  1.00  0.00     0.049 A 
ATOM     61  C   UNL A   1      40.845  30.785  34.316  1.00  0.00     0.074 A 
ATOM     62  C   UNL A   1      43.622  27.011  30.034  1.00  0.00     0.029 A 
ATOM     63  N   UNL A   1      42.212  28.342  31.119  1.00  0.00    -0.354 N 
ATOM     64  N   UNL A   1      41.339  30.017  33.372  1.00  0.00    -0.248 NA
ATOM     65  C   UNL A   1      41.579  30.725  35.587  1.00  0.00     0.031 C 
ATOM     66  C   UNL A   1      44.084  27.171  31.345  1.00  0.00     0.029 A 
ATOM     67  C   UNL A   1      43.222  28.023  32.015  1.00  0.00     0.049 A 
ATOM     68  H   UNL A   1      41.451  28.935  31.316  1.00  0.00     0.167 HD
ATOM     69  C   UNL A   1      42.455  29.400  33.932  1.00  0.00     0.074 A 
ATOM     70  C   UNL A   1      42.569  29.897  35.288  1.00  0.00     0.031 C 
ATOM     71  C   UNL A   1      43.311  28.508  33.373  1.00  0.00     0.034 A 
BRANCH  58  72
ATOM     72  C   UNL A   1      41.854  26.907  27.562  1.00  0.00     0.023 A 
ATOM     73  C   UNL A   1      41.622  25.521  27.564  1.00  0.00     0.031 A 
ATOM     74  C   UNL A   1      42.404  27.480  26.402  1.00  0.00     0.131 A 
ATOM     75  C   UNL A   1      42.006  24.745  26.461  1.00  0.00     0.055 A 
ATOM     76  C   UNL A   1      42.711  26.713  25.275  1.00  0.00     0.041 A 
ATOM     77  F   UNL A   1      42.667  28.796  26.347  1.00  0.00    -0.206 F 
ATOM     78  C   UNL A   1      42.525  25.334  25.306  1.00  0.00     0.022 A 
BRANCH  75  79
ATOM     79  S   UNL A   1      41.948  22.937  26.612  1.00  0.00     0.124 S 
ATOM     80  O   UNL A   1      40.542  22.715  26.943  1.00  0.00    -0.237 OA
ATOM     81  O   UNL A   1      42.370  22.497  25.287  1.00  0.00    -0.237 OA
ATOM     82  O   UNL A   1      42.887  22.653  27.695  1.00  0.00    -0.744 OA
ENDBRANCH  75  79
ENDBRANCH  58  72
BRANCH  59  83
ATOM     83  C   UNL A   1      39.223  32.467  35.468  1.00  0.00     0.023 A 
ATOM     84  C   UNL A   1      39.660  33.784  35.673  1.00  0.00     0.031 A 
ATOM     85  C   UNL A   1      38.409  31.880  36.454  1.00  0.00     0.131 A 
ATOM     86  C   UNL A   1      39.313  34.459  36.855  1.00  0.00     0.055 A 
ATOM     87  C   UNL A   1      38.023  32.574  37.601  1.00  0.00     0.041 A 
ATOM     88  F   UNL A   1      37.961  30.622  36.305  1.00  0.00    -0.206 F 
ATOM     89  C   UNL A   1      38.488  33.868  37.814  1.00  0.00     0.022 A 
BRANCH  86  90
ATOM     90  S   UNL A   1      40.028  36.098  37.159  1.00  0.00     0.124 S 
ATOM     91  O   UNL A   1      41.400  35.760  37.525  1.00  0.00    -0.237 OA
ATOM     92  O   UNL A   1      39.851  36.751  35.867  1.00  0.00    -0.237 OA
ATOM     93  O   UNL A   1      39.207  36.632  38.243  1.00  0.00    -0.744 OA
ENDBRANCH  86  90
ENDBRANCH  59  83
BRANCH  71  94
ATOM     94  C   UNL A   1      44.461  28.034  34.224  1.00  0.00     0.023 A 
ATOM     95  C   UNL A   1      44.371  26.867  35.002  1.00  0.00     0.031 A 
ATOM     96  C   UNL A   1      45.669  28.756  34.250  1.00  0.00     0.131 A 
ATOM     97  C   UNL A   1      45.453  26.477  35.806  1.00  0.00     0.055 A 
ATOM     98  C   UNL A   1      46.760  28.334  35.009  1.00  0.00     0.041 A 
ATOM     99  F   UNL A   1      45.807  29.880  33.528  1.00  0.00    -0.206 F 
ATOM    100  C   UNL A   1      46.654  27.193  35.800  1.00  0.00     0.022 A 
BRANCH  97 101
ATOM    101  S   UNL A   1      45.254  25.052  36.909  1.00  0.00     0.124 S 
ATOM    102  O   UNL A   1      46.634  24.618  37.096  1.00  0.00    -0.237 OA
ATOM    103  O   UNL A   1      44.609  25.646  38.076  1.00  0.00    -0.237 OA
ATOM    104  O   UNL A   1      44.414  24.136  36.138  1.00  0.00    -0.744 OA
ENDBRANCH  97 101
ENDBRANCH  71  94
ENDBRANCH  45  46
ENDBRANCH  37  40
ENDBRANCH  35  36
ENDBRANCH  34  35
ENDBRANCH   1  34
TORSDOF 18
ENDMDL
