MODEL 1
REMARK VINA RESULT:     -11.2      0.000      0.000
REMARK SMILES Cc1cccc(C[C@H](CC(=O)NCCCCNC(=O)c2ccc(-c3c4nc(c(-c5cc(S(=O)(=O)[O-])ccc5F)c5ccc([nH]5)c(-c5cc(S(=O)(=O)[O-])ccc5F)c5nc(c(-c6cc(S(=O)(=O)[O-])ccc6F)c6ccc3[nH]6)C=C5)C=C4)cc2)NC(=O)OC(C)(C)C)c1
REMARK SMILES IDX 14 1 13 2 12 3 10 4 11 5 9 7 8 8 7 9 6 10 1 11 2 12 3 13
REMARK SMILES IDX 91 14 4 15 5 16 83 17 84 18 85 20 86 21 87 22 88 23 89 24
REMARK SMILES IDX 90 25 15 26 16 27 17 28 18 29 19 31 20 32 21 33 82 34 22 35
REMARK SMILES IDX 81 36 23 37 24 38 25 39 75 40 26 41 80 42 74 43 76 44 27 45
REMARK SMILES IDX 79 46 73 47 72 48 28 50 60 51 40 52 59 53 41 54 44 55 58 56
REMARK SMILES IDX 77 57 42 58 43 59 57 61 78 62 45 63 29 64 30 65 38 66 31 67
REMARK SMILES IDX 37 68 39 69 36 70 32 71 33 72 34 73 35 74 61 75 62 76 70 77
REMARK SMILES IDX 63 78 69 79 71 80 68 81 64 82 65 83 66 84 67 85 46 86 47 87
REMARK SMILES IDX 55 88 48 89 54 90 56 91 53 92 49 93 50 94 51 95 52 96
REMARK H PARENT 12 6 83 19 17 30 76 49 44 60
REMARK Flexibility Score: inf
ROOT
ATOM      1  C   UNL A   1      33.798  30.575  27.123  1.00  0.00     0.023 C 
ENDROOT
BRANCH   1   2
ATOM      2  C   UNL A   1      32.905  29.325  26.969  1.00  0.00     0.116 C 
BRANCH   2   3
ATOM      3  N   UNL A   1      31.792  29.532  26.050  1.00  0.00    -0.356 N 
ATOM      4  C   UNL A   1      31.536  29.017  24.818  1.00  0.00     0.222 C 
ATOM      5  O   UNL A   1      30.496  29.367  24.251  1.00  0.00    -0.275 OA
ATOM      6  H   UNL A   1      31.104  30.154  26.380  1.00  0.00     0.163 HD
BRANCH   4   7
ATOM      7  C   UNL A   1      32.485  28.050  24.129  1.00  0.00     0.125 C 
BRANCH   7   8
ATOM      8  C   UNL A   1      32.436  26.579  24.599  1.00  0.00     0.099 C 
BRANCH   8   9
ATOM      9  C   UNL A   1      33.783  26.128  25.249  1.00  0.00     0.061 C 
BRANCH   9  10
ATOM     10  C   UNL A   1      34.523  24.936  24.676  1.00  0.00    -0.046 A 
ATOM     11  C   UNL A   1      37.376  22.607  25.703  1.00  0.00     0.044 C 
ATOM     12  C   UNL A   1      36.268  23.237  24.914  1.00  0.00    -0.051 A 
ATOM     13  C   UNL A   1      35.904  22.691  23.681  1.00  0.00     0.003 A 
ATOM     14  C   UNL A   1      35.589  24.368  25.394  1.00  0.00     0.007 A 
ATOM     15  C   UNL A   1      34.814  23.204  22.989  1.00  0.00     0.001 A 
ATOM     16  C   UNL A   1      34.107  24.286  23.510  1.00  0.00     0.004 A 
ENDBRANCH   9  10
ENDBRANCH   8   9
BRANCH   8  17
ATOM     17  N   UNL A   1      31.247  26.407  25.429  1.00  0.00    -0.318 N 
ATOM     18  C   UNL A   1      30.523  25.316  25.748  1.00  0.00     0.407 C 
ATOM     19  H   UNL A   1      30.915  27.242  25.830  1.00  0.00     0.167 HD
ATOM     20  O   UNL A   1      29.593  25.434  26.542  1.00  0.00    -0.225 OA
BRANCH  18  21
ATOM     21  O   UNL A   1      30.935  24.165  25.187  1.00  0.00    -0.444 OA
BRANCH  21  22
ATOM     22  C   UNL A   1      31.176  23.050  26.082  1.00  0.00     0.106 C 
ATOM     23  C   UNL A   1      32.261  23.387  27.119  1.00  0.00     0.056 C 
ATOM     24  C   UNL A   1      29.880  22.561  26.749  1.00  0.00     0.056 C 
ATOM     25  C   UNL A   1      31.707  21.932  25.178  1.00  0.00     0.056 C 
ENDBRANCH  21  22
ENDBRANCH  18  21
ENDBRANCH   8  17
ENDBRANCH   7   8
ENDBRANCH   4   7
ENDBRANCH   2   3
ENDBRANCH   1   2
BRANCH   1  26
ATOM     26  C   UNL A   1      35.156  30.340  27.773  1.00  0.00     0.023 C 
BRANCH  26  27
ATOM     27  C   UNL A   1      35.292  31.072  29.086  1.00  0.00     0.116 C 
BRANCH  27  28
ATOM     28  N   UNL A   1      34.383  32.189  29.285  1.00  0.00    -0.352 N 
ATOM     29  C   UNL A   1      34.555  33.323  30.066  1.00  0.00     0.251 C 
ATOM     30  H   UNL A   1      33.528  32.132  28.799  1.00  0.00     0.163 HD
ATOM     31  O   UNL A   1      33.605  34.055  30.330  1.00  0.00    -0.269 OA
BRANCH  29  32
ATOM     32  C   UNL A   1      35.932  33.774  30.414  1.00  0.00     0.039 A 
ATOM     33  C   UNL A   1      36.732  34.170  29.329  1.00  0.00     0.014 A 
ATOM     34  C   UNL A   1      36.527  33.362  31.594  1.00  0.00     0.014 A 
ATOM     35  C   UNL A   1      38.065  33.797  29.305  1.00  0.00     0.010 A 
ATOM     36  C   UNL A   1      37.765  32.794  31.496  1.00  0.00     0.010 A 
ATOM     37  C   UNL A   1      38.506  32.976  30.329  1.00  0.00    -0.014 A 
BRANCH  37  38
ATOM     38  C   UNL A   1      39.782  32.310  30.367  1.00  0.00     0.031 A 
ATOM     39  C   UNL A   1      39.817  30.979  29.746  1.00  0.00     0.074 A 
ATOM     40  C   UNL A   1      40.857  33.030  30.755  1.00  0.00     0.049 A 
ATOM     41  N   UNL A   1      40.685  30.080  30.016  1.00  0.00    -0.248 NA
ATOM     42  C   UNL A   1      38.808  30.519  28.784  1.00  0.00     0.031 C 
ATOM     43  C   UNL A   1      42.271  32.737  30.570  1.00  0.00     0.029 A 
ATOM     44  N   UNL A   1      40.848  34.129  31.615  1.00  0.00    -0.354 N 
ATOM     45  C   UNL A   1      40.591  29.129  29.024  1.00  0.00     0.074 A 
ATOM     46  C   UNL A   1      39.333  29.363  28.372  1.00  0.00     0.031 C 
ATOM     47  C   UNL A   1      42.979  33.412  31.496  1.00  0.00     0.029 A 
ATOM     48  C   UNL A   1      42.023  34.047  32.388  1.00  0.00     0.049 A 
ATOM     49  H   UNL A   1      40.155  34.826  31.670  1.00  0.00     0.167 HD
ATOM     50  C   UNL A   1      41.693  28.386  28.751  1.00  0.00     0.034 A 
ATOM     51  C   UNL A   1      41.919  33.805  33.731  1.00  0.00     0.034 A 
ATOM     52  C   UNL A   1      42.777  28.773  29.646  1.00  0.00     0.049 A 
ATOM     53  C   UNL A   1      42.463  32.438  34.091  1.00  0.00     0.074 A 
ATOM     54  C   UNL A   1      43.847  29.640  29.502  1.00  0.00     0.029 A 
ATOM     55  N   UNL A   1      42.615  28.563  31.005  1.00  0.00    -0.354 N 
ATOM     56  N   UNL A   1      42.559  31.441  33.249  1.00  0.00    -0.248 NA
ATOM     57  C   UNL A   1      43.025  32.118  35.397  1.00  0.00     0.031 C 
ATOM     58  C   UNL A   1      44.293  29.993  30.805  1.00  0.00     0.029 A 
ATOM     59  C   UNL A   1      43.503  29.327  31.727  1.00  0.00     0.049 A 
ATOM     60  H   UNL A   1      41.953  27.951  31.400  1.00  0.00     0.167 HD
ATOM     61  C   UNL A   1      43.218  30.392  33.844  1.00  0.00     0.074 A 
ATOM     62  C   UNL A   1      43.481  30.869  35.192  1.00  0.00     0.031 C 
ATOM     63  C   UNL A   1      43.515  29.233  33.175  1.00  0.00     0.034 A 
BRANCH  50  64
ATOM     64  C   UNL A   1      41.910  27.554  27.521  1.00  0.00     0.023 A 
ATOM     65  C   UNL A   1      41.931  26.155  27.677  1.00  0.00     0.031 A 
ATOM     66  C   UNL A   1      42.090  28.026  26.209  1.00  0.00     0.131 A 
ATOM     67  C   UNL A   1      42.163  25.292  26.599  1.00  0.00     0.055 A 
ATOM     68  C   UNL A   1      42.347  27.165  25.130  1.00  0.00     0.041 A 
ATOM     69  F   UNL A   1      41.981  29.327  25.905  1.00  0.00    -0.206 F 
ATOM     70  C   UNL A   1      42.385  25.789  25.321  1.00  0.00     0.022 A 
BRANCH  67  71
ATOM     71  S   UNL A   1      42.147  23.509  26.916  1.00  0.00     0.124 S 
ATOM     72  O   UNL A   1      40.769  23.154  26.586  1.00  0.00    -0.237 OA
ATOM     73  O   UNL A   1      43.173  23.021  26.003  1.00  0.00    -0.237 OA
ATOM     74  O   UNL A   1      42.486  23.416  28.334  1.00  0.00    -0.744 OA
ENDBRANCH  67  71
ENDBRANCH  50  64
BRANCH  51  75
ATOM     75  C   UNL A   1      40.731  34.509  34.321  1.00  0.00     0.023 A 
ATOM     76  C   UNL A   1      39.641  33.679  34.672  1.00  0.00     0.031 A 
ATOM     77  C   UNL A   1      40.866  35.724  35.006  1.00  0.00     0.131 A 
ATOM     78  C   UNL A   1      38.901  33.940  35.838  1.00  0.00     0.055 A 
ATOM     79  C   UNL A   1      40.052  36.027  36.111  1.00  0.00     0.041 A 
ATOM     80  F   UNL A   1      41.884  36.555  34.734  1.00  0.00    -0.206 F 
ATOM     81  C   UNL A   1      39.113  35.104  36.573  1.00  0.00     0.022 A 
BRANCH  78  82
ATOM     82  S   UNL A   1      37.912  32.579  36.538  1.00  0.00     0.124 S 
ATOM     83  O   UNL A   1      37.514  31.857  35.334  1.00  0.00    -0.237 OA
ATOM     84  O   UNL A   1      38.885  31.919  37.407  1.00  0.00    -0.237 OA
ATOM     85  O   UNL A   1      36.837  33.259  37.258  1.00  0.00    -0.744 OA
ENDBRANCH  78  82
ENDBRANCH  51  75
BRANCH  63  86
ATOM     86  C   UNL A   1      43.920  27.906  33.792  1.00  0.00     0.023 A 
ATOM     87  C   UNL A   1      42.995  27.001  34.313  1.00  0.00     0.031 A 
ATOM     88  C   UNL A   1      45.270  27.456  33.800  1.00  0.00     0.131 A 
ATOM     89  C   UNL A   1      43.404  25.788  34.890  1.00  0.00     0.055 A 
ATOM     90  C   UNL A   1      45.662  26.201  34.271  1.00  0.00     0.041 A 
ATOM     91  F   UNL A   1      46.284  28.202  33.340  1.00  0.00    -0.206 F 
ATOM     92  C   UNL A   1      44.727  25.362  34.846  1.00  0.00     0.022 A 
BRANCH  89  93
ATOM     93  S   UNL A   1      42.160  24.835  35.791  1.00  0.00     0.124 S 
ATOM     94  O   UNL A   1      40.957  25.633  35.566  1.00  0.00    -0.237 OA
ATOM     95  O   UNL A   1      42.200  23.546  35.108  1.00  0.00    -0.237 OA
ATOM     96  O   UNL A   1      42.657  24.832  37.163  1.00  0.00    -0.744 OA
ENDBRANCH  89  93
ENDBRANCH  63  86
ENDBRANCH  37  38
ENDBRANCH  29  32
ENDBRANCH  27  28
ENDBRANCH  26  27
ENDBRANCH   1  26
TORSDOF 20
ENDMDL
MODEL 2
REMARK VINA RESULT:     -11.2      2.312      3.656
REMARK SMILES Cc1cccc(C[C@H](CC(=O)NCCCCNC(=O)c2ccc(-c3c4nc(c(-c5cc(S(=O)(=O)[O-])ccc5F)c5ccc([nH]5)c(-c5cc(S(=O)(=O)[O-])ccc5F)c5nc(c(-c6cc(S(=O)(=O)[O-])ccc6F)c6ccc3[nH]6)C=C5)C=C4)cc2)NC(=O)OC(C)(C)C)c1
REMARK SMILES IDX 14 1 13 2 12 3 10 4 11 5 9 7 8 8 7 9 6 10 1 11 2 12 3 13
REMARK SMILES IDX 91 14 4 15 5 16 83 17 84 18 85 20 86 21 87 22 88 23 89 24
REMARK SMILES IDX 90 25 15 26 16 27 17 28 18 29 19 31 20 32 21 33 82 34 22 35
REMARK SMILES IDX 81 36 23 37 24 38 25 39 75 40 26 41 80 42 74 43 76 44 27 45
REMARK SMILES IDX 79 46 73 47 72 48 28 50 60 51 40 52 59 53 41 54 44 55 58 56
REMARK SMILES IDX 77 57 42 58 43 59 57 61 78 62 45 63 29 64 30 65 38 66 31 67
REMARK SMILES IDX 37 68 39 69 36 70 32 71 33 72 34 73 35 74 61 75 62 76 70 77
REMARK SMILES IDX 63 78 69 79 71 80 68 81 64 82 65 83 66 84 67 85 46 86 47 87
REMARK SMILES IDX 55 88 48 89 54 90 56 91 53 92 49 93 50 94 51 95 52 96
REMARK H PARENT 12 6 83 19 17 30 76 49 44 60
REMARK Flexibility Score: inf
ROOT
ATOM      1  C   UNL A   1      34.746  30.543  27.614  1.00  0.00     0.023 C 
ENDROOT
BRANCH   1   2
ATOM      2  C   UNL A   1      33.341  30.658  26.985  1.00  0.00     0.116 C 
BRANCH   2   3
ATOM      3  N   UNL A   1      32.409  29.656  27.489  1.00  0.00    -0.356 N 
ATOM      4  C   UNL A   1      32.204  28.359  27.134  1.00  0.00     0.222 C 
ATOM      5  O   UNL A   1      31.334  27.725  27.740  1.00  0.00    -0.275 OA
ATOM      6  H   UNL A   1      31.826  29.974  28.217  1.00  0.00     0.163 HD
BRANCH   4   7
ATOM      7  C   UNL A   1      32.995  27.688  26.023  1.00  0.00     0.125 C 
BRANCH   7   8
ATOM      8  C   UNL A   1      32.219  27.341  24.733  1.00  0.00     0.099 C 
BRANCH   8   9
ATOM      9  C   UNL A   1      31.771  28.622  23.958  1.00  0.00     0.061 C 
BRANCH   9  10
ATOM     10  C   UNL A   1      30.299  28.842  23.671  1.00  0.00    -0.046 A 
ATOM     11  C   UNL A   1      27.888  31.786  23.306  1.00  0.00     0.044 C 
ATOM     12  C   UNL A   1      28.430  30.390  23.357  1.00  0.00    -0.051 A 
ATOM     13  C   UNL A   1      27.582  29.311  23.096  1.00  0.00     0.003 A 
ATOM     14  C   UNL A   1      29.779  30.147  23.662  1.00  0.00     0.007 A 
ATOM     15  C   UNL A   1      28.095  28.022  23.041  1.00  0.00     0.001 A 
ATOM     16  C   UNL A   1      29.450  27.802  23.281  1.00  0.00     0.004 A 
ENDBRANCH   9  10
ENDBRANCH   8   9
BRANCH   8  17
ATOM     17  N   UNL A   1      33.015  26.388  23.967  1.00  0.00    -0.318 N 
ATOM     18  C   UNL A   1      33.197  25.058  24.096  1.00  0.00     0.407 C 
ATOM     19  H   UNL A   1      33.510  26.790  23.217  1.00  0.00     0.167 HD
ATOM     20  O   UNL A   1      33.873  24.469  23.257  1.00  0.00    -0.225 OA
BRANCH  18  21
ATOM     21  O   UNL A   1      32.559  24.486  25.134  1.00  0.00    -0.444 OA
BRANCH  21  22
ATOM     22  C   UNL A   1      31.500  23.549  24.815  1.00  0.00     0.106 C 
ATOM     23  C   UNL A   1      30.642  24.050  23.640  1.00  0.00     0.056 C 
ATOM     24  C   UNL A   1      32.045  22.134  24.561  1.00  0.00     0.056 C 
ATOM     25  C   UNL A   1      30.621  23.512  26.070  1.00  0.00     0.056 C 
ENDBRANCH  21  22
ENDBRANCH  18  21
ENDBRANCH   8  17
ENDBRANCH   7   8
ENDBRANCH   4   7
ENDBRANCH   2   3
ENDBRANCH   1   2
BRANCH   1  26
ATOM     26  C   UNL A   1      34.922  31.223  28.966  1.00  0.00     0.023 C 
BRANCH  26  27
ATOM     27  C   UNL A   1      35.297  32.678  28.826  1.00  0.00     0.116 C 
BRANCH  27  28
ATOM     28  N   UNL A   1      34.364  33.631  29.406  1.00  0.00    -0.352 N 
ATOM     29  C   UNL A   1      34.209  34.001  30.734  1.00  0.00     0.251 C 
ATOM     30  H   UNL A   1      33.759  34.076  28.767  1.00  0.00     0.163 HD
ATOM     31  O   UNL A   1      33.219  34.628  31.102  1.00  0.00    -0.269 OA
BRANCH  29  32
ATOM     32  C   UNL A   1      35.343  33.822  31.684  1.00  0.00     0.039 A 
ATOM     33  C   UNL A   1      36.472  34.620  31.437  1.00  0.00     0.014 A 
ATOM     34  C   UNL A   1      35.475  32.647  32.404  1.00  0.00     0.014 A 
ATOM     35  C   UNL A   1      37.733  34.063  31.573  1.00  0.00     0.010 A 
ATOM     36  C   UNL A   1      36.681  32.011  32.332  1.00  0.00     0.010 A 
ATOM     37  C   UNL A   1      37.794  32.712  31.869  1.00  0.00    -0.014 A 
BRANCH  37  38
ATOM     38  C   UNL A   1      38.988  31.909  31.839  1.00  0.00     0.031 A 
ATOM     39  C   UNL A   1      38.862  30.616  31.152  1.00  0.00     0.074 A 
ATOM     40  C   UNL A   1      40.145  32.486  32.230  1.00  0.00     0.049 A 
ATOM     41  N   UNL A   1      39.630  29.615  31.354  1.00  0.00    -0.248 NA
ATOM     42  C   UNL A   1      37.786  30.320  30.199  1.00  0.00     0.031 C 
ATOM     43  C   UNL A   1      41.514  32.050  31.991  1.00  0.00     0.029 A 
ATOM     44  N   UNL A   1      40.278  33.534  33.142  1.00  0.00    -0.354 N 
ATOM     45  C   UNL A   1      39.409  28.732  30.320  1.00  0.00     0.074 A 
ATOM     46  C   UNL A   1      38.170  29.136  29.716  1.00  0.00     0.031 C 
ATOM     47  C   UNL A   1      42.313  32.595  32.928  1.00  0.00     0.029 A 
ATOM     48  C   UNL A   1      41.454  33.284  33.877  1.00  0.00     0.049 A 
ATOM     49  H   UNL A   1      39.668  34.299  33.251  1.00  0.00     0.167 HD
ATOM     50  C   UNL A   1      40.415  27.888  29.979  1.00  0.00     0.034 A 
ATOM     51  C   UNL A   1      41.354  32.986  35.209  1.00  0.00     0.034 A 
ATOM     52  C   UNL A   1      41.556  28.108  30.861  1.00  0.00     0.049 A 
ATOM     53  C   UNL A   1      41.752  31.550  35.486  1.00  0.00     0.074 A 
ATOM     54  C   UNL A   1      42.712  28.858  30.729  1.00  0.00     0.029 A 
ATOM     55  N   UNL A   1      41.402  27.847  32.212  1.00  0.00    -0.354 N 
ATOM     56  N   UNL A   1      41.718  30.594  34.595  1.00  0.00    -0.248 NA
ATOM     57  C   UNL A   1      42.305  31.104  36.758  1.00  0.00     0.031 C 
ATOM     58  C   UNL A   1      43.224  29.093  32.034  1.00  0.00     0.029 A 
ATOM     59  C   UNL A   1      42.386  28.470  32.944  1.00  0.00     0.049 A 
ATOM     60  H   UNL A   1      40.686  27.292  32.596  1.00  0.00     0.167 HD
ATOM     61  C   UNL A   1      42.269  29.450  35.119  1.00  0.00     0.074 A 
ATOM     62  C   UNL A   1      42.615  29.825  36.479  1.00  0.00     0.031 C 
ATOM     63  C   UNL A   1      42.421  28.301  34.385  1.00  0.00     0.034 A 
BRANCH  50  64
ATOM     64  C   UNL A   1      40.510  27.102  28.704  1.00  0.00     0.023 A 
ATOM     65  C   UNL A   1      41.513  27.470  27.787  1.00  0.00     0.031 A 
ATOM     66  C   UNL A   1      39.700  26.018  28.324  1.00  0.00     0.131 A 
ATOM     67  C   UNL A   1      41.661  26.825  26.552  1.00  0.00     0.055 A 
ATOM     68  C   UNL A   1      39.830  25.385  27.077  1.00  0.00     0.041 A 
ATOM     69  F   UNL A   1      38.784  25.497  29.150  1.00  0.00    -0.206 F 
ATOM     70  C   UNL A   1      40.815  25.788  26.183  1.00  0.00     0.022 A 
BRANCH  67  71
ATOM     71  S   UNL A   1      42.999  27.370  25.461  1.00  0.00     0.124 S 
ATOM     72  O   UNL A   1      42.333  28.380  24.644  1.00  0.00    -0.237 OA
ATOM     73  O   UNL A   1      43.993  27.863  26.409  1.00  0.00    -0.237 OA
ATOM     74  O   UNL A   1      43.374  26.149  24.752  1.00  0.00    -0.744 OA
ENDBRANCH  67  71
ENDBRANCH  50  64
BRANCH  51  75
ATOM     75  C   UNL A   1      40.266  33.785  35.866  1.00  0.00     0.023 A 
ATOM     76  C   UNL A   1      39.158  33.039  36.331  1.00  0.00     0.031 A 
ATOM     77  C   UNL A   1      40.534  35.008  36.496  1.00  0.00     0.131 A 
ATOM     78  C   UNL A   1      38.534  33.384  37.542  1.00  0.00     0.055 A 
ATOM     79  C   UNL A   1      39.833  35.397  37.650  1.00  0.00     0.041 A 
ATOM     80  F   UNL A   1      41.577  35.761  36.115  1.00  0.00    -0.206 F 
ATOM     81  C   UNL A   1      38.878  34.552  38.217  1.00  0.00     0.022 A 
BRANCH  78  82
ATOM     82  S   UNL A   1      37.520  32.113  38.366  1.00  0.00     0.124 S 
ATOM     83  O   UNL A   1      37.647  30.992  37.440  1.00  0.00    -0.237 OA
ATOM     84  O   UNL A   1      38.197  31.979  39.655  1.00  0.00    -0.237 OA
ATOM     85  O   UNL A   1      36.193  32.721  38.451  1.00  0.00    -0.744 OA
ENDBRANCH  78  82
ENDBRANCH  51  75
BRANCH  63  86
ATOM     86  C   UNL A   1      42.690  26.908  34.925  1.00  0.00     0.023 A 
ATOM     87  C   UNL A   1      43.644  26.053  34.372  1.00  0.00     0.031 A 
ATOM     88  C   UNL A   1      42.045  26.412  36.093  1.00  0.00     0.131 A 
ATOM     89  C   UNL A   1      43.857  24.764  34.887  1.00  0.00     0.055 A 
ATOM     90  C   UNL A   1      42.340  25.176  36.671  1.00  0.00     0.041 A 
ATOM     91  F   UNL A   1      41.101  27.104  36.747  1.00  0.00    -0.206 F 
ATOM     92  C   UNL A   1      43.238  24.327  36.053  1.00  0.00     0.022 A 
BRANCH  89  93
ATOM     93  S   UNL A   1      44.897  23.645  33.921  1.00  0.00     0.124 S 
ATOM     94  O   UNL A   1      46.168  24.365  33.902  1.00  0.00    -0.237 OA
ATOM     95  O   UNL A   1      44.872  22.426  34.723  1.00  0.00    -0.237 OA
ATOM     96  O   UNL A   1      44.209  23.562  32.636  1.00  0.00    -0.744 OA
ENDBRANCH  89  93
ENDBRANCH  63  86
ENDBRANCH  37  38
ENDBRANCH  29  32
ENDBRANCH  27  28
ENDBRANCH  26  27
ENDBRANCH   1  26
TORSDOF 20
ENDMDL
MODEL 3
REMARK VINA RESULT:     -11.0      1.309      2.940
REMARK SMILES Cc1cccc(C[C@H](CC(=O)NCCCCNC(=O)c2ccc(-c3c4nc(c(-c5cc(S(=O)(=O)[O-])ccc5F)c5ccc([nH]5)c(-c5cc(S(=O)(=O)[O-])ccc5F)c5nc(c(-c6cc(S(=O)(=O)[O-])ccc6F)c6ccc3[nH]6)C=C5)C=C4)cc2)NC(=O)OC(C)(C)C)c1
REMARK SMILES IDX 14 1 13 2 12 3 10 4 11 5 9 7 8 8 7 9 6 10 1 11 2 12 3 13
REMARK SMILES IDX 91 14 4 15 5 16 83 17 84 18 85 20 86 21 87 22 88 23 89 24
REMARK SMILES IDX 90 25 15 26 16 27 17 28 18 29 19 31 20 32 21 33 82 34 22 35
REMARK SMILES IDX 81 36 23 37 24 38 25 39 75 40 26 41 80 42 74 43 76 44 27 45
REMARK SMILES IDX 79 46 73 47 72 48 28 50 60 51 40 52 59 53 41 54 44 55 58 56
REMARK SMILES IDX 77 57 42 58 43 59 57 61 78 62 45 63 29 64 30 65 38 66 31 67
REMARK SMILES IDX 37 68 39 69 36 70 32 71 33 72 34 73 35 74 61 75 62 76 70 77
REMARK SMILES IDX 63 78 69 79 71 80 68 81 64 82 65 83 66 84 67 85 46 86 47 87
REMARK SMILES IDX 55 88 48 89 54 90 56 91 53 92 49 93 50 94 51 95 52 96
REMARK H PARENT 12 6 83 19 17 30 76 49 44 60
REMARK Flexibility Score: inf
ROOT
ATOM      1  C   UNL A   1      34.580  29.296  27.418  1.00  0.00     0.023 C 
ENDROOT
BRANCH   1   2
ATOM      2  C   UNL A   1      33.354  29.395  26.485  1.00  0.00     0.116 C 
BRANCH   2   3
ATOM      3  N   UNL A   1      32.305  28.440  26.821  1.00  0.00    -0.356 N 
ATOM      4  C   UNL A   1      32.075  27.169  26.394  1.00  0.00     0.222 C 
ATOM      5  O   UNL A   1      31.095  26.575  26.853  1.00  0.00    -0.275 OA
ATOM      6  H   UNL A   1      31.647  28.773  27.473  1.00  0.00     0.163 HD
BRANCH   4   7
ATOM      7  C   UNL A   1      32.971  26.481  25.376  1.00  0.00     0.125 C 
BRANCH   7   8
ATOM      8  C   UNL A   1      32.342  26.168  24.000  1.00  0.00     0.099 C 
BRANCH   8   9
ATOM      9  C   UNL A   1      31.794  27.454  23.302  1.00  0.00     0.061 C 
BRANCH   9  10
ATOM     10  C   UNL A   1      30.303  27.725  23.304  1.00  0.00    -0.046 A 
ATOM     11  C   UNL A   1      27.905  30.406  22.011  1.00  0.00     0.044 C 
ATOM     12  C   UNL A   1      28.431  29.167  22.669  1.00  0.00    -0.051 A 
ATOM     13  C   UNL A   1      27.538  28.257  23.239  1.00  0.00     0.003 A 
ATOM     14  C   UNL A   1      29.810  28.905  22.724  1.00  0.00     0.007 A 
ATOM     15  C   UNL A   1      28.007  27.058  23.762  1.00  0.00     0.001 A 
ATOM     16  C   UNL A   1      29.372  26.781  23.748  1.00  0.00     0.004 A 
ENDBRANCH   9  10
ENDBRANCH   8   9
BRANCH   8  17
ATOM     17  N   UNL A   1      33.307  25.393  23.227  1.00  0.00    -0.318 N 
ATOM     18  C   UNL A   1      33.732  24.118  23.336  1.00  0.00     0.407 C 
ATOM     19  H   UNL A   1      33.722  25.893  22.488  1.00  0.00     0.167 HD
ATOM     20  O   UNL A   1      34.511  23.680  22.495  1.00  0.00    -0.225 OA
BRANCH  18  21
ATOM     21  O   UNL A   1      33.205  23.420  24.359  1.00  0.00    -0.444 OA
BRANCH  21  22
ATOM     22  C   UNL A   1      34.133  22.895  25.340  1.00  0.00     0.106 C 
ATOM     23  C   UNL A   1      34.536  21.447  25.013  1.00  0.00     0.056 C 
ATOM     24  C   UNL A   1      35.361  23.805  25.511  1.00  0.00     0.056 C 
ATOM     25  C   UNL A   1      33.347  22.890  26.656  1.00  0.00     0.056 C 
ENDBRANCH  21  22
ENDBRANCH  18  21
ENDBRANCH   8  17
ENDBRANCH   7   8
ENDBRANCH   4   7
ENDBRANCH   2   3
ENDBRANCH   1   2
BRANCH   1  26
ATOM     26  C   UNL A   1      35.352  30.591  27.635  1.00  0.00     0.023 C 
BRANCH  26  27
ATOM     27  C   UNL A   1      35.247  31.083  29.058  1.00  0.00     0.116 C 
BRANCH  27  28
ATOM     28  N   UNL A   1      34.341  32.199  29.278  1.00  0.00    -0.352 N 
ATOM     29  C   UNL A   1      34.521  33.325  30.069  1.00  0.00     0.251 C 
ATOM     30  H   UNL A   1      33.481  32.148  28.800  1.00  0.00     0.163 HD
ATOM     31  O   UNL A   1      33.574  34.055  30.350  1.00  0.00    -0.269 OA
BRANCH  29  32
ATOM     32  C   UNL A   1      35.902  33.772  30.408  1.00  0.00     0.039 A 
ATOM     33  C   UNL A   1      36.699  34.156  29.317  1.00  0.00     0.014 A 
ATOM     34  C   UNL A   1      36.500  33.366  31.588  1.00  0.00     0.014 A 
ATOM     35  C   UNL A   1      38.031  33.775  29.289  1.00  0.00     0.010 A 
ATOM     36  C   UNL A   1      37.735  32.790  31.489  1.00  0.00     0.010 A 
ATOM     37  C   UNL A   1      38.472  32.959  30.318  1.00  0.00    -0.014 A 
BRANCH  37  38
ATOM     38  C   UNL A   1      39.744  32.288  30.356  1.00  0.00     0.031 A 
ATOM     39  C   UNL A   1      39.766  30.945  29.761  1.00  0.00     0.074 A 
ATOM     40  C   UNL A   1      40.827  33.009  30.717  1.00  0.00     0.049 A 
ATOM     41  N   UNL A   1      40.632  30.047  30.039  1.00  0.00    -0.248 NA
ATOM     42  C   UNL A   1      38.744  30.471  28.819  1.00  0.00     0.031 C 
ATOM     43  C   UNL A   1      42.238  32.705  30.524  1.00  0.00     0.029 A 
ATOM     44  N   UNL A   1      40.833  34.125  31.555  1.00  0.00    -0.354 N 
ATOM     45  C   UNL A   1      40.522  29.076  29.068  1.00  0.00     0.074 A 
ATOM     46  C   UNL A   1      39.259  29.305  28.424  1.00  0.00     0.031 C 
ATOM     47  C   UNL A   1      42.959  33.394  31.429  1.00  0.00     0.029 A 
ATOM     48  C   UNL A   1      42.016  34.052  32.318  1.00  0.00     0.049 A 
ATOM     49  H   UNL A   1      40.145  34.827  31.604  1.00  0.00     0.167 HD
ATOM     50  C   UNL A   1      41.618  28.322  28.797  1.00  0.00     0.034 A 
ATOM     51  C   UNL A   1      41.925  33.837  33.667  1.00  0.00     0.034 A 
ATOM     52  C   UNL A   1      42.713  28.721  29.673  1.00  0.00     0.049 A 
ATOM     53  C   UNL A   1      42.465  32.474  34.047  1.00  0.00     0.074 A 
ATOM     54  C   UNL A   1      43.786  29.579  29.500  1.00  0.00     0.029 A 
ATOM     55  N   UNL A   1      42.564  28.539  31.037  1.00  0.00    -0.354 N 
ATOM     56  N   UNL A   1      42.547  31.460  33.225  1.00  0.00    -0.248 NA
ATOM     57  C   UNL A   1      43.040  32.177  35.353  1.00  0.00     0.031 C 
ATOM     58  C   UNL A   1      44.247  29.955  30.791  1.00  0.00     0.029 A 
ATOM     59  C   UNL A   1      43.464  29.311  31.734  1.00  0.00     0.049 A 
ATOM     60  H   UNL A   1      41.903  27.938  31.452  1.00  0.00     0.167 HD
ATOM     61  C   UNL A   1      43.207  30.420  33.833  1.00  0.00     0.074 A 
ATOM     62  C   UNL A   1      43.487  30.922  35.168  1.00  0.00     0.031 C 
ATOM     63  C   UNL A   1      43.491  29.246  33.184  1.00  0.00     0.034 A 
BRANCH  50  64
ATOM     64  C   UNL A   1      41.817  27.465  27.581  1.00  0.00     0.023 A 
ATOM     65  C   UNL A   1      41.981  26.081  27.781  1.00  0.00     0.031 A 
ATOM     66  C   UNL A   1      41.850  27.899  26.245  1.00  0.00     0.131 A 
ATOM     67  C   UNL A   1      42.210  25.200  26.717  1.00  0.00     0.055 A 
ATOM     68  C   UNL A   1      42.104  27.022  25.177  1.00  0.00     0.041 A 
ATOM     69  F   UNL A   1      41.595  29.170  25.908  1.00  0.00    -0.206 F 
ATOM     70  C   UNL A   1      42.286  25.664  25.410  1.00  0.00     0.022 A 
BRANCH  67  71
ATOM     71  S   UNL A   1      42.387  23.438  27.092  1.00  0.00     0.124 S 
ATOM     72  O   UNL A   1      43.806  23.212  26.832  1.00  0.00    -0.237 OA
ATOM     73  O   UNL A   1      41.971  23.373  28.488  1.00  0.00    -0.237 OA
ATOM     74  O   UNL A   1      41.475  22.799  26.145  1.00  0.00    -0.744 OA
ENDBRANCH  67  71
ENDBRANCH  50  64
BRANCH  51  75
ATOM     75  C   UNL A   1      40.747  34.560  34.255  1.00  0.00     0.023 A 
ATOM     76  C   UNL A   1      39.635  33.749  34.580  1.00  0.00     0.031 A 
ATOM     77  C   UNL A   1      40.903  35.760  34.962  1.00  0.00     0.131 A 
ATOM     78  C   UNL A   1      38.888  34.009  35.742  1.00  0.00     0.055 A 
ATOM     79  C   UNL A   1      40.083  36.064  36.062  1.00  0.00     0.041 A 
ATOM     80  F   UNL A   1      41.942  36.570  34.714  1.00  0.00    -0.206 F 
ATOM     81  C   UNL A   1      39.118  35.155  36.499  1.00  0.00     0.022 A 
BRANCH  78  82
ATOM     82  S   UNL A   1      37.859  32.660  36.409  1.00  0.00     0.124 S 
ATOM     83  O   UNL A   1      36.779  33.405  37.049  1.00  0.00    -0.237 OA
ATOM     84  O   UNL A   1      37.516  31.919  35.196  1.00  0.00    -0.237 OA
ATOM     85  O   UNL A   1      38.759  31.943  37.310  1.00  0.00    -0.744 OA
ENDBRANCH  78  82
ENDBRANCH  51  75
BRANCH  63  86
ATOM     86  C   UNL A   1      43.895  27.929  33.823  1.00  0.00     0.023 A 
ATOM     87  C   UNL A   1      42.968  27.022  34.335  1.00  0.00     0.031 A 
ATOM     88  C   UNL A   1      45.249  27.492  33.863  1.00  0.00     0.131 A 
ATOM     89  C   UNL A   1      43.376  25.818  34.933  1.00  0.00     0.055 A 
ATOM     90  C   UNL A   1      45.642  26.245  34.354  1.00  0.00     0.041 A 
ATOM     91  F   UNL A   1      46.265  28.242  33.414  1.00  0.00    -0.206 F 
ATOM     92  C   UNL A   1      44.704  25.404  34.920  1.00  0.00     0.022 A 
BRANCH  89  93
ATOM     93  S   UNL A   1      42.123  24.864  35.819  1.00  0.00     0.124 S 
ATOM     94  O   UNL A   1      42.208  23.569  35.148  1.00  0.00    -0.237 OA
ATOM     95  O   UNL A   1      42.618  24.897  37.191  1.00  0.00    -0.237 OA
ATOM     96  O   UNL A   1      40.891  25.609  35.580  1.00  0.00    -0.744 OA
ENDBRANCH  89  93
ENDBRANCH  63  86
ENDBRANCH  37  38
ENDBRANCH  29  32
ENDBRANCH  27  28
ENDBRANCH  26  27
ENDBRANCH   1  26
TORSDOF 20
ENDMDL
