MODEL 1
REMARK VINA RESULT:     -12.0      0.000      0.000
REMARK SMILES O=C(NCCCCNC(=O)c1nn(-c2ccc(Br)cc2F)cc1CCCO)c1ccc(-c2c3nc(c(-c4cc(S(=O)(=O)[O-])ccc4F)c4ccc([nH]4)c(-c4cc(S(=O)(=O)[O-])ccc4F)c4nc(c(-c5cc(S(=O)(=O)[O-])ccc5F)c5ccc2[nH]5)C=C4)C=C3)cc1
REMARK SMILES IDX 6 1 5 2 4 3 3 4 1 5 2 6 28 8 29 9 90 10 30 11 89 12 31 13
REMARK SMILES IDX 32 14 33 15 83 16 34 17 88 18 82 19 84 20 35 21 87 22 81 23
REMARK SMILES IDX 80 24 36 26 68 27 48 28 67 29 49 30 52 31 66 32 85 33 50 34
REMARK SMILES IDX 51 35 65 37 86 38 53 39 37 40 38 41 46 42 39 43 45 44 47 45
REMARK SMILES IDX 44 46 40 47 41 48 42 49 43 50 69 51 70 52 78 53 71 54 77 55
REMARK SMILES IDX 79 56 76 57 72 58 73 59 74 60 75 61 54 62 55 63 63 64 56 65
REMARK SMILES IDX 62 66 64 67 61 68 57 69 58 70 59 71 60 72 7 73 8 74 9 75
REMARK SMILES IDX 10 77 11 78 12 79 23 80 13 81 22 82 24 83 25 84 26 85 27 86
REMARK SMILES IDX 14 88 15 89 20 90 16 91 19 92 21 93 17 94 18 95
REMARK H PARENT 3 7 84 25 52 36 8 76 27 87
REMARK Flexibility Score: inf
ROOT
ATOM      1  C   UNL A   1      31.908  28.773  27.410  1.00  0.00     0.023 C 
ENDROOT
BRANCH   1   2
ATOM      2  C   UNL A   1      32.556  30.097  26.983  1.00  0.00     0.023 C 
BRANCH   2   3
ATOM      3  C   UNL A   1      34.009  30.301  27.404  1.00  0.00     0.116 C 
BRANCH   3   4
ATOM      4  N   UNL A   1      34.227  31.367  28.356  1.00  0.00    -0.352 N 
ATOM      5  O   UNL A   1      35.140  32.843  29.719  1.00  0.00    -0.269 OA
ATOM      6  C   UNL A   1      35.305  31.800  29.079  1.00  0.00     0.251 C 
ATOM      7  H   UNL A   1      33.416  31.902  28.522  1.00  0.00     0.163 HD
BRANCH   6   8
ATOM      8  C   UNL A   1      36.615  31.097  29.174  1.00  0.00     0.039 A 
ATOM      9  C   UNL A   1      37.838  31.691  29.486  1.00  0.00     0.014 A 
ATOM     10  C   UNL A   1      36.585  29.705  28.962  1.00  0.00     0.014 A 
ATOM     11  C   UNL A   1      39.006  30.926  29.535  1.00  0.00     0.010 A 
ATOM     12  C   UNL A   1      37.745  28.935  29.030  1.00  0.00     0.010 A 
ATOM     13  C   UNL A   1      38.965  29.548  29.304  1.00  0.00    -0.014 A 
BRANCH  13  14
ATOM     14  C   UNL A   1      40.192  28.773  29.524  1.00  0.00     0.031 A 
ATOM     15  C   UNL A   1      40.626  28.630  30.948  1.00  0.00     0.074 A 
ATOM     16  C   UNL A   1      40.825  28.052  28.577  1.00  0.00     0.049 A 
ATOM     17  N   UNL A   1      41.769  28.924  31.481  1.00  0.00    -0.248 NA
ATOM     18  C   UNL A   1      39.631  28.139  31.915  1.00  0.00     0.031 C 
ATOM     19  C   UNL A   1      40.386  27.796  27.206  1.00  0.00     0.029 A 
ATOM     20  N   UNL A   1      41.960  27.295  28.690  1.00  0.00    -0.354 N 
ATOM     21  C   UNL A   1      41.708  28.489  32.806  1.00  0.00     0.074 A 
ATOM     22  C   UNL A   1      40.337  28.123  33.045  1.00  0.00     0.031 C 
ATOM     23  C   UNL A   1      41.116  26.783  26.688  1.00  0.00     0.029 A 
ATOM     24  C   UNL A   1      42.151  26.407  27.639  1.00  0.00     0.049 A 
ATOM     25  H   UNL A   1      42.583  27.372  29.447  1.00  0.00     0.167 HD
ATOM     26  C   UNL A   1      42.822  28.308  33.571  1.00  0.00     0.034 A 
ATOM     27  C   UNL A   1      43.046  25.387  27.570  1.00  0.00     0.034 A 
ATOM     28  C   UNL A   1      43.951  29.038  33.052  1.00  0.00     0.049 A 
ATOM     29  C   UNL A   1      44.131  25.668  28.538  1.00  0.00     0.074 A 
ATOM     30  C   UNL A   1      44.197  30.370  32.777  1.00  0.00     0.029 A 
ATOM     31  N   UNL A   1      44.957  28.348  32.420  1.00  0.00    -0.354 N 
ATOM     32  N   UNL A   1      44.972  26.657  28.422  1.00  0.00    -0.248 NA
ATOM     33  C   UNL A   1      44.049  25.080  29.866  1.00  0.00     0.031 C 
ATOM     34  C   UNL A   1      44.997  30.361  31.596  1.00  0.00     0.029 A 
ATOM     35  C   UNL A   1      45.224  29.027  31.255  1.00  0.00     0.049 A 
ATOM     36  H   UNL A   1      45.400  27.529  32.739  1.00  0.00     0.167 HD
ATOM     37  C   UNL A   1      45.203  27.088  29.717  1.00  0.00     0.074 A 
ATOM     38  C   UNL A   1      44.708  26.007  30.565  1.00  0.00     0.031 C 
ATOM     39  C   UNL A   1      45.519  28.388  29.988  1.00  0.00     0.034 A 
BRANCH  26  40
ATOM     40  C   UNL A   1      42.964  27.265  34.658  1.00  0.00     0.023 A 
ATOM     41  C   UNL A   1      43.695  26.093  34.375  1.00  0.00     0.031 A 
ATOM     42  C   UNL A   1      42.205  27.240  35.850  1.00  0.00     0.131 A 
ATOM     43  C   UNL A   1      43.610  24.964  35.212  1.00  0.00     0.055 A 
ATOM     44  C   UNL A   1      42.180  26.143  36.716  1.00  0.00     0.041 A 
ATOM     45  F   UNL A   1      41.375  28.234  36.191  1.00  0.00    -0.206 F 
ATOM     46  C   UNL A   1      42.865  24.986  36.388  1.00  0.00     0.022 A 
BRANCH  43  47
ATOM     47  S   UNL A   1      44.343  23.404  34.648  1.00  0.00     0.124 S 
ATOM     48  O   UNL A   1      43.433  23.017  33.575  1.00  0.00    -0.237 OA
ATOM     49  O   UNL A   1      45.678  23.827  34.241  1.00  0.00    -0.237 OA
ATOM     50  O   UNL A   1      44.295  22.557  35.839  1.00  0.00    -0.744 OA
ENDBRANCH  43  47
ENDBRANCH  26  40
BRANCH  27  51
ATOM     51  C   UNL A   1      42.856  24.067  26.914  1.00  0.00     0.023 A 
ATOM     52  C   UNL A   1      43.842  23.471  26.102  1.00  0.00     0.031 A 
ATOM     53  C   UNL A   1      41.756  23.256  27.275  1.00  0.00     0.131 A 
ATOM     54  C   UNL A   1      43.699  22.130  25.679  1.00  0.00     0.055 A 
ATOM     55  C   UNL A   1      41.611  21.938  26.843  1.00  0.00     0.041 A 
ATOM     56  F   UNL A   1      40.824  23.695  28.136  1.00  0.00    -0.206 F 
ATOM     57  C   UNL A   1      42.588  21.366  26.046  1.00  0.00     0.022 A 
BRANCH  54  58
ATOM     58  S   UNL A   1      45.023  21.319  24.726  1.00  0.00     0.124 S 
ATOM     59  O   UNL A   1      44.707  21.713  23.359  1.00  0.00    -0.237 OA
ATOM     60  O   UNL A   1      46.229  21.898  25.308  1.00  0.00    -0.237 OA
ATOM     61  O   UNL A   1      44.830  19.898  25.017  1.00  0.00    -0.744 OA
ENDBRANCH  54  58
ENDBRANCH  27  51
BRANCH  39  62
ATOM     62  C   UNL A   1      45.942  29.289  28.844  1.00  0.00     0.023 A 
ATOM     63  C   UNL A   1      45.117  30.273  28.253  1.00  0.00     0.031 A 
ATOM     64  C   UNL A   1      47.282  29.225  28.420  1.00  0.00     0.131 A 
ATOM     65  C   UNL A   1      45.637  31.132  27.266  1.00  0.00     0.055 A 
ATOM     66  C   UNL A   1      47.800  30.092  27.457  1.00  0.00     0.041 A 
ATOM     67  F   UNL A   1      48.127  28.334  28.965  1.00  0.00    -0.206 F 
ATOM     68  C   UNL A   1      46.975  31.046  26.872  1.00  0.00     0.022 A 
BRANCH  65  69
ATOM     69  S   UNL A   1      44.572  32.379  26.473  1.00  0.00     0.124 S 
ATOM     70  O   UNL A   1      44.080  33.172  27.592  1.00  0.00    -0.237 OA
ATOM     71  O   UNL A   1      45.497  33.054  25.566  1.00  0.00    -0.237 OA
ATOM     72  O   UNL A   1      43.550  31.574  25.802  1.00  0.00    -0.744 OA
ENDBRANCH  65  69
ENDBRANCH  39  62
ENDBRANCH  13  14
ENDBRANCH   6   8
ENDBRANCH   3   4
ENDBRANCH   2   3
ENDBRANCH   1   2
BRANCH   1  73
ATOM     73  C   UNL A   1      31.757  27.696  26.334  1.00  0.00     0.116 C 
BRANCH  73  74
ATOM     74  N   UNL A   1      30.634  26.810  26.566  1.00  0.00    -0.351 N 
ATOM     75  C   UNL A   1      30.453  25.511  26.164  1.00  0.00     0.272 C 
ATOM     76  H   UNL A   1      29.894  27.195  27.089  1.00  0.00     0.163 HD
ATOM     77  O   UNL A   1      29.450  24.924  26.559  1.00  0.00    -0.267 OA
BRANCH  75  78
ATOM     78  C   UNL A   1      31.415  24.910  25.235  1.00  0.00     0.153 A 
ATOM     79  N   UNL A   1      32.251  23.928  25.628  1.00  0.00    -0.162 NA
ATOM     80  C   UNL A   1      31.602  25.229  23.858  1.00  0.00     0.004 A 
ATOM     81  N   UNL A   1      33.097  23.756  24.586  1.00  0.00    -0.237 N 
ATOM     82  C   UNL A   1      32.728  24.513  23.503  1.00  0.00     0.119 A 
BRANCH  80  83
ATOM     83  C   UNL A   1      30.867  26.203  22.992  1.00  0.00     0.042 C 
BRANCH  83  84
ATOM     84  C   UNL A   1      31.615  27.506  22.682  1.00  0.00     0.033 C 
BRANCH  84  85
ATOM     85  C   UNL A   1      30.777  28.779  22.669  1.00  0.00     0.156 C 
BRANCH  85  86
ATOM     86  O   UNL A   1      31.309  29.736  21.767  1.00  0.00    -0.396 OA
ATOM     87  H   UNL A   1      31.207  29.415  20.858  1.00  0.00     0.210 HD
ENDBRANCH  85  86
ENDBRANCH  84  85
ENDBRANCH  83  84
ENDBRANCH  80  83
BRANCH  81  88
ATOM     88  C   UNL A   1      34.195  22.871  24.690  1.00  0.00     0.100 A 
ATOM     89  C   UNL A   1      33.970  21.487  24.649  1.00  0.00     0.032 A 
ATOM     90  C   UNL A   1      35.495  23.354  24.843  1.00  0.00     0.149 A 
ATOM     91  C   UNL A   1      35.051  20.604  24.729  1.00  0.00     0.018 A 
ATOM     92  C   UNL A   1      36.569  22.475  24.970  1.00  0.00     0.057 A 
ATOM     93  F   UNL A   1      35.745  24.666  24.948  1.00  0.00    -0.205 F 
ATOM     94  C   UNL A   1      36.343  21.103  24.900  1.00  0.00     0.021 A 
ATOM     95  Br  UNL A   1      37.798  19.904  25.043  1.00  0.00    -0.051 Br
ENDBRANCH  81  88
ENDBRANCH  75  78
ENDBRANCH  73  74
ENDBRANCH   1  73
TORSDOF 19
ENDMDL
MODEL 2
REMARK VINA RESULT:     -12.0      1.561      2.051
REMARK SMILES O=C(NCCCCNC(=O)c1nn(-c2ccc(Br)cc2F)cc1CCCO)c1ccc(-c2c3nc(c(-c4cc(S(=O)(=O)[O-])ccc4F)c4ccc([nH]4)c(-c4cc(S(=O)(=O)[O-])ccc4F)c4nc(c(-c5cc(S(=O)(=O)[O-])ccc5F)c5ccc2[nH]5)C=C4)C=C3)cc1
REMARK SMILES IDX 6 1 5 2 4 3 3 4 1 5 2 6 28 8 29 9 90 10 30 11 89 12 31 13
REMARK SMILES IDX 32 14 33 15 83 16 34 17 88 18 82 19 84 20 35 21 87 22 81 23
REMARK SMILES IDX 80 24 36 26 68 27 48 28 67 29 49 30 52 31 66 32 85 33 50 34
REMARK SMILES IDX 51 35 65 37 86 38 53 39 37 40 38 41 46 42 39 43 45 44 47 45
REMARK SMILES IDX 44 46 40 47 41 48 42 49 43 50 69 51 70 52 78 53 71 54 77 55
REMARK SMILES IDX 79 56 76 57 72 58 73 59 74 60 75 61 54 62 55 63 63 64 56 65
REMARK SMILES IDX 62 66 64 67 61 68 57 69 58 70 59 71 60 72 7 73 8 74 9 75
REMARK SMILES IDX 10 77 11 78 12 79 23 80 13 81 22 82 24 83 25 84 26 85 27 86
REMARK SMILES IDX 14 88 15 89 20 90 16 91 19 92 21 93 17 94 18 95
REMARK H PARENT 3 7 84 25 52 36 8 76 27 87
REMARK Flexibility Score: inf
ROOT
ATOM      1  C   UNL A   1      32.240  30.380  26.888  1.00  0.00     0.023 C 
ENDROOT
BRANCH   1   2
ATOM      2  C   UNL A   1      33.683  30.147  27.357  1.00  0.00     0.023 C 
BRANCH   2   3
ATOM      3  C   UNL A   1      34.521  31.400  27.599  1.00  0.00     0.116 C 
BRANCH   3   4
ATOM      4  N   UNL A   1      34.519  31.883  28.962  1.00  0.00    -0.352 N 
ATOM      5  O   UNL A   1      35.113  32.517  30.991  1.00  0.00    -0.269 OA
ATOM      6  C   UNL A   1      35.441  31.900  29.973  1.00  0.00     0.251 C 
ATOM      7  H   UNL A   1      33.661  32.291  29.222  1.00  0.00     0.163 HD
BRANCH   6   8
ATOM      8  C   UNL A   1      36.762  31.209  29.945  1.00  0.00     0.039 A 
ATOM      9  C   UNL A   1      38.009  31.833  29.990  1.00  0.00     0.014 A 
ATOM     10  C   UNL A   1      36.721  29.802  29.905  1.00  0.00     0.014 A 
ATOM     11  C   UNL A   1      39.183  31.077  29.946  1.00  0.00     0.010 A 
ATOM     12  C   UNL A   1      37.890  29.043  29.882  1.00  0.00     0.010 A 
ATOM     13  C   UNL A   1      39.128  29.681  29.888  1.00  0.00    -0.014 A 
BRANCH  13  14
ATOM     14  C   UNL A   1      40.386  28.934  30.004  1.00  0.00     0.031 A 
ATOM     15  C   UNL A   1      40.872  28.688  31.397  1.00  0.00     0.074 A 
ATOM     16  C   UNL A   1      41.011  28.318  28.981  1.00  0.00     0.049 A 
ATOM     17  N   UNL A   1      42.022  28.976  31.918  1.00  0.00    -0.248 NA
ATOM     18  C   UNL A   1      39.927  28.082  32.348  1.00  0.00     0.031 C 
ATOM     19  C   UNL A   1      40.535  28.163  27.606  1.00  0.00     0.029 A 
ATOM     20  N   UNL A   1      42.173  27.596  28.994  1.00  0.00    -0.354 N 
ATOM     21  C   UNL A   1      42.020  28.429  33.202  1.00  0.00     0.074 A 
ATOM     22  C   UNL A   1      40.670  27.996  33.451  1.00  0.00     0.031 C 
ATOM     23  C   UNL A   1      41.281  27.224  26.982  1.00  0.00     0.029 A 
ATOM     24  C   UNL A   1      42.359  26.807  27.866  1.00  0.00     0.049 A 
ATOM     25  H   UNL A   1      42.819  27.631  29.735  1.00  0.00     0.167 HD
ATOM     26  C   UNL A   1      43.164  28.225  33.914  1.00  0.00     0.034 A 
ATOM     27  C   UNL A   1      43.284  25.829  27.682  1.00  0.00     0.034 A 
ATOM     28  C   UNL A   1      44.250  29.035  33.426  1.00  0.00     0.049 A 
ATOM     29  C   UNL A   1      44.391  26.066  28.637  1.00  0.00     0.074 A 
ATOM     30  C   UNL A   1      44.443  30.394  33.258  1.00  0.00     0.029 A 
ATOM     31  N   UNL A   1      45.257  28.438  32.707  1.00  0.00    -0.354 N 
ATOM     32  N   UNL A   1      45.195  27.091  28.580  1.00  0.00    -0.248 NA
ATOM     33  C   UNL A   1      44.373  25.366  29.912  1.00  0.00     0.031 C 
ATOM     34  C   UNL A   1      45.203  30.513  32.057  1.00  0.00     0.029 A 
ATOM     35  C   UNL A   1      45.462  29.222  31.596  1.00  0.00     0.049 A 
ATOM     36  H   UNL A   1      45.737  27.611  32.941  1.00  0.00     0.167 HD
ATOM     37  C   UNL A   1      45.454  27.419  29.900  1.00  0.00     0.074 A 
ATOM     38  C   UNL A   1      45.024  26.254  30.668  1.00  0.00     0.031 C 
ATOM     39  C   UNL A   1      45.736  28.702  30.271  1.00  0.00     0.034 A 
BRANCH  26  40
ATOM     40  C   UNL A   1      43.377  27.099  34.903  1.00  0.00     0.023 A 
ATOM     41  C   UNL A   1      44.114  25.971  34.491  1.00  0.00     0.031 A 
ATOM     42  C   UNL A   1      42.676  26.961  36.123  1.00  0.00     0.131 A 
ATOM     43  C   UNL A   1      44.090  24.776  35.235  1.00  0.00     0.055 A 
ATOM     44  C   UNL A   1      42.712  25.796  36.896  1.00  0.00     0.041 A 
ATOM     45  F   UNL A   1      41.845  27.904  36.583  1.00  0.00    -0.206 F 
ATOM     46  C   UNL A   1      43.401  24.685  36.442  1.00  0.00     0.022 A 
BRANCH  43  47
ATOM     47  S   UNL A   1      44.823  23.283  34.511  1.00  0.00     0.124 S 
ATOM     48  O   UNL A   1      44.633  22.308  35.580  1.00  0.00    -0.237 OA
ATOM     49  O   UNL A   1      44.009  23.097  33.316  1.00  0.00    -0.237 OA
ATOM     50  O   UNL A   1      46.210  23.672  34.264  1.00  0.00    -0.744 OA
ENDBRANCH  43  47
ENDBRANCH  26  40
BRANCH  27  51
ATOM     51  C   UNL A   1      43.116  24.563  26.922  1.00  0.00     0.023 A 
ATOM     52  C   UNL A   1      43.956  24.202  25.849  1.00  0.00     0.031 A 
ATOM     53  C   UNL A   1      42.240  23.565  27.407  1.00  0.00     0.131 A 
ATOM     54  C   UNL A   1      43.889  22.900  25.302  1.00  0.00     0.055 A 
ATOM     55  C   UNL A   1      42.167  22.287  26.854  1.00  0.00     0.041 A 
ATOM     56  F   UNL A   1      41.484  23.775  28.496  1.00  0.00    -0.206 F 
ATOM     57  C   UNL A   1      42.998  21.946  25.800  1.00  0.00     0.022 A 
BRANCH  54  58
ATOM     58  S   UNL A   1      45.050  22.392  23.993  1.00  0.00     0.124 S 
ATOM     59  O   UNL A   1      45.602  21.154  24.531  1.00  0.00    -0.237 OA
ATOM     60  O   UNL A   1      44.178  22.264  22.831  1.00  0.00    -0.237 OA
ATOM     61  O   UNL A   1      45.995  23.508  23.925  1.00  0.00    -0.744 OA
ENDBRANCH  54  58
ENDBRANCH  27  51
BRANCH  39  62
ATOM     62  C   UNL A   1      46.090  29.711  29.195  1.00  0.00     0.023 A 
ATOM     63  C   UNL A   1      45.148  30.364  28.370  1.00  0.00     0.031 A 
ATOM     64  C   UNL A   1      47.435  30.113  29.092  1.00  0.00     0.131 A 
ATOM     65  C   UNL A   1      45.568  31.365  27.472  1.00  0.00     0.055 A 
ATOM     66  C   UNL A   1      47.844  31.119  28.217  1.00  0.00     0.041 A 
ATOM     67  F   UNL A   1      48.375  29.554  29.872  1.00  0.00    -0.206 F 
ATOM     68  C   UNL A   1      46.911  31.745  27.398  1.00  0.00     0.022 A 
BRANCH  65  69
ATOM     69  S   UNL A   1      44.367  32.187  26.377  1.00  0.00     0.124 S 
ATOM     70  O   UNL A   1      43.843  33.273  27.197  1.00  0.00    -0.237 OA
ATOM     71  O   UNL A   1      45.195  32.584  25.241  1.00  0.00    -0.237 OA
ATOM     72  O   UNL A   1      43.400  31.129  26.079  1.00  0.00    -0.744 OA
ENDBRANCH  65  69
ENDBRANCH  39  62
ENDBRANCH  13  14
ENDBRANCH   6   8
ENDBRANCH   3   4
ENDBRANCH   2   3
ENDBRANCH   1   2
BRANCH   1  73
ATOM     73  C   UNL A   1      31.822  29.713  25.575  1.00  0.00     0.116 C 
BRANCH  73  74
ATOM     74  N   UNL A   1      32.884  29.679  24.589  1.00  0.00    -0.351 N 
ATOM     75  C   UNL A   1      33.135  28.748  23.614  1.00  0.00     0.272 C 
ATOM     76  H   UNL A   1      33.516  30.433  24.624  1.00  0.00     0.163 HD
ATOM     77  O   UNL A   1      34.049  28.976  22.827  1.00  0.00    -0.267 OA
BRANCH  75  78
ATOM     78  C   UNL A   1      32.360  27.503  23.596  1.00  0.00     0.153 A 
ATOM     79  N   UNL A   1      32.827  26.378  24.173  1.00  0.00    -0.162 NA
ATOM     80  C   UNL A   1      31.071  27.296  23.023  1.00  0.00     0.004 A 
ATOM     81  N   UNL A   1      31.952  25.413  23.806  1.00  0.00    -0.237 N 
ATOM     82  C   UNL A   1      30.880  25.932  23.125  1.00  0.00     0.119 A 
BRANCH  80  83
ATOM     83  C   UNL A   1      30.160  28.265  22.339  1.00  0.00     0.042 C 
BRANCH  83  84
ATOM     84  C   UNL A   1      29.213  29.044  23.261  1.00  0.00     0.033 C 
BRANCH  84  85
ATOM     85  C   UNL A   1      27.779  29.211  22.770  1.00  0.00     0.156 C 
BRANCH  85  86
ATOM     86  O   UNL A   1      27.202  30.409  23.264  1.00  0.00    -0.396 OA
ATOM     87  H   UNL A   1      26.725  30.857  22.548  1.00  0.00     0.210 HD
ENDBRANCH  85  86
ENDBRANCH  84  85
ENDBRANCH  83  84
ENDBRANCH  80  83
BRANCH  81  88
ATOM     88  C   UNL A   1      32.192  24.060  24.141  1.00  0.00     0.100 A 
ATOM     89  C   UNL A   1      33.237  23.369  23.511  1.00  0.00     0.032 A 
ATOM     90  C   UNL A   1      31.398  23.401  25.080  1.00  0.00     0.149 A 
ATOM     91  C   UNL A   1      33.496  22.038  23.852  1.00  0.00     0.018 A 
ATOM     92  C   UNL A   1      31.624  22.061  25.387  1.00  0.00     0.057 A 
ATOM     93  F   UNL A   1      30.351  24.007  25.658  1.00  0.00    -0.205 F 
ATOM     94  C   UNL A   1      32.681  21.388  24.780  1.00  0.00     0.021 A 
ATOM     95  Br  UNL A   1      33.012  19.578  25.212  1.00  0.00    -0.051 Br
ENDBRANCH  81  88
ENDBRANCH  75  78
ENDBRANCH  73  74
ENDBRANCH   1  73
TORSDOF 19
ENDMDL
MODEL 3
REMARK VINA RESULT:     -12.0      2.076      2.466
REMARK SMILES O=C(NCCCCNC(=O)c1nn(-c2ccc(Br)cc2F)cc1CCCO)c1ccc(-c2c3nc(c(-c4cc(S(=O)(=O)[O-])ccc4F)c4ccc([nH]4)c(-c4cc(S(=O)(=O)[O-])ccc4F)c4nc(c(-c5cc(S(=O)(=O)[O-])ccc5F)c5ccc2[nH]5)C=C4)C=C3)cc1
REMARK SMILES IDX 6 1 5 2 4 3 3 4 1 5 2 6 28 8 29 9 90 10 30 11 89 12 31 13
REMARK SMILES IDX 32 14 33 15 83 16 34 17 88 18 82 19 84 20 35 21 87 22 81 23
REMARK SMILES IDX 80 24 36 26 68 27 48 28 67 29 49 30 52 31 66 32 85 33 50 34
REMARK SMILES IDX 51 35 65 37 86 38 53 39 37 40 38 41 46 42 39 43 45 44 47 45
REMARK SMILES IDX 44 46 40 47 41 48 42 49 43 50 69 51 70 52 78 53 71 54 77 55
REMARK SMILES IDX 79 56 76 57 72 58 73 59 74 60 75 61 54 62 55 63 63 64 56 65
REMARK SMILES IDX 62 66 64 67 61 68 57 69 58 70 59 71 60 72 7 73 8 74 9 75
REMARK SMILES IDX 10 77 11 78 12 79 23 80 13 81 22 82 24 83 25 84 26 85 27 86
REMARK SMILES IDX 14 88 15 89 20 90 16 91 19 92 21 93 17 94 18 95
REMARK H PARENT 3 7 84 25 52 36 8 76 27 87
REMARK Flexibility Score: inf
ROOT
ATOM      1  C   UNL A   1      34.559  29.365  27.054  1.00  0.00     0.023 C 
ENDROOT
BRANCH   1   2
ATOM      2  C   UNL A   1      34.023  30.785  27.281  1.00  0.00     0.023 C 
BRANCH   2   3
ATOM      3  C   UNL A   1      34.983  31.769  27.943  1.00  0.00     0.116 C 
BRANCH   3   4
ATOM      4  N   UNL A   1      34.827  31.908  29.374  1.00  0.00    -0.352 N 
ATOM      5  O   UNL A   1      35.187  32.018  31.548  1.00  0.00    -0.269 OA
ATOM      6  C   UNL A   1      35.629  31.657  30.453  1.00  0.00     0.251 C 
ATOM      7  H   UNL A   1      33.944  32.263  29.629  1.00  0.00     0.163 HD
BRANCH   6   8
ATOM      8  C   UNL A   1      36.946  30.960  30.404  1.00  0.00     0.039 A 
ATOM      9  C   UNL A   1      38.196  31.577  30.444  1.00  0.00     0.014 A 
ATOM     10  C   UNL A   1      36.898  29.554  30.347  1.00  0.00     0.014 A 
ATOM     11  C   UNL A   1      39.366  30.816  30.379  1.00  0.00     0.010 A 
ATOM     12  C   UNL A   1      38.063  28.789  30.302  1.00  0.00     0.010 A 
ATOM     13  C   UNL A   1      39.304  29.421  30.304  1.00  0.00    -0.014 A 
BRANCH  13  14
ATOM     14  C   UNL A   1      40.560  28.667  30.399  1.00  0.00     0.031 A 
ATOM     15  C   UNL A   1      41.083  28.442  31.781  1.00  0.00     0.074 A 
ATOM     16  C   UNL A   1      41.151  28.028  29.369  1.00  0.00     0.049 A 
ATOM     17  N   UNL A   1      42.249  28.731  32.264  1.00  0.00    -0.248 NA
ATOM     18  C   UNL A   1      40.161  27.861  32.770  1.00  0.00     0.031 C 
ATOM     19  C   UNL A   1      40.634  27.851  28.012  1.00  0.00     0.029 A 
ATOM     20  N   UNL A   1      42.307  27.297  29.363  1.00  0.00    -0.354 N 
ATOM     21  C   UNL A   1      42.280  28.208  33.558  1.00  0.00     0.074 A 
ATOM     22  C   UNL A   1      40.934  27.790  33.853  1.00  0.00     0.031 C 
ATOM     23  C   UNL A   1      41.356  26.895  27.384  1.00  0.00     0.029 A 
ATOM     24  C   UNL A   1      42.455  26.486  28.245  1.00  0.00     0.049 A 
ATOM     25  H   UNL A   1      42.974  27.341  30.085  1.00  0.00     0.167 HD
ATOM     26  C   UNL A   1      43.442  28.008  34.241  1.00  0.00     0.034 A 
ATOM     27  C   UNL A   1      43.368  25.498  28.053  1.00  0.00     0.034 A 
ATOM     28  C   UNL A   1      44.520  28.801  33.707  1.00  0.00     0.049 A 
ATOM     29  C   UNL A   1      44.503  25.743  28.972  1.00  0.00     0.074 A 
ATOM     30  C   UNL A   1      44.718  30.155  33.509  1.00  0.00     0.029 A 
ATOM     31  N   UNL A   1      45.502  28.183  32.971  1.00  0.00    -0.354 N 
ATOM     32  N   UNL A   1      45.312  26.761  28.874  1.00  0.00    -0.248 NA
ATOM     33  C   UNL A   1      44.516  25.067  30.260  1.00  0.00     0.031 C 
ATOM     34  C   UNL A   1      45.444  30.246  32.285  1.00  0.00     0.029 A 
ATOM     35  C   UNL A   1      45.681  28.945  31.841  1.00  0.00     0.049 A 
ATOM     36  H   UNL A   1      45.982  27.357  33.206  1.00  0.00     0.167 HD
ATOM     37  C   UNL A   1      45.611  27.112  30.179  1.00  0.00     0.074 A 
ATOM     38  C   UNL A   1      45.195  25.964  30.980  1.00  0.00     0.031 C 
ATOM     39  C   UNL A   1      45.913  28.399  30.518  1.00  0.00     0.034 A 
BRANCH  26  40
ATOM     40  C   UNL A   1      43.675  26.899  35.244  1.00  0.00     0.023 A 
ATOM     41  C   UNL A   1      44.038  27.248  36.561  1.00  0.00     0.031 A 
ATOM     42  C   UNL A   1      43.819  25.533  34.911  1.00  0.00     0.131 A 
ATOM     43  C   UNL A   1      44.563  26.289  37.449  1.00  0.00     0.055 A 
ATOM     44  C   UNL A   1      44.273  24.571  35.817  1.00  0.00     0.041 A 
ATOM     45  F   UNL A   1      43.623  25.075  33.669  1.00  0.00    -0.206 F 
ATOM     46  C   UNL A   1      44.673  24.949  37.088  1.00  0.00     0.022 A 
BRANCH  43  47
ATOM     47  S   UNL A   1      45.270  26.851  39.021  1.00  0.00     0.124 S 
ATOM     48  O   UNL A   1      46.688  26.560  38.832  1.00  0.00    -0.237 OA
ATOM     49  O   UNL A   1      44.898  28.262  39.032  1.00  0.00    -0.237 OA
ATOM     50  O   UNL A   1      44.591  26.021  40.014  1.00  0.00    -0.744 OA
ENDBRANCH  43  47
ENDBRANCH  26  40
BRANCH  27  51
ATOM     51  C   UNL A   1      43.170  24.220  27.322  1.00  0.00     0.023 A 
ATOM     52  C   UNL A   1      44.017  23.801  26.276  1.00  0.00     0.031 A 
ATOM     53  C   UNL A   1      42.249  23.266  27.813  1.00  0.00     0.131 A 
ATOM     54  C   UNL A   1      43.913  22.488  25.760  1.00  0.00     0.055 A 
ATOM     55  C   UNL A   1      42.140  21.977  27.291  1.00  0.00     0.041 A 
ATOM     56  F   UNL A   1      41.479  23.531  28.881  1.00  0.00    -0.206 F 
ATOM     57  C   UNL A   1      42.979  21.580  26.263  1.00  0.00     0.022 A 
BRANCH  54  58
ATOM     58  S   UNL A   1      45.081  21.906  24.489  1.00  0.00     0.124 S 
ATOM     59  O   UNL A   1      44.368  20.774  23.908  1.00  0.00    -0.237 OA
ATOM     60  O   UNL A   1      45.235  23.082  23.641  1.00  0.00    -0.237 OA
ATOM     61  O   UNL A   1      46.273  21.551  25.260  1.00  0.00    -0.744 OA
ENDBRANCH  54  58
ENDBRANCH  27  51
BRANCH  39  62
ATOM     62  C   UNL A   1      46.243  29.385  29.414  1.00  0.00     0.023 A 
ATOM     63  C   UNL A   1      45.282  30.053  28.623  1.00  0.00     0.031 A 
ATOM     64  C   UNL A   1      47.592  29.751  29.245  1.00  0.00     0.131 A 
ATOM     65  C   UNL A   1      45.686  31.031  27.694  1.00  0.00     0.055 A 
ATOM     66  C   UNL A   1      47.987  30.736  28.340  1.00  0.00     0.041 A 
ATOM     67  F   UNL A   1      48.552  29.177  29.990  1.00  0.00    -0.206 F 
ATOM     68  C   UNL A   1      47.034  31.375  27.555  1.00  0.00     0.022 A 
BRANCH  65  69
ATOM     69  S   UNL A   1      44.458  31.871  26.644  1.00  0.00     0.124 S 
ATOM     70  O   UNL A   1      43.930  32.922  27.506  1.00  0.00    -0.237 OA
ATOM     71  O   UNL A   1      45.264  32.317  25.510  1.00  0.00    -0.237 OA
ATOM     72  O   UNL A   1      43.502  30.809  26.325  1.00  0.00    -0.744 OA
ENDBRANCH  65  69
ENDBRANCH  39  62
ENDBRANCH  13  14
ENDBRANCH   6   8
ENDBRANCH   3   4
ENDBRANCH   2   3
ENDBRANCH   1   2
BRANCH   1  73
ATOM     73  C   UNL A   1      33.790  28.482  26.067  1.00  0.00     0.116 C 
BRANCH  73  74
ATOM     74  N   UNL A   1      34.070  28.799  24.681  1.00  0.00    -0.351 N 
ATOM     75  C   UNL A   1      33.528  28.263  23.540  1.00  0.00     0.272 C 
ATOM     76  H   UNL A   1      34.747  29.499  24.537  1.00  0.00     0.163 HD
ATOM     77  O   UNL A   1      33.857  28.756  22.465  1.00  0.00    -0.267 OA
BRANCH  75  78
ATOM     78  C   UNL A   1      32.647  27.096  23.647  1.00  0.00     0.153 A 
ATOM     79  N   UNL A   1      33.096  25.921  24.130  1.00  0.00    -0.162 NA
ATOM     80  C   UNL A   1      31.267  27.021  23.298  1.00  0.00     0.004 A 
ATOM     81  N   UNL A   1      32.085  25.048  23.910  1.00  0.00    -0.237 N 
ATOM     82  C   UNL A   1      30.968  25.678  23.423  1.00  0.00     0.119 A 
BRANCH  80  83
ATOM     83  C   UNL A   1      30.349  28.084  22.783  1.00  0.00     0.042 C 
BRANCH  83  84
ATOM     84  C   UNL A   1      28.890  27.976  23.244  1.00  0.00     0.033 C 
BRANCH  84  85
ATOM     85  C   UNL A   1      27.950  29.081  22.775  1.00  0.00     0.156 C 
BRANCH  85  86
ATOM     86  O   UNL A   1      26.592  28.706  22.940  1.00  0.00    -0.396 OA
ATOM     87  H   UNL A   1      26.481  28.263  23.795  1.00  0.00     0.210 HD
ENDBRANCH  85  86
ENDBRANCH  84  85
ENDBRANCH  83  84
ENDBRANCH  80  83
BRANCH  81  88
ATOM     88  C   UNL A   1      32.250  23.672  24.192  1.00  0.00     0.100 A 
ATOM     89  C   UNL A   1      31.534  23.095  25.251  1.00  0.00     0.032 A 
ATOM     90  C   UNL A   1      33.121  22.884  23.439  1.00  0.00     0.149 A 
ATOM     91  C   UNL A   1      31.674  21.731  25.524  1.00  0.00     0.018 A 
ATOM     92  C   UNL A   1      33.297  21.534  23.739  1.00  0.00     0.057 A 
ATOM     93  F   UNL A   1      33.869  23.410  22.459  1.00  0.00    -0.205 F 
ATOM     94  C   UNL A   1      32.562  20.960  24.773  1.00  0.00     0.021 A 
ATOM     95  Br  UNL A   1      32.774  19.124  25.167  1.00  0.00    -0.051 Br
ENDBRANCH  81  88
ENDBRANCH  75  78
ENDBRANCH  73  74
ENDBRANCH   1  73
TORSDOF 19
ENDMDL
