MODEL 1
REMARK VINA RESULT:     -10.6      0.000      0.000
REMARK SMILES CCN(CCC#N)C(=O)c1ccncc1/C=C/C(=O)NCCCCNC(=O)c1ccc(-c2c3nc(c(-c4cc(S(=O)(=O)[O-])ccc4F)c4ccc([nH]4)c(-c4cc(S(=O)(=O)[O-])ccc4F)c4nc(c(-c5cc(S(=O)(=O)[O-])ccc5F)c5ccc2[nH]5)C=C4)C=C3)cc1
REMARK SMILES IDX 21 1 20 2 18 3 19 4 17 6 16 7 15 8 10 9 11 10 12 11 14 12
REMARK SMILES IDX 13 13 8 14 9 15 3 16 2 17 1 18 4 19 5 20 6 21 7 22 22 23
REMARK SMILES IDX 23 24 24 25 25 26 26 27 27 29 28 30 29 31 90 32 30 33 89 34
REMARK SMILES IDX 31 35 32 36 33 37 83 38 34 39 88 40 82 41 84 42 35 43 87 44
REMARK SMILES IDX 81 45 80 46 36 48 68 49 48 50 67 51 49 52 52 53 66 54 85 55
REMARK SMILES IDX 50 56 51 57 65 59 86 60 53 61 37 62 38 63 46 64 39 65 45 66
REMARK SMILES IDX 47 67 44 68 40 69 41 70 42 71 43 72 69 73 70 74 78 75 71 76
REMARK SMILES IDX 77 77 79 78 76 79 72 80 73 81 74 82 75 83 54 84 55 85 63 86
REMARK SMILES IDX 56 87 62 88 64 89 61 90 57 91 58 92 59 93 60 94
REMARK H PARENT 20 5 25 28 84 47 52 58
REMARK Flexibility Score: inf
ROOT
ATOM      1  C   UNL A   1      33.406  27.603  24.617  1.00  0.00     0.116 C 
ENDROOT
BRANCH   1   2
ATOM      2  N   UNL A   1      33.273  27.217  23.227  1.00  0.00    -0.353 N 
ATOM      3  C   UNL A   1      33.672  26.087  22.592  1.00  0.00     0.244 C 
ATOM      4  O   UNL A   1      33.457  25.951  21.389  1.00  0.00    -0.270 OA
ATOM      5  H   UNL A   1      32.822  27.879  22.654  1.00  0.00     0.163 HD
BRANCH   3   6
ATOM      6  C   UNL A   1      34.246  24.947  23.350  1.00  0.00     0.072 C 
ATOM      7  C   UNL A   1      34.433  23.685  22.926  1.00  0.00     0.016 C 
BRANCH   7   8
ATOM      8  C   UNL A   1      35.164  22.693  23.735  1.00  0.00     0.006 A 
ATOM      9  C   UNL A   1      34.535  21.679  24.475  1.00  0.00     0.050 A 
ATOM     10  C   UNL A   1      35.297  20.635  24.997  1.00  0.00     0.034 A 
ATOM     11  C   UNL A   1      36.671  20.732  24.963  1.00  0.00     0.112 A 
ATOM     12  C   UNL A   1      36.558  22.690  23.765  1.00  0.00     0.119 A 
ATOM     13  N   UNL A   1      37.321  21.761  24.391  1.00  0.00    -0.264 NA
BRANCH   9  14
ATOM     14  C   UNL A   1      33.068  21.602  24.689  1.00  0.00     0.254 C 
ATOM     15  O   UNL A   1      32.445  20.756  24.054  1.00  0.00    -0.269 OA
BRANCH  14  16
ATOM     16  N   UNL A   1      32.456  22.479  25.607  1.00  0.00    -0.338 N 
BRANCH  16  17
ATOM     17  C   UNL A   1      33.294  23.020  26.691  1.00  0.00     0.116 C 
ATOM     18  C   UNL A   1      33.205  22.228  27.988  1.00  0.00     0.027 C 
ENDBRANCH  16  17
BRANCH  16  19
ATOM     19  C   UNL A   1      31.015  22.815  25.657  1.00  0.00     0.135 C 
BRANCH  19  20
ATOM     20  C   UNL A   1      30.689  24.318  25.567  1.00  0.00     0.141 C 
BRANCH  20  21
ATOM     21  C   UNL A   1      30.568  24.819  24.193  1.00  0.00     0.064 C 
ATOM     22  N   UNL A   1      30.484  25.187  23.097  1.00  0.00    -0.198 NA
ENDBRANCH  20  21
ENDBRANCH  19  20
ENDBRANCH  16  19
ENDBRANCH  14  16
ENDBRANCH   9  14
ENDBRANCH   7   8
ENDBRANCH   3   6
ENDBRANCH   1   2
BRANCH   1  23
ATOM     23  C   UNL A   1      32.027  27.889  25.208  1.00  0.00     0.023 C 
BRANCH  23  24
ATOM     24  C   UNL A   1      31.857  29.320  25.712  1.00  0.00     0.023 C 
BRANCH  24  25
ATOM     25  C   UNL A   1      33.133  29.946  26.256  1.00  0.00     0.116 C 
BRANCH  25  26
ATOM     26  N   UNL A   1      32.933  31.293  26.775  1.00  0.00    -0.352 N 
ATOM     27  C   UNL A   1      33.731  31.979  27.660  1.00  0.00     0.251 C 
ATOM     28  H   UNL A   1      32.133  31.767  26.454  1.00  0.00     0.163 HD
ATOM     29  O   UNL A   1      33.362  33.046  28.138  1.00  0.00    -0.269 OA
BRANCH  27  30
ATOM     30  C   UNL A   1      35.021  31.373  28.049  1.00  0.00     0.039 A 
ATOM     31  C   UNL A   1      36.172  32.160  28.043  1.00  0.00     0.014 A 
ATOM     32  C   UNL A   1      35.060  30.055  28.513  1.00  0.00     0.014 A 
ATOM     33  C   UNL A   1      37.355  31.640  28.569  1.00  0.00     0.010 A 
ATOM     34  C   UNL A   1      36.213  29.578  29.125  1.00  0.00     0.010 A 
ATOM     35  C   UNL A   1      37.374  30.362  29.155  1.00  0.00    -0.014 A 
BRANCH  35  36
ATOM     36  C   UNL A   1      38.607  29.825  29.789  1.00  0.00     0.031 A 
ATOM     37  C   UNL A   1      39.031  30.328  31.143  1.00  0.00     0.074 A 
ATOM     38  C   UNL A   1      39.363  28.922  29.132  1.00  0.00     0.049 A 
ATOM     39  N   UNL A   1      40.096  30.026  31.840  1.00  0.00    -0.248 NA
ATOM     40  C   UNL A   1      38.157  31.322  31.785  1.00  0.00     0.031 C 
ATOM     41  C   UNL A   1      39.072  28.386  27.800  1.00  0.00     0.029 A 
ATOM     42  N   UNL A   1      40.528  28.293  29.492  1.00  0.00    -0.354 N 
ATOM     43  C   UNL A   1      40.020  30.793  32.997  1.00  0.00     0.074 A 
ATOM     44  C   UNL A   1      38.847  31.629  32.871  1.00  0.00     0.031 C 
ATOM     45  C   UNL A   1      40.009  27.482  27.475  1.00  0.00     0.029 A 
ATOM     46  C   UNL A   1      41.002  27.416  28.542  1.00  0.00     0.049 A 
ATOM     47  H   UNL A   1      40.984  28.455  30.349  1.00  0.00     0.167 HD
ATOM     48  C   UNL A   1      40.838  30.780  34.078  1.00  0.00     0.034 A 
ATOM     49  C   UNL A   1      42.117  26.656  28.528  1.00  0.00     0.034 A 
ATOM     50  C   UNL A   1      42.003  29.938  34.188  1.00  0.00     0.049 A 
ATOM     51  C   UNL A   1      43.044  26.706  29.717  1.00  0.00     0.074 A 
ATOM     52  C   UNL A   1      42.877  29.817  35.253  1.00  0.00     0.029 A 
ATOM     53  N   UNL A   1      42.466  29.084  33.196  1.00  0.00    -0.354 N 
ATOM     54  N   UNL A   1      42.931  27.403  30.825  1.00  0.00    -0.248 NA
ATOM     55  C   UNL A   1      44.245  25.863  29.659  1.00  0.00     0.031 C 
ATOM     56  C   UNL A   1      43.916  28.962  34.873  1.00  0.00     0.029 A 
ATOM     57  C   UNL A   1      43.636  28.465  33.610  1.00  0.00     0.049 A 
ATOM     58  H   UNL A   1      42.028  28.938  32.325  1.00  0.00     0.167 HD
ATOM     59  C   UNL A   1      44.026  27.048  31.610  1.00  0.00     0.074 A 
ATOM     60  C   UNL A   1      44.776  26.066  30.855  1.00  0.00     0.031 C 
ATOM     61  C   UNL A   1      44.377  27.489  32.845  1.00  0.00     0.034 A 
BRANCH  48  62
ATOM     62  C   UNL A   1      40.513  31.724  35.211  1.00  0.00     0.023 A 
ATOM     63  C   UNL A   1      39.527  31.421  36.165  1.00  0.00     0.031 A 
ATOM     64  C   UNL A   1      41.191  32.950  35.332  1.00  0.00     0.131 A 
ATOM     65  C   UNL A   1      39.197  32.360  37.154  1.00  0.00     0.055 A 
ATOM     66  C   UNL A   1      40.921  33.840  36.373  1.00  0.00     0.041 A 
ATOM     67  F   UNL A   1      42.123  33.308  34.436  1.00  0.00    -0.206 F 
ATOM     68  C   UNL A   1      39.909  33.554  37.284  1.00  0.00     0.022 A 
BRANCH  65  69
ATOM     69  S   UNL A   1      37.726  32.062  38.172  1.00  0.00     0.124 S 
ATOM     70  O   UNL A   1      37.381  30.692  37.797  1.00  0.00    -0.237 OA
ATOM     71  O   UNL A   1      38.234  32.247  39.525  1.00  0.00    -0.237 OA
ATOM     72  O   UNL A   1      36.782  33.080  37.714  1.00  0.00    -0.744 OA
ENDBRANCH  65  69
ENDBRANCH  48  62
BRANCH  49  73
ATOM     73  C   UNL A   1      42.441  25.798  27.348  1.00  0.00     0.023 A 
ATOM     74  C   UNL A   1      42.003  24.466  27.279  1.00  0.00     0.031 A 
ATOM     75  C   UNL A   1      43.253  26.276  26.304  1.00  0.00     0.131 A 
ATOM     76  C   UNL A   1      42.432  23.641  26.227  1.00  0.00     0.055 A 
ATOM     77  C   UNL A   1      43.617  25.473  25.222  1.00  0.00     0.041 A 
ATOM     78  F   UNL A   1      43.705  27.540  26.318  1.00  0.00    -0.206 F 
ATOM     79  C   UNL A   1      43.221  24.140  25.189  1.00  0.00     0.022 A 
BRANCH  76  80
ATOM     80  S   UNL A   1      42.049  21.868  26.302  1.00  0.00     0.124 S 
ATOM     81  O   UNL A   1      42.459  21.536  27.661  1.00  0.00    -0.237 OA
ATOM     82  O   UNL A   1      40.612  21.859  26.044  1.00  0.00    -0.237 OA
ATOM     83  O   UNL A   1      42.874  21.298  25.240  1.00  0.00    -0.744 OA
ENDBRANCH  76  80
ENDBRANCH  49  73
BRANCH  61  84
ATOM     84  C   UNL A   1      45.598  26.867  33.483  1.00  0.00     0.023 A 
ATOM     85  C   UNL A   1      45.523  25.689  34.246  1.00  0.00     0.031 A 
ATOM     86  C   UNL A   1      46.860  27.469  33.322  1.00  0.00     0.131 A 
ATOM     87  C   UNL A   1      46.674  25.189  34.873  1.00  0.00     0.055 A 
ATOM     88  C   UNL A   1      48.014  26.923  33.883  1.00  0.00     0.041 A 
ATOM     89  F   UNL A   1      46.993  28.599  32.609  1.00  0.00    -0.206 F 
ATOM     90  C   UNL A   1      47.923  25.783  34.676  1.00  0.00     0.022 A 
BRANCH  87  91
ATOM     91  S   UNL A   1      46.499  23.815  36.044  1.00  0.00     0.124 S 
ATOM     92  O   UNL A   1      47.729  23.919  36.820  1.00  0.00    -0.237 OA
ATOM     93  O   UNL A   1      45.269  24.160  36.749  1.00  0.00    -0.237 OA
ATOM     94  O   UNL A   1      46.408  22.638  35.180  1.00  0.00    -0.744 OA
ENDBRANCH  87  91
ENDBRANCH  61  84
ENDBRANCH  35  36
ENDBRANCH  27  30
ENDBRANCH  25  26
ENDBRANCH  24  25
ENDBRANCH  23  24
ENDBRANCH   1  23
TORSDOF 21
ENDMDL
MODEL 2
REMARK VINA RESULT:     -10.4      1.881      2.495
REMARK SMILES CCN(CCC#N)C(=O)c1ccncc1/C=C/C(=O)NCCCCNC(=O)c1ccc(-c2c3nc(c(-c4cc(S(=O)(=O)[O-])ccc4F)c4ccc([nH]4)c(-c4cc(S(=O)(=O)[O-])ccc4F)c4nc(c(-c5cc(S(=O)(=O)[O-])ccc5F)c5ccc2[nH]5)C=C4)C=C3)cc1
REMARK SMILES IDX 21 1 20 2 18 3 19 4 17 6 16 7 15 8 10 9 11 10 12 11 14 12
REMARK SMILES IDX 13 13 8 14 9 15 3 16 2 17 1 18 4 19 5 20 6 21 7 22 22 23
REMARK SMILES IDX 23 24 24 25 25 26 26 27 27 29 28 30 29 31 90 32 30 33 89 34
REMARK SMILES IDX 31 35 32 36 33 37 83 38 34 39 88 40 82 41 84 42 35 43 87 44
REMARK SMILES IDX 81 45 80 46 36 48 68 49 48 50 67 51 49 52 52 53 66 54 85 55
REMARK SMILES IDX 50 56 51 57 65 59 86 60 53 61 37 62 38 63 46 64 39 65 45 66
REMARK SMILES IDX 47 67 44 68 40 69 41 70 42 71 43 72 69 73 70 74 78 75 71 76
REMARK SMILES IDX 77 77 79 78 76 79 72 80 73 81 74 82 75 83 54 84 55 85 63 86
REMARK SMILES IDX 56 87 62 88 64 89 61 90 57 91 58 92 59 93 60 94
REMARK H PARENT 20 5 25 28 84 47 52 58
REMARK Flexibility Score: inf
ROOT
ATOM      1  C   UNL A   1      33.271  27.499  26.313  1.00  0.00     0.116 C 
ENDROOT
BRANCH   1   2
ATOM      2  N   UNL A   1      32.637  27.108  25.070  1.00  0.00    -0.353 N 
ATOM      3  C   UNL A   1      32.988  26.152  24.174  1.00  0.00     0.244 C 
ATOM      4  O   UNL A   1      32.303  25.972  23.169  1.00  0.00    -0.270 OA
ATOM      5  H   UNL A   1      31.825  27.614  24.841  1.00  0.00     0.163 HD
BRANCH   3   6
ATOM      6  C   UNL A   1      34.112  25.221  24.450  1.00  0.00     0.072 C 
ATOM      7  C   UNL A   1      34.167  24.242  25.369  1.00  0.00     0.016 C 
BRANCH   7   8
ATOM      8  C   UNL A   1      35.288  23.288  25.423  1.00  0.00     0.006 A 
ATOM      9  C   UNL A   1      35.123  21.894  25.455  1.00  0.00     0.050 A 
ATOM     10  C   UNL A   1      36.223  21.065  25.244  1.00  0.00     0.034 A 
ATOM     11  C   UNL A   1      37.483  21.623  25.225  1.00  0.00     0.112 A 
ATOM     12  C   UNL A   1      36.607  23.741  25.398  1.00  0.00     0.119 A 
ATOM     13  N   UNL A   1      37.702  22.946  25.337  1.00  0.00    -0.264 NA
BRANCH   9  14
ATOM     14  C   UNL A   1      33.811  21.223  25.634  1.00  0.00     0.254 C 
ATOM     15  O   UNL A   1      33.318  21.230  26.758  1.00  0.00    -0.269 OA
BRANCH  14  16
ATOM     16  N   UNL A   1      33.184  20.624  24.523  1.00  0.00    -0.338 N 
BRANCH  16  17
ATOM     17  C   UNL A   1      33.000  21.453  23.319  1.00  0.00     0.116 C 
ATOM     18  C   UNL A   1      31.733  22.295  23.340  1.00  0.00     0.027 C 
ENDBRANCH  16  17
BRANCH  16  19
ATOM     19  C   UNL A   1      32.579  19.274  24.492  1.00  0.00     0.135 C 
BRANCH  19  20
ATOM     20  C   UNL A   1      33.563  18.110  24.713  1.00  0.00     0.141 C 
BRANCH  20  21
ATOM     21  C   UNL A   1      33.789  17.288  23.518  1.00  0.00     0.064 C 
ATOM     22  N   UNL A   1      33.986  16.620  22.591  1.00  0.00    -0.198 NA
ENDBRANCH  20  21
ENDBRANCH  19  20
ENDBRANCH  16  19
ENDBRANCH  14  16
ENDBRANCH   9  14
ENDBRANCH   7   8
ENDBRANCH   3   6
ENDBRANCH   1   2
BRANCH   1  23
ATOM     23  C   UNL A   1      32.207  27.902  27.331  1.00  0.00     0.023 C 
BRANCH  23  24
ATOM     24  C   UNL A   1      31.680  29.322  27.143  1.00  0.00     0.023 C 
BRANCH  24  25
ATOM     25  C   UNL A   1      32.597  30.227  26.334  1.00  0.00     0.116 C 
BRANCH  25  26
ATOM     26  N   UNL A   1      32.417  31.642  26.637  1.00  0.00    -0.352 N 
ATOM     27  C   UNL A   1      33.226  32.444  27.406  1.00  0.00     0.251 C 
ATOM     28  H   UNL A   1      31.624  32.071  26.245  1.00  0.00     0.163 HD
ATOM     29  O   UNL A   1      32.875  33.578  27.711  1.00  0.00    -0.269 OA
BRANCH  27  30
ATOM     30  C   UNL A   1      34.507  31.887  27.887  1.00  0.00     0.039 A 
ATOM     31  C   UNL A   1      35.613  32.728  28.008  1.00  0.00     0.014 A 
ATOM     32  C   UNL A   1      34.573  30.556  28.309  1.00  0.00     0.014 A 
ATOM     33  C   UNL A   1      36.771  32.246  28.618  1.00  0.00     0.010 A 
ATOM     34  C   UNL A   1      35.692  30.112  29.004  1.00  0.00     0.010 A 
ATOM     35  C   UNL A   1      36.806  30.949  29.161  1.00  0.00    -0.014 A 
BRANCH  35  36
ATOM     36  C   UNL A   1      38.005  30.449  29.883  1.00  0.00     0.031 A 
ATOM     37  C   UNL A   1      38.275  30.906  31.292  1.00  0.00     0.074 A 
ATOM     38  C   UNL A   1      38.868  29.621  29.260  1.00  0.00     0.049 A 
ATOM     39  N   UNL A   1      39.288  30.628  32.071  1.00  0.00    -0.248 NA
ATOM     40  C   UNL A   1      37.290  31.819  31.892  1.00  0.00     0.031 C 
ATOM     41  C   UNL A   1      38.731  29.137  27.884  1.00  0.00     0.029 A 
ATOM     42  N   UNL A   1      40.031  29.039  29.699  1.00  0.00    -0.354 N 
ATOM     43  C   UNL A   1      39.063  31.332  33.249  1.00  0.00     0.074 A 
ATOM     44  C   UNL A   1      37.860  32.109  33.051  1.00  0.00     0.031 C 
ATOM     45  C   UNL A   1      39.745  28.301  27.609  1.00  0.00     0.029 A 
ATOM     46  C   UNL A   1      40.639  28.236  28.760  1.00  0.00     0.049 A 
ATOM     47  H   UNL A   1      40.397  29.182  30.601  1.00  0.00     0.167 HD
ATOM     48  C   UNL A   1      39.779  31.310  34.399  1.00  0.00     0.034 A 
ATOM     49  C   UNL A   1      41.792  27.539  28.816  1.00  0.00     0.034 A 
ATOM     50  C   UNL A   1      40.976  30.528  34.580  1.00  0.00     0.049 A 
ATOM     51  C   UNL A   1      42.604  27.580  30.088  1.00  0.00     0.074 A 
ATOM     52  C   UNL A   1      41.756  30.401  35.716  1.00  0.00     0.029 A 
ATOM     53  N   UNL A   1      41.576  29.749  33.599  1.00  0.00    -0.354 N 
ATOM     54  N   UNL A   1      42.351  28.215  31.210  1.00  0.00    -0.248 NA
ATOM     55  C   UNL A   1      43.851  26.806  30.105  1.00  0.00     0.031 C 
ATOM     56  C   UNL A   1      42.872  29.623  35.396  1.00  0.00     0.029 A 
ATOM     57  C   UNL A   1      42.737  29.174  34.092  1.00  0.00     0.049 A 
ATOM     58  H   UNL A   1      41.228  29.623  32.685  1.00  0.00     0.167 HD
ATOM     59  C   UNL A   1      43.389  27.881  32.077  1.00  0.00     0.074 A 
ATOM     60  C   UNL A   1      44.259  26.979  31.353  1.00  0.00     0.031 C 
ATOM     61  C   UNL A   1      43.601  28.278  33.358  1.00  0.00     0.034 A 
BRANCH  48  62
ATOM     62  C   UNL A   1      39.299  32.178  35.537  1.00  0.00     0.023 A 
ATOM     63  C   UNL A   1      39.710  33.516  35.670  1.00  0.00     0.031 A 
ATOM     64  C   UNL A   1      38.427  31.659  36.510  1.00  0.00     0.131 A 
ATOM     65  C   UNL A   1      39.308  34.265  36.786  1.00  0.00     0.055 A 
ATOM     66  C   UNL A   1      37.958  32.438  37.569  1.00  0.00     0.041 A 
ATOM     67  F   UNL A   1      38.021  30.381  36.453  1.00  0.00    -0.206 F 
ATOM     68  C   UNL A   1      38.409  33.746  37.720  1.00  0.00     0.022 A 
BRANCH  65  69
ATOM     69  S   UNL A   1      40.095  35.872  37.077  1.00  0.00     0.124 S 
ATOM     70  O   UNL A   1      39.719  36.607  35.871  1.00  0.00    -0.237 OA
ATOM     71  O   UNL A   1      39.467  36.313  38.317  1.00  0.00    -0.237 OA
ATOM     72  O   UNL A   1      41.515  35.544  37.179  1.00  0.00    -0.744 OA
ENDBRANCH  65  69
ENDBRANCH  48  62
BRANCH  49  73
ATOM     73  C   UNL A   1      42.271  26.759  27.635  1.00  0.00     0.023 A 
ATOM     74  C   UNL A   1      41.929  25.407  27.472  1.00  0.00     0.031 A 
ATOM     75  C   UNL A   1      43.136  27.334  26.687  1.00  0.00     0.131 A 
ATOM     76  C   UNL A   1      42.498  24.660  26.429  1.00  0.00     0.055 A 
ATOM     77  C   UNL A   1      43.643  26.606  25.609  1.00  0.00     0.041 A 
ATOM     78  F   UNL A   1      43.502  28.622  26.793  1.00  0.00    -0.206 F 
ATOM     79  C   UNL A   1      43.339  25.255  25.486  1.00  0.00     0.022 A 
BRANCH  76  80
ATOM     80  S   UNL A   1      42.227  22.865  26.397  1.00  0.00     0.124 S 
ATOM     81  O   UNL A   1      43.160  22.408  27.420  1.00  0.00    -0.237 OA
ATOM     82  O   UNL A   1      40.810  22.768  26.730  1.00  0.00    -0.237 OA
ATOM     83  O   UNL A   1      42.570  22.495  25.025  1.00  0.00    -0.744 OA
ENDBRANCH  76  80
ENDBRANCH  49  73
BRANCH  61  84
ATOM     84  C   UNL A   1      44.793  27.692  34.078  1.00  0.00     0.023 A 
ATOM     85  C   UNL A   1      44.697  26.522  34.851  1.00  0.00     0.031 A 
ATOM     86  C   UNL A   1      46.048  28.321  33.989  1.00  0.00     0.131 A 
ATOM     87  C   UNL A   1      45.817  26.056  35.555  1.00  0.00     0.055 A 
ATOM     88  C   UNL A   1      47.177  27.809  34.628  1.00  0.00     0.041 A 
ATOM     89  F   UNL A   1      46.200  29.446  33.271  1.00  0.00    -0.206 F 
ATOM     90  C   UNL A   1      47.062  26.677  35.428  1.00  0.00     0.022 A 
BRANCH  87  91
ATOM     91  S   UNL A   1      45.599  24.692  36.730  1.00  0.00     0.124 S 
ATOM     92  O   UNL A   1      46.735  24.880  37.626  1.00  0.00    -0.237 OA
ATOM     93  O   UNL A   1      44.285  24.974  37.297  1.00  0.00    -0.237 OA
ATOM     94  O   UNL A   1      45.666  23.499  35.886  1.00  0.00    -0.744 OA
ENDBRANCH  87  91
ENDBRANCH  61  84
ENDBRANCH  35  36
ENDBRANCH  27  30
ENDBRANCH  25  26
ENDBRANCH  24  25
ENDBRANCH  23  24
ENDBRANCH   1  23
TORSDOF 21
ENDMDL
MODEL 3
REMARK VINA RESULT:     -10.3      1.618      7.769
REMARK SMILES CCN(CCC#N)C(=O)c1ccncc1/C=C/C(=O)NCCCCNC(=O)c1ccc(-c2c3nc(c(-c4cc(S(=O)(=O)[O-])ccc4F)c4ccc([nH]4)c(-c4cc(S(=O)(=O)[O-])ccc4F)c4nc(c(-c5cc(S(=O)(=O)[O-])ccc5F)c5ccc2[nH]5)C=C4)C=C3)cc1
REMARK SMILES IDX 21 1 20 2 18 3 19 4 17 6 16 7 15 8 10 9 11 10 12 11 14 12
REMARK SMILES IDX 13 13 8 14 9 15 3 16 2 17 1 18 4 19 5 20 6 21 7 22 22 23
REMARK SMILES IDX 23 24 24 25 25 26 26 27 27 29 28 30 29 31 90 32 30 33 89 34
REMARK SMILES IDX 31 35 32 36 33 37 83 38 34 39 88 40 82 41 84 42 35 43 87 44
REMARK SMILES IDX 81 45 80 46 36 48 68 49 48 50 67 51 49 52 52 53 66 54 85 55
REMARK SMILES IDX 50 56 51 57 65 59 86 60 53 61 37 62 38 63 46 64 39 65 45 66
REMARK SMILES IDX 47 67 44 68 40 69 41 70 42 71 43 72 69 73 70 74 78 75 71 76
REMARK SMILES IDX 77 77 79 78 76 79 72 80 73 81 74 82 75 83 54 84 55 85 63 86
REMARK SMILES IDX 56 87 62 88 64 89 61 90 57 91 58 92 59 93 60 94
REMARK H PARENT 20 5 25 28 84 47 52 58
REMARK Flexibility Score: inf
ROOT
ATOM      1  C   UNL A   1      33.334  27.514  26.169  1.00  0.00     0.116 C 
ENDROOT
BRANCH   1   2
ATOM      2  N   UNL A   1      32.648  27.028  24.990  1.00  0.00    -0.353 N 
ATOM      3  C   UNL A   1      32.975  26.020  24.143  1.00  0.00     0.244 C 
ATOM      4  O   UNL A   1      32.245  25.761  23.188  1.00  0.00    -0.270 OA
ATOM      5  H   UNL A   1      31.815  27.503  24.768  1.00  0.00     0.163 HD
BRANCH   3   6
ATOM      6  C   UNL A   1      34.130  25.130  24.424  1.00  0.00     0.072 C 
ATOM      7  C   UNL A   1      34.282  24.273  25.448  1.00  0.00     0.016 C 
BRANCH   7   8
ATOM      8  C   UNL A   1      35.414  23.332  25.513  1.00  0.00     0.006 A 
ATOM      9  C   UNL A   1      35.273  21.938  25.427  1.00  0.00     0.050 A 
ATOM     10  C   UNL A   1      36.401  21.142  25.236  1.00  0.00     0.034 A 
ATOM     11  C   UNL A   1      37.648  21.716  25.354  1.00  0.00     0.112 A 
ATOM     12  C   UNL A   1      36.723  23.803  25.621  1.00  0.00     0.119 A 
ATOM     13  N   UNL A   1      37.834  23.028  25.583  1.00  0.00    -0.264 NA
BRANCH   9  14
ATOM     14  C   UNL A   1      33.963  21.238  25.455  1.00  0.00     0.254 C 
ATOM     15  O   UNL A   1      33.426  21.082  26.548  1.00  0.00    -0.269 OA
BRANCH  14  16
ATOM     16  N   UNL A   1      33.389  20.797  24.246  1.00  0.00    -0.338 N 
BRANCH  16  17
ATOM     17  C   UNL A   1      33.086  21.817  23.227  1.00  0.00     0.116 C 
ATOM     18  C   UNL A   1      31.667  22.362  23.306  1.00  0.00     0.027 C 
ENDBRANCH  16  17
BRANCH  16  19
ATOM     19  C   UNL A   1      32.945  19.416  23.950  1.00  0.00     0.135 C 
BRANCH  19  20
ATOM     20  C   UNL A   1      33.833  18.303  24.536  1.00  0.00     0.141 C 
BRANCH  20  21
ATOM     21  C   UNL A   1      34.032  17.163  23.633  1.00  0.00     0.064 C 
ATOM     22  N   UNL A   1      34.174  16.279  22.897  1.00  0.00    -0.198 NA
ENDBRANCH  20  21
ENDBRANCH  19  20
ENDBRANCH  16  19
ENDBRANCH  14  16
ENDBRANCH   9  14
ENDBRANCH   7   8
ENDBRANCH   3   6
ENDBRANCH   1   2
BRANCH   1  23
ATOM     23  C   UNL A   1      32.312  27.983  27.203  1.00  0.00     0.023 C 
BRANCH  23  24
ATOM     24  C   UNL A   1      31.740  29.370  26.920  1.00  0.00     0.023 C 
BRANCH  24  25
ATOM     25  C   UNL A   1      32.731  30.338  26.288  1.00  0.00     0.116 C 
BRANCH  25  26
ATOM     26  N   UNL A   1      32.464  31.730  26.624  1.00  0.00    -0.352 N 
ATOM     27  C   UNL A   1      33.209  32.556  27.433  1.00  0.00     0.251 C 
ATOM     28  H   UNL A   1      31.657  32.125  26.224  1.00  0.00     0.163 HD
ATOM     29  O   UNL A   1      32.786  33.659  27.760  1.00  0.00    -0.269 OA
BRANCH  27  30
ATOM     30  C   UNL A   1      34.508  32.059  27.930  1.00  0.00     0.039 A 
ATOM     31  C   UNL A   1      35.602  32.923  27.958  1.00  0.00     0.014 A 
ATOM     32  C   UNL A   1      34.605  30.768  28.457  1.00  0.00     0.014 A 
ATOM     33  C   UNL A   1      36.780  32.510  28.580  1.00  0.00     0.010 A 
ATOM     34  C   UNL A   1      35.745  30.399  29.161  1.00  0.00     0.010 A 
ATOM     35  C   UNL A   1      36.847  31.263  29.226  1.00  0.00    -0.014 A 
BRANCH  35  36
ATOM     36  C   UNL A   1      38.069  30.841  29.960  1.00  0.00     0.031 A 
ATOM     37  C   UNL A   1      39.049  29.905  29.306  1.00  0.00     0.074 A 
ATOM     38  C   UNL A   1      38.274  31.265  31.224  1.00  0.00     0.049 A 
ATOM     39  N   UNL A   1      40.143  29.380  29.794  1.00  0.00    -0.248 NA
ATOM     40  C   UNL A   1      38.743  29.480  27.931  1.00  0.00     0.031 C 
ATOM     41  C   UNL A   1      37.378  32.146  31.977  1.00  0.00     0.029 A 
ATOM     42  N   UNL A   1      39.299  31.014  32.101  1.00  0.00    -0.354 N 
ATOM     43  C   UNL A   1      40.651  28.564  28.789  1.00  0.00     0.074 A 
ATOM     44  C   UNL A   1      39.706  28.604  27.696  1.00  0.00     0.031 C 
ATOM     45  C   UNL A   1      37.913  32.394  33.182  1.00  0.00     0.029 A 
ATOM     46  C   UNL A   1      39.157  31.643  33.318  1.00  0.00     0.049 A 
ATOM     47  H   UNL A   1      40.066  30.438  31.881  1.00  0.00     0.167 HD
ATOM     48  C   UNL A   1      41.815  27.869  28.770  1.00  0.00     0.034 A 
ATOM     49  C   UNL A   1      39.932  31.607  34.421  1.00  0.00     0.034 A 
ATOM     50  C   UNL A   1      42.747  27.841  29.869  1.00  0.00     0.049 A 
ATOM     51  C   UNL A   1      41.191  30.774  34.396  1.00  0.00     0.074 A 
ATOM     52  C   UNL A   1      43.973  27.202  29.940  1.00  0.00     0.029 A 
ATOM     53  N   UNL A   1      42.556  28.468  31.094  1.00  0.00    -0.354 N 
ATOM     54  N   UNL A   1      41.682  30.046  33.418  1.00  0.00    -0.248 NA
ATOM     55  C   UNL A   1      42.005  30.765  35.617  1.00  0.00     0.031 C 
ATOM     56  C   UNL A   1      44.477  27.365  31.233  1.00  0.00     0.029 A 
ATOM     57  C   UNL A   1      43.620  28.195  31.938  1.00  0.00     0.049 A 
ATOM     58  H   UNL A   1      41.777  29.024  31.328  1.00  0.00     0.167 HD
ATOM     59  C   UNL A   1      42.882  29.527  33.898  1.00  0.00     0.074 A 
ATOM     60  C   UNL A   1      43.046  30.038  35.242  1.00  0.00     0.031 C 
ATOM     61  C   UNL A   1      43.772  28.707  33.281  1.00  0.00     0.034 A 
BRANCH  48  62
ATOM     62  C   UNL A   1      42.125  27.061  27.532  1.00  0.00     0.023 A 
ATOM     63  C   UNL A   1      41.929  25.670  27.490  1.00  0.00     0.031 A 
ATOM     64  C   UNL A   1      42.634  27.689  26.382  1.00  0.00     0.131 A 
ATOM     65  C   UNL A   1      42.307  24.944  26.350  1.00  0.00     0.055 A 
ATOM     66  C   UNL A   1      42.923  26.973  25.219  1.00  0.00     0.041 A 
ATOM     67  F   UNL A   1      42.869  29.010  26.371  1.00  0.00    -0.206 F 
ATOM     68  C   UNL A   1      42.773  25.589  25.203  1.00  0.00     0.022 A 
BRANCH  65  69
ATOM     69  S   UNL A   1      42.322  23.133  26.445  1.00  0.00     0.124 S 
ATOM     70  O   UNL A   1      41.008  22.858  27.023  1.00  0.00    -0.237 OA
ATOM     71  O   UNL A   1      42.502  22.745  25.051  1.00  0.00    -0.237 OA
ATOM     72  O   UNL A   1      43.453  22.846  27.324  1.00  0.00    -0.744 OA
ENDBRANCH  65  69
ENDBRANCH  48  62
BRANCH  49  73
ATOM     73  C   UNL A   1      39.542  32.357  35.653  1.00  0.00     0.023 A 
ATOM     74  C   UNL A   1      38.801  31.739  36.673  1.00  0.00     0.031 A 
ATOM     75  C   UNL A   1      39.844  33.722  35.797  1.00  0.00     0.131 A 
ATOM     76  C   UNL A   1      38.332  32.498  37.757  1.00  0.00     0.055 A 
ATOM     77  C   UNL A   1      39.438  34.456  36.913  1.00  0.00     0.041 A 
ATOM     78  F   UNL A   1      40.547  34.368  34.853  1.00  0.00    -0.206 F 
ATOM     79  C   UNL A   1      38.661  33.848  37.893  1.00  0.00     0.022 A 
BRANCH  76  80
ATOM     80  S   UNL A   1      37.176  31.724  38.923  1.00  0.00     0.124 S 
ATOM     81  O   UNL A   1      36.981  30.412  38.317  1.00  0.00    -0.237 OA
ATOM     82  O   UNL A   1      37.938  31.751  40.167  1.00  0.00    -0.237 OA
ATOM     83  O   UNL A   1      36.014  32.610  38.887  1.00  0.00    -0.744 OA
ENDBRANCH  76  80
ENDBRANCH  49  73
BRANCH  61  84
ATOM     84  C   UNL A   1      45.033  28.359  34.036  1.00  0.00     0.023 A 
ATOM     85  C   UNL A   1      45.125  27.215  34.847  1.00  0.00     0.031 A 
ATOM     86  C   UNL A   1      46.163  29.192  33.941  1.00  0.00     0.131 A 
ATOM     87  C   UNL A   1      46.296  26.971  35.581  1.00  0.00     0.055 A 
ATOM     88  C   UNL A   1      47.351  28.902  34.612  1.00  0.00     0.041 A 
ATOM     89  F   UNL A   1      46.133  30.303  33.187  1.00  0.00    -0.206 F 
ATOM     90  C   UNL A   1      47.418  27.793  35.449  1.00  0.00     0.022 A 
BRANCH  87  91
ATOM     91  S   UNL A   1      46.294  25.628  36.799  1.00  0.00     0.124 S 
ATOM     92  O   UNL A   1      47.477  24.866  36.412  1.00  0.00    -0.237 OA
ATOM     93  O   UNL A   1      46.387  26.351  38.063  1.00  0.00    -0.237 OA
ATOM     94  O   UNL A   1      45.018  24.954  36.564  1.00  0.00    -0.744 OA
ENDBRANCH  87  91
ENDBRANCH  61  84
ENDBRANCH  35  36
ENDBRANCH  27  30
ENDBRANCH  25  26
ENDBRANCH  24  25
ENDBRANCH  23  24
ENDBRANCH   1  23
TORSDOF 21
ENDMDL
