MODEL 1
REMARK VINA RESULT:     -12.9      0.000      0.000
REMARK SMILES Cc1cc(Nc2ccc(C(=O)NCCCCNC(=O)c3ccc(-c4c5nc(c(-c6cc(S(=O)(=O)[O-])ccc6F)c6ccc([nH]6)c(-c6cc(S(=O)(=O)[O-])ccc6F)c6nc(c(-c7cc(S(=O)(=O)[O-])ccc7F)c7ccc4[nH]7)C=C6)C=C5)cc3)cc2)nc(C(C)C)n1
REMARK SMILES IDX 14 1 13 2 12 3 10 4 11 5 9 7 6 8 7 9 84 10 8 11 83 12 5 13
REMARK SMILES IDX 4 15 1 16 2 17 3 18 90 19 86 20 85 21 87 22 88 23 89 24
REMARK SMILES IDX 15 25 16 26 17 27 18 28 19 30 20 31 21 32 82 33 22 34 81 35
REMARK SMILES IDX 23 36 24 37 25 38 75 39 26 40 80 41 74 42 76 43 27 44 79 45
REMARK SMILES IDX 73 46 72 47 28 49 60 50 40 51 59 52 41 53 44 54 58 55 77 56
REMARK SMILES IDX 42 57 43 58 57 60 78 61 45 62 29 63 30 64 38 65 31 66 37 67
REMARK SMILES IDX 39 68 36 69 32 70 33 71 34 72 35 73 61 74 62 75 70 76 63 77
REMARK SMILES IDX 69 78 71 79 68 80 64 81 65 82 66 83 67 84 46 85 47 86 55 87
REMARK SMILES IDX 48 88 54 89 56 90 53 91 49 92 50 93 51 94 52 95
REMARK H PARENT 12 6 5 14 17 29 76 48 44 59
REMARK Flexibility Score: inf
ROOT
ATOM      1  C   UNL A   1      35.137  22.323  25.769  1.00  0.00     0.023 C 
ENDROOT
BRANCH   1   2
ATOM      2  C   UNL A   1      33.663  21.991  26.013  1.00  0.00     0.116 C 
BRANCH   2   3
ATOM      3  N   UNL A   1      33.150  21.143  24.951  1.00  0.00    -0.352 N 
ATOM      4  C   UNL A   1      32.586  21.435  23.735  1.00  0.00     0.251 C 
ATOM      5  O   UNL A   1      32.259  20.496  23.010  1.00  0.00    -0.269 OA
ATOM      6  H   UNL A   1      33.222  20.180  25.139  1.00  0.00     0.163 HD
BRANCH   4   7
ATOM      7  C   UNL A   1      32.408  22.826  23.232  1.00  0.00     0.039 A 
ATOM      8  C   UNL A   1      31.833  25.395  22.218  1.00  0.00     0.040 A 
ATOM      9  C   UNL A   1      30.910  24.738  23.031  1.00  0.00     0.027 A 
ATOM     10  C   UNL A   1      33.086  24.810  22.015  1.00  0.00     0.027 A 
ATOM     11  C   UNL A   1      31.185  23.455  23.514  1.00  0.00     0.016 A 
ATOM     12  C   UNL A   1      33.379  23.545  22.535  1.00  0.00     0.016 A 
BRANCH   8  13
ATOM     13  N   UNL A   1      31.544  26.670  21.707  1.00  0.00    -0.340 N 
ATOM     14  H   UNL A   1      31.652  26.810  20.739  1.00  0.00     0.168 HD
BRANCH  13  15
ATOM     15  C   UNL A   1      31.111  27.764  22.480  1.00  0.00     0.134 A 
ATOM     16  C   UNL A   1      32.185  29.808  25.434  1.00  0.00     0.067 C 
ATOM     17  C   UNL A   1      31.402  29.248  24.287  1.00  0.00     0.043 A 
ATOM     18  C   UNL A   1      31.893  28.203  23.529  1.00  0.00     0.070 A 
ATOM     19  N   UNL A   1      30.194  29.798  24.059  1.00  0.00    -0.238 NA
ATOM     20  C   UNL A   1      29.479  29.292  23.038  1.00  0.00     0.133 A 
ATOM     21  N   UNL A   1      29.904  28.304  22.236  1.00  0.00    -0.216 NA
BRANCH  20  22
ATOM     22  C   UNL A   1      28.081  29.818  22.798  1.00  0.00     0.051 C 
ATOM     23  C   UNL A   1      27.039  28.768  23.181  1.00  0.00     0.016 C 
ATOM     24  C   UNL A   1      27.845  31.129  23.545  1.00  0.00     0.016 C 
ENDBRANCH  20  22
ENDBRANCH  13  15
ENDBRANCH   8  13
ENDBRANCH   4   7
ENDBRANCH   2   3
ENDBRANCH   1   2
BRANCH   1  25
ATOM     25  C   UNL A   1      35.970  21.141  25.262  1.00  0.00     0.023 C 
BRANCH  25  26
ATOM     26  C   UNL A   1      37.434  21.460  24.979  1.00  0.00     0.116 C 
BRANCH  26  27
ATOM     27  N   UNL A   1      38.346  20.440  25.472  1.00  0.00    -0.352 N 
ATOM     28  C   UNL A   1      39.522  20.603  26.166  1.00  0.00     0.251 C 
ATOM     29  H   UNL A   1      38.087  19.509  25.283  1.00  0.00     0.163 HD
ATOM     30  O   UNL A   1      40.232  19.635  26.401  1.00  0.00    -0.269 OA
BRANCH  28  31
ATOM     31  C   UNL A   1      39.936  21.962  26.579  1.00  0.00     0.039 A 
ATOM     32  C   UNL A   1      41.011  22.096  27.462  1.00  0.00     0.014 A 
ATOM     33  C   UNL A   1      39.289  23.094  26.077  1.00  0.00     0.014 A 
ATOM     34  C   UNL A   1      41.481  23.370  27.788  1.00  0.00     0.010 A 
ATOM     35  C   UNL A   1      39.800  24.359  26.352  1.00  0.00     0.010 A 
ATOM     36  C   UNL A   1      40.902  24.510  27.207  1.00  0.00    -0.014 A 
BRANCH  36  37
ATOM     37  C   UNL A   1      41.439  25.868  27.478  1.00  0.00     0.031 A 
ATOM     38  C   UNL A   1      42.808  26.247  26.989  1.00  0.00     0.074 A 
ATOM     39  C   UNL A   1      40.720  26.732  28.224  1.00  0.00     0.049 A 
ATOM     40  N   UNL A   1      43.489  27.345  27.198  1.00  0.00    -0.248 NA
ATOM     41  C   UNL A   1      43.518  25.243  26.183  1.00  0.00     0.031 C 
ATOM     42  C   UNL A   1      39.397  26.459  28.792  1.00  0.00     0.029 A 
ATOM     43  N   UNL A   1      41.004  28.006  28.644  1.00  0.00    -0.354 N 
ATOM     44  C   UNL A   1      44.709  27.162  26.556  1.00  0.00     0.074 A 
ATOM     45  C   UNL A   1      44.697  25.821  26.010  1.00  0.00     0.031 C 
ATOM     46  C   UNL A   1      38.981  27.538  29.474  1.00  0.00     0.029 A 
ATOM     47  C   UNL A   1      40.019  28.562  29.427  1.00  0.00     0.049 A 
ATOM     48  H   UNL A   1      41.834  28.479  28.406  1.00  0.00     0.167 HD
ATOM     49  C   UNL A   1      45.734  28.039  26.416  1.00  0.00     0.034 A 
ATOM     50  C   UNL A   1      39.966  29.756  30.051  1.00  0.00     0.034 A 
ATOM     51  C   UNL A   1      45.727  29.374  26.965  1.00  0.00     0.049 A 
ATOM     52  C   UNL A   1      41.123  30.710  29.895  1.00  0.00     0.074 A 
ATOM     53  C   UNL A   1      46.693  30.360  26.852  1.00  0.00     0.029 A 
ATOM     54  N   UNL A   1      44.704  29.911  27.737  1.00  0.00    -0.354 N 
ATOM     55  N   UNL A   1      42.253  30.540  29.247  1.00  0.00    -0.248 NA
ATOM     56  C   UNL A   1      40.992  32.023  30.541  1.00  0.00     0.031 C 
ATOM     57  C   UNL A   1      46.281  31.467  27.602  1.00  0.00     0.029 A 
ATOM     58  C   UNL A   1      45.026  31.203  28.125  1.00  0.00     0.049 A 
ATOM     59  H   UNL A   1      43.872  29.442  27.974  1.00  0.00     0.167 HD
ATOM     60  C   UNL A   1      42.953  31.734  29.385  1.00  0.00     0.074 A 
ATOM     61  C   UNL A   1      42.112  32.620  30.164  1.00  0.00     0.031 C 
ATOM     62  C   UNL A   1      44.179  32.071  28.910  1.00  0.00     0.034 A 
BRANCH  49  63
ATOM     63  C   UNL A   1      46.949  27.565  25.655  1.00  0.00     0.023 A 
ATOM     64  C   UNL A   1      47.182  27.957  24.325  1.00  0.00     0.031 A 
ATOM     65  C   UNL A   1      47.868  26.683  26.250  1.00  0.00     0.131 A 
ATOM     66  C   UNL A   1      48.253  27.406  23.607  1.00  0.00     0.055 A 
ATOM     67  C   UNL A   1      48.982  26.203  25.557  1.00  0.00     0.041 A 
ATOM     68  F   UNL A   1      47.691  26.257  27.510  1.00  0.00    -0.206 F 
ATOM     69  C   UNL A   1      49.171  26.551  24.221  1.00  0.00     0.022 A 
BRANCH  66  70
ATOM     70  S   UNL A   1      48.345  27.706  21.821  1.00  0.00     0.124 S 
ATOM     71  O   UNL A   1      49.503  28.592  21.730  1.00  0.00    -0.237 OA
ATOM     72  O   UNL A   1      48.525  26.362  21.284  1.00  0.00    -0.237 OA
ATOM     73  O   UNL A   1      47.062  28.336  21.513  1.00  0.00    -0.744 OA
ENDBRANCH  66  70
ENDBRANCH  49  63
BRANCH  50  74
ATOM     74  C   UNL A   1      38.789  30.117  30.891  1.00  0.00     0.023 A 
ATOM     75  C   UNL A   1      37.735  30.884  30.371  1.00  0.00     0.031 A 
ATOM     76  C   UNL A   1      38.721  29.732  32.242  1.00  0.00     0.131 A 
ATOM     77  C   UNL A   1      36.680  31.282  31.207  1.00  0.00     0.055 A 
ATOM     78  C   UNL A   1      37.645  30.088  33.057  1.00  0.00     0.041 A 
ATOM     79  F   UNL A   1      39.699  28.991  32.787  1.00  0.00    -0.206 F 
ATOM     80  C   UNL A   1      36.622  30.880  32.544  1.00  0.00     0.022 A 
BRANCH  77  81
ATOM     81  S   UNL A   1      35.423  32.409  30.544  1.00  0.00     0.124 S 
ATOM     82  O   UNL A   1      35.054  31.745  29.300  1.00  0.00    -0.237 OA
ATOM     83  O   UNL A   1      34.418  32.395  31.602  1.00  0.00    -0.237 OA
ATOM     84  O   UNL A   1      36.144  33.670  30.389  1.00  0.00    -0.744 OA
ENDBRANCH  77  81
ENDBRANCH  50  74
BRANCH  62  85
ATOM     85  C   UNL A   1      44.657  33.474  29.185  1.00  0.00     0.023 A 
ATOM     86  C   UNL A   1      44.323  34.549  28.343  1.00  0.00     0.031 A 
ATOM     87  C   UNL A   1      45.473  33.735  30.301  1.00  0.00     0.131 A 
ATOM     88  C   UNL A   1      44.844  35.826  28.600  1.00  0.00     0.055 A 
ATOM     89  C   UNL A   1      45.943  35.019  30.583  1.00  0.00     0.041 A 
ATOM     90  F   UNL A   1      45.826  32.745  31.137  1.00  0.00    -0.206 F 
ATOM     91  C   UNL A   1      45.639  36.071  29.723  1.00  0.00     0.022 A 
BRANCH  88  92
ATOM     92  S   UNL A   1      44.540  37.149  27.398  1.00  0.00     0.124 S 
ATOM     93  O   UNL A   1      45.763  37.123  26.602  1.00  0.00    -0.237 OA
ATOM     94  O   UNL A   1      43.332  36.688  26.724  1.00  0.00    -0.237 OA
ATOM     95  O   UNL A   1      44.368  38.338  28.232  1.00  0.00    -0.744 OA
ENDBRANCH  88  92
ENDBRANCH  62  85
ENDBRANCH  36  37
ENDBRANCH  28  31
ENDBRANCH  26  27
ENDBRANCH  25  26
ENDBRANCH   1  25
TORSDOF 17
ENDMDL
MODEL 2
REMARK VINA RESULT:     -12.5      4.855     10.152
REMARK SMILES Cc1cc(Nc2ccc(C(=O)NCCCCNC(=O)c3ccc(-c4c5nc(c(-c6cc(S(=O)(=O)[O-])ccc6F)c6ccc([nH]6)c(-c6cc(S(=O)(=O)[O-])ccc6F)c6nc(c(-c7cc(S(=O)(=O)[O-])ccc7F)c7ccc4[nH]7)C=C6)C=C5)cc3)cc2)nc(C(C)C)n1
REMARK SMILES IDX 14 1 13 2 12 3 10 4 11 5 9 7 6 8 7 9 84 10 8 11 83 12 5 13
REMARK SMILES IDX 4 15 1 16 2 17 3 18 90 19 86 20 85 21 87 22 88 23 89 24
REMARK SMILES IDX 15 25 16 26 17 27 18 28 19 30 20 31 21 32 82 33 22 34 81 35
REMARK SMILES IDX 23 36 24 37 25 38 75 39 26 40 80 41 74 42 76 43 27 44 79 45
REMARK SMILES IDX 73 46 72 47 28 49 60 50 40 51 59 52 41 53 44 54 58 55 77 56
REMARK SMILES IDX 42 57 43 58 57 60 78 61 45 62 29 63 30 64 38 65 31 66 37 67
REMARK SMILES IDX 39 68 36 69 32 70 33 71 34 72 35 73 61 74 62 75 70 76 63 77
REMARK SMILES IDX 69 78 71 79 68 80 64 81 65 82 66 83 67 84 46 85 47 86 55 87
REMARK SMILES IDX 48 88 54 89 56 90 53 91 49 92 50 93 51 94 52 95
REMARK H PARENT 12 6 5 14 17 29 76 48 44 59
REMARK Flexibility Score: inf
ROOT
ATOM      1  C   UNL A   1      33.480  28.418  24.260  1.00  0.00     0.023 C 
ENDROOT
BRANCH   1   2
ATOM      2  C   UNL A   1      32.818  27.614  23.139  1.00  0.00     0.116 C 
BRANCH   2   3
ATOM      3  N   UNL A   1      31.380  27.817  23.148  1.00  0.00    -0.352 N 
ATOM      4  C   UNL A   1      30.340  26.999  23.511  1.00  0.00     0.251 C 
ATOM      5  O   UNL A   1      29.197  27.452  23.440  1.00  0.00    -0.269 OA
ATOM      6  H   UNL A   1      31.100  28.707  22.836  1.00  0.00     0.163 HD
BRANCH   4   7
ATOM      7  C   UNL A   1      30.534  25.620  24.041  1.00  0.00     0.039 A 
ATOM      8  C   UNL A   1      31.041  23.112  25.227  1.00  0.00     0.040 A 
ATOM      9  C   UNL A   1      30.707  24.209  26.020  1.00  0.00     0.027 A 
ATOM     10  C   UNL A   1      31.003  23.251  23.836  1.00  0.00     0.027 A 
ATOM     11  C   UNL A   1      30.479  25.458  25.434  1.00  0.00     0.016 A 
ATOM     12  C   UNL A   1      30.732  24.490  23.248  1.00  0.00     0.016 A 
BRANCH   8  13
ATOM     13  N   UNL A   1      31.300  21.864  25.817  1.00  0.00    -0.340 N 
ATOM     14  H   UNL A   1      30.690  21.559  26.526  1.00  0.00     0.168 HD
BRANCH  13  15
ATOM     15  C   UNL A   1      32.371  21.020  25.469  1.00  0.00     0.134 A 
ATOM     16  C   UNL A   1      36.086  21.134  24.973  1.00  0.00     0.067 C 
ATOM     17  C   UNL A   1      34.661  20.677  25.031  1.00  0.00     0.043 A 
ATOM     18  C   UNL A   1      33.652  21.533  25.426  1.00  0.00     0.070 A 
ATOM     19  N   UNL A   1      34.421  19.406  24.655  1.00  0.00    -0.238 NA
ATOM     20  C   UNL A   1      33.142  18.992  24.694  1.00  0.00     0.133 A 
ATOM     21  N   UNL A   1      32.115  19.753  25.099  1.00  0.00    -0.216 NA
BRANCH  20  22
ATOM     22  C   UNL A   1      32.814  17.601  24.197  1.00  0.00     0.051 C 
ATOM     23  C   UNL A   1      33.873  17.121  23.205  1.00  0.00     0.016 C 
ATOM     24  C   UNL A   1      32.656  16.620  25.356  1.00  0.00     0.016 C 
ENDBRANCH  20  22
ENDBRANCH  13  15
ENDBRANCH   8  13
ENDBRANCH   4   7
ENDBRANCH   2   3
ENDBRANCH   1   2
BRANCH   1  25
ATOM     25  C   UNL A   1      33.119  27.940  25.670  1.00  0.00     0.023 C 
BRANCH  25  26
ATOM     26  C   UNL A   1      33.953  28.553  26.790  1.00  0.00     0.116 C 
BRANCH  26  27
ATOM     27  N   UNL A   1      33.650  29.956  27.025  1.00  0.00    -0.352 N 
ATOM     28  C   UNL A   1      34.367  30.879  27.751  1.00  0.00     0.251 C 
ATOM     29  H   UNL A   1      32.822  30.289  26.610  1.00  0.00     0.163 HD
ATOM     30  O   UNL A   1      33.904  31.994  27.947  1.00  0.00    -0.269 OA
BRANCH  28  31
ATOM     31  C   UNL A   1      35.674  30.491  28.325  1.00  0.00     0.039 A 
ATOM     32  C   UNL A   1      35.693  29.770  29.522  1.00  0.00     0.014 A 
ATOM     33  C   UNL A   1      36.868  30.810  27.674  1.00  0.00     0.014 A 
ATOM     34  C   UNL A   1      36.909  29.309  30.031  1.00  0.00     0.010 A 
ATOM     35  C   UNL A   1      38.071  30.294  28.147  1.00  0.00     0.010 A 
ATOM     36  C   UNL A   1      38.104  29.536  29.328  1.00  0.00    -0.014 A 
BRANCH  36  37
ATOM     37  C   UNL A   1      39.396  28.986  29.810  1.00  0.00     0.031 A 
ATOM     38  C   UNL A   1      40.126  29.659  30.938  1.00  0.00     0.074 A 
ATOM     39  C   UNL A   1      39.942  27.923  29.185  1.00  0.00     0.049 A 
ATOM     40  N   UNL A   1      41.302  29.389  31.443  1.00  0.00    -0.248 NA
ATOM     41  C   UNL A   1      39.454  30.810  31.559  1.00  0.00     0.031 C 
ATOM     42  C   UNL A   1      39.349  27.213  28.050  1.00  0.00     0.029 A 
ATOM     43  N   UNL A   1      41.124  27.262  29.407  1.00  0.00    -0.354 N 
ATOM     44  C   UNL A   1      41.515  30.339  32.436  1.00  0.00     0.074 A 
ATOM     45  C   UNL A   1      40.374  31.231  32.413  1.00  0.00     0.031 C 
ATOM     46  C   UNL A   1      40.162  26.210  27.683  1.00  0.00     0.029 A 
ATOM     47  C   UNL A   1      41.352  26.228  28.528  1.00  0.00     0.049 A 
ATOM     48  H   UNL A   1      41.750  27.504  30.128  1.00  0.00     0.167 HD
ATOM     49  C   UNL A   1      42.554  30.444  33.301  1.00  0.00     0.034 A 
ATOM     50  C   UNL A   1      42.408  25.399  28.408  1.00  0.00     0.034 A 
ATOM     51  C   UNL A   1      43.682  29.544  33.312  1.00  0.00     0.049 A 
ATOM     52  C   UNL A   1      43.560  25.542  29.370  1.00  0.00     0.074 A 
ATOM     53  C   UNL A   1      44.771  29.532  34.168  1.00  0.00     0.029 A 
ATOM     54  N   UNL A   1      43.871  28.495  32.420  1.00  0.00    -0.354 N 
ATOM     55  N   UNL A   1      43.726  26.419  30.333  1.00  0.00    -0.248 NA
ATOM     56  C   UNL A   1      44.658  24.576  29.238  1.00  0.00     0.031 C 
ATOM     57  C   UNL A   1      45.642  28.517  33.757  1.00  0.00     0.029 A 
ATOM     58  C   UNL A   1      45.066  27.846  32.690  1.00  0.00     0.049 A 
ATOM     59  H   UNL A   1      43.246  28.249  31.700  1.00  0.00     0.167 HD
ATOM     60  C   UNL A   1      44.935  26.091  30.939  1.00  0.00     0.074 A 
ATOM     61  C   UNL A   1      45.446  24.927  30.243  1.00  0.00     0.031 C 
ATOM     62  C   UNL A   1      45.566  26.693  31.979  1.00  0.00     0.034 A 
BRANCH  49  63
ATOM     63  C   UNL A   1      42.518  31.586  34.288  1.00  0.00     0.023 A 
ATOM     64  C   UNL A   1      41.696  31.545  35.429  1.00  0.00     0.031 A 
ATOM     65  C   UNL A   1      43.284  32.745  34.072  1.00  0.00     0.131 A 
ATOM     66  C   UNL A   1      41.594  32.669  36.262  1.00  0.00     0.055 A 
ATOM     67  C   UNL A   1      43.243  33.829  34.952  1.00  0.00     0.041 A 
ATOM     68  F   UNL A   1      44.073  32.853  32.992  1.00  0.00    -0.206 F 
ATOM     69  C   UNL A   1      42.382  33.802  36.047  1.00  0.00     0.022 A 
BRANCH  66  70
ATOM     70  S   UNL A   1      40.310  32.684  37.543  1.00  0.00     0.124 S 
ATOM     71  O   UNL A   1      39.403  31.644  37.062  1.00  0.00    -0.237 OA
ATOM     72  O   UNL A   1      41.064  32.366  38.750  1.00  0.00    -0.237 OA
ATOM     73  O   UNL A   1      39.778  34.044  37.479  1.00  0.00    -0.744 OA
ENDBRANCH  66  70
ENDBRANCH  49  63
BRANCH  50  74
ATOM     74  C   UNL A   1      42.438  24.368  27.331  1.00  0.00     0.023 A 
ATOM     75  C   UNL A   1      41.662  23.202  27.420  1.00  0.00     0.031 A 
ATOM     76  C   UNL A   1      43.278  24.518  26.212  1.00  0.00     0.131 A 
ATOM     77  C   UNL A   1      41.775  22.209  26.435  1.00  0.00     0.055 A 
ATOM     78  C   UNL A   1      43.349  23.550  25.209  1.00  0.00     0.041 A 
ATOM     79  F   UNL A   1      44.035  25.618  26.074  1.00  0.00    -0.206 F 
ATOM     80  C   UNL A   1      42.604  22.380  25.323  1.00  0.00     0.022 A 
BRANCH  77  81
ATOM     81  S   UNL A   1      40.883  20.648  26.669  1.00  0.00     0.124 S 
ATOM     82  O   UNL A   1      39.609  20.931  26.018  1.00  0.00    -0.237 OA
ATOM     83  O   UNL A   1      41.756  19.697  25.987  1.00  0.00    -0.237 OA
ATOM     84  O   UNL A   1      40.824  20.504  28.122  1.00  0.00    -0.744 OA
ENDBRANCH  77  81
ENDBRANCH  50  74
BRANCH  62  85
ATOM     85  C   UNL A   1      46.856  26.070  32.450  1.00  0.00     0.023 A 
ATOM     86  C   UNL A   1      46.881  25.085  33.453  1.00  0.00     0.031 A 
ATOM     87  C   UNL A   1      48.081  26.480  31.894  1.00  0.00     0.131 A 
ATOM     88  C   UNL A   1      48.109  24.581  33.907  1.00  0.00     0.055 A 
ATOM     89  C   UNL A   1      49.297  25.933  32.311  1.00  0.00     0.041 A 
ATOM     90  F   UNL A   1      48.117  27.420  30.935  1.00  0.00    -0.206 F 
ATOM     91  C   UNL A   1      49.315  24.988  33.331  1.00  0.00     0.022 A 
BRANCH  88  92
ATOM     92  S   UNL A   1      48.115  23.447  35.322  1.00  0.00     0.124 S 
ATOM     93  O   UNL A   1      48.655  22.227  34.731  1.00  0.00    -0.237 OA
ATOM     94  O   UNL A   1      48.985  24.134  36.270  1.00  0.00    -0.237 OA
ATOM     95  O   UNL A   1      46.707  23.376  35.712  1.00  0.00    -0.744 OA
ENDBRANCH  88  92
ENDBRANCH  62  85
ENDBRANCH  36  37
ENDBRANCH  28  31
ENDBRANCH  26  27
ENDBRANCH  25  26
ENDBRANCH   1  25
TORSDOF 17
ENDMDL
MODEL 3
REMARK VINA RESULT:     -12.4      5.480      9.049
REMARK SMILES Cc1cc(Nc2ccc(C(=O)NCCCCNC(=O)c3ccc(-c4c5nc(c(-c6cc(S(=O)(=O)[O-])ccc6F)c6ccc([nH]6)c(-c6cc(S(=O)(=O)[O-])ccc6F)c6nc(c(-c7cc(S(=O)(=O)[O-])ccc7F)c7ccc4[nH]7)C=C6)C=C5)cc3)cc2)nc(C(C)C)n1
REMARK SMILES IDX 14 1 13 2 12 3 10 4 11 5 9 7 6 8 7 9 84 10 8 11 83 12 5 13
REMARK SMILES IDX 4 15 1 16 2 17 3 18 90 19 86 20 85 21 87 22 88 23 89 24
REMARK SMILES IDX 15 25 16 26 17 27 18 28 19 30 20 31 21 32 82 33 22 34 81 35
REMARK SMILES IDX 23 36 24 37 25 38 75 39 26 40 80 41 74 42 76 43 27 44 79 45
REMARK SMILES IDX 73 46 72 47 28 49 60 50 40 51 59 52 41 53 44 54 58 55 77 56
REMARK SMILES IDX 42 57 43 58 57 60 78 61 45 62 29 63 30 64 38 65 31 66 37 67
REMARK SMILES IDX 39 68 36 69 32 70 33 71 34 72 35 73 61 74 62 75 70 76 63 77
REMARK SMILES IDX 69 78 71 79 68 80 64 81 65 82 66 83 67 84 46 85 47 86 55 87
REMARK SMILES IDX 48 88 54 89 56 90 53 91 49 92 50 93 51 94 52 95
REMARK H PARENT 12 6 5 14 17 29 76 48 44 59
REMARK Flexibility Score: inf
ROOT
ATOM      1  C   UNL A   1      31.843  30.300  26.820  1.00  0.00     0.023 C 
ENDROOT
BRANCH   1   2
ATOM      2  C   UNL A   1      32.002  29.781  25.389  1.00  0.00     0.116 C 
BRANCH   2   3
ATOM      3  N   UNL A   1      30.844  30.137  24.587  1.00  0.00    -0.352 N 
ATOM      4  C   UNL A   1      30.137  29.443  23.638  1.00  0.00     0.251 C 
ATOM      5  O   UNL A   1      29.162  29.995  23.127  1.00  0.00    -0.269 OA
ATOM      6  H   UNL A   1      30.505  31.045  24.757  1.00  0.00     0.163 HD
BRANCH   4   7
ATOM      7  C   UNL A   1      30.456  28.043  23.245  1.00  0.00     0.039 A 
ATOM      8  C   UNL A   1      31.027  25.326  22.742  1.00  0.00     0.040 A 
ATOM      9  C   UNL A   1      29.950  25.679  23.554  1.00  0.00     0.027 A 
ATOM     10  C   UNL A   1      31.739  26.338  22.093  1.00  0.00     0.027 A 
ATOM     11  C   UNL A   1      29.681  27.025  23.823  1.00  0.00     0.016 A 
ATOM     12  C   UNL A   1      31.444  27.685  22.326  1.00  0.00     0.016 A 
BRANCH   8  13
ATOM     13  N   UNL A   1      31.316  23.974  22.498  1.00  0.00    -0.340 N 
ATOM     14  H   UNL A   1      30.974  23.577  21.665  1.00  0.00     0.168 HD
BRANCH  13  15
ATOM     15  C   UNL A   1      32.059  23.145  23.359  1.00  0.00     0.134 A 
ATOM     16  C   UNL A   1      32.499  19.517  24.196  1.00  0.00     0.067 C 
ATOM     17  C   UNL A   1      32.602  21.011  24.197  1.00  0.00     0.043 A 
ATOM     18  C   UNL A   1      31.886  21.777  23.298  1.00  0.00     0.070 A 
ATOM     19  N   UNL A   1      33.404  21.557  25.132  1.00  0.00    -0.238 NA
ATOM     20  C   UNL A   1      33.493  22.899  25.146  1.00  0.00     0.133 A 
ATOM     21  N   UNL A   1      32.857  23.706  24.284  1.00  0.00    -0.216 NA
BRANCH  20  22
ATOM     22  C   UNL A   1      34.311  23.561  26.233  1.00  0.00     0.051 C 
ATOM     23  C   UNL A   1      34.648  22.559  27.337  1.00  0.00     0.016 C 
ATOM     24  C   UNL A   1      35.575  24.203  25.664  1.00  0.00     0.016 C 
ENDBRANCH  20  22
ENDBRANCH  13  15
ENDBRANCH   8  13
ENDBRANCH   4   7
ENDBRANCH   2   3
ENDBRANCH   1   2
BRANCH   1  25
ATOM     25  C   UNL A   1      31.587  31.808  26.914  1.00  0.00     0.023 C 
BRANCH  25  26
ATOM     26  C   UNL A   1      32.842  32.667  27.027  1.00  0.00     0.116 C 
BRANCH  26  27
ATOM     27  N   UNL A   1      32.601  33.946  27.675  1.00  0.00    -0.352 N 
ATOM     28  C   UNL A   1      33.246  34.494  28.759  1.00  0.00     0.251 C 
ATOM     29  H   UNL A   1      31.879  34.492  27.287  1.00  0.00     0.163 HD
ATOM     30  O   UNL A   1      32.835  35.535  29.253  1.00  0.00    -0.269 OA
BRANCH  28  31
ATOM     31  C   UNL A   1      34.407  33.787  29.344  1.00  0.00     0.039 A 
ATOM     32  C   UNL A   1      35.692  34.247  29.043  1.00  0.00     0.014 A 
ATOM     33  C   UNL A   1      34.228  32.700  30.203  1.00  0.00     0.014 A 
ATOM     34  C   UNL A   1      36.797  33.657  29.661  1.00  0.00     0.010 A 
ATOM     35  C   UNL A   1      35.325  32.158  30.866  1.00  0.00     0.010 A 
ATOM     36  C   UNL A   1      36.620  32.633  30.605  1.00  0.00    -0.014 A 
BRANCH  36  37
ATOM     37  C   UNL A   1      37.775  32.048  31.331  1.00  0.00     0.031 A 
ATOM     38  C   UNL A   1      38.580  30.945  30.701  1.00  0.00     0.074 A 
ATOM     39  C   UNL A   1      38.055  32.462  32.584  1.00  0.00     0.049 A 
ATOM     40  N   UNL A   1      39.565  30.246  31.204  1.00  0.00    -0.248 NA
ATOM     41  C   UNL A   1      38.204  30.559  29.333  1.00  0.00     0.031 C 
ATOM     42  C   UNL A   1      37.316  33.494  33.316  1.00  0.00     0.029 A 
ATOM     43  N   UNL A   1      39.024  32.060  33.467  1.00  0.00    -0.354 N 
ATOM     44  C   UNL A   1      39.922  29.332  30.218  1.00  0.00     0.074 A 
ATOM     45  C   UNL A   1      39.002  29.525  29.116  1.00  0.00     0.031 C 
ATOM     46  C   UNL A   1      37.867  33.650  34.531  1.00  0.00     0.029 A 
ATOM     47  C   UNL A   1      38.970  32.706  34.680  1.00  0.00     0.049 A 
ATOM     48  H   UNL A   1      39.696  31.373  33.252  1.00  0.00     0.167 HD
ATOM     49  C   UNL A   1      40.936  28.433  30.223  1.00  0.00     0.034 A 
ATOM     50  C   UNL A   1      39.714  32.545  35.792  1.00  0.00     0.034 A 
ATOM     51  C   UNL A   1      41.846  28.256  31.329  1.00  0.00     0.049 A 
ATOM     52  C   UNL A   1      40.827  31.528  35.781  1.00  0.00     0.074 A 
ATOM     53  C   UNL A   1      42.933  27.403  31.427  1.00  0.00     0.029 A 
ATOM     54  N   UNL A   1      41.773  28.942  32.535  1.00  0.00    -0.354 N 
ATOM     55  N   UNL A   1      41.181  30.702  34.824  1.00  0.00    -0.248 NA
ATOM     56  C   UNL A   1      41.650  31.433  36.994  1.00  0.00     0.031 C 
ATOM     57  C   UNL A   1      43.478  27.531  32.709  1.00  0.00     0.029 A 
ATOM     58  C   UNL A   1      42.779  28.516  33.389  1.00  0.00     0.049 A 
ATOM     59  H   UNL A   1      41.104  29.631  32.752  1.00  0.00     0.167 HD
ATOM     60  C   UNL A   1      42.286  30.009  35.311  1.00  0.00     0.074 A 
ATOM     61  C   UNL A   1      42.547  30.527  36.639  1.00  0.00     0.031 C 
ATOM     62  C   UNL A   1      43.020  29.036  34.715  1.00  0.00     0.034 A 
BRANCH  49  63
ATOM     63  C   UNL A   1      41.094  27.563  28.998  1.00  0.00     0.023 A 
ATOM     64  C   UNL A   1      42.094  27.815  28.042  1.00  0.00     0.031 A 
ATOM     65  C   UNL A   1      40.214  26.493  28.761  1.00  0.00     0.131 A 
ATOM     66  C   UNL A   1      42.140  27.065  26.858  1.00  0.00     0.055 A 
ATOM     67  C   UNL A   1      40.317  25.694  27.619  1.00  0.00     0.041 A 
ATOM     68  F   UNL A   1      39.227  26.213  29.625  1.00  0.00    -0.206 F 
ATOM     69  C   UNL A   1      41.274  25.989  26.651  1.00  0.00     0.022 A 
BRANCH  66  70
ATOM     70  S   UNL A   1      43.247  27.610  25.529  1.00  0.00     0.124 S 
ATOM     71  O   UNL A   1      44.193  28.451  26.261  1.00  0.00    -0.237 OA
ATOM     72  O   UNL A   1      43.775  26.349  25.021  1.00  0.00    -0.237 OA
ATOM     73  O   UNL A   1      42.361  28.330  24.617  1.00  0.00    -0.744 OA
ENDBRANCH  66  70
ENDBRANCH  49  63
BRANCH  50  74
ATOM     74  C   UNL A   1      39.429  33.350  37.014  1.00  0.00     0.023 A 
ATOM     75  C   UNL A   1      40.111  34.549  37.269  1.00  0.00     0.031 A 
ATOM     76  C   UNL A   1      38.494  32.908  37.967  1.00  0.00     0.131 A 
ATOM     77  C   UNL A   1      39.885  35.242  38.468  1.00  0.00     0.055 A 
ATOM     78  C   UNL A   1      38.235  33.626  39.136  1.00  0.00     0.041 A 
ATOM     79  F   UNL A   1      37.808  31.771  37.770  1.00  0.00    -0.206 F 
ATOM     80  C   UNL A   1      38.943  34.796  39.398  1.00  0.00     0.022 A 
BRANCH  77  81
ATOM     81  S   UNL A   1      40.904  36.697  38.836  1.00  0.00     0.124 S 
ATOM     82  O   UNL A   1      41.447  36.357  40.146  1.00  0.00    -0.237 OA
ATOM     83  O   UNL A   1      41.853  36.688  37.727  1.00  0.00    -0.237 OA
ATOM     84  O   UNL A   1      39.944  37.798  38.823  1.00  0.00    -0.744 OA
ENDBRANCH  77  81
ENDBRANCH  50  74
BRANCH  62  85
ATOM     85  C   UNL A   1      44.204  28.504  35.484  1.00  0.00     0.023 A 
ATOM     86  C   UNL A   1      44.067  27.482  36.440  1.00  0.00     0.031 A 
ATOM     87  C   UNL A   1      45.485  29.041  35.266  1.00  0.00     0.131 A 
ATOM     88  C   UNL A   1      45.184  27.065  37.180  1.00  0.00     0.055 A 
ATOM     89  C   UNL A   1      46.603  28.581  35.965  1.00  0.00     0.041 A 
ATOM     90  F   UNL A   1      45.672  30.020  34.366  1.00  0.00    -0.206 F 
ATOM     91  C   UNL A   1      46.453  27.597  36.937  1.00  0.00     0.022 A 
BRANCH  88  92
ATOM     92  S   UNL A   1      44.941  25.875  38.527  1.00  0.00     0.124 S 
ATOM     93  O   UNL A   1      46.248  25.882  39.177  1.00  0.00    -0.237 OA
ATOM     94  O   UNL A   1      43.850  26.478  39.284  1.00  0.00    -0.237 OA
ATOM     95  O   UNL A   1      44.601  24.634  37.831  1.00  0.00    -0.744 OA
ENDBRANCH  88  92
ENDBRANCH  62  85
ENDBRANCH  36  37
ENDBRANCH  28  31
ENDBRANCH  26  27
ENDBRANCH  25  26
ENDBRANCH   1  25
TORSDOF 17
ENDMDL
