MODEL 1
REMARK VINA RESULT:     -12.7      0.000      0.000
REMARK SMILES Cc1n[nH]c2c1[C@@]1(C(=O)N([C@@H](C)C(=O)NCCCCNC(=O)c3ccc(-c4c5nc(c(-c6cc(S(=O)(=O)[O-])ccc6F)c6ccc([nH]6)c(-c6cc(S(=O)(=O)[O-])ccc6F)c6nc(c(-c7cc(S(=O)(=O)[O-])ccc7F)c7ccc4[nH]7)C=C6)C=C5)cc3)c3ccccc31)C(C#N)=C(N)O2
REMARK SMILES IDX 18 1 17 2 16 3 15 4 13 5 14 6 11 8 12 9 10 10 1 11 2 12 3 13
REMARK SMILES IDX 6 14 4 15 5 16 7 17 97 19 8 20 91 21 92 22 95 23 9 24 86 25
REMARK SMILES IDX 90 26 87 27 89 28 88 29 93 30 94 31 96 32 19 35 20 36 21 37
REMARK SMILES IDX 22 39 23 40 24 41 85 42 25 43 84 44 26 45 27 46 28 47 78 48
REMARK SMILES IDX 29 49 83 50 77 51 79 52 30 53 82 54 76 55 75 56 31 58 63 59
REMARK SMILES IDX 43 60 62 61 44 62 47 63 61 64 80 65 45 66 46 67 60 69 81 70
REMARK SMILES IDX 48 71 32 72 33 73 41 74 34 75 40 76 42 77 39 78 35 79 36 80
REMARK SMILES IDX 37 81 38 82 64 83 65 84 73 85 66 86 72 87 74 88 71 89 67 90
REMARK SMILES IDX 68 91 69 92 70 93 49 94 50 95 58 96 51 97 57 98 59 99 56 100
REMARK SMILES IDX 52 101 53 102 54 103 55 104
REMARK H PARENT 15 7 4 18 96 33 96 34 20 38 79 57 47 68
REMARK Flexibility Score: inf
ROOT
ATOM      1  C   UNL A   1      37.238  21.386  24.598  1.00  0.00     0.023 C 
ENDROOT
BRANCH   1   2
ATOM      2  C   UNL A   1      35.890  20.797  24.993  1.00  0.00     0.023 C 
BRANCH   2   3
ATOM      3  C   UNL A   1      34.749  21.805  25.125  1.00  0.00     0.116 C 
BRANCH   3   4
ATOM      4  N   UNL A   1      34.496  22.514  23.885  1.00  0.00    -0.354 N 
ATOM      5  C   UNL A   1      34.536  23.830  23.550  1.00  0.00     0.242 C 
ATOM      6  O   UNL A   1      34.328  24.095  22.357  1.00  0.00    -0.273 OA
ATOM      7  H   UNL A   1      34.246  21.924  23.136  1.00  0.00     0.163 HD
BRANCH   5   8
ATOM      8  C   UNL A   1      34.784  24.995  24.540  1.00  0.00     0.176 C 
ATOM      9  C   UNL A   1      35.585  24.651  25.792  1.00  0.00     0.042 C 
BRANCH   8  10
ATOM     10  N   UNL A   1      33.591  25.800  24.781  1.00  0.00    -0.298 N 
ATOM     11  C   UNL A   1      31.243  26.240  21.822  1.00  0.00     0.069 C 
ATOM     12  C   UNL A   1      30.790  27.497  22.467  1.00  0.00     0.068 A 
ATOM     13  N   UNL A   1      29.992  28.340  21.790  1.00  0.00    -0.177 NA
ATOM     14  C   UNL A   1      31.150  28.028  23.733  1.00  0.00     0.063 A 
ATOM     15  N   UNL A   1      29.926  29.436  22.575  1.00  0.00    -0.246 N 
ATOM     16  C   UNL A   1      30.611  29.288  23.736  1.00  0.00     0.222 A 
ATOM     17  C   UNL A   1      32.062  27.617  24.844  1.00  0.00     0.149 C 
ATOM     18  H   UNL A   1      29.436  30.254  22.331  1.00  0.00     0.193 HD
ATOM     19  O   UNL A   1      30.782  30.248  24.634  1.00  0.00    -0.422 OA
ATOM     20  C   UNL A   1      33.364  27.068  24.245  1.00  0.00     0.248 C 
ATOM     21  C   UNL A   1      31.482  26.388  25.494  1.00  0.00     0.002 A 
ATOM     22  C   UNL A   1      32.306  28.774  25.814  1.00  0.00     0.114 C 
ATOM     23  C   UNL A   1      31.678  29.979  25.682  1.00  0.00     0.208 C 
ATOM     24  O   UNL A   1      34.022  27.610  23.358  1.00  0.00    -0.273 OA
ATOM     25  C   UNL A   1      32.445  25.367  25.483  1.00  0.00     0.050 A 
ATOM     26  C   UNL A   1      30.230  26.192  26.063  1.00  0.00     0.008 A 
ATOM     27  C   UNL A   1      32.176  24.133  26.047  1.00  0.00     0.027 A 
ATOM     28  C   UNL A   1      29.944  24.942  26.611  1.00  0.00     0.001 A 
ATOM     29  C   UNL A   1      30.910  23.924  26.606  1.00  0.00     0.002 A 
BRANCH  22  30
ATOM     30  C   UNL A   1      33.224  28.604  27.014  1.00  0.00     0.102 C 
ATOM     31  N   UNL A   1      33.985  28.463  28.011  1.00  0.00    -0.193 NA
ENDBRANCH  22  30
BRANCH  23  32
ATOM     32  N   UNL A   1      31.821  31.040  26.526  1.00  0.00    -0.369 N 
ATOM     33  H   UNL A   1      31.417  31.907  26.298  1.00  0.00     0.159 HD
ATOM     34  H   UNL A   1      32.328  30.938  27.364  1.00  0.00     0.159 HD
ENDBRANCH  23  32
ENDBRANCH   8  10
ENDBRANCH   5   8
ENDBRANCH   3   4
ENDBRANCH   2   3
ENDBRANCH   1   2
BRANCH   1  35
ATOM     35  C   UNL A   1      37.982  22.077  25.746  1.00  0.00     0.116 C 
BRANCH  35  36
ATOM     36  N   UNL A   1      39.417  21.850  25.745  1.00  0.00    -0.352 N 
ATOM     37  C   UNL A   1      40.481  22.444  26.373  1.00  0.00     0.251 C 
ATOM     38  H   UNL A   1      39.685  21.103  25.163  1.00  0.00     0.163 HD
ATOM     39  O   UNL A   1      41.566  21.864  26.267  1.00  0.00    -0.269 OA
BRANCH  37  40
ATOM     40  C   UNL A   1      40.423  23.732  27.117  1.00  0.00     0.039 A 
ATOM     41  C   UNL A   1      39.369  24.639  27.041  1.00  0.00     0.014 A 
ATOM     42  C   UNL A   1      41.553  24.088  27.882  1.00  0.00     0.014 A 
ATOM     43  C   UNL A   1      39.465  25.890  27.631  1.00  0.00     0.010 A 
ATOM     44  C   UNL A   1      41.642  25.334  28.505  1.00  0.00     0.010 A 
ATOM     45  C   UNL A   1      40.610  26.251  28.343  1.00  0.00    -0.014 A 
BRANCH  45  46
ATOM     46  C   UNL A   1      40.599  27.596  28.914  1.00  0.00     0.031 A 
ATOM     47  C   UNL A   1      41.614  28.541  28.367  1.00  0.00     0.074 A 
ATOM     48  C   UNL A   1      39.745  28.013  29.864  1.00  0.00     0.049 A 
ATOM     49  N   UNL A   1      42.628  29.075  28.970  1.00  0.00    -0.248 NA
ATOM     50  C   UNL A   1      41.536  28.843  26.934  1.00  0.00     0.031 C 
ATOM     51  C   UNL A   1      38.500  27.385  30.305  1.00  0.00     0.029 A 
ATOM     52  N   UNL A   1      39.785  29.175  30.577  1.00  0.00    -0.354 N 
ATOM     53  C   UNL A   1      43.233  29.916  28.035  1.00  0.00     0.074 A 
ATOM     54  C   UNL A   1      42.594  29.636  26.772  1.00  0.00     0.031 C 
ATOM     55  C   UNL A   1      37.793  28.279  31.031  1.00  0.00     0.029 A 
ATOM     56  C   UNL A   1      38.606  29.469  31.232  1.00  0.00     0.049 A 
ATOM     57  H   UNL A   1      40.582  29.752  30.620  1.00  0.00     0.167 HD
ATOM     58  C   UNL A   1      44.114  30.898  28.385  1.00  0.00     0.034 A 
ATOM     59  C   UNL A   1      38.281  30.646  31.813  1.00  0.00     0.034 A 
ATOM     60  C   UNL A   1      44.608  30.726  29.721  1.00  0.00     0.049 A 
ATOM     61  C   UNL A   1      39.520  31.410  32.084  1.00  0.00     0.074 A 
ATOM     62  C   UNL A   1      45.394  29.794  30.366  1.00  0.00     0.029 A 
ATOM     63  N   UNL A   1      44.056  31.502  30.707  1.00  0.00    -0.354 N 
ATOM     64  N   UNL A   1      40.404  31.100  32.990  1.00  0.00    -0.248 NA
ATOM     65  C   UNL A   1      39.964  32.376  31.090  1.00  0.00     0.031 C 
ATOM     66  C   UNL A   1      44.935  29.784  31.714  1.00  0.00     0.029 A 
ATOM     67  C   UNL A   1      43.900  30.716  31.818  1.00  0.00     0.049 A 
ATOM     68  H   UNL A   1      43.813  32.453  30.629  1.00  0.00     0.167 HD
ATOM     69  C   UNL A   1      41.619  31.479  32.440  1.00  0.00     0.074 A 
ATOM     70  C   UNL A   1      41.271  32.388  31.354  1.00  0.00     0.031 C 
ATOM     71  C   UNL A   1      42.775  30.809  32.731  1.00  0.00     0.034 A 
BRANCH  58  72
ATOM     72  C   UNL A   1      44.308  32.186  27.614  1.00  0.00     0.023 A 
ATOM     73  C   UNL A   1      43.677  33.390  27.978  1.00  0.00     0.031 A 
ATOM     74  C   UNL A   1      45.310  32.297  26.626  1.00  0.00     0.131 A 
ATOM     75  C   UNL A   1      44.011  34.610  27.375  1.00  0.00     0.055 A 
ATOM     76  C   UNL A   1      45.694  33.526  26.072  1.00  0.00     0.041 A 
ATOM     77  F   UNL A   1      45.993  31.219  26.208  1.00  0.00    -0.206 F 
ATOM     78  C   UNL A   1      45.039  34.693  26.444  1.00  0.00     0.022 A 
BRANCH  75  79
ATOM     79  S   UNL A   1      43.098  36.118  27.805  1.00  0.00     0.124 S 
ATOM     80  O   UNL A   1      43.779  36.540  29.024  1.00  0.00    -0.237 OA
ATOM     81  O   UNL A   1      43.328  36.951  26.628  1.00  0.00    -0.237 OA
ATOM     82  O   UNL A   1      41.725  35.647  27.969  1.00  0.00    -0.744 OA
ENDBRANCH  75  79
ENDBRANCH  58  72
BRANCH  59  83
ATOM     83  C   UNL A   1      36.958  31.301  31.727  1.00  0.00     0.023 A 
ATOM     84  C   UNL A   1      36.425  31.630  30.466  1.00  0.00     0.031 A 
ATOM     85  C   UNL A   1      36.346  31.861  32.858  1.00  0.00     0.131 A 
ATOM     86  C   UNL A   1      35.347  32.515  30.358  1.00  0.00     0.055 A 
ATOM     87  C   UNL A   1      35.263  32.740  32.749  1.00  0.00     0.041 A 
ATOM     88  F   UNL A   1      36.827  31.613  34.086  1.00  0.00    -0.206 F 
ATOM     89  C   UNL A   1      34.765  33.080  31.493  1.00  0.00     0.022 A 
BRANCH  86  90
ATOM     90  S   UNL A   1      34.720  32.993  28.724  1.00  0.00     0.124 S 
ATOM     91  O   UNL A   1      34.024  31.782  28.295  1.00  0.00    -0.237 OA
ATOM     92  O   UNL A   1      33.864  34.126  29.054  1.00  0.00    -0.237 OA
ATOM     93  O   UNL A   1      35.932  33.305  27.972  1.00  0.00    -0.744 OA
ENDBRANCH  86  90
ENDBRANCH  59  83
BRANCH  71  94
ATOM     94  C   UNL A   1      42.801  29.868  33.915  1.00  0.00     0.023 A 
ATOM     95  C   UNL A   1      43.346  30.352  35.121  1.00  0.00     0.031 A 
ATOM     96  C   UNL A   1      42.510  28.493  33.842  1.00  0.00     0.131 A 
ATOM     97  C   UNL A   1      43.604  29.479  36.185  1.00  0.00     0.055 A 
ATOM     98  C   UNL A   1      42.701  27.638  34.933  1.00  0.00     0.041 A 
ATOM     99  F   UNL A   1      42.116  27.918  32.698  1.00  0.00    -0.206 F 
ATOM    100  C   UNL A   1      43.264  28.127  36.107  1.00  0.00     0.022 A 
BRANCH  97 101
ATOM    101  S   UNL A   1      44.530  30.043  37.637  1.00  0.00     0.124 S 
ATOM    102  O   UNL A   1      44.854  28.785  38.304  1.00  0.00    -0.237 OA
ATOM    103  O   UNL A   1      45.663  30.740  37.032  1.00  0.00    -0.237 OA
ATOM    104  O   UNL A   1      43.585  30.903  38.347  1.00  0.00    -0.744 OA
ENDBRANCH  97 101
ENDBRANCH  71  94
ENDBRANCH  45  46
ENDBRANCH  37  40
ENDBRANCH  35  36
ENDBRANCH   1  35
TORSDOF 17
ENDMDL
MODEL 2
REMARK VINA RESULT:     -12.6      1.442      1.958
REMARK SMILES Cc1n[nH]c2c1[C@@]1(C(=O)N([C@@H](C)C(=O)NCCCCNC(=O)c3ccc(-c4c5nc(c(-c6cc(S(=O)(=O)[O-])ccc6F)c6ccc([nH]6)c(-c6cc(S(=O)(=O)[O-])ccc6F)c6nc(c(-c7cc(S(=O)(=O)[O-])ccc7F)c7ccc4[nH]7)C=C6)C=C5)cc3)c3ccccc31)C(C#N)=C(N)O2
REMARK SMILES IDX 18 1 17 2 16 3 15 4 13 5 14 6 11 8 12 9 10 10 1 11 2 12 3 13
REMARK SMILES IDX 6 14 4 15 5 16 7 17 97 19 8 20 91 21 92 22 95 23 9 24 86 25
REMARK SMILES IDX 90 26 87 27 89 28 88 29 93 30 94 31 96 32 19 35 20 36 21 37
REMARK SMILES IDX 22 39 23 40 24 41 85 42 25 43 84 44 26 45 27 46 28 47 78 48
REMARK SMILES IDX 29 49 83 50 77 51 79 52 30 53 82 54 76 55 75 56 31 58 63 59
REMARK SMILES IDX 43 60 62 61 44 62 47 63 61 64 80 65 45 66 46 67 60 69 81 70
REMARK SMILES IDX 48 71 32 72 33 73 41 74 34 75 40 76 42 77 39 78 35 79 36 80
REMARK SMILES IDX 37 81 38 82 64 83 65 84 73 85 66 86 72 87 74 88 71 89 67 90
REMARK SMILES IDX 68 91 69 92 70 93 49 94 50 95 58 96 51 97 57 98 59 99 56 100
REMARK SMILES IDX 52 101 53 102 54 103 55 104
REMARK H PARENT 15 7 4 18 96 33 96 34 20 38 79 57 47 68
REMARK Flexibility Score: inf
ROOT
ATOM      1  C   UNL A   1      38.916  21.990  26.122  1.00  0.00     0.023 C 
ENDROOT
BRANCH   1   2
ATOM      2  C   UNL A   1      38.099  21.033  25.263  1.00  0.00     0.023 C 
BRANCH   2   3
ATOM      3  C   UNL A   1      36.880  21.649  24.576  1.00  0.00     0.116 C 
BRANCH   3   4
ATOM      4  N   UNL A   1      35.637  21.048  25.023  1.00  0.00    -0.354 N 
ATOM      5  C   UNL A   1      34.592  21.525  25.749  1.00  0.00     0.242 C 
ATOM      6  O   UNL A   1      33.634  20.752  25.897  1.00  0.00    -0.273 OA
ATOM      7  H   UNL A   1      35.529  20.109  24.745  1.00  0.00     0.163 HD
BRANCH   5   8
ATOM      8  C   UNL A   1      34.533  22.921  26.416  1.00  0.00     0.176 C 
ATOM      9  C   UNL A   1      34.224  22.938  27.910  1.00  0.00     0.042 C 
BRANCH   8  10
ATOM     10  N   UNL A   1      33.787  23.897  25.627  1.00  0.00    -0.298 N 
ATOM     11  C   UNL A   1      32.945  22.876  22.062  1.00  0.00     0.069 C 
ATOM     12  C   UNL A   1      32.886  24.325  21.744  1.00  0.00     0.068 A 
ATOM     13  N   UNL A   1      32.788  24.718  20.463  1.00  0.00    -0.177 NA
ATOM     14  C   UNL A   1      33.007  25.434  22.620  1.00  0.00     0.063 A 
ATOM     15  N   UNL A   1      32.943  26.058  20.515  1.00  0.00    -0.246 N 
ATOM     16  C   UNL A   1      33.084  26.517  21.783  1.00  0.00     0.222 A 
ATOM     17  C   UNL A   1      33.244  25.619  24.083  1.00  0.00     0.149 C 
ATOM     18  H   UNL A   1      32.954  26.638  19.720  1.00  0.00     0.193 HD
ATOM     19  O   UNL A   1      33.346  27.777  22.100  1.00  0.00    -0.422 OA
ATOM     20  C   UNL A   1      34.306  24.613  24.549  1.00  0.00     0.248 C 
ATOM     21  C   UNL A   1      32.022  25.135  24.820  1.00  0.00     0.002 A 
ATOM     22  C   UNL A   1      33.628  27.065  24.402  1.00  0.00     0.114 C 
ATOM     23  C   UNL A   1      33.650  28.039  23.447  1.00  0.00     0.208 C 
ATOM     24  O   UNL A   1      35.380  24.403  23.986  1.00  0.00    -0.273 OA
ATOM     25  C   UNL A   1      32.408  24.165  25.758  1.00  0.00     0.050 A 
ATOM     26  C   UNL A   1      30.696  25.529  24.692  1.00  0.00     0.008 A 
ATOM     27  C   UNL A   1      31.474  23.575  26.591  1.00  0.00     0.027 A 
ATOM     28  C   UNL A   1      29.747  24.919  25.512  1.00  0.00     0.001 A 
ATOM     29  C   UNL A   1      30.134  23.954  26.455  1.00  0.00     0.002 A 
BRANCH  22  30
ATOM     30  C   UNL A   1      33.944  27.492  25.827  1.00  0.00     0.102 C 
ATOM     31  N   UNL A   1      34.205  27.846  27.009  1.00  0.00    -0.193 NA
ENDBRANCH  22  30
BRANCH  23  32
ATOM     32  N   UNL A   1      33.948  29.352  23.664  1.00  0.00    -0.369 N 
ATOM     33  H   UNL A   1      34.654  29.596  24.303  1.00  0.00     0.159 HD
ATOM     34  H   UNL A   1      33.456  30.054  23.179  1.00  0.00     0.159 HD
ENDBRANCH  23  32
ENDBRANCH   8  10
ENDBRANCH   5   8
ENDBRANCH   3   4
ENDBRANCH   2   3
ENDBRANCH   1   2
BRANCH   1  35
ATOM     35  C   UNL A   1      40.286  21.447  26.541  1.00  0.00     0.116 C 
BRANCH  35  36
ATOM     36  N   UNL A   1      41.393  21.950  25.746  1.00  0.00    -0.352 N 
ATOM     37  C   UNL A   1      42.139  23.100  25.761  1.00  0.00     0.251 C 
ATOM     38  H   UNL A   1      41.669  21.325  25.038  1.00  0.00     0.163 HD
ATOM     39  O   UNL A   1      43.133  23.111  25.029  1.00  0.00    -0.269 OA
BRANCH  37  40
ATOM     40  C   UNL A   1      41.809  24.320  26.548  1.00  0.00     0.039 A 
ATOM     41  C   UNL A   1      40.901  25.295  26.145  1.00  0.00     0.014 A 
ATOM     42  C   UNL A   1      42.530  24.534  27.740  1.00  0.00     0.014 A 
ATOM     43  C   UNL A   1      40.774  26.482  26.852  1.00  0.00     0.010 A 
ATOM     44  C   UNL A   1      42.384  25.714  28.473  1.00  0.00     0.010 A 
ATOM     45  C   UNL A   1      41.531  26.706  28.002  1.00  0.00    -0.014 A 
BRANCH  45  46
ATOM     46  C   UNL A   1      41.317  27.993  28.657  1.00  0.00     0.031 A 
ATOM     47  C   UNL A   1      42.276  29.075  28.292  1.00  0.00     0.074 A 
ATOM     48  C   UNL A   1      40.329  28.248  29.532  1.00  0.00     0.049 A 
ATOM     49  N   UNL A   1      43.159  29.658  29.039  1.00  0.00    -0.248 NA
ATOM     50  C   UNL A   1      42.316  29.479  26.882  1.00  0.00     0.031 C 
ATOM     51  C   UNL A   1      39.120  27.467  29.788  1.00  0.00     0.029 A 
ATOM     52  N   UNL A   1      40.170  29.349  30.321  1.00  0.00    -0.354 N 
ATOM     53  C   UNL A   1      43.765  30.625  28.236  1.00  0.00     0.074 A 
ATOM     54  C   UNL A   1      43.294  30.383  26.894  1.00  0.00     0.031 C 
ATOM     55  C   UNL A   1      38.249  28.227  30.489  1.00  0.00     0.029 A 
ATOM     56  C   UNL A   1      38.905  29.472  30.859  1.00  0.00     0.049 A 
ATOM     57  H   UNL A   1      40.892  29.997  30.491  1.00  0.00     0.167 HD
ATOM     58  C   UNL A   1      44.494  31.660  28.747  1.00  0.00     0.034 A 
ATOM     59  C   UNL A   1      38.397  30.561  31.478  1.00  0.00     0.034 A 
ATOM     60  C   UNL A   1      44.862  31.434  30.115  1.00  0.00     0.049 A 
ATOM     61  C   UNL A   1      39.512  31.422  31.936  1.00  0.00     0.074 A 
ATOM     62  C   UNL A   1      45.671  30.536  30.780  1.00  0.00     0.029 A 
ATOM     63  N   UNL A   1      44.130  32.070  31.083  1.00  0.00    -0.354 N 
ATOM     64  N   UNL A   1      40.325  31.131  32.913  1.00  0.00    -0.248 NA
ATOM     65  C   UNL A   1      39.951  32.502  31.065  1.00  0.00     0.031 C 
ATOM     66  C   UNL A   1      45.079  30.375  32.065  1.00  0.00     0.029 A 
ATOM     67  C   UNL A   1      43.944  31.189  32.115  1.00  0.00     0.049 A 
ATOM     68  H   UNL A   1      43.796  32.996  31.043  1.00  0.00     0.167 HD
ATOM     69  C   UNL A   1      41.543  31.670  32.529  1.00  0.00     0.074 A 
ATOM     70  C   UNL A   1      41.215  32.622  31.474  1.00  0.00     0.031 C 
ATOM     71  C   UNL A   1      42.727  31.097  32.901  1.00  0.00     0.034 A 
BRANCH  58  72
ATOM     72  C   UNL A   1      44.628  33.017  28.091  1.00  0.00     0.023 A 
ATOM     73  C   UNL A   1      43.656  34.025  28.229  1.00  0.00     0.031 A 
ATOM     74  C   UNL A   1      45.843  33.418  27.495  1.00  0.00     0.131 A 
ATOM     75  C   UNL A   1      43.880  35.333  27.777  1.00  0.00     0.055 A 
ATOM     76  C   UNL A   1      46.095  34.741  27.107  1.00  0.00     0.041 A 
ATOM     77  F   UNL A   1      46.851  32.549  27.325  1.00  0.00    -0.206 F 
ATOM     78  C   UNL A   1      45.107  35.708  27.244  1.00  0.00     0.022 A 
BRANCH  75  79
ATOM     79  S   UNL A   1      42.558  36.571  27.884  1.00  0.00     0.124 S 
ATOM     80  O   UNL A   1      43.126  37.532  28.823  1.00  0.00    -0.237 OA
ATOM     81  O   UNL A   1      42.458  37.021  26.498  1.00  0.00    -0.237 OA
ATOM     82  O   UNL A   1      41.413  35.804  28.367  1.00  0.00    -0.744 OA
ENDBRANCH  75  79
ENDBRANCH  58  72
BRANCH  59  83
ATOM     83  C   UNL A   1      37.027  31.087  31.289  1.00  0.00     0.023 A 
ATOM     84  C   UNL A   1      36.557  31.353  29.989  1.00  0.00     0.031 A 
ATOM     85  C   UNL A   1      36.287  31.596  32.365  1.00  0.00     0.131 A 
ATOM     86  C   UNL A   1      35.411  32.130  29.791  1.00  0.00     0.055 A 
ATOM     87  C   UNL A   1      35.135  32.367  32.167  1.00  0.00     0.041 A 
ATOM     88  F   UNL A   1      36.700  31.407  33.628  1.00  0.00    -0.206 F 
ATOM     89  C   UNL A   1      34.699  32.647  30.874  1.00  0.00     0.022 A 
BRANCH  86  90
ATOM     90  S   UNL A   1      34.859  32.531  28.111  1.00  0.00     0.124 S 
ATOM     91  O   UNL A   1      33.633  33.285  28.359  1.00  0.00    -0.237 OA
ATOM     92  O   UNL A   1      35.985  33.308  27.605  1.00  0.00    -0.237 OA
ATOM     93  O   UNL A   1      34.662  31.221  27.496  1.00  0.00    -0.744 OA
ENDBRANCH  86  90
ENDBRANCH  59  83
BRANCH  71  94
ATOM     94  C   UNL A   1      42.731  30.073  34.015  1.00  0.00     0.023 A 
ATOM     95  C   UNL A   1      43.309  30.449  35.243  1.00  0.00     0.031 A 
ATOM     96  C   UNL A   1      42.385  28.720  33.848  1.00  0.00     0.131 A 
ATOM     97  C   UNL A   1      43.545  29.492  36.239  1.00  0.00     0.055 A 
ATOM     98  C   UNL A   1      42.555  27.782  34.873  1.00  0.00     0.041 A 
ATOM     99  F   UNL A   1      41.956  28.243  32.672  1.00  0.00    -0.206 F 
ATOM    100  C   UNL A   1      43.151  28.164  36.070  1.00  0.00     0.022 A 
BRANCH  97 101
ATOM    101  S   UNL A   1      44.509  29.916  37.714  1.00  0.00     0.124 S 
ATOM    102  O   UNL A   1      43.615  30.835  38.413  1.00  0.00    -0.237 OA
ATOM    103  O   UNL A   1      44.690  28.613  38.351  1.00  0.00    -0.237 OA
ATOM    104  O   UNL A   1      45.729  30.515  37.179  1.00  0.00    -0.744 OA
ENDBRANCH  97 101
ENDBRANCH  71  94
ENDBRANCH  45  46
ENDBRANCH  37  40
ENDBRANCH  35  36
ENDBRANCH   1  35
TORSDOF 17
ENDMDL
MODEL 3
REMARK VINA RESULT:     -12.6      3.284      8.798
REMARK SMILES Cc1n[nH]c2c1[C@@]1(C(=O)N([C@@H](C)C(=O)NCCCCNC(=O)c3ccc(-c4c5nc(c(-c6cc(S(=O)(=O)[O-])ccc6F)c6ccc([nH]6)c(-c6cc(S(=O)(=O)[O-])ccc6F)c6nc(c(-c7cc(S(=O)(=O)[O-])ccc7F)c7ccc4[nH]7)C=C6)C=C5)cc3)c3ccccc31)C(C#N)=C(N)O2
REMARK SMILES IDX 18 1 17 2 16 3 15 4 13 5 14 6 11 8 12 9 10 10 1 11 2 12 3 13
REMARK SMILES IDX 6 14 4 15 5 16 7 17 97 19 8 20 91 21 92 22 95 23 9 24 86 25
REMARK SMILES IDX 90 26 87 27 89 28 88 29 93 30 94 31 96 32 19 35 20 36 21 37
REMARK SMILES IDX 22 39 23 40 24 41 85 42 25 43 84 44 26 45 27 46 28 47 78 48
REMARK SMILES IDX 29 49 83 50 77 51 79 52 30 53 82 54 76 55 75 56 31 58 63 59
REMARK SMILES IDX 43 60 62 61 44 62 47 63 61 64 80 65 45 66 46 67 60 69 81 70
REMARK SMILES IDX 48 71 32 72 33 73 41 74 34 75 40 76 42 77 39 78 35 79 36 80
REMARK SMILES IDX 37 81 38 82 64 83 65 84 73 85 66 86 72 87 74 88 71 89 67 90
REMARK SMILES IDX 68 91 69 92 70 93 49 94 50 95 58 96 51 97 57 98 59 99 56 100
REMARK SMILES IDX 52 101 53 102 54 103 55 104
REMARK H PARENT 15 7 4 18 96 33 96 34 20 38 79 57 47 68
REMARK Flexibility Score: inf
ROOT
ATOM      1  C   UNL A   1      31.984  29.948  26.873  1.00  0.00     0.023 C 
ENDROOT
BRANCH   1   2
ATOM      2  C   UNL A   1      31.402  29.740  25.481  1.00  0.00     0.023 C 
BRANCH   2   3
ATOM      3  C   UNL A   1      31.760  28.412  24.814  1.00  0.00     0.116 C 
BRANCH   3   4
ATOM      4  N   UNL A   1      31.146  27.279  25.482  1.00  0.00    -0.354 N 
ATOM      5  C   UNL A   1      31.660  26.210  26.146  1.00  0.00     0.242 C 
ATOM      6  O   UNL A   1      30.836  25.447  26.668  1.00  0.00    -0.273 OA
ATOM      7  H   UNL A   1      30.162  27.286  25.448  1.00  0.00     0.163 HD
BRANCH   5   8
ATOM      8  C   UNL A   1      33.167  25.873  26.261  1.00  0.00     0.176 C 
ATOM      9  C   UNL A   1      34.130  27.048  26.123  1.00  0.00     0.042 C 
BRANCH   8  10
ATOM     10  N   UNL A   1      33.542  24.683  25.502  1.00  0.00    -0.298 N 
ATOM     11  C   UNL A   1      31.004  21.852  25.462  1.00  0.00     0.069 C 
ATOM     12  C   UNL A   1      32.145  20.937  25.209  1.00  0.00     0.068 A 
ATOM     13  N   UNL A   1      31.952  19.608  25.262  1.00  0.00    -0.177 NA
ATOM     14  C   UNL A   1      33.509  21.255  24.987  1.00  0.00     0.063 A 
ATOM     15  N   UNL A   1      33.196  19.090  25.173  1.00  0.00    -0.246 N 
ATOM     16  C   UNL A   1      34.147  20.043  25.017  1.00  0.00     0.222 A 
ATOM     17  C   UNL A   1      34.319  22.510  24.939  1.00  0.00     0.149 C 
ATOM     18  H   UNL A   1      33.390  18.126  25.218  1.00  0.00     0.193 HD
ATOM     19  O   UNL A   1      35.451  19.805  25.000  1.00  0.00    -0.422 OA
ATOM     20  C   UNL A   1      33.859  23.447  26.064  1.00  0.00     0.248 C 
ATOM     21  C   UNL A   1      33.911  23.284  23.712  1.00  0.00     0.002 A 
ATOM     22  C   UNL A   1      35.817  22.204  25.009  1.00  0.00     0.114 C 
ATOM     23  C   UNL A   1      36.297  20.927  25.023  1.00  0.00     0.208 C 
ATOM     24  O   UNL A   1      33.689  23.117  27.237  1.00  0.00    -0.273 OA
ATOM     25  C   UNL A   1      33.519  24.576  24.095  1.00  0.00     0.050 A 
ATOM     26  C   UNL A   1      33.906  22.893  22.379  1.00  0.00     0.008 A 
ATOM     27  C   UNL A   1      33.120  25.504  23.150  1.00  0.00     0.027 A 
ATOM     28  C   UNL A   1      33.482  23.817  21.425  1.00  0.00     0.001 A 
ATOM     29  C   UNL A   1      33.096  25.111  21.807  1.00  0.00     0.002 A 
BRANCH  22  30
ATOM     30  C   UNL A   1      36.843  23.326  25.001  1.00  0.00     0.102 C 
ATOM     31  N   UNL A   1      37.695  24.256  24.995  1.00  0.00    -0.193 NA
ENDBRANCH  22  30
BRANCH  23  32
ATOM     32  N   UNL A   1      37.616  20.580  25.050  1.00  0.00    -0.369 N 
ATOM     33  H   UNL A   1      38.184  20.865  25.800  1.00  0.00     0.159 HD
ATOM     34  H   UNL A   1      37.998  20.044  24.317  1.00  0.00     0.159 HD
ENDBRANCH  23  32
ENDBRANCH   8  10
ENDBRANCH   5   8
ENDBRANCH   3   4
ENDBRANCH   2   3
ENDBRANCH   1   2
BRANCH   1  35
ATOM     35  C   UNL A   1      33.401  30.531  26.881  1.00  0.00     0.116 C 
BRANCH  35  36
ATOM     36  N   UNL A   1      33.645  31.484  27.950  1.00  0.00    -0.352 N 
ATOM     37  C   UNL A   1      34.750  31.847  28.676  1.00  0.00     0.251 C 
ATOM     38  H   UNL A   1      32.837  31.980  28.210  1.00  0.00     0.163 HD
ATOM     39  O   UNL A   1      34.620  32.837  29.402  1.00  0.00    -0.269 OA
BRANCH  37  40
ATOM     40  C   UNL A   1      36.047  31.115  28.680  1.00  0.00     0.039 A 
ATOM     41  C   UNL A   1      36.190  29.764  28.380  1.00  0.00     0.014 A 
ATOM     42  C   UNL A   1      37.189  31.830  29.095  1.00  0.00     0.014 A 
ATOM     43  C   UNL A   1      37.403  29.120  28.569  1.00  0.00     0.010 A 
ATOM     44  C   UNL A   1      38.421  31.193  29.257  1.00  0.00     0.010 A 
ATOM     45  C   UNL A   1      38.515  29.824  29.031  1.00  0.00    -0.014 A 
BRANCH  45  46
ATOM     46  C   UNL A   1      39.735  29.039  29.197  1.00  0.00     0.031 A 
ATOM     47  C   UNL A   1      40.103  28.699  30.601  1.00  0.00     0.074 A 
ATOM     48  C   UNL A   1      40.511  28.613  28.185  1.00  0.00     0.049 A 
ATOM     49  N   UNL A   1      41.126  29.096  31.288  1.00  0.00    -0.248 NA
ATOM     50  C   UNL A   1      39.142  27.892  31.361  1.00  0.00     0.031 C 
ATOM     51  C   UNL A   1      40.190  28.550  26.760  1.00  0.00     0.029 A 
ATOM     52  N   UNL A   1      41.748  28.044  28.259  1.00  0.00    -0.354 N 
ATOM     53  C   UNL A   1      41.031  28.459  32.526  1.00  0.00     0.074 A 
ATOM     54  C   UNL A   1      39.731  27.834  32.555  1.00  0.00     0.031 C 
ATOM     55  C   UNL A   1      41.102  27.768  26.141  1.00  0.00     0.029 A 
ATOM     56  C   UNL A   1      42.143  27.417  27.094  1.00  0.00     0.049 A 
ATOM     57  H   UNL A   1      42.308  28.078  29.068  1.00  0.00     0.167 HD
ATOM     58  C   UNL A   1      42.084  28.354  33.387  1.00  0.00     0.034 A 
ATOM     59  C   UNL A   1      43.199  26.584  26.948  1.00  0.00     0.034 A 
ATOM     60  C   UNL A   1      43.145  29.261  33.051  1.00  0.00     0.049 A 
ATOM     61  C   UNL A   1      44.152  26.811  28.059  1.00  0.00     0.074 A 
ATOM     62  C   UNL A   1      43.298  30.632  33.032  1.00  0.00     0.029 A 
ATOM     63  N   UNL A   1      44.228  28.752  32.383  1.00  0.00    -0.354 N 
ATOM     64  N   UNL A   1      44.892  27.875  28.200  1.00  0.00    -0.248 NA
ATOM     65  C   UNL A   1      44.044  25.969  29.241  1.00  0.00     0.031 C 
ATOM     66  C   UNL A   1      44.231  30.892  31.988  1.00  0.00     0.029 A 
ATOM     67  C   UNL A   1      44.602  29.665  31.433  1.00  0.00     0.049 A 
ATOM     68  H   UNL A   1      44.660  27.883  32.555  1.00  0.00     0.167 HD
ATOM     69  C   UNL A   1      44.976  28.065  29.571  1.00  0.00     0.074 A 
ATOM     70  C   UNL A   1      44.573  26.789  30.151  1.00  0.00     0.031 C 
ATOM     71  C   UNL A   1      45.094  29.314  30.113  1.00  0.00     0.034 A 
BRANCH  58  72
ATOM     72  C   UNL A   1      42.277  27.220  34.369  1.00  0.00     0.023 A 
ATOM     73  C   UNL A   1      43.047  26.081  34.070  1.00  0.00     0.031 A 
ATOM     74  C   UNL A   1      41.880  27.351  35.717  1.00  0.00     0.131 A 
ATOM     75  C   UNL A   1      43.372  25.131  35.048  1.00  0.00     0.055 A 
ATOM     76  C   UNL A   1      42.263  26.440  36.711  1.00  0.00     0.041 A 
ATOM     77  F   UNL A   1      41.156  28.404  36.127  1.00  0.00    -0.206 F 
ATOM     78  C   UNL A   1      43.011  25.318  36.377  1.00  0.00     0.022 A 
BRANCH  75  79
ATOM     79  S   UNL A   1      44.279  23.628  34.592  1.00  0.00     0.124 S 
ATOM     80  O   UNL A   1      43.329  22.965  33.705  1.00  0.00    -0.237 OA
ATOM     81  O   UNL A   1      45.468  24.181  33.949  1.00  0.00    -0.237 OA
ATOM     82  O   UNL A   1      44.519  22.975  35.876  1.00  0.00    -0.744 OA
ENDBRANCH  75  79
ENDBRANCH  58  72
BRANCH  59  83
ATOM     83  C   UNL A   1      43.192  25.330  26.164  1.00  0.00     0.023 A 
ATOM     84  C   UNL A   1      42.303  24.295  26.516  1.00  0.00     0.031 A 
ATOM     85  C   UNL A   1      44.226  25.023  25.269  1.00  0.00     0.131 A 
ATOM     86  C   UNL A   1      42.481  23.003  26.011  1.00  0.00     0.055 A 
ATOM     87  C   UNL A   1      44.399  23.731  24.758  1.00  0.00     0.041 A 
ATOM     88  F   UNL A   1      45.126  25.956  24.921  1.00  0.00    -0.206 F 
ATOM     89  C   UNL A   1      43.530  22.711  25.138  1.00  0.00     0.022 A 
BRANCH  86  90
ATOM     90  S   UNL A   1      41.378  21.661  26.532  1.00  0.00     0.124 S 
ATOM     91  O   UNL A   1      41.893  20.524  25.772  1.00  0.00    -0.237 OA
ATOM     92  O   UNL A   1      41.619  21.618  27.969  1.00  0.00    -0.237 OA
ATOM     93  O   UNL A   1      40.056  22.127  26.120  1.00  0.00    -0.744 OA
ENDBRANCH  86  90
ENDBRANCH  59  83
BRANCH  71  94
ATOM     94  C   UNL A   1      45.478  30.471  29.218  1.00  0.00     0.023 A 
ATOM     95  C   UNL A   1      46.796  30.960  29.314  1.00  0.00     0.031 A 
ATOM     96  C   UNL A   1      44.564  31.217  28.452  1.00  0.00     0.131 A 
ATOM     97  C   UNL A   1      47.157  32.158  28.684  1.00  0.00     0.055 A 
ATOM     98  C   UNL A   1      44.947  32.375  27.764  1.00  0.00     0.041 A 
ATOM     99  F   UNL A   1      43.261  30.906  28.412  1.00  0.00    -0.206 F 
ATOM    100  C   UNL A   1      46.245  32.858  27.891  1.00  0.00     0.022 A 
BRANCH  97 101
ATOM    101  S   UNL A   1      48.769  32.919  29.005  1.00  0.00     0.124 S 
ATOM    102  O   UNL A   1      49.650  31.757  29.078  1.00  0.00    -0.237 OA
ATOM    103  O   UNL A   1      48.952  33.769  27.830  1.00  0.00    -0.237 OA
ATOM    104  O   UNL A   1      48.577  33.639  30.262  1.00  0.00    -0.744 OA
ENDBRANCH  97 101
ENDBRANCH  71  94
ENDBRANCH  45  46
ENDBRANCH  37  40
ENDBRANCH  35  36
ENDBRANCH   1  35
TORSDOF 17
ENDMDL
