MODEL 1
REMARK VINA RESULT:     -13.9      0.000      0.000
REMARK SMILES O=C(NCCCCNC(=O)c1ccc(-c2c3nc(c(-c4cc(S(=O)(=O)[O-])ccc4F)c4ccc([nH]4)c(-c4cc(S(=O)(=O)[O-])ccc4F)c4nc(c(-c5cc(S(=O)(=O)[O-])ccc5F)c5ccc2[nH]5)C=C4)C=C3)cc1)C1=Cc2cc(Cl)cc(-c3ccc(Cl)cc3)c2O[C@@H]1C(F)(F)F
REMARK SMILES IDX 6 1 5 2 4 3 3 4 1 5 2 6 74 8 75 9 91 10 76 11 90 12 77 13
REMARK SMILES IDX 89 14 78 15 81 16 79 17 80 18 92 19 93 20 94 21 95 22 82 23
REMARK SMILES IDX 83 24 88 25 84 26 87 27 85 28 86 29 7 30 8 31 9 32 10 34
REMARK SMILES IDX 11 35 12 36 73 37 13 38 72 39 14 40 15 41 16 42 66 43 17 44
REMARK SMILES IDX 71 45 65 46 67 47 18 48 70 49 64 50 63 51 19 53 51 54 31 55
REMARK SMILES IDX 50 56 32 57 35 58 49 59 68 60 33 61 34 62 48 64 69 65 36 66
REMARK SMILES IDX 20 67 21 68 29 69 22 70 28 71 30 72 27 73 23 74 24 75 25 76
REMARK SMILES IDX 26 77 52 78 53 79 61 80 54 81 60 82 62 83 59 84 55 85 56 86
REMARK SMILES IDX 57 87 58 88 37 89 38 90 46 91 39 92 45 93 47 94 44 95 40 96
REMARK SMILES IDX 41 97 42 98 43 99
REMARK H PARENT 3 7 8 33 67 52 35 63
REMARK Flexibility Score: inf
ROOT
ATOM      1  C   UNL A   1      31.901  28.743  26.675  1.00  0.00     0.023 C 
ENDROOT
BRANCH   1   2
ATOM      2  C   UNL A   1      32.315  27.273  26.569  1.00  0.00     0.023 C 
BRANCH   2   3
ATOM      3  C   UNL A   1      31.170  26.294  26.311  1.00  0.00     0.116 C 
BRANCH   3   4
ATOM      4  N   UNL A   1      31.324  24.992  26.949  1.00  0.00    -0.352 N 
ATOM      5  O   UNL A   1      32.341  23.055  27.468  1.00  0.00    -0.270 OA
ATOM      6  C   UNL A   1      32.118  23.924  26.625  1.00  0.00     0.251 C 
ATOM      7  H   UNL A   1      30.763  24.858  27.746  1.00  0.00     0.163 HD
BRANCH   6   8
ATOM      8  C   UNL A   1      32.788  23.803  25.303  1.00  0.00     0.067 C 
ATOM      9  C   UNL A   1      34.096  24.073  25.177  1.00  0.00     0.025 C 
ATOM     10  C   UNL A   1      32.154  22.796  24.378  1.00  0.00     0.314 C 
ATOM     11  C   UNL A   1      34.894  22.874  24.840  1.00  0.00     0.019 A 
ATOM     12  O   UNL A   1      32.893  21.549  24.387  1.00  0.00    -0.475 OA
ATOM     13  C   UNL A   1      36.263  22.923  25.114  1.00  0.00     0.032 A 
ATOM     14  C   UNL A   1      34.247  21.636  24.626  1.00  0.00     0.135 A 
ATOM     15  C   UNL A   1      36.969  21.735  25.258  1.00  0.00     0.042 A 
ATOM     16  C   UNL A   1      34.954  20.434  24.802  1.00  0.00     0.026 A 
ATOM     17  Cl  UNL A   1      38.615  21.788  25.752  1.00  0.00    -0.084 Cl
ATOM     18  C   UNL A   1      36.325  20.505  25.120  1.00  0.00     0.033 A 
BRANCH  10  19
ATOM     19  C   UNL A   1      31.986  23.361  22.954  1.00  0.00     0.429 C 
ATOM     20  F   UNL A   1      32.595  24.563  22.815  1.00  0.00    -0.167 F 
ATOM     21  F   UNL A   1      32.529  22.538  22.023  1.00  0.00    -0.167 F 
ATOM     22  F   UNL A   1      30.685  23.534  22.610  1.00  0.00    -0.167 F 
ENDBRANCH  10  19
BRANCH  16  23
ATOM     23  C   UNL A   1      34.294  19.121  24.841  1.00  0.00    -0.015 A 
ATOM     24  C   UNL A   1      33.097  18.954  25.561  1.00  0.00     0.010 A 
ATOM     25  C   UNL A   1      34.881  17.994  24.253  1.00  0.00     0.010 A 
ATOM     26  C   UNL A   1      32.527  17.690  25.733  1.00  0.00     0.021 A 
ATOM     27  C   UNL A   1      34.306  16.729  24.411  1.00  0.00     0.021 A 
ATOM     28  C   UNL A   1      33.141  16.581  25.163  1.00  0.00     0.041 A 
ATOM     29  Cl  UNL A   1      32.468  15.017  25.398  1.00  0.00    -0.084 Cl
ENDBRANCH  16  23
ENDBRANCH   6   8
ENDBRANCH   3   4
ENDBRANCH   2   3
ENDBRANCH   1   2
BRANCH   1  30
ATOM     30  C   UNL A   1      32.927  29.809  26.289  1.00  0.00     0.116 C 
BRANCH  30  31
ATOM     31  N   UNL A   1      32.732  31.126  26.874  1.00  0.00    -0.352 N 
ATOM     32  C   UNL A   1      33.653  31.874  27.588  1.00  0.00     0.251 C 
ATOM     33  H   UNL A   1      31.844  31.533  26.747  1.00  0.00     0.163 HD
ATOM     34  O   UNL A   1      33.362  32.990  28.007  1.00  0.00    -0.269 OA
BRANCH  32  35
ATOM     35  C   UNL A   1      34.973  31.276  27.905  1.00  0.00     0.039 A 
ATOM     36  C   UNL A   1      36.063  32.130  28.090  1.00  0.00     0.014 A 
ATOM     37  C   UNL A   1      35.095  29.908  28.164  1.00  0.00     0.014 A 
ATOM     38  C   UNL A   1      37.232  31.636  28.677  1.00  0.00     0.010 A 
ATOM     39  C   UNL A   1      36.239  29.432  28.806  1.00  0.00     0.010 A 
ATOM     40  C   UNL A   1      37.296  30.303  29.116  1.00  0.00    -0.014 A 
BRANCH  40  41
ATOM     41  C   UNL A   1      38.391  29.855  30.021  1.00  0.00     0.031 A 
ATOM     42  C   UNL A   1      38.539  30.415  31.405  1.00  0.00     0.074 A 
ATOM     43  C   UNL A   1      39.318  28.997  29.545  1.00  0.00     0.049 A 
ATOM     44  N   UNL A   1      39.458  30.162  32.303  1.00  0.00    -0.248 NA
ATOM     45  C   UNL A   1      37.542  31.407  31.822  1.00  0.00     0.031 C 
ATOM     46  C   UNL A   1      39.332  28.438  28.190  1.00  0.00     0.029 A 
ATOM     47  N   UNL A   1      40.436  28.458  30.133  1.00  0.00    -0.354 N 
ATOM     48  C   UNL A   1      39.148  30.959  33.399  1.00  0.00     0.074 A 
ATOM     49  C   UNL A   1      37.994  31.750  33.020  1.00  0.00     0.031 C 
ATOM     50  C   UNL A   1      40.396  27.631  28.055  1.00  0.00     0.029 A 
ATOM     51  C   UNL A   1      41.163  27.642  29.297  1.00  0.00     0.049 A 
ATOM     52  H   UNL A   1      40.694  28.640  31.066  1.00  0.00     0.167 HD
ATOM     53  C   UNL A   1      39.755  31.009  34.612  1.00  0.00     0.034 A 
ATOM     54  C   UNL A   1      42.325  26.987  29.492  1.00  0.00     0.034 A 
ATOM     55  C   UNL A   1      40.915  30.225  34.970  1.00  0.00     0.049 A 
ATOM     56  C   UNL A   1      43.001  27.079  30.833  1.00  0.00     0.074 A 
ATOM     57  C   UNL A   1      41.554  30.139  36.194  1.00  0.00     0.029 A 
ATOM     58  N   UNL A   1      41.627  29.412  34.097  1.00  0.00    -0.354 N 
ATOM     59  N   UNL A   1      42.640  27.766  31.892  1.00  0.00    -0.248 NA
ATOM     60  C   UNL A   1      44.234  26.302  31.009  1.00  0.00     0.031 C 
ATOM     61  C   UNL A   1      42.691  29.333  36.044  1.00  0.00     0.029 A 
ATOM     62  C   UNL A   1      42.724  28.859  34.743  1.00  0.00     0.049 A 
ATOM     63  H   UNL A   1      41.388  29.251  33.155  1.00  0.00     0.167 HD
ATOM     64  C   UNL A   1      43.597  27.493  32.864  1.00  0.00     0.074 A 
ATOM     65  C   UNL A   1      44.540  26.566  32.271  1.00  0.00     0.031 C 
ATOM     66  C   UNL A   1      43.683  27.965  34.134  1.00  0.00     0.034 A 
BRANCH  53  67
ATOM     67  C   UNL A   1      39.179  31.967  35.629  1.00  0.00     0.023 A 
ATOM     68  C   UNL A   1      39.603  33.307  35.697  1.00  0.00     0.031 A 
ATOM     69  C   UNL A   1      38.231  31.530  36.570  1.00  0.00     0.131 A 
ATOM     70  C   UNL A   1      39.152  34.134  36.736  1.00  0.00     0.055 A 
ATOM     71  C   UNL A   1      37.721  32.385  37.552  1.00  0.00     0.041 A 
ATOM     72  F   UNL A   1      37.798  30.260  36.566  1.00  0.00    -0.206 F 
ATOM     73  C   UNL A   1      38.196  33.689  37.651  1.00  0.00     0.022 A 
BRANCH  70  74
ATOM     74  S   UNL A   1      39.959  35.742  36.969  1.00  0.00     0.124 S 
ATOM     75  O   UNL A   1      39.277  36.246  38.159  1.00  0.00    -0.237 OA
ATOM     76  O   UNL A   1      41.358  35.368  37.144  1.00  0.00    -0.237 OA
ATOM     77  O   UNL A   1      39.654  36.461  35.734  1.00  0.00    -0.744 OA
ENDBRANCH  70  74
ENDBRANCH  53  67
BRANCH  54  78
ATOM     78  C   UNL A   1      42.937  26.212  28.377  1.00  0.00     0.023 A 
ATOM     79  C   UNL A   1      43.983  26.741  27.608  1.00  0.00     0.031 A 
ATOM     80  C   UNL A   1      42.472  24.922  28.066  1.00  0.00     0.131 A 
ATOM     81  C   UNL A   1      44.514  25.993  26.545  1.00  0.00     0.055 A 
ATOM     82  C   UNL A   1      43.030  24.166  27.034  1.00  0.00     0.041 A 
ATOM     83  F   UNL A   1      41.480  24.366  28.781  1.00  0.00    -0.206 F 
ATOM     84  C   UNL A   1      44.052  24.706  26.260  1.00  0.00     0.022 A 
BRANCH  81  85
ATOM     85  S   UNL A   1      45.794  26.747  25.504  1.00  0.00     0.124 S 
ATOM     86  O   UNL A   1      45.058  27.829  24.862  1.00  0.00    -0.237 OA
ATOM     87  O   UNL A   1      46.791  27.147  26.492  1.00  0.00    -0.237 OA
ATOM     88  O   UNL A   1      46.200  25.656  24.620  1.00  0.00    -0.744 OA
ENDBRANCH  81  85
ENDBRANCH  54  78
BRANCH  66  89
ATOM     89  C   UNL A   1      44.839  27.470  34.969  1.00  0.00     0.023 A 
ATOM     90  C   UNL A   1      44.742  26.296  35.737  1.00  0.00     0.031 A 
ATOM     91  C   UNL A   1      46.047  28.186  35.005  1.00  0.00     0.131 A 
ATOM     92  C   UNL A   1      45.819  25.896  36.542  1.00  0.00     0.055 A 
ATOM     93  C   UNL A   1      47.135  27.756  35.767  1.00  0.00     0.041 A 
ATOM     94  F   UNL A   1      46.193  29.316  34.294  1.00  0.00    -0.206 F 
ATOM     95  C   UNL A   1      47.021  26.610  36.550  1.00  0.00     0.022 A 
BRANCH  92  96
ATOM     96  S   UNL A   1      45.608  24.466  37.638  1.00  0.00     0.124 S 
ATOM     97  O   UNL A   1      45.349  23.391  36.685  1.00  0.00    -0.237 OA
ATOM     98  O   UNL A   1      46.889  24.409  38.332  1.00  0.00    -0.237 OA
ATOM     99  O   UNL A   1      44.469  24.840  38.474  1.00  0.00    -0.744 OA
ENDBRANCH  92  96
ENDBRANCH  66  89
ENDBRANCH  40  41
ENDBRANCH  32  35
ENDBRANCH  30  31
ENDBRANCH   1  30
TORSDOF 16
ENDMDL
MODEL 2
REMARK VINA RESULT:     -13.7      2.597      3.211
REMARK SMILES O=C(NCCCCNC(=O)c1ccc(-c2c3nc(c(-c4cc(S(=O)(=O)[O-])ccc4F)c4ccc([nH]4)c(-c4cc(S(=O)(=O)[O-])ccc4F)c4nc(c(-c5cc(S(=O)(=O)[O-])ccc5F)c5ccc2[nH]5)C=C4)C=C3)cc1)C1=Cc2cc(Cl)cc(-c3ccc(Cl)cc3)c2O[C@@H]1C(F)(F)F
REMARK SMILES IDX 6 1 5 2 4 3 3 4 1 5 2 6 74 8 75 9 91 10 76 11 90 12 77 13
REMARK SMILES IDX 89 14 78 15 81 16 79 17 80 18 92 19 93 20 94 21 95 22 82 23
REMARK SMILES IDX 83 24 88 25 84 26 87 27 85 28 86 29 7 30 8 31 9 32 10 34
REMARK SMILES IDX 11 35 12 36 73 37 13 38 72 39 14 40 15 41 16 42 66 43 17 44
REMARK SMILES IDX 71 45 65 46 67 47 18 48 70 49 64 50 63 51 19 53 51 54 31 55
REMARK SMILES IDX 50 56 32 57 35 58 49 59 68 60 33 61 34 62 48 64 69 65 36 66
REMARK SMILES IDX 20 67 21 68 29 69 22 70 28 71 30 72 27 73 23 74 24 75 25 76
REMARK SMILES IDX 26 77 52 78 53 79 61 80 54 81 60 82 62 83 59 84 55 85 56 86
REMARK SMILES IDX 57 87 58 88 37 89 38 90 46 91 39 92 45 93 47 94 44 95 40 96
REMARK SMILES IDX 41 97 42 98 43 99
REMARK H PARENT 3 7 8 33 67 52 35 63
REMARK Flexibility Score: inf
ROOT
ATOM      1  C   UNL A   1      31.840  29.365  26.899  1.00  0.00     0.023 C 
ENDROOT
BRANCH   1   2
ATOM      2  C   UNL A   1      31.604  27.947  27.426  1.00  0.00     0.023 C 
BRANCH   2   3
ATOM      3  C   UNL A   1      31.511  26.863  26.352  1.00  0.00     0.116 C 
BRANCH   3   4
ATOM      4  N   UNL A   1      31.410  25.502  26.865  1.00  0.00    -0.352 N 
ATOM      5  O   UNL A   1      32.084  23.398  27.282  1.00  0.00    -0.270 OA
ATOM      6  C   UNL A   1      32.080  24.360  26.515  1.00  0.00     0.251 C 
ATOM      7  H   UNL A   1      30.749  25.384  27.584  1.00  0.00     0.163 HD
BRANCH   6   8
ATOM      8  C   UNL A   1      32.873  24.257  25.261  1.00  0.00     0.067 C 
ATOM      9  C   UNL A   1      34.185  24.538  25.261  1.00  0.00     0.025 C 
ATOM     10  C   UNL A   1      32.337  23.254  24.271  1.00  0.00     0.314 C 
ATOM     11  C   UNL A   1      35.021  23.348  24.990  1.00  0.00     0.019 A 
ATOM     12  O   UNL A   1      33.082  22.012  24.339  1.00  0.00    -0.475 OA
ATOM     13  C   UNL A   1      36.358  23.404  25.392  1.00  0.00     0.032 A 
ATOM     14  C   UNL A   1      34.407  22.107  24.705  1.00  0.00     0.135 A 
ATOM     15  C   UNL A   1      37.057  22.220  25.592  1.00  0.00     0.042 A 
ATOM     16  C   UNL A   1      35.105  20.909  24.937  1.00  0.00     0.026 A 
ATOM     17  Cl  UNL A   1      38.648  22.281  26.239  1.00  0.00    -0.084 Cl
ATOM     18  C   UNL A   1      36.439  20.987  25.383  1.00  0.00     0.033 A 
BRANCH  10  19
ATOM     19  C   UNL A   1      32.300  23.831  22.843  1.00  0.00     0.429 C 
ATOM     20  F   UNL A   1      32.212  22.855  21.908  1.00  0.00    -0.167 F 
ATOM     21  F   UNL A   1      31.230  24.644  22.661  1.00  0.00    -0.167 F 
ATOM     22  F   UNL A   1      33.401  24.565  22.547  1.00  0.00    -0.167 F 
ENDBRANCH  10  19
BRANCH  16  23
ATOM     23  C   UNL A   1      34.455  19.591  24.902  1.00  0.00    -0.015 A 
ATOM     24  C   UNL A   1      33.175  19.420  25.461  1.00  0.00     0.010 A 
ATOM     25  C   UNL A   1      35.122  18.463  24.407  1.00  0.00     0.010 A 
ATOM     26  C   UNL A   1      32.596  18.153  25.568  1.00  0.00     0.021 A 
ATOM     27  C   UNL A   1      34.540  17.195  24.502  1.00  0.00     0.021 A 
ATOM     28  C   UNL A   1      33.288  17.044  25.095  1.00  0.00     0.041 A 
ATOM     29  Cl  UNL A   1      32.601  15.476  25.256  1.00  0.00    -0.084 Cl
ENDBRANCH  16  23
ENDBRANCH   6   8
ENDBRANCH   3   4
ENDBRANCH   2   3
ENDBRANCH   1   2
BRANCH   1  30
ATOM     30  C   UNL A   1      33.285  29.829  26.708  1.00  0.00     0.116 C 
BRANCH  30  31
ATOM     31  N   UNL A   1      33.609  31.144  27.237  1.00  0.00    -0.352 N 
ATOM     32  C   UNL A   1      34.777  31.531  27.871  1.00  0.00     0.251 C 
ATOM     33  H   UNL A   1      32.920  31.839  27.131  1.00  0.00     0.163 HD
ATOM     34  O   UNL A   1      34.930  32.689  28.249  1.00  0.00    -0.269 OA
BRANCH  32  35
ATOM     35  C   UNL A   1      35.813  30.508  28.156  1.00  0.00     0.039 A 
ATOM     36  C   UNL A   1      36.941  30.456  27.335  1.00  0.00     0.014 A 
ATOM     37  C   UNL A   1      35.739  29.717  29.306  1.00  0.00     0.014 A 
ATOM     38  C   UNL A   1      38.058  29.723  27.745  1.00  0.00     0.010 A 
ATOM     39  C   UNL A   1      36.876  29.036  29.744  1.00  0.00     0.010 A 
ATOM     40  C   UNL A   1      38.063  29.077  28.994  1.00  0.00    -0.014 A 
BRANCH  40  41
ATOM     41  C   UNL A   1      39.336  28.575  29.582  1.00  0.00     0.031 A 
ATOM     42  C   UNL A   1      40.022  29.302  30.700  1.00  0.00     0.074 A 
ATOM     43  C   UNL A   1      39.924  27.492  29.029  1.00  0.00     0.049 A 
ATOM     44  N   UNL A   1      41.153  29.021  31.296  1.00  0.00    -0.248 NA
ATOM     45  C   UNL A   1      39.365  30.519  31.191  1.00  0.00     0.031 C 
ATOM     46  C   UNL A   1      39.400  26.739  27.887  1.00  0.00     0.029 A 
ATOM     47  N   UNL A   1      41.098  26.848  29.335  1.00  0.00    -0.354 N 
ATOM     48  C   UNL A   1      41.344  30.022  32.241  1.00  0.00     0.074 A 
ATOM     49  C   UNL A   1      40.241  30.950  32.087  1.00  0.00     0.031 C 
ATOM     50  C   UNL A   1      40.239  25.733  27.597  1.00  0.00     0.029 A 
ATOM     51  C   UNL A   1      41.382  25.789  28.503  1.00  0.00     0.049 A 
ATOM     52  H   UNL A   1      41.682  27.119  30.080  1.00  0.00     0.167 HD
ATOM     53  C   UNL A   1      42.332  30.142  33.164  1.00  0.00     0.034 A 
ATOM     54  C   UNL A   1      42.446  24.963  28.457  1.00  0.00     0.034 A 
ATOM     55  C   UNL A   1      43.434  29.216  33.295  1.00  0.00     0.049 A 
ATOM     56  C   UNL A   1      43.548  25.130  29.466  1.00  0.00     0.074 A 
ATOM     57  C   UNL A   1      44.440  29.200  34.246  1.00  0.00     0.029 A 
ATOM     58  N   UNL A   1      43.692  28.157  32.433  1.00  0.00    -0.354 N 
ATOM     59  N   UNL A   1      43.664  26.028  30.417  1.00  0.00    -0.248 NA
ATOM     60  C   UNL A   1      44.656  24.169  29.405  1.00  0.00     0.031 C 
ATOM     61  C   UNL A   1      45.342  28.179  33.919  1.00  0.00     0.029 A 
ATOM     62  C   UNL A   1      44.864  27.512  32.802  1.00  0.00     0.049 A 
ATOM     63  H   UNL A   1      43.125  27.901  31.669  1.00  0.00     0.167 HD
ATOM     64  C   UNL A   1      44.855  25.731  31.074  1.00  0.00     0.074 A 
ATOM     65  C   UNL A   1      45.408  24.562  30.422  1.00  0.00     0.031 C 
ATOM     66  C   UNL A   1      45.432  26.369  32.125  1.00  0.00     0.034 A 
BRANCH  53  67
ATOM     67  C   UNL A   1      42.270  31.338  34.086  1.00  0.00     0.023 A 
ATOM     68  C   UNL A   1      41.415  31.358  35.204  1.00  0.00     0.031 A 
ATOM     69  C   UNL A   1      43.036  32.487  33.824  1.00  0.00     0.131 A 
ATOM     70  C   UNL A   1      41.278  32.531  35.961  1.00  0.00     0.055 A 
ATOM     71  C   UNL A   1      42.958  33.623  34.634  1.00  0.00     0.041 A 
ATOM     72  F   UNL A   1      43.859  32.534  32.765  1.00  0.00    -0.206 F 
ATOM     73  C   UNL A   1      42.060  33.656  35.697  1.00  0.00     0.022 A 
BRANCH  70  74
ATOM     74  S   UNL A   1      39.944  32.613  37.187  1.00  0.00     0.124 S 
ATOM     75  O   UNL A   1      40.693  32.625  38.441  1.00  0.00    -0.237 OA
ATOM     76  O   UNL A   1      39.270  33.857  36.833  1.00  0.00    -0.237 OA
ATOM     77  O   UNL A   1      39.176  31.394  36.940  1.00  0.00    -0.744 OA
ENDBRANCH  70  74
ENDBRANCH  53  67
BRANCH  54  78
ATOM     78  C   UNL A   1      42.532  23.923  27.394  1.00  0.00     0.023 A 
ATOM     79  C   UNL A   1      42.028  22.630  27.595  1.00  0.00     0.031 A 
ATOM     80  C   UNL A   1      43.132  24.216  26.156  1.00  0.00     0.131 A 
ATOM     81  C   UNL A   1      42.156  21.667  26.581  1.00  0.00     0.055 A 
ATOM     82  C   UNL A   1      43.221  23.267  25.137  1.00  0.00     0.041 A 
ATOM     83  F   UNL A   1      43.620  25.443  25.911  1.00  0.00    -0.206 F 
ATOM     84  C   UNL A   1      42.739  21.980  25.351  1.00  0.00     0.022 A 
BRANCH  81  85
ATOM     85  S   UNL A   1      41.587  19.976  26.911  1.00  0.00     0.124 S 
ATOM     86  O   UNL A   1      42.848  19.251  27.007  1.00  0.00    -0.237 OA
ATOM     87  O   UNL A   1      40.845  20.143  28.156  1.00  0.00    -0.237 OA
ATOM     88  O   UNL A   1      40.771  19.658  25.740  1.00  0.00    -0.744 OA
ENDBRANCH  81  85
ENDBRANCH  54  78
BRANCH  66  89
ATOM     89  C   UNL A   1      46.731  25.798  32.638  1.00  0.00     0.023 A 
ATOM     90  C   UNL A   1      46.754  24.788  33.617  1.00  0.00     0.031 A 
ATOM     91  C   UNL A   1      47.959  26.275  32.150  1.00  0.00     0.131 A 
ATOM     92  C   UNL A   1      47.983  24.320  34.109  1.00  0.00     0.055 A 
ATOM     93  C   UNL A   1      49.178  25.769  32.605  1.00  0.00     0.041 A 
ATOM     94  F   UNL A   1      47.995  27.241  31.218  1.00  0.00    -0.206 F 
ATOM     95  C   UNL A   1      49.194  24.793  33.598  1.00  0.00     0.022 A 
BRANCH  92  96
ATOM     96  S   UNL A   1      47.979  23.131  35.481  1.00  0.00     0.124 S 
ATOM     97  O   UNL A   1      48.051  21.856  34.774  1.00  0.00    -0.237 OA
ATOM     98  O   UNL A   1      49.170  23.514  36.231  1.00  0.00    -0.237 OA
ATOM     99  O   UNL A   1      46.711  23.394  36.158  1.00  0.00    -0.744 OA
ENDBRANCH  92  96
ENDBRANCH  66  89
ENDBRANCH  40  41
ENDBRANCH  32  35
ENDBRANCH  30  31
ENDBRANCH   1  30
TORSDOF 16
ENDMDL
MODEL 3
REMARK VINA RESULT:     -13.7      1.951      7.451
REMARK SMILES O=C(NCCCCNC(=O)c1ccc(-c2c3nc(c(-c4cc(S(=O)(=O)[O-])ccc4F)c4ccc([nH]4)c(-c4cc(S(=O)(=O)[O-])ccc4F)c4nc(c(-c5cc(S(=O)(=O)[O-])ccc5F)c5ccc2[nH]5)C=C4)C=C3)cc1)C1=Cc2cc(Cl)cc(-c3ccc(Cl)cc3)c2O[C@@H]1C(F)(F)F
REMARK SMILES IDX 6 1 5 2 4 3 3 4 1 5 2 6 74 8 75 9 91 10 76 11 90 12 77 13
REMARK SMILES IDX 89 14 78 15 81 16 79 17 80 18 92 19 93 20 94 21 95 22 82 23
REMARK SMILES IDX 83 24 88 25 84 26 87 27 85 28 86 29 7 30 8 31 9 32 10 34
REMARK SMILES IDX 11 35 12 36 73 37 13 38 72 39 14 40 15 41 16 42 66 43 17 44
REMARK SMILES IDX 71 45 65 46 67 47 18 48 70 49 64 50 63 51 19 53 51 54 31 55
REMARK SMILES IDX 50 56 32 57 35 58 49 59 68 60 33 61 34 62 48 64 69 65 36 66
REMARK SMILES IDX 20 67 21 68 29 69 22 70 28 71 30 72 27 73 23 74 24 75 25 76
REMARK SMILES IDX 26 77 52 78 53 79 61 80 54 81 60 82 62 83 59 84 55 85 56 86
REMARK SMILES IDX 57 87 58 88 37 89 38 90 46 91 39 92 45 93 47 94 44 95 40 96
REMARK SMILES IDX 41 97 42 98 43 99
REMARK H PARENT 3 7 8 33 67 52 35 63
REMARK Flexibility Score: inf
ROOT
ATOM      1  C   UNL A   1      31.746  28.815  26.885  1.00  0.00     0.023 C 
ENDROOT
BRANCH   1   2
ATOM      2  C   UNL A   1      32.218  27.374  26.680  1.00  0.00     0.023 C 
BRANCH   2   3
ATOM      3  C   UNL A   1      31.108  26.362  26.395  1.00  0.00     0.116 C 
BRANCH   3   4
ATOM      4  N   UNL A   1      31.288  25.063  27.032  1.00  0.00    -0.352 N 
ATOM      5  O   UNL A   1      32.331  23.135  27.530  1.00  0.00    -0.270 OA
ATOM      6  C   UNL A   1      32.080  23.999  26.691  1.00  0.00     0.251 C 
ATOM      7  H   UNL A   1      30.749  24.927  27.844  1.00  0.00     0.163 HD
BRANCH   6   8
ATOM      8  C   UNL A   1      32.716  23.879  25.352  1.00  0.00     0.067 C 
ATOM      9  C   UNL A   1      34.020  24.152  25.192  1.00  0.00     0.025 C 
ATOM     10  C   UNL A   1      32.060  22.871  24.444  1.00  0.00     0.314 C 
ATOM     11  C   UNL A   1      34.811  22.953  24.835  1.00  0.00     0.019 A 
ATOM     12  O   UNL A   1      32.801  21.625  24.434  1.00  0.00    -0.475 OA
ATOM     13  C   UNL A   1      36.187  23.005  25.073  1.00  0.00     0.032 A 
ATOM     14  C   UNL A   1      34.161  21.714  24.637  1.00  0.00     0.135 A 
ATOM     15  C   UNL A   1      36.898  21.818  25.199  1.00  0.00     0.042 A 
ATOM     16  C   UNL A   1      34.874  20.514  24.796  1.00  0.00     0.026 A 
ATOM     17  Cl  UNL A   1      38.556  21.874  25.650  1.00  0.00    -0.084 Cl
ATOM     18  C   UNL A   1      36.253  20.587  25.078  1.00  0.00     0.033 A 
BRANCH  10  19
ATOM     19  C   UNL A   1      31.854  23.435  23.025  1.00  0.00     0.429 C 
ATOM     20  F   UNL A   1      32.512  24.606  22.849  1.00  0.00    -0.167 F 
ATOM     21  F   UNL A   1      32.315  22.582  22.076  1.00  0.00    -0.167 F 
ATOM     22  F   UNL A   1      30.549  23.667  22.738  1.00  0.00    -0.167 F 
ENDBRANCH  10  19
BRANCH  16  23
ATOM     23  C   UNL A   1      34.217  19.199  24.852  1.00  0.00    -0.015 A 
ATOM     24  C   UNL A   1      33.047  19.027  25.614  1.00  0.00     0.010 A 
ATOM     25  C   UNL A   1      34.784  18.076  24.238  1.00  0.00     0.010 A 
ATOM     26  C   UNL A   1      32.485  17.762  25.800  1.00  0.00     0.021 A 
ATOM     27  C   UNL A   1      34.216  16.809  24.411  1.00  0.00     0.021 A 
ATOM     28  C   UNL A   1      33.080  16.656  25.203  1.00  0.00     0.041 A 
ATOM     29  Cl  UNL A   1      32.417  15.090  25.455  1.00  0.00    -0.084 Cl
ENDBRANCH  16  23
ENDBRANCH   6   8
ENDBRANCH   3   4
ENDBRANCH   2   3
ENDBRANCH   1   2
BRANCH   1  30
ATOM     30  C   UNL A   1      32.634  29.945  26.360  1.00  0.00     0.116 C 
BRANCH  30  31
ATOM     31  N   UNL A   1      32.415  31.256  26.949  1.00  0.00    -0.352 N 
ATOM     32  C   UNL A   1      33.344  32.051  27.599  1.00  0.00     0.251 C 
ATOM     33  H   UNL A   1      31.503  31.621  26.878  1.00  0.00     0.163 HD
ATOM     34  O   UNL A   1      33.029  33.155  28.031  1.00  0.00    -0.269 OA
BRANCH  32  35
ATOM     35  C   UNL A   1      34.708  31.517  27.834  1.00  0.00     0.039 A 
ATOM     36  C   UNL A   1      35.770  32.420  27.921  1.00  0.00     0.014 A 
ATOM     37  C   UNL A   1      34.907  30.162  28.115  1.00  0.00     0.014 A 
ATOM     38  C   UNL A   1      36.998  31.990  28.434  1.00  0.00     0.010 A 
ATOM     39  C   UNL A   1      36.113  29.750  28.683  1.00  0.00     0.010 A 
ATOM     40  C   UNL A   1      37.150  30.672  28.897  1.00  0.00    -0.014 A 
BRANCH  40  41
ATOM     41  C   UNL A   1      38.325  30.293  29.731  1.00  0.00     0.031 A 
ATOM     42  C   UNL A   1      39.305  29.253  29.276  1.00  0.00     0.074 A 
ATOM     43  C   UNL A   1      38.450  30.837  30.962  1.00  0.00     0.049 A 
ATOM     44  N   UNL A   1      40.356  28.781  29.898  1.00  0.00    -0.248 NA
ATOM     45  C   UNL A   1      39.055  28.646  27.964  1.00  0.00     0.031 C 
ATOM     46  C   UNL A   1      37.522  31.803  31.555  1.00  0.00     0.029 A 
ATOM     47  N   UNL A   1      39.392  30.643  31.942  1.00  0.00    -0.354 N 
ATOM     48  C   UNL A   1      40.901  27.823  29.052  1.00  0.00     0.074 A 
ATOM     49  C   UNL A   1      40.021  27.740  27.903  1.00  0.00     0.031 C 
ATOM     50  C   UNL A   1      37.945  32.123  32.787  1.00  0.00     0.029 A 
ATOM     51  C   UNL A   1      39.151  31.360  33.091  1.00  0.00     0.049 A 
ATOM     52  H   UNL A   1      40.169  30.047  31.832  1.00  0.00     0.167 HD
ATOM     53  C   UNL A   1      42.039  27.100  29.208  1.00  0.00     0.034 A 
ATOM     54  C   UNL A   1      39.810  31.393  34.266  1.00  0.00     0.034 A 
ATOM     55  C   UNL A   1      42.899  27.183  30.366  1.00  0.00     0.049 A 
ATOM     56  C   UNL A   1      41.052  30.560  34.434  1.00  0.00     0.074 A 
ATOM     57  C   UNL A   1      44.114  26.557  30.586  1.00  0.00     0.029 A 
ATOM     58  N   UNL A   1      42.621  27.917  31.513  1.00  0.00    -0.354 N 
ATOM     59  N   UNL A   1      41.607  29.730  33.583  1.00  0.00    -0.248 NA
ATOM     60  C   UNL A   1      41.761  30.676  35.714  1.00  0.00     0.031 C 
ATOM     61  C   UNL A   1      44.535  26.855  31.890  1.00  0.00     0.029 A 
ATOM     62  C   UNL A   1      43.617  27.722  32.460  1.00  0.00     0.049 A 
ATOM     63  H   UNL A   1      41.832  28.492  31.637  1.00  0.00     0.167 HD
ATOM     64  C   UNL A   1      42.738  29.232  34.222  1.00  0.00     0.074 A 
ATOM     65  C   UNL A   1      42.794  29.870  35.522  1.00  0.00     0.031 C 
ATOM     66  C   UNL A   1      43.648  28.332  33.770  1.00  0.00     0.034 A 
BRANCH  53  67
ATOM     67  C   UNL A   1      42.399  26.138  28.099  1.00  0.00     0.023 A 
ATOM     68  C   UNL A   1      41.917  24.816  28.090  1.00  0.00     0.031 A 
ATOM     69  C   UNL A   1      43.267  26.527  27.064  1.00  0.00     0.131 A 
ATOM     70  C   UNL A   1      42.376  23.908  27.124  1.00  0.00     0.055 A 
ATOM     71  C   UNL A   1      43.653  25.640  26.056  1.00  0.00     0.041 A 
ATOM     72  F   UNL A   1      43.772  27.770  27.026  1.00  0.00    -0.206 F 
ATOM     73  C   UNL A   1      43.223  24.317  26.093  1.00  0.00     0.022 A 
BRANCH  70  74
ATOM     74  S   UNL A   1      41.979  22.151  27.337  1.00  0.00     0.124 S 
ATOM     75  O   UNL A   1      40.654  22.217  27.950  1.00  0.00    -0.237 OA
ATOM     76  O   UNL A   1      42.026  21.651  25.968  1.00  0.00    -0.237 OA
ATOM     77  O   UNL A   1      43.040  21.665  28.217  1.00  0.00    -0.744 OA
ENDBRANCH  70  74
ENDBRANCH  53  67
BRANCH  54  78
ATOM     78  C   UNL A   1      39.288  32.223  35.388  1.00  0.00     0.023 A 
ATOM     79  C   UNL A   1      38.594  31.646  36.461  1.00  0.00     0.031 A 
ATOM     80  C   UNL A   1      39.476  33.617  35.392  1.00  0.00     0.131 A 
ATOM     81  C   UNL A   1      38.088  32.464  37.484  1.00  0.00     0.055 A 
ATOM     82  C   UNL A   1      39.007  34.420  36.432  1.00  0.00     0.041 A 
ATOM     83  F   UNL A   1      40.144  34.215  34.392  1.00  0.00    -0.206 F 
ATOM     84  C   UNL A   1      38.300  33.844  37.482  1.00  0.00     0.022 A 
BRANCH  81  85
ATOM     85  S   UNL A   1      37.106  31.700  38.804  1.00  0.00     0.124 S 
ATOM     86  O   UNL A   1      35.916  32.541  38.815  1.00  0.00    -0.237 OA
ATOM     87  O   UNL A   1      36.928  30.341  38.303  1.00  0.00    -0.237 OA
ATOM     88  O   UNL A   1      37.967  31.819  39.981  1.00  0.00    -0.744 OA
ENDBRANCH  81  85
ENDBRANCH  54  78
BRANCH  66  89
ATOM     89  C   UNL A   1      44.792  27.997  34.695  1.00  0.00     0.023 A 
ATOM     90  C   UNL A   1      44.733  26.897  35.570  1.00  0.00     0.031 A 
ATOM     91  C   UNL A   1      45.951  28.792  34.710  1.00  0.00     0.131 A 
ATOM     92  C   UNL A   1      45.795  26.649  36.453  1.00  0.00     0.055 A 
ATOM     93  C   UNL A   1      47.026  28.510  35.554  1.00  0.00     0.041 A 
ATOM     94  F   UNL A   1      46.059  29.857  33.899  1.00  0.00    -0.206 F 
ATOM     95  C   UNL A   1      46.947  27.439  36.440  1.00  0.00     0.022 A 
BRANCH  92  96
ATOM     96  S   UNL A   1      45.622  25.318  37.675  1.00  0.00     0.124 S 
ATOM     97  O   UNL A   1      46.164  24.171  36.951  1.00  0.00    -0.237 OA
ATOM     98  O   UNL A   1      46.426  25.807  38.789  1.00  0.00    -0.237 OA
ATOM     99  O   UNL A   1      44.183  25.268  37.926  1.00  0.00    -0.744 OA
ENDBRANCH  92  96
ENDBRANCH  66  89
ENDBRANCH  40  41
ENDBRANCH  32  35
ENDBRANCH  30  31
ENDBRANCH   1  30
TORSDOF 16
ENDMDL
