MODEL 1
REMARK VINA RESULT:     -13.1      0.000      0.000
REMARK SMILES Cc1cccc(C(=O)NCCCCNC(=O)c2ccc(-c3c4nc(c(-c5cc(S(=O)(=O)[O-])ccc5F)c5ccc([nH]5)c(-c5cc(S(=O)(=O)[O-])ccc5F)c5nc(c(-c6cc(S(=O)(=O)[O-])ccc6F)c6ccc3[nH]6)C=C5)C=C4)cc2)c1NC(=O)Cc1ccccc1
REMARK SMILES IDX 11 1 10 2 9 3 7 4 8 5 6 7 1 8 2 9 3 10 80 11 4 12 5 13 81 14
REMARK SMILES IDX 82 15 83 17 84 18 85 19 86 20 90 21 87 22 89 23 88 24 12 25
REMARK SMILES IDX 13 26 14 27 15 28 16 30 17 31 18 32 79 33 19 34 78 35 20 36
REMARK SMILES IDX 21 37 22 38 72 39 23 40 77 41 71 42 73 43 24 44 76 45 70 46
REMARK SMILES IDX 69 47 25 49 57 50 37 51 56 52 38 53 41 54 55 55 74 56 39 57
REMARK SMILES IDX 40 58 54 60 75 61 42 62 26 63 27 64 35 65 28 66 34 67 36 68
REMARK SMILES IDX 33 69 29 70 30 71 31 72 32 73 58 74 59 75 67 76 60 77 66 78
REMARK SMILES IDX 68 79 65 80 61 81 62 82 63 83 64 84 43 85 44 86 52 87 45 88
REMARK SMILES IDX 51 89 53 90 50 91 46 92 47 93 48 94 49 95
REMARK H PARENT 9 6 81 16 14 29 73 48 41 59
REMARK Flexibility Score: inf
ROOT
ATOM      1  C   UNL A   1      32.076  30.294  26.611  1.00  0.00     0.023 C 
ENDROOT
BRANCH   1   2
ATOM      2  C   UNL A   1      32.491  29.702  25.251  1.00  0.00     0.116 C 
BRANCH   2   3
ATOM      3  N   UNL A   1      31.469  29.417  24.236  1.00  0.00    -0.352 N 
ATOM      4  C   UNL A   1      30.611  28.340  24.101  1.00  0.00     0.253 C 
ATOM      5  O   UNL A   1      29.523  28.483  23.547  1.00  0.00    -0.269 OA
ATOM      6  H   UNL A   1      31.380  30.105  23.537  1.00  0.00     0.163 HD
BRANCH   4   7
ATOM      7  C   UNL A   1      30.966  26.993  24.602  1.00  0.00     0.063 A 
ATOM      8  C   UNL A   1      34.182  25.578  25.748  1.00  0.00     0.046 C 
ATOM      9  C   UNL A   1      32.726  25.602  25.371  1.00  0.00    -0.027 A 
ATOM     10  C   UNL A   1      31.826  24.914  26.201  1.00  0.00     0.005 A 
ATOM     11  C   UNL A   1      32.211  26.433  24.364  1.00  0.00     0.056 A 
ATOM     12  C   UNL A   1      30.466  25.197  26.145  1.00  0.00     0.001 A 
ATOM     13  C   UNL A   1      30.050  26.308  25.415  1.00  0.00     0.016 A 
BRANCH  11  14
ATOM     14  N   UNL A   1      32.928  26.563  23.151  1.00  0.00    -0.325 N 
ATOM     15  C   UNL A   1      33.048  25.773  22.034  1.00  0.00     0.228 C 
ATOM     16  H   UNL A   1      33.452  27.395  23.097  1.00  0.00     0.169 HD
ATOM     17  O   UNL A   1      33.777  26.214  21.133  1.00  0.00    -0.274 OA
BRANCH  15  18
ATOM     18  C   UNL A   1      32.485  24.358  21.918  1.00  0.00     0.135 C 
BRANCH  18  19
ATOM     19  C   UNL A   1      33.102  23.295  22.817  1.00  0.00    -0.039 A 
ATOM     20  C   UNL A   1      34.489  23.282  23.029  1.00  0.00     0.004 A 
ATOM     21  C   UNL A   1      32.335  22.370  23.532  1.00  0.00     0.004 A 
ATOM     22  C   UNL A   1      35.080  22.359  23.902  1.00  0.00     0.000 A 
ATOM     23  C   UNL A   1      32.919  21.450  24.406  1.00  0.00     0.000 A 
ATOM     24  C   UNL A   1      34.294  21.441  24.591  1.00  0.00     0.000 A 
ENDBRANCH  18  19
ENDBRANCH  15  18
ENDBRANCH  11  14
ENDBRANCH   4   7
ENDBRANCH   2   3
ENDBRANCH   1   2
BRANCH   1  25
ATOM     25  C   UNL A   1      33.001  31.209  27.411  1.00  0.00     0.023 C 
BRANCH  25  26
ATOM     26  C   UNL A   1      34.355  30.627  27.788  1.00  0.00     0.116 C 
BRANCH  26  27
ATOM     27  N   UNL A   1      35.110  31.435  28.750  1.00  0.00    -0.352 N 
ATOM     28  C   UNL A   1      36.199  31.056  29.512  1.00  0.00     0.251 C 
ATOM     29  H   UNL A   1      34.802  32.362  28.869  1.00  0.00     0.163 HD
ATOM     30  O   UNL A   1      36.749  31.811  30.313  1.00  0.00    -0.269 OA
BRANCH  28  31
ATOM     31  C   UNL A   1      36.812  29.745  29.210  1.00  0.00     0.039 A 
ATOM     32  C   UNL A   1      37.208  28.985  30.315  1.00  0.00     0.014 A 
ATOM     33  C   UNL A   1      37.319  29.487  27.939  1.00  0.00     0.014 A 
ATOM     34  C   UNL A   1      38.324  28.167  30.201  1.00  0.00     0.010 A 
ATOM     35  C   UNL A   1      38.471  28.727  27.842  1.00  0.00     0.010 A 
ATOM     36  C   UNL A   1      39.025  28.158  28.994  1.00  0.00    -0.014 A 
BRANCH  36  37
ATOM     37  C   UNL A   1      40.416  27.723  28.917  1.00  0.00     0.031 A 
ATOM     38  C   UNL A   1      40.735  26.335  28.510  1.00  0.00     0.074 A 
ATOM     39  C   UNL A   1      41.418  28.554  29.297  1.00  0.00     0.049 A 
ATOM     40  N   UNL A   1      41.808  25.708  28.857  1.00  0.00    -0.248 NA
ATOM     41  C   UNL A   1      39.802  25.497  27.762  1.00  0.00     0.031 C 
ATOM     42  C   UNL A   1      42.855  28.314  29.163  1.00  0.00     0.029 A 
ATOM     43  N   UNL A   1      41.382  29.720  30.056  1.00  0.00    -0.354 N 
ATOM     44  C   UNL A   1      41.846  24.516  28.174  1.00  0.00     0.074 A 
ATOM     45  C   UNL A   1      40.519  24.376  27.630  1.00  0.00     0.031 C 
ATOM     46  C   UNL A   1      43.501  29.052  30.079  1.00  0.00     0.029 A 
ATOM     47  C   UNL A   1      42.492  29.685  30.906  1.00  0.00     0.049 A 
ATOM     48  H   UNL A   1      40.705  30.432  30.003  1.00  0.00     0.167 HD
ATOM     49  C   UNL A   1      43.037  23.864  28.051  1.00  0.00     0.034 A 
ATOM     50  C   UNL A   1      42.444  29.622  32.269  1.00  0.00     0.034 A 
ATOM     51  C   UNL A   1      44.034  24.412  28.980  1.00  0.00     0.049 A 
ATOM     52  C   UNL A   1      43.204  28.439  32.844  1.00  0.00     0.074 A 
ATOM     53  C   UNL A   1      45.148  25.217  28.819  1.00  0.00     0.029 A 
ATOM     54  N   UNL A   1      43.799  24.343  30.353  1.00  0.00    -0.354 N 
ATOM     55  N   UNL A   1      43.588  27.405  32.145  1.00  0.00    -0.248 NA
ATOM     56  C   UNL A   1      43.557  28.315  34.255  1.00  0.00     0.031 C 
ATOM     57  C   UNL A   1      45.528  25.701  30.103  1.00  0.00     0.029 A 
ATOM     58  C   UNL A   1      44.677  25.153  31.049  1.00  0.00     0.049 A 
ATOM     59  H   UNL A   1      43.100  23.789  30.772  1.00  0.00     0.167 HD
ATOM     60  C   UNL A   1      44.182  26.481  32.969  1.00  0.00     0.074 A 
ATOM     61  C   UNL A   1      44.173  27.120  34.275  1.00  0.00     0.031 C 
ATOM     62  C   UNL A   1      44.604  25.264  32.505  1.00  0.00     0.034 A 
BRANCH  49  63
ATOM     63  C   UNL A   1      43.395  22.868  26.951  1.00  0.00     0.023 A 
ATOM     64  C   UNL A   1      42.785  21.589  26.964  1.00  0.00     0.031 A 
ATOM     65  C   UNL A   1      44.387  23.031  25.959  1.00  0.00     0.131 A 
ATOM     66  C   UNL A   1      43.181  20.568  26.072  1.00  0.00     0.055 A 
ATOM     67  C   UNL A   1      44.753  22.031  25.049  1.00  0.00     0.041 A 
ATOM     68  F   UNL A   1      45.105  24.148  25.821  1.00  0.00    -0.206 F 
ATOM     69  C   UNL A   1      44.159  20.787  25.107  1.00  0.00     0.022 A 
BRANCH  66  70
ATOM     70  S   UNL A   1      42.458  18.910  26.222  1.00  0.00     0.124 S 
ATOM     71  O   UNL A   1      42.600  18.640  27.649  1.00  0.00    -0.237 OA
ATOM     72  O   UNL A   1      41.102  19.118  25.731  1.00  0.00    -0.237 OA
ATOM     73  O   UNL A   1      43.306  18.089  25.357  1.00  0.00    -0.744 OA
ENDBRANCH  66  70
ENDBRANCH  49  63
BRANCH  50  74
ATOM     74  C   UNL A   1      41.238  30.232  32.885  1.00  0.00     0.023 A 
ATOM     75  C   UNL A   1      41.147  31.637  32.868  1.00  0.00     0.031 A 
ATOM     76  C   UNL A   1      40.072  29.498  33.136  1.00  0.00     0.131 A 
ATOM     77  C   UNL A   1      39.897  32.262  32.934  1.00  0.00     0.055 A 
ATOM     78  C   UNL A   1      38.828  30.131  33.249  1.00  0.00     0.041 A 
ATOM     79  F   UNL A   1      40.096  28.157  33.144  1.00  0.00    -0.206 F 
ATOM     80  C   UNL A   1      38.730  31.514  33.100  1.00  0.00     0.022 A 
BRANCH  77  81
ATOM     81  S   UNL A   1      39.765  34.033  32.558  1.00  0.00     0.124 S 
ATOM     82  O   UNL A   1      39.686  34.039  31.102  1.00  0.00    -0.237 OA
ATOM     83  O   UNL A   1      38.544  34.429  33.255  1.00  0.00    -0.237 OA
ATOM     84  O   UNL A   1      40.995  34.575  33.132  1.00  0.00    -0.744 OA
ENDBRANCH  77  81
ENDBRANCH  50  74
BRANCH  62  85
ATOM     85  C   UNL A   1      45.062  24.097  33.368  1.00  0.00     0.023 A 
ATOM     86  C   UNL A   1      46.333  24.014  33.960  1.00  0.00     0.031 A 
ATOM     87  C   UNL A   1      44.182  23.031  33.682  1.00  0.00     0.131 A 
ATOM     88  C   UNL A   1      46.722  22.893  34.719  1.00  0.00     0.055 A 
ATOM     89  C   UNL A   1      44.542  21.956  34.505  1.00  0.00     0.041 A 
ATOM     90  F   UNL A   1      42.926  22.990  33.214  1.00  0.00    -0.206 F 
ATOM     91  C   UNL A   1      45.828  21.869  35.013  1.00  0.00     0.022 A 
BRANCH  88  92
ATOM     92  S   UNL A   1      48.453  22.775  35.249  1.00  0.00     0.124 S 
ATOM     93  O   UNL A   1      48.813  21.431  34.805  1.00  0.00    -0.237 OA
ATOM     94  O   UNL A   1      49.079  23.871  34.518  1.00  0.00    -0.237 OA
ATOM     95  O   UNL A   1      48.385  22.952  36.698  1.00  0.00    -0.744 OA
ENDBRANCH  88  92
ENDBRANCH  62  85
ENDBRANCH  36  37
ENDBRANCH  28  31
ENDBRANCH  26  27
ENDBRANCH  25  26
ENDBRANCH   1  25
TORSDOF 17
ENDMDL
MODEL 2
REMARK VINA RESULT:     -12.9      0.859      1.786
REMARK SMILES Cc1cccc(C(=O)NCCCCNC(=O)c2ccc(-c3c4nc(c(-c5cc(S(=O)(=O)[O-])ccc5F)c5ccc([nH]5)c(-c5cc(S(=O)(=O)[O-])ccc5F)c5nc(c(-c6cc(S(=O)(=O)[O-])ccc6F)c6ccc3[nH]6)C=C5)C=C4)cc2)c1NC(=O)Cc1ccccc1
REMARK SMILES IDX 11 1 10 2 9 3 7 4 8 5 6 7 1 8 2 9 3 10 80 11 4 12 5 13 81 14
REMARK SMILES IDX 82 15 83 17 84 18 85 19 86 20 90 21 87 22 89 23 88 24 12 25
REMARK SMILES IDX 13 26 14 27 15 28 16 30 17 31 18 32 79 33 19 34 78 35 20 36
REMARK SMILES IDX 21 37 22 38 72 39 23 40 77 41 71 42 73 43 24 44 76 45 70 46
REMARK SMILES IDX 69 47 25 49 57 50 37 51 56 52 38 53 41 54 55 55 74 56 39 57
REMARK SMILES IDX 40 58 54 60 75 61 42 62 26 63 27 64 35 65 28 66 34 67 36 68
REMARK SMILES IDX 33 69 29 70 30 71 31 72 32 73 58 74 59 75 67 76 60 77 66 78
REMARK SMILES IDX 68 79 65 80 61 81 62 82 63 83 64 84 43 85 44 86 52 87 45 88
REMARK SMILES IDX 51 89 53 90 50 91 46 92 47 93 48 94 49 95
REMARK H PARENT 9 6 81 16 14 29 73 48 41 59
REMARK Flexibility Score: inf
ROOT
ATOM      1  C   UNL A   1      32.359  29.962  26.543  1.00  0.00     0.023 C 
ENDROOT
BRANCH   1   2
ATOM      2  C   UNL A   1      32.814  29.592  25.119  1.00  0.00     0.116 C 
BRANCH   2   3
ATOM      3  N   UNL A   1      31.880  29.734  23.994  1.00  0.00    -0.352 N 
ATOM      4  C   UNL A   1      31.261  28.775  23.212  1.00  0.00     0.253 C 
ATOM      5  O   UNL A   1      30.172  29.010  22.694  1.00  0.00    -0.269 OA
ATOM      6  H   UNL A   1      31.659  30.665  23.758  1.00  0.00     0.163 HD
BRANCH   4   7
ATOM      7  C   UNL A   1      31.880  27.453  22.965  1.00  0.00     0.063 A 
ATOM      8  C   UNL A   1      30.506  24.029  23.192  1.00  0.00     0.046 C 
ATOM      9  C   UNL A   1      31.538  25.107  22.996  1.00  0.00    -0.027 A 
ATOM     10  C   UNL A   1      32.445  24.955  21.934  1.00  0.00     0.005 A 
ATOM     11  C   UNL A   1      31.506  26.329  23.685  1.00  0.00     0.056 A 
ATOM     12  C   UNL A   1      33.156  26.051  21.461  1.00  0.00     0.001 A 
ATOM     13  C   UNL A   1      32.799  27.319  21.913  1.00  0.00     0.016 A 
BRANCH  11  14
ATOM     14  N   UNL A   1      31.204  26.328  25.067  1.00  0.00    -0.325 N 
ATOM     15  C   UNL A   1      31.972  26.244  26.203  1.00  0.00     0.228 C 
ATOM     16  H   UNL A   1      30.240  26.404  25.253  1.00  0.00     0.169 HD
ATOM     17  O   UNL A   1      31.355  26.282  27.278  1.00  0.00    -0.274 OA
BRANCH  15  18
ATOM     18  C   UNL A   1      33.470  25.950  26.207  1.00  0.00     0.135 C 
BRANCH  18  19
ATOM     19  C   UNL A   1      33.920  24.654  25.545  1.00  0.00    -0.039 A 
ATOM     20  C   UNL A   1      33.251  23.455  25.836  1.00  0.00     0.004 A 
ATOM     21  C   UNL A   1      34.924  24.609  24.572  1.00  0.00     0.004 A 
ATOM     22  C   UNL A   1      33.597  22.258  25.195  1.00  0.00     0.000 A 
ATOM     23  C   UNL A   1      35.270  23.420  23.928  1.00  0.00     0.000 A 
ATOM     24  C   UNL A   1      34.608  22.240  24.240  1.00  0.00     0.000 A 
ENDBRANCH  18  19
ENDBRANCH  15  18
ENDBRANCH  11  14
ENDBRANCH   4   7
ENDBRANCH   2   3
ENDBRANCH   1   2
BRANCH   1  25
ATOM     25  C   UNL A   1      33.169  30.902  27.433  1.00  0.00     0.023 C 
BRANCH  25  26
ATOM     26  C   UNL A   1      34.673  30.665  27.461  1.00  0.00     0.116 C 
BRANCH  26  27
ATOM     27  N   UNL A   1      35.387  31.457  28.466  1.00  0.00    -0.352 N 
ATOM     28  C   UNL A   1      36.443  31.065  29.267  1.00  0.00     0.251 C 
ATOM     29  H   UNL A   1      35.075  32.383  28.586  1.00  0.00     0.163 HD
ATOM     30  O   UNL A   1      36.960  31.807  30.101  1.00  0.00    -0.269 OA
BRANCH  28  31
ATOM     31  C   UNL A   1      37.067  29.757  28.971  1.00  0.00     0.039 A 
ATOM     32  C   UNL A   1      37.404  28.975  30.080  1.00  0.00     0.014 A 
ATOM     33  C   UNL A   1      37.637  29.522  27.723  1.00  0.00     0.014 A 
ATOM     34  C   UNL A   1      38.522  28.155  30.007  1.00  0.00     0.010 A 
ATOM     35  C   UNL A   1      38.790  28.760  27.670  1.00  0.00     0.010 A 
ATOM     36  C   UNL A   1      39.284  28.167  28.837  1.00  0.00    -0.014 A 
BRANCH  36  37
ATOM     37  C   UNL A   1      40.676  27.728  28.822  1.00  0.00     0.031 A 
ATOM     38  C   UNL A   1      41.010  26.343  28.419  1.00  0.00     0.074 A 
ATOM     39  C   UNL A   1      41.660  28.553  29.256  1.00  0.00     0.049 A 
ATOM     40  N   UNL A   1      42.063  25.709  28.811  1.00  0.00    -0.248 NA
ATOM     41  C   UNL A   1      40.111  25.513  27.621  1.00  0.00     0.031 C 
ATOM     42  C   UNL A   1      43.102  28.309  29.188  1.00  0.00     0.029 A 
ATOM     43  N   UNL A   1      41.592  29.712  30.022  1.00  0.00    -0.354 N 
ATOM     44  C   UNL A   1      42.130  24.523  28.121  1.00  0.00     0.074 A 
ATOM     45  C   UNL A   1      40.831  24.391  27.514  1.00  0.00     0.031 C 
ATOM     46  C   UNL A   1      43.706  29.038  30.140  1.00  0.00     0.029 A 
ATOM     47  C   UNL A   1      42.660  29.667  30.924  1.00  0.00     0.049 A 
ATOM     48  H   UNL A   1      40.921  30.427  29.944  1.00  0.00     0.167 HD
ATOM     49  C   UNL A   1      43.324  23.868  28.050  1.00  0.00     0.034 A 
ATOM     50  C   UNL A   1      42.547  29.593  32.282  1.00  0.00     0.034 A 
ATOM     51  C   UNL A   1      44.277  24.405  29.029  1.00  0.00     0.049 A 
ATOM     52  C   UNL A   1      43.276  28.403  32.883  1.00  0.00     0.074 A 
ATOM     53  C   UNL A   1      45.400  25.208  28.928  1.00  0.00     0.029 A 
ATOM     54  N   UNL A   1      43.977  24.326  30.389  1.00  0.00    -0.354 N 
ATOM     55  N   UNL A   1      43.690  27.374  32.195  1.00  0.00    -0.248 NA
ATOM     56  C   UNL A   1      43.561  28.266  34.309  1.00  0.00     0.031 C 
ATOM     57  C   UNL A   1      45.720  25.680  30.232  1.00  0.00     0.029 A 
ATOM     58  C   UNL A   1      44.823  25.127  31.132  1.00  0.00     0.049 A 
ATOM     59  H   UNL A   1      43.258  23.771  30.769  1.00  0.00     0.167 HD
ATOM     60  C   UNL A   1      44.242  26.441  33.038  1.00  0.00     0.074 A 
ATOM     61  C   UNL A   1      44.172  27.069  34.347  1.00  0.00     0.031 C 
ATOM     62  C   UNL A   1      44.682  25.226  32.584  1.00  0.00     0.034 A 
BRANCH  49  63
ATOM     63  C   UNL A   1      43.731  22.880  26.959  1.00  0.00     0.023 A 
ATOM     64  C   UNL A   1      43.037  21.649  26.861  1.00  0.00     0.031 A 
ATOM     65  C   UNL A   1      44.835  22.999  26.086  1.00  0.00     0.131 A 
ATOM     66  C   UNL A   1      43.457  20.627  25.980  1.00  0.00     0.055 A 
ATOM     67  C   UNL A   1      45.228  22.001  25.185  1.00  0.00     0.041 A 
ATOM     68  F   UNL A   1      45.638  24.064  26.066  1.00  0.00    -0.206 F 
ATOM     69  C   UNL A   1      44.547  20.802  25.135  1.00  0.00     0.022 A 
BRANCH  66  70
ATOM     70  S   UNL A   1      42.610  19.022  25.994  1.00  0.00     0.124 S 
ATOM     71  O   UNL A   1      41.302  19.359  25.442  1.00  0.00    -0.237 OA
ATOM     72  O   UNL A   1      43.480  18.206  25.156  1.00  0.00    -0.237 OA
ATOM     73  O   UNL A   1      42.601  18.654  27.410  1.00  0.00    -0.744 OA
ENDBRANCH  66  70
ENDBRANCH  49  63
BRANCH  50  74
ATOM     74  C   UNL A   1      41.315  30.201  32.846  1.00  0.00     0.023 A 
ATOM     75  C   UNL A   1      41.229  31.607  32.838  1.00  0.00     0.031 A 
ATOM     76  C   UNL A   1      40.136  29.469  33.034  1.00  0.00     0.131 A 
ATOM     77  C   UNL A   1      39.980  32.236  32.849  1.00  0.00     0.055 A 
ATOM     78  C   UNL A   1      38.890  30.106  33.093  1.00  0.00     0.041 A 
ATOM     79  F   UNL A   1      40.155  28.128  33.031  1.00  0.00    -0.206 F 
ATOM     80  C   UNL A   1      38.804  31.491  32.952  1.00  0.00     0.022 A 
BRANCH  77  81
ATOM     81  S   UNL A   1      39.872  34.011  32.484  1.00  0.00     0.124 S 
ATOM     82  O   UNL A   1      38.710  34.421  33.264  1.00  0.00    -0.237 OA
ATOM     83  O   UNL A   1      41.156  34.524  32.953  1.00  0.00    -0.237 OA
ATOM     84  O   UNL A   1      39.705  34.029  31.032  1.00  0.00    -0.744 OA
ENDBRANCH  77  81
ENDBRANCH  50  74
BRANCH  62  85
ATOM     85  C   UNL A   1      45.095  24.051  33.458  1.00  0.00     0.023 A 
ATOM     86  C   UNL A   1      46.369  23.915  34.034  1.00  0.00     0.031 A 
ATOM     87  C   UNL A   1      44.170  23.033  33.800  1.00  0.00     0.131 A 
ATOM     88  C   UNL A   1      46.714  22.787  34.804  1.00  0.00     0.055 A 
ATOM     89  C   UNL A   1      44.489  21.954  34.633  1.00  0.00     0.041 A 
ATOM     90  F   UNL A   1      42.907  23.046  33.349  1.00  0.00    -0.206 F 
ATOM     91  C   UNL A   1      45.776  21.812  35.125  1.00  0.00     0.022 A 
BRANCH  88  92
ATOM     92  S   UNL A   1      48.445  22.593  35.312  1.00  0.00     0.124 S 
ATOM     93  O   UNL A   1      48.802  21.324  34.686  1.00  0.00    -0.237 OA
ATOM     94  O   UNL A   1      49.074  23.779  34.742  1.00  0.00    -0.237 OA
ATOM     95  O   UNL A   1      48.376  22.566  36.772  1.00  0.00    -0.744 OA
ENDBRANCH  88  92
ENDBRANCH  62  85
ENDBRANCH  36  37
ENDBRANCH  28  31
ENDBRANCH  26  27
ENDBRANCH  25  26
ENDBRANCH   1  25
TORSDOF 17
ENDMDL
MODEL 3
REMARK VINA RESULT:     -12.8      4.234     10.613
REMARK SMILES Cc1cccc(C(=O)NCCCCNC(=O)c2ccc(-c3c4nc(c(-c5cc(S(=O)(=O)[O-])ccc5F)c5ccc([nH]5)c(-c5cc(S(=O)(=O)[O-])ccc5F)c5nc(c(-c6cc(S(=O)(=O)[O-])ccc6F)c6ccc3[nH]6)C=C5)C=C4)cc2)c1NC(=O)Cc1ccccc1
REMARK SMILES IDX 11 1 10 2 9 3 7 4 8 5 6 7 1 8 2 9 3 10 80 11 4 12 5 13 81 14
REMARK SMILES IDX 82 15 83 17 84 18 85 19 86 20 90 21 87 22 89 23 88 24 12 25
REMARK SMILES IDX 13 26 14 27 15 28 16 30 17 31 18 32 79 33 19 34 78 35 20 36
REMARK SMILES IDX 21 37 22 38 72 39 23 40 77 41 71 42 73 43 24 44 76 45 70 46
REMARK SMILES IDX 69 47 25 49 57 50 37 51 56 52 38 53 41 54 55 55 74 56 39 57
REMARK SMILES IDX 40 58 54 60 75 61 42 62 26 63 27 64 35 65 28 66 34 67 36 68
REMARK SMILES IDX 33 69 29 70 30 71 31 72 32 73 58 74 59 75 67 76 60 77 66 78
REMARK SMILES IDX 68 79 65 80 61 81 62 82 63 83 64 84 43 85 44 86 52 87 45 88
REMARK SMILES IDX 51 89 53 90 50 91 46 92 47 93 48 94 49 95
REMARK H PARENT 9 6 81 16 14 29 73 48 41 59
REMARK Flexibility Score: inf
ROOT
ATOM      1  C   UNL A   1      38.506  21.430  25.668  1.00  0.00     0.023 C 
ENDROOT
BRANCH   1   2
ATOM      2  C   UNL A   1      37.367  21.264  24.645  1.00  0.00     0.116 C 
BRANCH   2   3
ATOM      3  N   UNL A   1      36.377  20.193  24.819  1.00  0.00    -0.352 N 
ATOM      4  C   UNL A   1      35.008  20.255  25.006  1.00  0.00     0.253 C 
ATOM      5  O   UNL A   1      34.291  19.332  24.628  1.00  0.00    -0.269 OA
ATOM      6  H   UNL A   1      36.750  19.282  24.799  1.00  0.00     0.163 HD
BRANCH   4   7
ATOM      7  C   UNL A   1      34.363  21.413  25.666  1.00  0.00     0.063 A 
ATOM      8  C   UNL A   1      30.908  22.714  25.496  1.00  0.00     0.046 C 
ATOM      9  C   UNL A   1      32.361  22.665  25.882  1.00  0.00    -0.027 A 
ATOM     10  C   UNL A   1      32.693  22.977  27.211  1.00  0.00     0.005 A 
ATOM     11  C   UNL A   1      33.357  22.136  25.046  1.00  0.00     0.056 A 
ATOM     12  C   UNL A   1      33.923  22.594  27.732  1.00  0.00     0.001 A 
ATOM     13  C   UNL A   1      34.717  21.725  26.988  1.00  0.00     0.016 A 
BRANCH  11  14
ATOM     14  N   UNL A   1      33.332  22.453  23.668  1.00  0.00    -0.325 N 
ATOM     15  C   UNL A   1      33.773  23.529  22.937  1.00  0.00     0.228 C 
ATOM     16  H   UNL A   1      32.909  21.754  23.116  1.00  0.00     0.169 HD
ATOM     17  O   UNL A   1      33.587  23.465  21.712  1.00  0.00    -0.274 OA
BRANCH  15  18
ATOM     18  C   UNL A   1      34.309  24.821  23.548  1.00  0.00     0.135 C 
BRANCH  18  19
ATOM     19  C   UNL A   1      33.344  25.631  24.402  1.00  0.00    -0.039 A 
ATOM     20  C   UNL A   1      33.778  26.169  25.624  1.00  0.00     0.004 A 
ATOM     21  C   UNL A   1      32.049  25.955  23.984  1.00  0.00     0.004 A 
ATOM     22  C   UNL A   1      32.936  26.974  26.402  1.00  0.00     0.000 A 
ATOM     23  C   UNL A   1      31.206  26.760  24.754  1.00  0.00     0.000 A 
ATOM     24  C   UNL A   1      31.648  27.269  25.967  1.00  0.00     0.000 A 
ENDBRANCH  18  19
ENDBRANCH  15  18
ENDBRANCH  11  14
ENDBRANCH   4   7
ENDBRANCH   2   3
ENDBRANCH   1   2
BRANCH   1  25
ATOM     25  C   UNL A   1      38.849  22.783  26.286  1.00  0.00     0.023 C 
BRANCH  25  26
ATOM     26  C   UNL A   1      39.947  22.778  27.339  1.00  0.00     0.116 C 
BRANCH  26  27
ATOM     27  N   UNL A   1      41.244  23.264  26.858  1.00  0.00    -0.352 N 
ATOM     28  C   UNL A   1      41.597  24.557  26.521  1.00  0.00     0.251 C 
ATOM     29  H   UNL A   1      41.950  22.586  26.762  1.00  0.00     0.163 HD
ATOM     30  O   UNL A   1      42.714  24.857  26.103  1.00  0.00    -0.269 OA
BRANCH  28  31
ATOM     31  C   UNL A   1      40.631  25.629  26.846  1.00  0.00     0.039 A 
ATOM     32  C   UNL A   1      40.847  26.859  26.216  1.00  0.00     0.014 A 
ATOM     33  C   UNL A   1      39.837  25.531  27.986  1.00  0.00     0.014 A 
ATOM     34  C   UNL A   1      40.513  28.025  26.891  1.00  0.00     0.010 A 
ATOM     35  C   UNL A   1      39.567  26.691  28.689  1.00  0.00     0.010 A 
ATOM     36  C   UNL A   1      40.001  27.924  28.187  1.00  0.00    -0.014 A 
BRANCH  36  37
ATOM     37  C   UNL A   1      40.057  29.041  29.125  1.00  0.00     0.031 A 
ATOM     38  C   UNL A   1      39.002  30.079  29.101  1.00  0.00     0.074 A 
ATOM     39  C   UNL A   1      41.115  29.181  29.962  1.00  0.00     0.049 A 
ATOM     40  N   UNL A   1      39.175  31.295  29.496  1.00  0.00    -0.248 NA
ATOM     41  C   UNL A   1      37.683  29.853  28.517  1.00  0.00     0.031 C 
ATOM     42  C   UNL A   1      41.258  30.166  31.035  1.00  0.00     0.029 A 
ATOM     43  N   UNL A   1      42.377  28.598  29.925  1.00  0.00    -0.354 N 
ATOM     44  C   UNL A   1      37.955  31.926  29.483  1.00  0.00     0.074 A 
ATOM     45  C   UNL A   1      37.103  31.038  28.735  1.00  0.00     0.031 C 
ATOM     46  C   UNL A   1      42.566  30.353  31.274  1.00  0.00     0.029 A 
ATOM     47  C   UNL A   1      43.295  29.591  30.278  1.00  0.00     0.049 A 
ATOM     48  H   UNL A   1      42.583  27.663  29.695  1.00  0.00     0.167 HD
ATOM     49  C   UNL A   1      37.792  33.063  30.218  1.00  0.00     0.034 A 
ATOM     50  C   UNL A   1      44.267  30.097  29.464  1.00  0.00     0.034 A 
ATOM     51  C   UNL A   1      39.090  33.601  30.648  1.00  0.00     0.049 A 
ATOM     52  C   UNL A   1      44.192  31.605  29.301  1.00  0.00     0.074 A 
ATOM     53  C   UNL A   1      39.755  33.634  31.861  1.00  0.00     0.029 A 
ATOM     54  N   UNL A   1      40.016  34.002  29.685  1.00  0.00    -0.354 N 
ATOM     55  N   UNL A   1      43.149  32.325  29.612  1.00  0.00    -0.248 NA
ATOM     56  C   UNL A   1      45.273  32.411  28.740  1.00  0.00     0.031 C 
ATOM     57  C   UNL A   1      41.114  33.976  31.606  1.00  0.00     0.029 A 
ATOM     58  C   UNL A   1      41.264  34.197  30.247  1.00  0.00     0.049 A 
ATOM     59  H   UNL A   1      39.807  34.130  28.731  1.00  0.00     0.167 HD
ATOM     60  C   UNL A   1      43.372  33.638  29.278  1.00  0.00     0.074 A 
ATOM     61  C   UNL A   1      44.735  33.643  28.772  1.00  0.00     0.031 C 
ATOM     62  C   UNL A   1      42.404  34.596  29.424  1.00  0.00     0.034 A 
BRANCH  49  63
ATOM     63  C   UNL A   1      36.463  33.596  30.747  1.00  0.00     0.023 A 
ATOM     64  C   UNL A   1      35.551  34.180  29.834  1.00  0.00     0.031 A 
ATOM     65  C   UNL A   1      36.074  33.691  32.102  1.00  0.00     0.131 A 
ATOM     66  C   UNL A   1      34.374  34.829  30.271  1.00  0.00     0.055 A 
ATOM     67  C   UNL A   1      34.888  34.301  32.532  1.00  0.00     0.041 A 
ATOM     68  F   UNL A   1      36.825  33.243  33.110  1.00  0.00    -0.206 F 
ATOM     69  C   UNL A   1      34.035  34.885  31.618  1.00  0.00     0.022 A 
BRANCH  66  70
ATOM     70  S   UNL A   1      33.312  35.674  29.066  1.00  0.00     0.124 S 
ATOM     71  O   UNL A   1      32.529  36.565  29.916  1.00  0.00    -0.237 OA
ATOM     72  O   UNL A   1      34.285  36.304  28.183  1.00  0.00    -0.237 OA
ATOM     73  O   UNL A   1      32.550  34.581  28.460  1.00  0.00    -0.744 OA
ENDBRANCH  66  70
ENDBRANCH  49  63
BRANCH  50  74
ATOM     74  C   UNL A   1      44.771  29.159  28.428  1.00  0.00     0.023 A 
ATOM     75  C   UNL A   1      45.652  28.145  28.851  1.00  0.00     0.031 A 
ATOM     76  C   UNL A   1      44.150  29.015  27.181  1.00  0.00     0.131 A 
ATOM     77  C   UNL A   1      45.765  26.959  28.118  1.00  0.00     0.055 A 
ATOM     78  C   UNL A   1      44.303  27.846  26.426  1.00  0.00     0.041 A 
ATOM     79  F   UNL A   1      43.287  29.940  26.736  1.00  0.00    -0.206 F 
ATOM     80  C   UNL A   1      45.074  26.792  26.916  1.00  0.00     0.022 A 
BRANCH  77  81
ATOM     81  S   UNL A   1      46.620  25.535  28.850  1.00  0.00     0.124 S 
ATOM     82  O   UNL A   1      46.392  25.733  30.277  1.00  0.00    -0.237 OA
ATOM     83  O   UNL A   1      45.931  24.393  28.255  1.00  0.00    -0.237 OA
ATOM     84  O   UNL A   1      47.996  25.719  28.393  1.00  0.00    -0.744 OA
ENDBRANCH  77  81
ENDBRANCH  50  74
BRANCH  62  85
ATOM     85  C   UNL A   1      42.474  36.015  28.878  1.00  0.00     0.023 A 
ATOM     86  C   UNL A   1      43.116  37.075  29.539  1.00  0.00     0.031 A 
ATOM     87  C   UNL A   1      41.933  36.338  27.609  1.00  0.00     0.131 A 
ATOM     88  C   UNL A   1      43.118  38.381  29.010  1.00  0.00     0.055 A 
ATOM     89  C   UNL A   1      42.008  37.618  27.045  1.00  0.00     0.041 A 
ATOM     90  F   UNL A   1      41.317  35.420  26.849  1.00  0.00    -0.206 F 
ATOM     91  C   UNL A   1      42.584  38.658  27.756  1.00  0.00     0.022 A 
BRANCH  88  92
ATOM     92  S   UNL A   1      43.773  39.723  30.041  1.00  0.00     0.124 S 
ATOM     93  O   UNL A   1      45.104  39.916  29.473  1.00  0.00    -0.237 OA
ATOM     94  O   UNL A   1      42.819  40.799  29.797  1.00  0.00    -0.237 OA
ATOM     95  O   UNL A   1      43.750  39.164  31.391  1.00  0.00    -0.744 OA
ENDBRANCH  88  92
ENDBRANCH  62  85
ENDBRANCH  36  37
ENDBRANCH  28  31
ENDBRANCH  26  27
ENDBRANCH  25  26
ENDBRANCH   1  25
TORSDOF 17
ENDMDL
