MODEL 1
REMARK VINA RESULT:     -13.6      0.000      0.000
REMARK SMILES Cc1ccc2c(=O)c3cccc(CC(=O)NCCCCNC(=O)c4ccc(-c5c6nc(c(-c7cc(S(=O)(=O)[O-])ccc7F)c7ccc([nH]7)c(-c7cc(S(=O)(=O)[O-])ccc7F)c7nc(c(-c8cc(S(=O)(=O)[O-])ccc8F)c8ccc5[nH]8)C=C7)C=C6)cc4)c3oc2c1C
REMARK SMILES IDX 19 1 18 2 17 3 16 4 14 5 15 6 13 8 12 9 1 10 2 11 3 12 90 13
REMARK SMILES IDX 4 14 89 15 91 16 5 17 88 18 6 19 87 20 7 21 8 22 9 23 11 24
REMARK SMILES IDX 10 25 20 26 21 27 22 28 23 30 24 31 25 32 86 33 26 34 85 35
REMARK SMILES IDX 27 36 28 37 29 38 79 39 30 40 84 41 78 42 80 43 31 44 83 45
REMARK SMILES IDX 77 46 76 47 32 49 64 50 44 51 63 52 45 53 48 54 62 55 81 56
REMARK SMILES IDX 46 57 47 58 61 60 82 61 49 62 33 63 34 64 42 65 35 66 41 67
REMARK SMILES IDX 43 68 40 69 36 70 37 71 38 72 39 73 65 74 66 75 74 76 67 77
REMARK SMILES IDX 73 78 75 79 72 80 68 81 69 82 70 83 71 84 50 85 51 86 59 87
REMARK SMILES IDX 52 88 58 89 60 90 57 91 53 92 54 93 55 94 56 95
REMARK H PARENT 16 7 21 29 80 48 48 59
REMARK Flexibility Score: inf
ROOT
ATOM      1  C   UNL A   1      35.457  21.868  25.857  1.00  0.00     0.023 C 
ENDROOT
BRANCH   1   2
ATOM      2  C   UNL A   1      34.638  20.655  25.411  1.00  0.00     0.023 C 
BRANCH   2   3
ATOM      3  C   UNL A   1      33.236  20.567  26.014  1.00  0.00     0.116 C 
BRANCH   3   4
ATOM      4  N   UNL A   1      32.943  21.678  26.899  1.00  0.00    -0.356 N 
ATOM      5  C   UNL A   1      32.030  22.683  26.753  1.00  0.00     0.224 C 
ATOM      6  O   UNL A   1      31.909  23.500  27.669  1.00  0.00    -0.275 OA
ATOM      7  H   UNL A   1      33.479  21.711  27.724  1.00  0.00     0.163 HD
BRANCH   5   8
ATOM      8  C   UNL A   1      31.131  22.738  25.529  1.00  0.00     0.139 C 
BRANCH   8   9
ATOM      9  C   UNL A   1      31.816  23.130  24.238  1.00  0.00     0.005 A 
ATOM     10  C   UNL A   1      32.010  30.066  26.562  1.00  0.00     0.045 C 
ATOM     11  C   UNL A   1      32.321  29.003  25.542  1.00  0.00    -0.044 A 
ATOM     12  C   UNL A   1      33.010  29.390  24.378  1.00  0.00     0.005 A 
ATOM     13  C   UNL A   1      31.998  27.640  25.735  1.00  0.00    -0.005 A 
ATOM     14  C   UNL A   1      33.347  28.457  23.401  1.00  0.00     0.016 A 
ATOM     15  C   UNL A   1      32.329  26.705  24.729  1.00  0.00     0.141 A 
ATOM     16  C   UNL A   1      31.323  27.141  26.989  1.00  0.00     0.049 C 
ATOM     17  C   UNL A   1      32.996  27.121  23.579  1.00  0.00     0.066 A 
ATOM     18  O   UNL A   1      31.963  25.394  24.948  1.00  0.00    -0.455 OA
ATOM     19  C   UNL A   1      33.323  26.130  22.547  1.00  0.00     0.200 A 
ATOM     20  C   UNL A   1      32.234  24.449  23.987  1.00  0.00     0.142 A 
ATOM     21  O   UNL A   1      33.906  26.440  21.516  1.00  0.00    -0.288 OA
ATOM     22  C   UNL A   1      32.898  24.747  22.796  1.00  0.00     0.066 A 
ATOM     23  C   UNL A   1      33.150  23.753  21.844  1.00  0.00     0.016 A 
ATOM     24  C   UNL A   1      32.038  22.147  23.255  1.00  0.00     0.008 A 
ATOM     25  C   UNL A   1      32.713  22.453  22.073  1.00  0.00     0.001 A 
ENDBRANCH   8   9
ENDBRANCH   5   8
ENDBRANCH   3   4
ENDBRANCH   2   3
ENDBRANCH   1   2
BRANCH   1  26
ATOM     26  C   UNL A   1      36.764  22.086  25.105  1.00  0.00     0.116 C 
BRANCH  26  27
ATOM     27  N   UNL A   1      37.722  21.002  25.268  1.00  0.00    -0.352 N 
ATOM     28  C   UNL A   1      38.958  21.042  25.874  1.00  0.00     0.251 C 
ATOM     29  H   UNL A   1      37.451  20.130  24.900  1.00  0.00     0.163 HD
ATOM     30  O   UNL A   1      39.688  20.054  25.853  1.00  0.00    -0.269 OA
BRANCH  28  31
ATOM     31  C   UNL A   1      39.415  22.303  26.498  1.00  0.00     0.039 A 
ATOM     32  C   UNL A   1      38.845  23.522  26.127  1.00  0.00     0.014 A 
ATOM     33  C   UNL A   1      40.479  22.269  27.403  1.00  0.00     0.014 A 
ATOM     34  C   UNL A   1      39.452  24.711  26.519  1.00  0.00     0.010 A 
ATOM     35  C   UNL A   1      41.039  23.466  27.857  1.00  0.00     0.010 A 
ATOM     36  C   UNL A   1      40.568  24.697  27.372  1.00  0.00    -0.014 A 
BRANCH  36  37
ATOM     37  C   UNL A   1      41.240  25.977  27.720  1.00  0.00     0.031 A 
ATOM     38  C   UNL A   1      42.614  26.293  27.187  1.00  0.00     0.074 A 
ATOM     39  C   UNL A   1      40.583  26.883  28.469  1.00  0.00     0.049 A 
ATOM     40  N   UNL A   1      43.331  27.375  27.353  1.00  0.00    -0.248 NA
ATOM     41  C   UNL A   1      43.269  25.265  26.361  1.00  0.00     0.031 C 
ATOM     42  C   UNL A   1      39.243  26.692  29.023  1.00  0.00     0.029 A 
ATOM     43  N   UNL A   1      40.932  28.148  28.870  1.00  0.00    -0.354 N 
ATOM     44  C   UNL A   1      44.525  27.152  26.675  1.00  0.00     0.074 A 
ATOM     45  C   UNL A   1      44.449  25.821  26.117  1.00  0.00     0.031 C 
ATOM     46  C   UNL A   1      38.857  27.819  29.638  1.00  0.00     0.029 A 
ATOM     47  C   UNL A   1      39.947  28.791  29.585  1.00  0.00     0.049 A 
ATOM     48  H   UNL A   1      41.804  28.558  28.666  1.00  0.00     0.167 HD
ATOM     49  C   UNL A   1      45.579  27.989  26.524  1.00  0.00     0.034 A 
ATOM     50  C   UNL A   1      39.922  30.020  30.142  1.00  0.00     0.034 A 
ATOM     51  C   UNL A   1      45.627  29.327  27.054  1.00  0.00     0.049 A 
ATOM     52  C   UNL A   1      41.124  30.914  29.986  1.00  0.00     0.074 A 
ATOM     53  C   UNL A   1      46.636  30.264  26.913  1.00  0.00     0.029 A 
ATOM     54  N   UNL A   1      44.632  29.922  27.817  1.00  0.00    -0.354 N 
ATOM     55  N   UNL A   1      42.225  30.704  29.305  1.00  0.00    -0.248 NA
ATOM     56  C   UNL A   1      41.087  32.211  30.677  1.00  0.00     0.031 C 
ATOM     57  C   UNL A   1      46.278  31.403  27.635  1.00  0.00     0.029 A 
ATOM     58  C   UNL A   1      45.017  31.203  28.176  1.00  0.00     0.049 A 
ATOM     59  H   UNL A   1      43.779  29.497  28.065  1.00  0.00     0.167 HD
ATOM     60  C   UNL A   1      43.001  31.848  29.466  1.00  0.00     0.074 A 
ATOM     61  C   UNL A   1      42.234  32.756  30.292  1.00  0.00     0.031 C 
ATOM     62  C   UNL A   1      44.239  32.114  28.981  1.00  0.00     0.034 A 
BRANCH  49  63
ATOM     63  C   UNL A   1      46.780  27.514  25.744  1.00  0.00     0.023 A 
ATOM     64  C   UNL A   1      46.963  27.938  24.413  1.00  0.00     0.031 A 
ATOM     65  C   UNL A   1      47.651  26.539  26.258  1.00  0.00     0.131 A 
ATOM     66  C   UNL A   1      47.969  27.359  23.631  1.00  0.00     0.055 A 
ATOM     67  C   UNL A   1      48.676  25.992  25.485  1.00  0.00     0.041 A 
ATOM     68  F   UNL A   1      47.518  26.105  27.522  1.00  0.00    -0.206 F 
ATOM     69  C   UNL A   1      48.830  26.393  24.161  1.00  0.00     0.022 A 
BRANCH  66  70
ATOM     70  S   UNL A   1      48.162  27.792  21.880  1.00  0.00     0.124 S 
ATOM     71  O   UNL A   1      46.884  28.441  21.590  1.00  0.00    -0.237 OA
ATOM     72  O   UNL A   1      49.319  28.681  21.911  1.00  0.00    -0.237 OA
ATOM     73  O   UNL A   1      48.367  26.508  21.221  1.00  0.00    -0.744 OA
ENDBRANCH  66  70
ENDBRANCH  49  63
BRANCH  50  74
ATOM     74  C   UNL A   1      38.689  30.477  30.848  1.00  0.00     0.023 A 
ATOM     75  C   UNL A   1      37.619  31.059  30.143  1.00  0.00     0.031 A 
ATOM     76  C   UNL A   1      38.607  30.430  32.249  1.00  0.00     0.131 A 
ATOM     77  C   UNL A   1      36.551  31.634  30.843  1.00  0.00     0.055 A 
ATOM     78  C   UNL A   1      37.508  30.941  32.941  1.00  0.00     0.041 A 
ATOM     79  F   UNL A   1      39.607  29.895  32.967  1.00  0.00    -0.206 F 
ATOM     80  C   UNL A   1      36.481  31.563  32.238  1.00  0.00     0.022 A 
BRANCH  77  81
ATOM     81  S   UNL A   1      35.295  32.617  29.978  1.00  0.00     0.124 S 
ATOM     82  O   UNL A   1      34.869  31.704  28.924  1.00  0.00    -0.237 OA
ATOM     83  O   UNL A   1      34.320  32.858  31.039  1.00  0.00    -0.237 OA
ATOM     84  O   UNL A   1      36.030  33.798  29.535  1.00  0.00    -0.744 OA
ENDBRANCH  77  81
ENDBRANCH  50  74
BRANCH  62  85
ATOM     85  C   UNL A   1      44.872  33.445  29.304  1.00  0.00     0.023 A 
ATOM     86  C   UNL A   1      44.665  34.548  28.453  1.00  0.00     0.031 A 
ATOM     87  C   UNL A   1      45.800  33.574  30.351  1.00  0.00     0.131 A 
ATOM     88  C   UNL A   1      45.410  35.718  28.639  1.00  0.00     0.055 A 
ATOM     89  C   UNL A   1      46.508  34.758  30.558  1.00  0.00     0.041 A 
ATOM     90  F   UNL A   1      46.038  32.546  31.182  1.00  0.00    -0.206 F 
ATOM     91  C   UNL A   1      46.325  35.832  29.691  1.00  0.00     0.022 A 
BRANCH  88  92
ATOM     92  S   UNL A   1      45.287  37.101  27.470  1.00  0.00     0.124 S 
ATOM     93  O   UNL A   1      43.929  36.940  26.954  1.00  0.00    -0.237 OA
ATOM     94  O   UNL A   1      45.491  38.257  28.339  1.00  0.00    -0.237 OA
ATOM     95  O   UNL A   1      46.352  36.844  26.506  1.00  0.00    -0.744 OA
ENDBRANCH  88  92
ENDBRANCH  62  85
ENDBRANCH  36  37
ENDBRANCH  28  31
ENDBRANCH  26  27
ENDBRANCH   1  26
TORSDOF 15
ENDMDL
MODEL 2
REMARK VINA RESULT:     -13.5      5.193     10.653
REMARK SMILES Cc1ccc2c(=O)c3cccc(CC(=O)NCCCCNC(=O)c4ccc(-c5c6nc(c(-c7cc(S(=O)(=O)[O-])ccc7F)c7ccc([nH]7)c(-c7cc(S(=O)(=O)[O-])ccc7F)c7nc(c(-c8cc(S(=O)(=O)[O-])ccc8F)c8ccc5[nH]8)C=C7)C=C6)cc4)c3oc2c1C
REMARK SMILES IDX 19 1 18 2 17 3 16 4 14 5 15 6 13 8 12 9 1 10 2 11 3 12 90 13
REMARK SMILES IDX 4 14 89 15 91 16 5 17 88 18 6 19 87 20 7 21 8 22 9 23 11 24
REMARK SMILES IDX 10 25 20 26 21 27 22 28 23 30 24 31 25 32 86 33 26 34 85 35
REMARK SMILES IDX 27 36 28 37 29 38 79 39 30 40 84 41 78 42 80 43 31 44 83 45
REMARK SMILES IDX 77 46 76 47 32 49 64 50 44 51 63 52 45 53 48 54 62 55 81 56
REMARK SMILES IDX 46 57 47 58 61 60 82 61 49 62 33 63 34 64 42 65 35 66 41 67
REMARK SMILES IDX 43 68 40 69 36 70 37 71 38 72 39 73 65 74 66 75 74 76 67 77
REMARK SMILES IDX 73 78 75 79 72 80 68 81 69 82 70 83 71 84 50 85 51 86 59 87
REMARK SMILES IDX 52 88 58 89 60 90 57 91 53 92 54 93 55 94 56 95
REMARK H PARENT 16 7 21 29 80 48 48 59
REMARK Flexibility Score: inf
ROOT
ATOM      1  C   UNL A   1      31.410  31.946  26.800  1.00  0.00     0.023 C 
ENDROOT
BRANCH   1   2
ATOM      2  C   UNL A   1      31.784  30.465  26.874  1.00  0.00     0.023 C 
BRANCH   2   3
ATOM      3  C   UNL A   1      33.251  30.153  26.579  1.00  0.00     0.116 C 
BRANCH   3   4
ATOM      4  N   UNL A   1      33.450  29.644  25.236  1.00  0.00    -0.356 N 
ATOM      5  C   UNL A   1      33.717  28.371  24.824  1.00  0.00     0.224 C 
ATOM      6  O   UNL A   1      33.791  28.151  23.612  1.00  0.00    -0.275 OA
ATOM      7  H   UNL A   1      33.381  30.314  24.518  1.00  0.00     0.163 HD
BRANCH   5   8
ATOM      8  C   UNL A   1      33.835  27.241  25.834  1.00  0.00     0.139 C 
BRANCH   8   9
ATOM      9  C   UNL A   1      32.678  26.265  25.853  1.00  0.00     0.005 A 
ATOM     10  C   UNL A   1      37.405  20.795  24.720  1.00  0.00     0.045 C 
ATOM     11  C   UNL A   1      36.010  21.311  24.955  1.00  0.00    -0.044 A 
ATOM     12  C   UNL A   1      34.964  20.373  25.023  1.00  0.00     0.005 A 
ATOM     13  C   UNL A   1      35.727  22.681  25.160  1.00  0.00    -0.005 A 
ATOM     14  C   UNL A   1      33.652  20.777  25.256  1.00  0.00     0.016 A 
ATOM     15  C   UNL A   1      34.390  23.082  25.378  1.00  0.00     0.141 A 
ATOM     16  C   UNL A   1      36.806  23.736  25.171  1.00  0.00     0.049 C 
ATOM     17  C   UNL A   1      33.372  22.131  25.423  1.00  0.00     0.066 A 
ATOM     18  O   UNL A   1      34.158  24.432  25.539  1.00  0.00    -0.455 OA
ATOM     19  C   UNL A   1      31.990  22.575  25.646  1.00  0.00     0.200 A 
ATOM     20  C   UNL A   1      32.872  24.878  25.724  1.00  0.00     0.142 A 
ATOM     21  O   UNL A   1      31.058  21.784  25.692  1.00  0.00    -0.288 OA
ATOM     22  C   UNL A   1      31.772  24.020  25.787  1.00  0.00     0.066 A 
ATOM     23  C   UNL A   1      30.479  24.519  25.973  1.00  0.00     0.016 A 
ATOM     24  C   UNL A   1      31.368  26.759  25.997  1.00  0.00     0.008 A 
ATOM     25  C   UNL A   1      30.278  25.891  26.071  1.00  0.00     0.001 A 
ENDBRANCH   8   9
ENDBRANCH   5   8
ENDBRANCH   3   4
ENDBRANCH   2   3
ENDBRANCH   1   2
BRANCH   1  26
ATOM     26  C   UNL A   1      32.583  32.916  26.758  1.00  0.00     0.116 C 
BRANCH  26  27
ATOM     27  N   UNL A   1      32.426  34.063  27.641  1.00  0.00    -0.352 N 
ATOM     28  C   UNL A   1      33.225  34.440  28.698  1.00  0.00     0.251 C 
ATOM     29  H   UNL A   1      31.651  34.642  27.459  1.00  0.00     0.163 HD
ATOM     30  O   UNL A   1      32.904  35.392  29.405  1.00  0.00    -0.269 OA
BRANCH  28  31
ATOM     31  C   UNL A   1      34.438  33.650  29.002  1.00  0.00     0.039 A 
ATOM     32  C   UNL A   1      34.331  32.387  29.588  1.00  0.00     0.014 A 
ATOM     33  C   UNL A   1      35.694  34.216  28.773  1.00  0.00     0.014 A 
ATOM     34  C   UNL A   1      35.467  31.773  30.105  1.00  0.00     0.010 A 
ATOM     35  C   UNL A   1      36.842  33.559  29.224  1.00  0.00     0.010 A 
ATOM     36  C   UNL A   1      36.733  32.360  29.947  1.00  0.00    -0.014 A 
BRANCH  36  37
ATOM     37  C   UNL A   1      37.921  31.717  30.569  1.00  0.00     0.031 A 
ATOM     38  C   UNL A   1      38.312  32.036  31.989  1.00  0.00     0.074 A 
ATOM     39  C   UNL A   1      38.613  30.797  29.870  1.00  0.00     0.049 A 
ATOM     40  N   UNL A   1      39.290  31.541  32.703  1.00  0.00    -0.248 NA
ATOM     41  C   UNL A   1      37.504  33.040  32.701  1.00  0.00     0.031 C 
ATOM     42  C   UNL A   1      38.313  30.396  28.495  1.00  0.00     0.029 A 
ATOM     43  N   UNL A   1      39.684  30.014  30.220  1.00  0.00    -0.354 N 
ATOM     44  C   UNL A   1      39.229  32.183  33.935  1.00  0.00     0.074 A 
ATOM     45  C   UNL A   1      38.135  33.125  33.864  1.00  0.00     0.031 C 
ATOM     46  C   UNL A   1      39.138  29.401  28.139  1.00  0.00     0.029 A 
ATOM     47  C   UNL A   1      40.072  29.138  29.232  1.00  0.00     0.049 A 
ATOM     48  H   UNL A   1      40.133  30.073  31.094  1.00  0.00     0.167 HD
ATOM     49  C   UNL A   1      40.008  31.992  35.027  1.00  0.00     0.034 A 
ATOM     50  C   UNL A   1      41.069  28.228  29.201  1.00  0.00     0.034 A 
ATOM     51  C   UNL A   1      41.072  31.023  35.096  1.00  0.00     0.049 A 
ATOM     52  C   UNL A   1      41.940  28.064  30.419  1.00  0.00     0.074 A 
ATOM     53  C   UNL A   1      41.886  30.728  36.176  1.00  0.00     0.029 A 
ATOM     54  N   UNL A   1      41.467  30.193  34.058  1.00  0.00    -0.354 N 
ATOM     55  N   UNL A   1      41.840  28.648  31.589  1.00  0.00    -0.248 NA
ATOM     56  C   UNL A   1      43.065  27.123  30.315  1.00  0.00     0.031 C 
ATOM     57  C   UNL A   1      42.809  29.761  35.776  1.00  0.00     0.029 A 
ATOM     58  C   UNL A   1      42.532  29.405  34.465  1.00  0.00     0.049 A 
ATOM     59  H   UNL A   1      41.053  30.166  33.166  1.00  0.00     0.167 HD
ATOM     60  C   UNL A   1      42.872  28.130  32.367  1.00  0.00     0.074 A 
ATOM     61  C   UNL A   1      43.571  27.169  31.541  1.00  0.00     0.031 C 
ATOM     62  C   UNL A   1      43.212  28.432  33.644  1.00  0.00     0.034 A 
BRANCH  49  63
ATOM     63  C   UNL A   1      39.753  32.824  36.259  1.00  0.00     0.023 A 
ATOM     64  C   UNL A   1      38.875  32.352  37.253  1.00  0.00     0.031 A 
ATOM     65  C   UNL A   1      40.255  34.131  36.379  1.00  0.00     0.131 A 
ATOM     66  C   UNL A   1      38.495  33.196  38.304  1.00  0.00     0.055 A 
ATOM     67  C   UNL A   1      39.901  34.956  37.448  1.00  0.00     0.041 A 
ATOM     68  F   UNL A   1      41.097  34.625  35.456  1.00  0.00    -0.206 F 
ATOM     69  C   UNL A   1      39.008  34.493  38.409  1.00  0.00     0.022 A 
BRANCH  66  70
ATOM     70  S   UNL A   1      37.276  32.667  39.538  1.00  0.00     0.124 S 
ATOM     71  O   UNL A   1      36.035  32.698  38.766  1.00  0.00    -0.237 OA
ATOM     72  O   UNL A   1      37.757  31.334  39.890  1.00  0.00    -0.237 OA
ATOM     73  O   UNL A   1      37.377  33.675  40.587  1.00  0.00    -0.744 OA
ENDBRANCH  66  70
ENDBRANCH  49  63
BRANCH  50  74
ATOM     74  C   UNL A   1      41.246  27.378  27.988  1.00  0.00     0.023 A 
ATOM     75  C   UNL A   1      40.932  26.006  28.008  1.00  0.00     0.031 A 
ATOM     76  C   UNL A   1      41.825  27.905  26.823  1.00  0.00     0.131 A 
ATOM     77  C   UNL A   1      41.267  25.197  26.915  1.00  0.00     0.055 A 
ATOM     78  C   UNL A   1      42.092  27.109  25.707  1.00  0.00     0.041 A 
ATOM     79  F   UNL A   1      42.152  29.205  26.759  1.00  0.00    -0.206 F 
ATOM     80  C   UNL A   1      41.830  25.743  25.758  1.00  0.00     0.022 A 
BRANCH  77  81
ATOM     81  S   UNL A   1      41.117  23.391  27.016  1.00  0.00     0.124 S 
ATOM     82  O   UNL A   1      39.678  23.198  26.875  1.00  0.00    -0.237 OA
ATOM     83  O   UNL A   1      41.927  22.959  25.879  1.00  0.00    -0.237 OA
ATOM     84  O   UNL A   1      41.673  23.074  28.327  1.00  0.00    -0.744 OA
ENDBRANCH  77  81
ENDBRANCH  50  74
BRANCH  62  85
ATOM     85  C   UNL A   1      44.388  27.722  34.268  1.00  0.00     0.023 A 
ATOM     86  C   UNL A   1      44.176  26.604  35.098  1.00  0.00     0.031 A 
ATOM     87  C   UNL A   1      45.689  28.245  34.171  1.00  0.00     0.131 A 
ATOM     88  C   UNL A   1      45.241  26.073  35.834  1.00  0.00     0.055 A 
ATOM     89  C   UNL A   1      46.755  27.684  34.873  1.00  0.00     0.041 A 
ATOM     90  F   UNL A   1      45.937  29.315  33.400  1.00  0.00    -0.206 F 
ATOM     91  C   UNL A   1      46.531  26.603  35.721  1.00  0.00     0.022 A 
BRANCH  88  92
ATOM     92  S   UNL A   1      44.976  24.737  37.033  1.00  0.00     0.124 S 
ATOM     93  O   UNL A   1      45.843  25.145  38.136  1.00  0.00    -0.237 OA
ATOM     94  O   UNL A   1      43.543  24.839  37.296  1.00  0.00    -0.237 OA
ATOM     95  O   UNL A   1      45.401  23.536  36.322  1.00  0.00    -0.744 OA
ENDBRANCH  88  92
ENDBRANCH  62  85
ENDBRANCH  36  37
ENDBRANCH  28  31
ENDBRANCH  26  27
ENDBRANCH   1  26
TORSDOF 15
ENDMDL
MODEL 3
REMARK VINA RESULT:     -13.3      5.202      8.553
REMARK SMILES Cc1ccc2c(=O)c3cccc(CC(=O)NCCCCNC(=O)c4ccc(-c5c6nc(c(-c7cc(S(=O)(=O)[O-])ccc7F)c7ccc([nH]7)c(-c7cc(S(=O)(=O)[O-])ccc7F)c7nc(c(-c8cc(S(=O)(=O)[O-])ccc8F)c8ccc5[nH]8)C=C7)C=C6)cc4)c3oc2c1C
REMARK SMILES IDX 19 1 18 2 17 3 16 4 14 5 15 6 13 8 12 9 1 10 2 11 3 12 90 13
REMARK SMILES IDX 4 14 89 15 91 16 5 17 88 18 6 19 87 20 7 21 8 22 9 23 11 24
REMARK SMILES IDX 10 25 20 26 21 27 22 28 23 30 24 31 25 32 86 33 26 34 85 35
REMARK SMILES IDX 27 36 28 37 29 38 79 39 30 40 84 41 78 42 80 43 31 44 83 45
REMARK SMILES IDX 77 46 76 47 32 49 64 50 44 51 63 52 45 53 48 54 62 55 81 56
REMARK SMILES IDX 46 57 47 58 61 60 82 61 49 62 33 63 34 64 42 65 35 66 41 67
REMARK SMILES IDX 43 68 40 69 36 70 37 71 38 72 39 73 65 74 66 75 74 76 67 77
REMARK SMILES IDX 73 78 75 79 72 80 68 81 69 82 70 83 71 84 50 85 51 86 59 87
REMARK SMILES IDX 52 88 58 89 60 90 57 91 53 92 54 93 55 94 56 95
REMARK H PARENT 16 7 21 29 80 48 48 59
REMARK Flexibility Score: inf
ROOT
ATOM      1  C   UNL A   1      31.321  32.180  26.693  1.00  0.00     0.023 C 
ENDROOT
BRANCH   1   2
ATOM      2  C   UNL A   1      31.469  30.686  26.399  1.00  0.00     0.023 C 
BRANCH   2   3
ATOM      3  C   UNL A   1      32.903  30.160  26.432  1.00  0.00     0.116 C 
BRANCH   3   4
ATOM      4  N   UNL A   1      33.319  29.606  25.159  1.00  0.00    -0.356 N 
ATOM      5  C   UNL A   1      33.720  28.336  24.856  1.00  0.00     0.224 C 
ATOM      6  O   UNL A   1      33.976  28.068  23.680  1.00  0.00    -0.275 OA
ATOM      7  H   UNL A   1      33.310  30.236  24.402  1.00  0.00     0.163 HD
BRANCH   5   8
ATOM      8  C   UNL A   1      33.766  27.264  25.933  1.00  0.00     0.139 C 
BRANCH   8   9
ATOM      9  C   UNL A   1      32.620  26.275  25.912  1.00  0.00     0.005 A 
ATOM     10  C   UNL A   1      37.431  20.880  24.772  1.00  0.00     0.045 C 
ATOM     11  C   UNL A   1      36.026  21.376  24.989  1.00  0.00    -0.044 A 
ATOM     12  C   UNL A   1      34.990  20.425  25.020  1.00  0.00     0.005 A 
ATOM     13  C   UNL A   1      35.723  22.739  25.214  1.00  0.00    -0.005 A 
ATOM     14  C   UNL A   1      33.669  20.810  25.235  1.00  0.00     0.016 A 
ATOM     15  C   UNL A   1      34.377  23.121  25.413  1.00  0.00     0.141 A 
ATOM     16  C   UNL A   1      36.789  23.805  25.264  1.00  0.00     0.049 C 
ATOM     17  C   UNL A   1      33.370  22.158  25.421  1.00  0.00     0.066 A 
ATOM     18  O   UNL A   1      34.127  24.465  25.593  1.00  0.00    -0.455 OA
ATOM     19  C   UNL A   1      31.979  22.582  25.625  1.00  0.00     0.200 A 
ATOM     20  C   UNL A   1      32.832  24.893  25.761  1.00  0.00     0.142 A 
ATOM     21  O   UNL A   1      31.055  21.779  25.638  1.00  0.00    -0.288 OA
ATOM     22  C   UNL A   1      31.742  24.022  25.788  1.00  0.00     0.066 A 
ATOM     23  C   UNL A   1      30.440  24.503  25.958  1.00  0.00     0.016 A 
ATOM     24  C   UNL A   1      31.302  26.752  26.040  1.00  0.00     0.008 A 
ATOM     25  C   UNL A   1      30.220  25.871  26.077  1.00  0.00     0.001 A 
ENDBRANCH   8   9
ENDBRANCH   5   8
ENDBRANCH   3   4
ENDBRANCH   2   3
ENDBRANCH   1   2
BRANCH   1  26
ATOM     26  C   UNL A   1      32.626  32.959  26.799  1.00  0.00     0.116 C 
BRANCH  26  27
ATOM     27  N   UNL A   1      32.534  34.145  27.638  1.00  0.00    -0.352 N 
ATOM     28  C   UNL A   1      33.348  34.510  28.688  1.00  0.00     0.251 C 
ATOM     29  H   UNL A   1      31.797  34.763  27.429  1.00  0.00     0.163 HD
ATOM     30  O   UNL A   1      33.082  35.506  29.357  1.00  0.00    -0.269 OA
BRANCH  28  31
ATOM     31  C   UNL A   1      34.508  33.659  29.031  1.00  0.00     0.039 A 
ATOM     32  C   UNL A   1      34.316  32.375  29.543  1.00  0.00     0.014 A 
ATOM     33  C   UNL A   1      35.796  34.186  28.913  1.00  0.00     0.014 A 
ATOM     34  C   UNL A   1      35.391  31.691  30.102  1.00  0.00     0.010 A 
ATOM     35  C   UNL A   1      36.887  33.462  29.406  1.00  0.00     0.010 A 
ATOM     36  C   UNL A   1      36.685  32.235  30.058  1.00  0.00    -0.014 A 
BRANCH  36  37
ATOM     37  C   UNL A   1      37.804  31.516  30.724  1.00  0.00     0.031 A 
ATOM     38  C   UNL A   1      38.624  30.503  29.968  1.00  0.00     0.074 A 
ATOM     39  C   UNL A   1      38.120  31.824  31.997  1.00  0.00     0.049 A 
ATOM     40  N   UNL A   1      39.658  29.814  30.375  1.00  0.00    -0.248 NA
ATOM     41  C   UNL A   1      38.234  30.225  28.575  1.00  0.00     0.031 C 
ATOM     42  C   UNL A   1      37.407  32.802  32.819  1.00  0.00     0.029 A 
ATOM     43  N   UNL A   1      39.129  31.376  32.812  1.00  0.00    -0.354 N 
ATOM     44  C   UNL A   1      40.030  29.008  29.304  1.00  0.00     0.074 A 
ATOM     45  C   UNL A   1      39.094  29.274  28.235  1.00  0.00     0.031 C 
ATOM     46  C   UNL A   1      38.035  32.926  33.997  1.00  0.00     0.029 A 
ATOM     47  C   UNL A   1      39.155  31.987  34.044  1.00  0.00     0.049 A 
ATOM     48  H   UNL A   1      39.773  30.682  32.540  1.00  0.00     0.167 HD
ATOM     49  C   UNL A   1      41.065  28.139  29.219  1.00  0.00     0.034 A 
ATOM     50  C   UNL A   1      39.979  31.811  35.098  1.00  0.00     0.034 A 
ATOM     51  C   UNL A   1      42.013  27.912  30.279  1.00  0.00     0.049 A 
ATOM     52  C   UNL A   1      41.100  30.812  34.986  1.00  0.00     0.074 A 
ATOM     53  C   UNL A   1      43.121  27.083  30.267  1.00  0.00     0.029 A 
ATOM     54  N   UNL A   1      41.975  28.511  31.529  1.00  0.00    -0.354 N 
ATOM     55  N   UNL A   1      41.463  30.093  33.950  1.00  0.00    -0.248 NA
ATOM     56  C   UNL A   1      41.923  30.591  36.184  1.00  0.00     0.031 C 
ATOM     57  C   UNL A   1      43.720  27.137  31.527  1.00  0.00     0.029 A 
ATOM     58  C   UNL A   1      43.024  28.047  32.306  1.00  0.00     0.049 A 
ATOM     59  H   UNL A   1      41.302  29.169  31.822  1.00  0.00     0.167 HD
ATOM     60  C   UNL A   1      42.568  29.353  34.363  1.00  0.00     0.074 A 
ATOM     61  C   UNL A   1      42.827  29.728  35.737  1.00  0.00     0.031 C 
ATOM     62  C   UNL A   1      43.292  28.442  33.669  1.00  0.00     0.034 A 
BRANCH  49  63
ATOM     63  C   UNL A   1      41.263  27.364  27.940  1.00  0.00     0.023 A 
ATOM     64  C   UNL A   1      41.043  25.973  27.923  1.00  0.00     0.031 A 
ATOM     65  C   UNL A   1      41.805  27.967  26.793  1.00  0.00     0.131 A 
ATOM     66  C   UNL A   1      41.401  25.226  26.794  1.00  0.00     0.055 A 
ATOM     67  C   UNL A   1      42.127  27.223  25.657  1.00  0.00     0.041 A 
ATOM     68  F   UNL A   1      42.032  29.291  26.761  1.00  0.00    -0.206 F 
ATOM     69  C   UNL A   1      41.936  25.844  25.660  1.00  0.00     0.022 A 
BRANCH  66  70
ATOM     70  S   UNL A   1      41.243  23.419  26.777  1.00  0.00     0.124 S 
ATOM     71  O   UNL A   1      42.156  23.050  25.696  1.00  0.00    -0.237 OA
ATOM     72  O   UNL A   1      41.690  23.061  28.120  1.00  0.00    -0.237 OA
ATOM     73  O   UNL A   1      39.830  23.192  26.498  1.00  0.00    -0.744 OA
ENDBRANCH  66  70
ENDBRANCH  49  63
BRANCH  50  74
ATOM     74  C   UNL A   1      39.791  32.646  36.321  1.00  0.00     0.023 A 
ATOM     75  C   UNL A   1      38.961  32.220  37.373  1.00  0.00     0.031 A 
ATOM     76  C   UNL A   1      40.362  33.927  36.407  1.00  0.00     0.131 A 
ATOM     77  C   UNL A   1      38.666  33.094  38.427  1.00  0.00     0.055 A 
ATOM     78  C   UNL A   1      40.123  34.769  37.495  1.00  0.00     0.041 A 
ATOM     79  F   UNL A   1      41.153  34.382  35.423  1.00  0.00    -0.206 F 
ATOM     80  C   UNL A   1      39.256  34.360  38.503  1.00  0.00     0.022 A 
BRANCH  77  81
ATOM     81  S   UNL A   1      37.398  32.674  39.656  1.00  0.00     0.124 S 
ATOM     82  O   UNL A   1      37.548  33.751  40.627  1.00  0.00    -0.237 OA
ATOM     83  O   UNL A   1      36.178  32.711  38.853  1.00  0.00    -0.237 OA
ATOM     84  O   UNL A   1      37.794  31.347  40.116  1.00  0.00    -0.744 OA
ENDBRANCH  77  81
ENDBRANCH  50  74
BRANCH  62  85
ATOM     85  C   UNL A   1      44.457  27.769  34.353  1.00  0.00     0.023 A 
ATOM     86  C   UNL A   1      44.248  26.602  35.112  1.00  0.00     0.031 A 
ATOM     87  C   UNL A   1      45.727  28.369  34.385  1.00  0.00     0.131 A 
ATOM     88  C   UNL A   1      45.283  26.096  35.908  1.00  0.00     0.055 A 
ATOM     89  C   UNL A   1      46.768  27.835  35.144  1.00  0.00     0.041 A 
ATOM     90  F   UNL A   1      45.970  29.488  33.684  1.00  0.00    -0.206 F 
ATOM     91  C   UNL A   1      46.544  26.703  35.922  1.00  0.00     0.022 A 
BRANCH  88  92
ATOM     92  S   UNL A   1      45.007  24.690  37.021  1.00  0.00     0.124 S 
ATOM     93  O   UNL A   1      44.486  23.678  36.104  1.00  0.00    -0.237 OA
ATOM     94  O   UNL A   1      46.351  24.434  37.533  1.00  0.00    -0.237 OA
ATOM     95  O   UNL A   1      44.048  25.196  37.997  1.00  0.00    -0.744 OA
ENDBRANCH  88  92
ENDBRANCH  62  85
ENDBRANCH  36  37
ENDBRANCH  28  31
ENDBRANCH  26  27
ENDBRANCH   1  26
TORSDOF 15
ENDMDL
