MODEL 1
REMARK VINA RESULT:     -12.6      0.000      0.000
REMARK SMILES CN(C(=O)C[C@H]1SC(=O)N(c2cccc(O)c2)C1=O)c1ccccc1C(=O)NCCCCNC(=O)c1ccc(-c2c3nc(c(-c4cc(S(=O)(=O)[O-])ccc4F)c4ccc([nH]4)c(-c4cc(S(=O)(=O)[O-])ccc4F)c4nc(c(-c5cc(S(=O)(=O)[O-])ccc5F)c5ccc2[nH]5)C=C4)C=C3)cc1
REMARK SMILES IDX 29 1 28 2 26 3 27 4 25 6 20 7 21 8 22 9 24 10 23 11 2 12
REMARK SMILES IDX 1 13 3 14 4 15 5 16 6 17 7 18 18 19 8 20 10 21 19 22 9 23
REMARK SMILES IDX 11 24 12 25 17 26 13 27 15 28 14 29 16 30 30 32 31 33 32 34
REMARK SMILES IDX 33 35 34 36 35 38 36 39 37 40 98 41 38 42 97 43 39 44 40 45
REMARK SMILES IDX 41 46 91 47 42 48 96 49 90 50 92 51 43 52 95 53 89 54 88 55
REMARK SMILES IDX 44 57 76 58 56 59 75 60 57 61 60 62 74 63 93 64 58 65 59 66
REMARK SMILES IDX 73 68 94 69 61 70 45 71 46 72 54 73 47 74 53 75 55 76 52 77
REMARK SMILES IDX 48 78 49 79 50 80 51 81 77 82 78 83 86 84 79 85 85 86 87 87
REMARK SMILES IDX 84 88 80 89 81 90 82 91 83 92 62 93 63 94 71 95 64 96 70 97
REMARK SMILES IDX 72 98 69 99 65 100 66 101 67 102 68 103
REMARK H PARENT 28 5 16 31 33 37 92 56 60 67
REMARK Flexibility Score: inf
ROOT
ATOM      1  C   UNL A   1      36.697  23.391  25.678  1.00  0.00     0.116 C 
ENDROOT
BRANCH   1   2
ATOM      2  N   UNL A   1      35.763  22.788  26.578  1.00  0.00    -0.352 N 
ATOM      3  C   UNL A   1      34.650  22.019  26.446  1.00  0.00     0.253 C 
ATOM      4  O   UNL A   1      34.336  21.465  27.511  1.00  0.00    -0.269 OA
ATOM      5  H   UNL A   1      35.976  22.975  27.521  1.00  0.00     0.163 HD
BRANCH   3   6
ATOM      6  C   UNL A   1      33.808  21.740  25.225  1.00  0.00     0.063 A 
ATOM      7  C   UNL A   1      32.980  22.544  24.408  1.00  0.00     0.056 A 
ATOM      8  C   UNL A   1      32.217  21.929  23.374  1.00  0.00     0.027 A 
ATOM      9  C   UNL A   1      32.225  20.556  23.149  1.00  0.00     0.002 A 
ATOM     10  C   UNL A   1      33.799  20.342  24.939  1.00  0.00     0.016 A 
ATOM     11  C   UNL A   1      33.020  19.756  23.940  1.00  0.00     0.001 A 
BRANCH   7  12
ATOM     12  N   UNL A   1      32.749  23.959  24.503  1.00  0.00    -0.315 N 
ATOM     13  C   UNL A   1      32.068  24.360  25.744  1.00  0.00     0.153 C 
BRANCH  12  14
ATOM     14  C   UNL A   1      33.678  24.785  23.834  1.00  0.00     0.228 C 
ATOM     15  O   UNL A   1      34.194  24.456  22.762  1.00  0.00    -0.274 OA
BRANCH  14  16
ATOM     16  C   UNL A   1      34.066  26.138  24.427  1.00  0.00     0.125 C 
BRANCH  16  17
ATOM     17  C   UNL A   1      32.821  26.980  24.662  1.00  0.00     0.156 C 
ATOM     18  S   UNL A   1      33.305  28.622  25.248  1.00  0.00    -0.050 SA
ATOM     19  C   UNL A   1      31.857  27.305  23.531  1.00  0.00     0.248 C 
ATOM     20  C   UNL A   1      31.738  29.265  24.831  1.00  0.00     0.293 C 
ATOM     21  N   UNL A   1      31.191  28.495  23.828  1.00  0.00    -0.240 N 
ATOM     22  O   UNL A   1      31.700  26.599  22.543  1.00  0.00    -0.273 OA
ATOM     23  O   UNL A   1      31.261  30.216  25.421  1.00  0.00    -0.261 OA
BRANCH  21  24
ATOM     24  C   UNL A   1      30.055  28.955  23.118  1.00  0.00     0.056 A 
ATOM     25  C   UNL A   1      30.213  29.967  22.155  1.00  0.00     0.027 A 
ATOM     26  C   UNL A   1      28.773  28.458  23.374  1.00  0.00     0.073 A 
ATOM     27  C   UNL A   1      29.122  30.450  21.436  1.00  0.00     0.006 A 
ATOM     28  C   UNL A   1      27.680  28.993  22.689  1.00  0.00     0.117 A 
ATOM     29  C   UNL A   1      27.846  29.967  21.709  1.00  0.00     0.046 A 
BRANCH  28  30
ATOM     30  O   UNL A   1      26.433  28.547  23.020  1.00  0.00    -0.508 OA
ATOM     31  H   UNL A   1      25.704  29.137  23.000  1.00  0.00     0.293 HD
ENDBRANCH  28  30
ENDBRANCH  21  24
ENDBRANCH  16  17
ENDBRANCH  14  16
ENDBRANCH  12  14
ENDBRANCH   7  12
ENDBRANCH   3   6
ENDBRANCH   1   2
BRANCH   1  32
ATOM     32  C   UNL A   1      37.123  22.410  24.602  1.00  0.00     0.023 C 
BRANCH  32  33
ATOM     33  C   UNL A   1      37.588  21.053  25.106  1.00  0.00     0.023 C 
BRANCH  33  34
ATOM     34  C   UNL A   1      38.909  21.115  25.858  1.00  0.00     0.116 C 
BRANCH  34  35
ATOM     35  N   UNL A   1      39.660  19.862  25.861  1.00  0.00    -0.352 N 
ATOM     36  C   UNL A   1      41.003  19.659  26.106  1.00  0.00     0.251 C 
ATOM     37  H   UNL A   1      39.136  19.052  25.662  1.00  0.00     0.163 HD
ATOM     38  O   UNL A   1      41.492  18.536  26.087  1.00  0.00    -0.269 OA
BRANCH  36  39
ATOM     39  C   UNL A   1      41.837  20.839  26.368  1.00  0.00     0.039 A 
ATOM     40  C   UNL A   1      42.141  21.719  25.329  1.00  0.00     0.014 A 
ATOM     41  C   UNL A   1      42.156  21.140  27.691  1.00  0.00     0.014 A 
ATOM     42  C   UNL A   1      42.695  22.960  25.638  1.00  0.00     0.010 A 
ATOM     43  C   UNL A   1      42.575  22.421  28.001  1.00  0.00     0.010 A 
ATOM     44  C   UNL A   1      42.856  23.344  26.980  1.00  0.00    -0.014 A 
BRANCH  44  45
ATOM     45  C   UNL A   1      43.314  24.702  27.367  1.00  0.00     0.031 A 
ATOM     46  C   UNL A   1      42.347  25.633  28.047  1.00  0.00     0.074 A 
ATOM     47  C   UNL A   1      44.538  25.131  27.001  1.00  0.00     0.049 A 
ATOM     48  N   UNL A   1      42.471  26.905  28.317  1.00  0.00    -0.248 NA
ATOM     49  C   UNL A   1      41.043  25.063  28.423  1.00  0.00     0.031 C 
ATOM     50  C   UNL A   1      45.538  24.333  26.285  1.00  0.00     0.029 A 
ATOM     51  N   UNL A   1      45.145  26.352  27.158  1.00  0.00    -0.354 N 
ATOM     52  C   UNL A   1      41.251  27.293  28.861  1.00  0.00     0.074 A 
ATOM     53  C   UNL A   1      40.380  26.141  28.807  1.00  0.00     0.031 C 
ATOM     54  C   UNL A   1      46.636  25.079  26.084  1.00  0.00     0.029 A 
ATOM     55  C   UNL A   1      46.400  26.423  26.599  1.00  0.00     0.049 A 
ATOM     56  H   UNL A   1      44.720  27.107  27.628  1.00  0.00     0.167 HD
ATOM     57  C   UNL A   1      40.901  28.494  29.381  1.00  0.00     0.034 A 
ATOM     58  C   UNL A   1      47.252  27.462  26.486  1.00  0.00     0.034 A 
ATOM     59  C   UNL A   1      41.801  29.619  29.439  1.00  0.00     0.049 A 
ATOM     60  C   UNL A   1      46.841  28.795  27.059  1.00  0.00     0.074 A 
ATOM     61  C   UNL A   1      41.593  30.857  30.019  1.00  0.00     0.029 A 
ATOM     62  N   UNL A   1      43.074  29.649  28.883  1.00  0.00    -0.354 N 
ATOM     63  N   UNL A   1      45.712  29.129  27.643  1.00  0.00    -0.248 NA
ATOM     64  C   UNL A   1      47.817  29.886  26.963  1.00  0.00     0.031 C 
ATOM     65  C   UNL A   1      42.700  31.662  29.735  1.00  0.00     0.029 A 
ATOM     66  C   UNL A   1      43.643  30.900  29.061  1.00  0.00     0.049 A 
ATOM     67  H   UNL A   1      43.509  28.891  28.427  1.00  0.00     0.167 HD
ATOM     68  C   UNL A   1      45.851  30.467  28.002  1.00  0.00     0.074 A 
ATOM     69  C   UNL A   1      47.181  30.868  27.587  1.00  0.00     0.031 C 
ATOM     70  C   UNL A   1      44.963  31.289  28.619  1.00  0.00     0.034 A 
BRANCH  57  71
ATOM     71  C   UNL A   1      39.485  28.648  29.887  1.00  0.00     0.023 A 
ATOM     72  C   UNL A   1      38.463  29.189  29.085  1.00  0.00     0.031 A 
ATOM     73  C   UNL A   1      39.162  28.298  31.209  1.00  0.00     0.131 A 
ATOM     74  C   UNL A   1      37.202  29.455  29.640  1.00  0.00     0.055 A 
ATOM     75  C   UNL A   1      37.877  28.472  31.726  1.00  0.00     0.041 A 
ATOM     76  F   UNL A   1      40.098  27.801  32.034  1.00  0.00    -0.206 F 
ATOM     77  C   UNL A   1      36.892  29.073  30.946  1.00  0.00     0.022 A 
BRANCH  74  78
ATOM     78  S   UNL A   1      36.036  30.469  28.690  1.00  0.00     0.124 S 
ATOM     79  O   UNL A   1      35.565  31.408  29.706  1.00  0.00    -0.237 OA
ATOM     80  O   UNL A   1      36.885  31.031  27.646  1.00  0.00    -0.237 OA
ATOM     81  O   UNL A   1      35.037  29.506  28.233  1.00  0.00    -0.744 OA
ENDBRANCH  74  78
ENDBRANCH  57  71
BRANCH  58  82
ATOM     82  C   UNL A   1      48.555  27.291  25.780  1.00  0.00     0.023 A 
ATOM     83  C   UNL A   1      48.662  27.462  24.391  1.00  0.00     0.031 A 
ATOM     84  C   UNL A   1      49.718  26.938  26.491  1.00  0.00     0.131 A 
ATOM     85  C   UNL A   1      49.895  27.250  23.752  1.00  0.00     0.055 A 
ATOM     86  C   UNL A   1      50.953  26.783  25.859  1.00  0.00     0.041 A 
ATOM     87  F   UNL A   1      49.673  26.762  27.822  1.00  0.00    -0.206 F 
ATOM     88  C   UNL A   1      51.044  26.929  24.480  1.00  0.00     0.022 A 
BRANCH  85  89
ATOM     89  S   UNL A   1      49.965  27.330  21.941  1.00  0.00     0.124 S 
ATOM     90  O   UNL A   1      49.700  28.743  21.696  1.00  0.00    -0.237 OA
ATOM     91  O   UNL A   1      51.323  26.874  21.668  1.00  0.00    -0.237 OA
ATOM     92  O   UNL A   1      48.907  26.414  21.519  1.00  0.00    -0.744 OA
ENDBRANCH  85  89
ENDBRANCH  58  82
BRANCH  70  93
ATOM     93  C   UNL A   1      45.418  32.699  28.905  1.00  0.00     0.023 A 
ATOM     94  C   UNL A   1      45.045  33.777  28.085  1.00  0.00     0.031 A 
ATOM     95  C   UNL A   1      46.231  32.968  30.020  1.00  0.00     0.131 A 
ATOM     96  C   UNL A   1      45.529  35.065  28.360  1.00  0.00     0.055 A 
ATOM     97  C   UNL A   1      46.651  34.262  30.330  1.00  0.00     0.041 A 
ATOM     98  F   UNL A   1      46.623  31.977  30.837  1.00  0.00    -0.206 F 
ATOM     99  C   UNL A   1      46.311  35.318  29.490  1.00  0.00     0.022 A 
BRANCH  96 100
ATOM    100  S   UNL A   1      45.204  36.390  27.165  1.00  0.00     0.124 S 
ATOM    101  O   UNL A   1      46.503  36.535  26.516  1.00  0.00    -0.237 OA
ATOM    102  O   UNL A   1      44.141  35.819  26.345  1.00  0.00    -0.237 OA
ATOM    103  O   UNL A   1      44.802  37.516  28.005  1.00  0.00    -0.744 OA
ENDBRANCH  96 100
ENDBRANCH  70  93
ENDBRANCH  44  45
ENDBRANCH  36  39
ENDBRANCH  34  35
ENDBRANCH  33  34
ENDBRANCH  32  33
ENDBRANCH   1  32
TORSDOF 20
ENDMDL
MODEL 2
REMARK VINA RESULT:     -12.5      2.217      4.942
REMARK SMILES CN(C(=O)C[C@H]1SC(=O)N(c2cccc(O)c2)C1=O)c1ccccc1C(=O)NCCCCNC(=O)c1ccc(-c2c3nc(c(-c4cc(S(=O)(=O)[O-])ccc4F)c4ccc([nH]4)c(-c4cc(S(=O)(=O)[O-])ccc4F)c4nc(c(-c5cc(S(=O)(=O)[O-])ccc5F)c5ccc2[nH]5)C=C4)C=C3)cc1
REMARK SMILES IDX 29 1 28 2 26 3 27 4 25 6 20 7 21 8 22 9 24 10 23 11 2 12
REMARK SMILES IDX 1 13 3 14 4 15 5 16 6 17 7 18 18 19 8 20 10 21 19 22 9 23
REMARK SMILES IDX 11 24 12 25 17 26 13 27 15 28 14 29 16 30 30 32 31 33 32 34
REMARK SMILES IDX 33 35 34 36 35 38 36 39 37 40 98 41 38 42 97 43 39 44 40 45
REMARK SMILES IDX 41 46 91 47 42 48 96 49 90 50 92 51 43 52 95 53 89 54 88 55
REMARK SMILES IDX 44 57 76 58 56 59 75 60 57 61 60 62 74 63 93 64 58 65 59 66
REMARK SMILES IDX 73 68 94 69 61 70 45 71 46 72 54 73 47 74 53 75 55 76 52 77
REMARK SMILES IDX 48 78 49 79 50 80 51 81 77 82 78 83 86 84 79 85 85 86 87 87
REMARK SMILES IDX 84 88 80 89 81 90 82 91 83 92 62 93 63 94 71 95 64 96 70 97
REMARK SMILES IDX 72 98 69 99 65 100 66 101 67 102 68 103
REMARK H PARENT 28 5 16 31 33 37 92 56 60 67
REMARK Flexibility Score: inf
ROOT
ATOM      1  C   UNL A   1      34.789  24.955  24.593  1.00  0.00     0.116 C 
ENDROOT
BRANCH   1   2
ATOM      2  N   UNL A   1      33.945  24.948  25.748  1.00  0.00    -0.352 N 
ATOM      3  C   UNL A   1      32.833  25.626  26.138  1.00  0.00     0.253 C 
ATOM      4  O   UNL A   1      32.256  25.071  27.086  1.00  0.00    -0.269 OA
ATOM      5  H   UNL A   1      34.238  24.295  26.424  1.00  0.00     0.163 HD
BRANCH   3   6
ATOM      6  C   UNL A   1      32.221  26.884  25.573  1.00  0.00     0.063 A 
ATOM      7  C   UNL A   1      31.164  27.131  24.666  1.00  0.00     0.056 A 
ATOM      8  C   UNL A   1      30.908  28.467  24.245  1.00  0.00     0.027 A 
ATOM      9  C   UNL A   1      31.677  29.548  24.664  1.00  0.00     0.002 A 
ATOM     10  C   UNL A   1      32.964  28.028  25.990  1.00  0.00     0.016 A 
ATOM     11  C   UNL A   1      32.715  29.326  25.542  1.00  0.00     0.001 A 
BRANCH   7  12
ATOM     12  N   UNL A   1      30.294  26.174  24.039  1.00  0.00    -0.315 N 
ATOM     13  C   UNL A   1      28.912  26.653  23.882  1.00  0.00     0.153 C 
BRANCH  12  14
ATOM     14  C   UNL A   1      30.905  25.280  23.135  1.00  0.00     0.228 C 
ATOM     15  O   UNL A   1      31.776  25.645  22.340  1.00  0.00    -0.274 OA
BRANCH  14  16
ATOM     16  C   UNL A   1      30.504  23.806  23.125  1.00  0.00     0.125 C 
BRANCH  16  17
ATOM     17  C   UNL A   1      31.561  22.974  23.835  1.00  0.00     0.156 C 
ATOM     18  S   UNL A   1      30.995  22.578  25.507  1.00  0.00    -0.050 SA
ATOM     19  C   UNL A   1      31.992  21.615  23.302  1.00  0.00     0.248 C 
ATOM     20  C   UNL A   1      32.163  21.287  25.629  1.00  0.00     0.293 C 
ATOM     21  N   UNL A   1      32.471  20.842  24.361  1.00  0.00    -0.240 N 
ATOM     22  O   UNL A   1      31.934  21.294  22.122  1.00  0.00    -0.273 OA
ATOM     23  O   UNL A   1      32.616  20.936  26.701  1.00  0.00    -0.261 OA
BRANCH  21  24
ATOM     24  C   UNL A   1      33.178  19.627  24.188  1.00  0.00     0.056 A 
ATOM     25  C   UNL A   1      32.540  18.549  23.550  1.00  0.00     0.027 A 
ATOM     26  C   UNL A   1      34.481  19.456  24.666  1.00  0.00     0.073 A 
ATOM     27  C   UNL A   1      33.199  17.336  23.360  1.00  0.00     0.006 A 
ATOM     28  C   UNL A   1      35.108  18.217  24.523  1.00  0.00     0.117 A 
ATOM     29  C   UNL A   1      34.487  17.164  23.856  1.00  0.00     0.046 A 
BRANCH  28  30
ATOM     30  O   UNL A   1      36.346  18.054  25.074  1.00  0.00    -0.508 OA
ATOM     31  H   UNL A   1      36.439  17.972  26.003  1.00  0.00     0.293 HD
ENDBRANCH  28  30
ENDBRANCH  21  24
ENDBRANCH  16  17
ENDBRANCH  14  16
ENDBRANCH  12  14
ENDBRANCH   7  12
ENDBRANCH   3   6
ENDBRANCH   1   2
BRANCH   1  32
ATOM     32  C   UNL A   1      34.840  23.581  23.951  1.00  0.00     0.023 C 
BRANCH  32  33
ATOM     33  C   UNL A   1      36.203  22.910  23.957  1.00  0.00     0.023 C 
BRANCH  33  34
ATOM     34  C   UNL A   1      36.587  22.346  25.317  1.00  0.00     0.116 C 
BRANCH  34  35
ATOM     35  N   UNL A   1      37.533  21.234  25.262  1.00  0.00    -0.352 N 
ATOM     36  C   UNL A   1      38.791  21.142  25.825  1.00  0.00     0.251 C 
ATOM     37  H   UNL A   1      37.234  20.445  24.756  1.00  0.00     0.163 HD
ATOM     38  O   UNL A   1      39.469  20.128  25.704  1.00  0.00    -0.269 OA
BRANCH  36  39
ATOM     39  C   UNL A   1      39.301  22.308  26.556  1.00  0.00     0.039 A 
ATOM     40  C   UNL A   1      40.340  22.150  27.475  1.00  0.00     0.014 A 
ATOM     41  C   UNL A   1      38.849  23.571  26.181  1.00  0.00     0.014 A 
ATOM     42  C   UNL A   1      40.991  23.286  27.955  1.00  0.00     0.010 A 
ATOM     43  C   UNL A   1      39.587  24.681  26.552  1.00  0.00     0.010 A 
ATOM     44  C   UNL A   1      40.661  24.553  27.447  1.00  0.00    -0.014 A 
BRANCH  44  45
ATOM     45  C   UNL A   1      41.412  25.778  27.823  1.00  0.00     0.031 A 
ATOM     46  C   UNL A   1      40.687  26.891  28.529  1.00  0.00     0.074 A 
ATOM     47  C   UNL A   1      42.690  25.934  27.424  1.00  0.00     0.049 A 
ATOM     48  N   UNL A   1      41.090  28.105  28.796  1.00  0.00    -0.248 NA
ATOM     49  C   UNL A   1      39.301  26.614  28.939  1.00  0.00     0.031 C 
ATOM     50  C   UNL A   1      43.475  24.944  26.681  1.00  0.00     0.029 A 
ATOM     51  N   UNL A   1      43.550  26.995  27.566  1.00  0.00    -0.354 N 
ATOM     52  C   UNL A   1      39.997  28.743  29.372  1.00  0.00     0.074 A 
ATOM     53  C   UNL A   1      38.897  27.807  29.342  1.00  0.00     0.031 C 
ATOM     54  C   UNL A   1      44.702  25.436  26.451  1.00  0.00     0.029 A 
ATOM     55  C   UNL A   1      44.775  26.797  26.972  1.00  0.00     0.049 A 
ATOM     56  H   UNL A   1      43.310  27.820  28.046  1.00  0.00     0.167 HD
ATOM     57  C   UNL A   1      39.929  29.989  29.902  1.00  0.00     0.034 A 
ATOM     58  C   UNL A   1      45.829  27.628  26.838  1.00  0.00     0.034 A 
ATOM     59  C   UNL A   1      41.051  30.893  29.936  1.00  0.00     0.049 A 
ATOM     60  C   UNL A   1      45.730  29.014  27.422  1.00  0.00     0.074 A 
ATOM     61  C   UNL A   1      41.131  32.143  30.523  1.00  0.00     0.029 A 
ATOM     62  N   UNL A   1      42.286  30.650  29.346  1.00  0.00    -0.354 N 
ATOM     63  N   UNL A   1      44.716  29.581  28.035  1.00  0.00    -0.248 NA
ATOM     64  C   UNL A   1      46.917  29.869  27.300  1.00  0.00     0.031 C 
ATOM     65  C   UNL A   1      42.378  32.692  30.209  1.00  0.00     0.029 A 
ATOM     66  C   UNL A   1      43.116  31.748  29.509  1.00  0.00     0.049 A 
ATOM     67  H   UNL A   1      42.535  29.820  28.879  1.00  0.00     0.167 HD
ATOM     68  C   UNL A   1      45.150  30.855  28.391  1.00  0.00     0.074 A 
ATOM     69  C   UNL A   1      46.524  30.962  27.941  1.00  0.00     0.031 C 
ATOM     70  C   UNL A   1      44.477  31.845  29.032  1.00  0.00     0.034 A 
BRANCH  57  71
ATOM     71  C   UNL A   1      38.593  30.442  30.445  1.00  0.00     0.023 A 
ATOM     72  C   UNL A   1      37.608  31.013  29.619  1.00  0.00     0.031 A 
ATOM     73  C   UNL A   1      38.320  30.352  31.822  1.00  0.00     0.131 A 
ATOM     74  C   UNL A   1      36.445  31.557  30.186  1.00  0.00     0.055 A 
ATOM     75  C   UNL A   1      37.117  30.805  32.366  1.00  0.00     0.041 A 
ATOM     76  F   UNL A   1      39.228  29.841  32.668  1.00  0.00    -0.206 F 
ATOM     77  C   UNL A   1      36.179  31.431  31.550  1.00  0.00     0.022 A 
BRANCH  74  78
ATOM     78  S   UNL A   1      35.379  32.590  29.144  1.00  0.00     0.124 S 
ATOM     79  O   UNL A   1      34.625  33.341  30.146  1.00  0.00    -0.237 OA
ATOM     80  O   UNL A   1      36.344  33.356  28.364  1.00  0.00    -0.237 OA
ATOM     81  O   UNL A   1      34.594  31.618  28.387  1.00  0.00    -0.744 OA
ENDBRANCH  74  78
ENDBRANCH  57  71
BRANCH  58  82
ATOM     82  C   UNL A   1      47.046  27.183  26.096  1.00  0.00     0.023 A 
ATOM     83  C   UNL A   1      48.108  26.542  26.752  1.00  0.00     0.031 A 
ATOM     84  C   UNL A   1      47.166  27.408  24.712  1.00  0.00     0.131 A 
ATOM     85  C   UNL A   1      49.257  26.177  26.031  1.00  0.00     0.055 A 
ATOM     86  C   UNL A   1      48.287  26.994  23.990  1.00  0.00     0.041 A 
ATOM     87  F   UNL A   1      46.179  28.017  24.034  1.00  0.00    -0.206 F 
ATOM     88  C   UNL A   1      49.345  26.383  24.652  1.00  0.00     0.022 A 
BRANCH  85  89
ATOM     89  S   UNL A   1      50.672  25.490  26.935  1.00  0.00     0.124 S 
ATOM     90  O   UNL A   1      50.063  24.360  27.626  1.00  0.00    -0.237 OA
ATOM     91  O   UNL A   1      51.593  25.160  25.853  1.00  0.00    -0.237 OA
ATOM     92  O   UNL A   1      51.095  26.593  27.795  1.00  0.00    -0.744 OA
ENDBRANCH  85  89
ENDBRANCH  58  82
BRANCH  70  93
ATOM     93  C   UNL A   1      45.233  33.122  29.307  1.00  0.00     0.023 A 
ATOM     94  C   UNL A   1      45.201  34.207  28.415  1.00  0.00     0.031 A 
ATOM     95  C   UNL A   1      45.992  33.257  30.483  1.00  0.00     0.131 A 
ATOM     96  C   UNL A   1      45.956  35.358  28.685  1.00  0.00     0.055 A 
ATOM     97  C   UNL A   1      46.684  34.431  30.782  1.00  0.00     0.041 A 
ATOM     98  F   UNL A   1      46.064  32.251  31.370  1.00  0.00    -0.206 F 
ATOM     99  C   UNL A   1      46.679  35.485  29.874  1.00  0.00     0.022 A 
BRANCH  96 100
ATOM    100  S   UNL A   1      46.061  36.648  27.416  1.00  0.00     0.124 S 
ATOM    101  O   UNL A   1      46.570  35.903  26.270  1.00  0.00    -0.237 OA
ATOM    102  O   UNL A   1      44.680  37.105  27.318  1.00  0.00    -0.237 OA
ATOM    103  O   UNL A   1      46.995  37.617  27.989  1.00  0.00    -0.744 OA
ENDBRANCH  96 100
ENDBRANCH  70  93
ENDBRANCH  44  45
ENDBRANCH  36  39
ENDBRANCH  34  35
ENDBRANCH  33  34
ENDBRANCH  32  33
ENDBRANCH   1  32
TORSDOF 20
ENDMDL
MODEL 3
REMARK VINA RESULT:     -12.4      1.902      2.636
REMARK SMILES CN(C(=O)C[C@H]1SC(=O)N(c2cccc(O)c2)C1=O)c1ccccc1C(=O)NCCCCNC(=O)c1ccc(-c2c3nc(c(-c4cc(S(=O)(=O)[O-])ccc4F)c4ccc([nH]4)c(-c4cc(S(=O)(=O)[O-])ccc4F)c4nc(c(-c5cc(S(=O)(=O)[O-])ccc5F)c5ccc2[nH]5)C=C4)C=C3)cc1
REMARK SMILES IDX 29 1 28 2 26 3 27 4 25 6 20 7 21 8 22 9 24 10 23 11 2 12
REMARK SMILES IDX 1 13 3 14 4 15 5 16 6 17 7 18 18 19 8 20 10 21 19 22 9 23
REMARK SMILES IDX 11 24 12 25 17 26 13 27 15 28 14 29 16 30 30 32 31 33 32 34
REMARK SMILES IDX 33 35 34 36 35 38 36 39 37 40 98 41 38 42 97 43 39 44 40 45
REMARK SMILES IDX 41 46 91 47 42 48 96 49 90 50 92 51 43 52 95 53 89 54 88 55
REMARK SMILES IDX 44 57 76 58 56 59 75 60 57 61 60 62 74 63 93 64 58 65 59 66
REMARK SMILES IDX 73 68 94 69 61 70 45 71 46 72 54 73 47 74 53 75 55 76 52 77
REMARK SMILES IDX 48 78 49 79 50 80 51 81 77 82 78 83 86 84 79 85 85 86 87 87
REMARK SMILES IDX 84 88 80 89 81 90 82 91 83 92 62 93 63 94 71 95 64 96 70 97
REMARK SMILES IDX 72 98 69 99 65 100 66 101 67 102 68 103
REMARK H PARENT 28 5 16 31 33 37 92 56 60 67
REMARK Flexibility Score: inf
ROOT
ATOM      1  C   UNL A   1      36.979  22.210  24.956  1.00  0.00     0.116 C 
ENDROOT
BRANCH   1   2
ATOM      2  N   UNL A   1      35.933  22.132  25.929  1.00  0.00    -0.352 N 
ATOM      3  C   UNL A   1      34.794  21.404  26.068  1.00  0.00     0.253 C 
ATOM      4  O   UNL A   1      34.352  21.445  27.227  1.00  0.00    -0.269 OA
ATOM      5  H   UNL A   1      36.070  22.755  26.678  1.00  0.00     0.163 HD
BRANCH   3   6
ATOM      6  C   UNL A   1      34.053  20.566  25.055  1.00  0.00     0.063 A 
ATOM      7  C   UNL A   1      32.911  20.793  24.251  1.00  0.00     0.056 A 
ATOM      8  C   UNL A   1      32.392  19.726  23.466  1.00  0.00     0.027 A 
ATOM      9  C   UNL A   1      32.941  18.448  23.476  1.00  0.00     0.002 A 
ATOM     10  C   UNL A   1      34.592  19.246  25.014  1.00  0.00     0.016 A 
ATOM     11  C   UNL A   1      34.049  18.205  24.259  1.00  0.00     0.001 A 
BRANCH   7  12
ATOM     12  N   UNL A   1      32.132  21.996  24.141  1.00  0.00    -0.315 N 
ATOM     13  C   UNL A   1      31.391  22.329  25.368  1.00  0.00     0.153 C 
BRANCH  12  14
ATOM     14  C   UNL A   1      32.624  22.974  23.251  1.00  0.00     0.228 C 
ATOM     15  O   UNL A   1      33.666  22.812  22.610  1.00  0.00    -0.274 OA
BRANCH  14  16
ATOM     16  C   UNL A   1      31.857  24.279  23.046  1.00  0.00     0.125 C 
BRANCH  16  17
ATOM     17  C   UNL A   1      32.696  25.456  23.523  1.00  0.00     0.156 C 
ATOM     18  S   UNL A   1      33.091  26.523  22.116  1.00  0.00    -0.050 SA
ATOM     19  C   UNL A   1      32.165  26.446  24.549  1.00  0.00     0.248 C 
ATOM     20  C   UNL A   1      33.491  27.839  23.190  1.00  0.00     0.293 C 
ATOM     21  N   UNL A   1      32.811  27.671  24.377  1.00  0.00    -0.240 N 
ATOM     22  O   UNL A   1      31.321  26.169  25.392  1.00  0.00    -0.273 OA
ATOM     23  O   UNL A   1      34.292  28.698  22.876  1.00  0.00    -0.261 OA
BRANCH  21  24
ATOM     24  C   UNL A   1      32.741  28.732  25.312  1.00  0.00     0.056 A 
ATOM     25  C   UNL A   1      31.735  29.704  25.171  1.00  0.00     0.027 A 
ATOM     26  C   UNL A   1      33.667  28.862  26.353  1.00  0.00     0.073 A 
ATOM     27  C   UNL A   1      31.631  30.765  26.068  1.00  0.00     0.006 A 
ATOM     28  C   UNL A   1      33.588  29.963  27.208  1.00  0.00     0.117 A 
ATOM     29  C   UNL A   1      32.567  30.901  27.088  1.00  0.00     0.046 A 
BRANCH  28  30
ATOM     30  O   UNL A   1      34.555  30.108  28.161  1.00  0.00    -0.508 OA
ATOM     31  H   UNL A   1      35.339  30.582  27.964  1.00  0.00     0.293 HD
ENDBRANCH  28  30
ENDBRANCH  21  24
ENDBRANCH  16  17
ENDBRANCH  14  16
ENDBRANCH  12  14
ENDBRANCH   7  12
ENDBRANCH   3   6
ENDBRANCH   1   2
BRANCH   1  32
ATOM     32  C   UNL A   1      38.167  21.361  25.369  1.00  0.00     0.023 C 
BRANCH  32  33
ATOM     33  C   UNL A   1      39.269  22.099  26.110  1.00  0.00     0.023 C 
BRANCH  33  34
ATOM     34  C   UNL A   1      40.125  21.186  26.975  1.00  0.00     0.116 C 
BRANCH  34  35
ATOM     35  N   UNL A   1      40.844  20.153  26.233  1.00  0.00    -0.352 N 
ATOM     36  C   UNL A   1      42.148  20.165  25.780  1.00  0.00     0.251 C 
ATOM     37  H   UNL A   1      40.329  19.340  26.028  1.00  0.00     0.163 HD
ATOM     38  O   UNL A   1      42.621  19.208  25.178  1.00  0.00    -0.269 OA
BRANCH  36  39
ATOM     39  C   UNL A   1      42.948  21.372  26.025  1.00  0.00     0.039 A 
ATOM     40  C   UNL A   1      43.031  22.359  25.042  1.00  0.00     0.014 A 
ATOM     41  C   UNL A   1      43.459  21.576  27.305  1.00  0.00     0.014 A 
ATOM     42  C   UNL A   1      43.560  23.604  25.382  1.00  0.00     0.010 A 
ATOM     43  C   UNL A   1      43.852  22.851  27.670  1.00  0.00     0.010 A 
ATOM     44  C   UNL A   1      43.913  23.878  26.714  1.00  0.00    -0.014 A 
BRANCH  44  45
ATOM     45  C   UNL A   1      44.353  25.224  27.156  1.00  0.00     0.031 A 
ATOM     46  C   UNL A   1      43.340  26.165  27.752  1.00  0.00     0.074 A 
ATOM     47  C   UNL A   1      45.613  25.637  26.912  1.00  0.00     0.049 A 
ATOM     48  N   UNL A   1      43.457  27.433  28.045  1.00  0.00    -0.248 NA
ATOM     49  C   UNL A   1      41.998  25.613  27.996  1.00  0.00     0.031 C 
ATOM     50  C   UNL A   1      46.664  24.830  26.286  1.00  0.00     0.029 A 
ATOM     51  N   UNL A   1      46.220  26.847  27.139  1.00  0.00    -0.354 N 
ATOM     52  C   UNL A   1      42.197  27.835  28.475  1.00  0.00     0.074 A 
ATOM     53  C   UNL A   1      41.318  26.697  28.327  1.00  0.00     0.031 C 
ATOM     54  C   UNL A   1      47.787  25.560  26.198  1.00  0.00     0.029 A 
ATOM     55  C   UNL A   1      47.523  26.903  26.702  1.00  0.00     0.049 A 
ATOM     56  H   UNL A   1      45.764  27.604  27.574  1.00  0.00     0.167 HD
ATOM     57  C   UNL A   1      41.818  29.037  28.971  1.00  0.00     0.034 A 
ATOM     58  C   UNL A   1      48.398  27.929  26.681  1.00  0.00     0.034 A 
ATOM     59  C   UNL A   1      42.725  30.147  29.126  1.00  0.00     0.049 A 
ATOM     60  C   UNL A   1      47.955  29.263  27.226  1.00  0.00     0.074 A 
ATOM     61  C   UNL A   1      42.481  31.383  29.697  1.00  0.00     0.029 A 
ATOM     62  N   UNL A   1      44.045  30.161  28.693  1.00  0.00    -0.354 N 
ATOM     63  N   UNL A   1      46.781  29.610  27.703  1.00  0.00    -0.248 NA
ATOM     64  C   UNL A   1      48.952  30.339  27.235  1.00  0.00     0.031 C 
ATOM     65  C   UNL A   1      43.622  32.173  29.527  1.00  0.00     0.029 A 
ATOM     66  C   UNL A   1      44.613  31.401  28.937  1.00  0.00     0.049 A 
ATOM     67  H   UNL A   1      44.510  29.401  28.273  1.00  0.00     0.167 HD
ATOM     68  C   UNL A   1      46.905  30.942  28.088  1.00  0.00     0.074 A 
ATOM     69  C   UNL A   1      48.275  31.326  27.805  1.00  0.00     0.031 C 
ATOM     70  C   UNL A   1      45.976  31.773  28.626  1.00  0.00     0.034 A 
BRANCH  57  71
ATOM     71  C   UNL A   1      40.362  29.210  29.342  1.00  0.00     0.023 A 
ATOM     72  C   UNL A   1      39.927  29.184  30.680  1.00  0.00     0.031 A 
ATOM     73  C   UNL A   1      39.386  29.350  28.340  1.00  0.00     0.131 A 
ATOM     74  C   UNL A   1      38.554  29.196  30.971  1.00  0.00     0.055 A 
ATOM     75  C   UNL A   1      38.028  29.463  28.643  1.00  0.00     0.041 A 
ATOM     76  F   UNL A   1      39.733  29.357  27.043  1.00  0.00    -0.206 F 
ATOM     77  C   UNL A   1      37.603  29.366  29.964  1.00  0.00     0.022 A 
BRANCH  74  78
ATOM     78  S   UNL A   1      38.028  28.804  32.663  1.00  0.00     0.124 S 
ATOM     79  O   UNL A   1      38.155  27.348  32.681  1.00  0.00    -0.237 OA
ATOM     80  O   UNL A   1      38.992  29.540  33.472  1.00  0.00    -0.237 OA
ATOM     81  O   UNL A   1      36.655  29.301  32.718  1.00  0.00    -0.744 OA
ENDBRANCH  74  78
ENDBRANCH  57  71
BRANCH  58  82
ATOM     82  C   UNL A   1      49.760  27.743  26.100  1.00  0.00     0.023 A 
ATOM     83  C   UNL A   1      50.029  28.047  24.756  1.00  0.00     0.031 A 
ATOM     84  C   UNL A   1      50.815  27.243  26.885  1.00  0.00     0.131 A 
ATOM     85  C   UNL A   1      51.311  27.818  24.230  1.00  0.00     0.055 A 
ATOM     86  C   UNL A   1      52.102  27.070  26.372  1.00  0.00     0.041 A 
ATOM     87  F   UNL A   1      50.614  26.936  28.177  1.00  0.00    -0.206 F 
ATOM     88  C   UNL A   1      52.353  27.349  25.034  1.00  0.00     0.022 A 
BRANCH  85  89
ATOM     89  S   UNL A   1      51.585  28.077  22.456  1.00  0.00     0.124 S 
ATOM     90  O   UNL A   1      50.803  29.283  22.207  1.00  0.00    -0.237 OA
ATOM     91  O   UNL A   1      53.034  28.227  22.389  1.00  0.00    -0.237 OA
ATOM     92  O   UNL A   1      51.059  26.856  21.848  1.00  0.00    -0.744 OA
ENDBRANCH  85  89
ENDBRANCH  58  82
BRANCH  70  93
ATOM     93  C   UNL A   1      46.422  33.173  28.969  1.00  0.00     0.023 A 
ATOM     94  C   UNL A   1      46.323  34.228  28.046  1.00  0.00     0.031 A 
ATOM     95  C   UNL A   1      46.948  33.457  30.242  1.00  0.00     0.131 A 
ATOM     96  C   UNL A   1      46.794  35.504  28.389  1.00  0.00     0.055 A 
ATOM     97  C   UNL A   1      47.349  34.744  30.603  1.00  0.00     0.041 A 
ATOM     98  F   UNL A   1      47.071  32.488  31.164  1.00  0.00    -0.206 F 
ATOM     99  C   UNL A   1      47.285  35.774  29.669  1.00  0.00     0.022 A 
BRANCH  96 100
ATOM    100  S   UNL A   1      46.849  36.785  27.107  1.00  0.00     0.124 S 
ATOM    101  O   UNL A   1      48.272  37.104  27.061  1.00  0.00    -0.237 OA
ATOM    102  O   UNL A   1      46.314  36.087  25.943  1.00  0.00    -0.237 OA
ATOM    103  O   UNL A   1      45.993  37.842  27.642  1.00  0.00    -0.744 OA
ENDBRANCH  96 100
ENDBRANCH  70  93
ENDBRANCH  44  45
ENDBRANCH  36  39
ENDBRANCH  34  35
ENDBRANCH  33  34
ENDBRANCH  32  33
ENDBRANCH   1  32
TORSDOF 20
ENDMDL
