MODEL 1
REMARK VINA RESULT:     -12.5      0.000      0.000
REMARK SMILES O=C(NCCCCNC(=O)c1c(F)cccc1N1CC[C@@H]([NH+]2CCCCC2)C1)c1ccc(-c2c3nc(c(-c4cc(S(=O)(=O)[O-])ccc4F)c4ccc([nH]4)c(-c4cc(S(=O)(=O)[O-])ccc4F)c4nc(c(-c5cc(S(=O)(=O)[O-])ccc5F)c5ccc2[nH]5)C=C4)C=C3)cc1
REMARK SMILES IDX 5 1 4 2 3 3 1 4 2 5 29 7 30 8 91 9 31 10 90 11 32 12 33 13
REMARK SMILES IDX 34 14 84 15 35 16 89 17 83 18 85 19 36 20 88 21 82 22 81 23
REMARK SMILES IDX 37 25 69 26 49 27 68 28 50 29 53 30 67 31 86 32 51 33 52 34
REMARK SMILES IDX 66 36 87 37 54 38 38 39 39 40 47 41 40 42 46 43 48 44 45 45
REMARK SMILES IDX 41 46 42 47 43 48 44 49 70 50 71 51 79 52 72 53 78 54 80 55
REMARK SMILES IDX 77 56 73 57 74 58 75 59 76 60 55 61 56 62 64 63 57 64 63 65
REMARK SMILES IDX 65 66 62 67 58 68 59 69 60 70 61 71 6 72 7 73 8 74 9 75
REMARK SMILES IDX 10 77 11 78 12 79 17 80 13 81 14 82 16 83 15 84 18 85 19 86
REMARK SMILES IDX 28 87 20 88 21 89 22 90 23 91 27 92 24 94 26 95 25 96
REMARK H PARENT 3 6 85 24 53 35 8 76 22 93
REMARK Flexibility Score: inf
ROOT
ATOM      1  C   UNL A   1      31.121  32.125  26.525  1.00  0.00     0.023 C 
ENDROOT
BRANCH   1   2
ATOM      2  C   UNL A   1      32.470  32.572  27.072  1.00  0.00     0.116 C 
BRANCH   2   3
ATOM      3  N   UNL A   1      32.491  33.950  27.541  1.00  0.00    -0.352 N 
ATOM      4  O   UNL A   1      33.156  35.717  28.776  1.00  0.00    -0.269 OA
ATOM      5  C   UNL A   1      33.341  34.548  28.445  1.00  0.00     0.251 C 
ATOM      6  H   UNL A   1      31.799  34.537  27.160  1.00  0.00     0.163 HD
BRANCH   5   7
ATOM      7  C   UNL A   1      34.450  33.771  29.043  1.00  0.00     0.039 A 
ATOM      8  C   UNL A   1      34.190  32.670  29.858  1.00  0.00     0.014 A 
ATOM      9  C   UNL A   1      35.771  34.169  28.808  1.00  0.00     0.014 A 
ATOM     10  C   UNL A   1      35.225  32.086  30.577  1.00  0.00     0.010 A 
ATOM     11  C   UNL A   1      36.824  33.514  29.456  1.00  0.00     0.010 A 
ATOM     12  C   UNL A   1      36.556  32.493  30.380  1.00  0.00    -0.014 A 
BRANCH  12  13
ATOM     13  C   UNL A   1      37.635  31.793  31.126  1.00  0.00     0.031 A 
ATOM     14  C   UNL A   1      38.481  30.732  30.477  1.00  0.00     0.074 A 
ATOM     15  C   UNL A   1      37.897  32.186  32.390  1.00  0.00     0.049 A 
ATOM     16  N   UNL A   1      39.517  30.096  30.964  1.00  0.00    -0.248 NA
ATOM     17  C   UNL A   1      38.118  30.324  29.112  1.00  0.00     0.031 C 
ATOM     18  C   UNL A   1      37.136  33.201  33.125  1.00  0.00     0.029 A 
ATOM     19  N   UNL A   1      38.893  31.825  33.259  1.00  0.00    -0.354 N 
ATOM     20  C   UNL A   1      39.917  29.200  29.979  1.00  0.00     0.074 A 
ATOM     21  C   UNL A   1      38.995  29.358  28.874  1.00  0.00     0.031 C 
ATOM     22  C   UNL A   1      37.742  33.443  34.294  1.00  0.00     0.029 A 
ATOM     23  C   UNL A   1      38.891  32.553  34.425  1.00  0.00     0.049 A 
ATOM     24  H   UNL A   1      39.546  31.114  33.067  1.00  0.00     0.167 HD
ATOM     25  C   UNL A   1      40.959  28.333  29.996  1.00  0.00     0.034 A 
ATOM     26  C   UNL A   1      39.714  32.513  35.489  1.00  0.00     0.034 A 
ATOM     27  C   UNL A   1      41.882  28.202  31.097  1.00  0.00     0.049 A 
ATOM     28  C   UNL A   1      40.849  31.533  35.495  1.00  0.00     0.074 A 
ATOM     29  C   UNL A   1      43.000  27.390  31.193  1.00  0.00     0.029 A 
ATOM     30  N   UNL A   1      41.795  28.896  32.298  1.00  0.00    -0.354 N 
ATOM     31  N   UNL A   1      41.205  30.688  34.556  1.00  0.00    -0.248 NA
ATOM     32  C   UNL A   1      41.681  31.486  36.703  1.00  0.00     0.031 C 
ATOM     33  C   UNL A   1      43.550  27.546  32.470  1.00  0.00     0.029 A 
ATOM     34  C   UNL A   1      42.815  28.504  33.151  1.00  0.00     0.049 A 
ATOM     35  H   UNL A   1      41.107  29.568  32.512  1.00  0.00     0.167 HD
ATOM     36  C   UNL A   1      42.304  30.005  35.061  1.00  0.00     0.074 A 
ATOM     37  C   UNL A   1      42.560  30.545  36.383  1.00  0.00     0.031 C 
ATOM     38  C   UNL A   1      43.036  29.024  34.478  1.00  0.00     0.034 A 
BRANCH  25  39
ATOM     39  C   UNL A   1      41.135  27.422  28.807  1.00  0.00     0.023 A 
ATOM     40  C   UNL A   1      42.141  27.635  27.849  1.00  0.00     0.031 A 
ATOM     41  C   UNL A   1      40.288  26.311  28.639  1.00  0.00     0.131 A 
ATOM     42  C   UNL A   1      42.244  26.778  26.741  1.00  0.00     0.055 A 
ATOM     43  C   UNL A   1      40.436  25.426  27.569  1.00  0.00     0.041 A 
ATOM     44  F   UNL A   1      39.300  26.069  29.515  1.00  0.00    -0.206 F 
ATOM     45  C   UNL A   1      41.414  25.662  26.608  1.00  0.00     0.022 A 
BRANCH  42  46
ATOM     46  S   UNL A   1      43.423  27.193  25.426  1.00  0.00     0.124 S 
ATOM     47  O   UNL A   1      44.365  28.055  26.135  1.00  0.00    -0.237 OA
ATOM     48  O   UNL A   1      43.929  25.885  25.029  1.00  0.00    -0.237 OA
ATOM     49  O   UNL A   1      42.599  27.871  24.428  1.00  0.00    -0.744 OA
ENDBRANCH  42  46
ENDBRANCH  25  39
BRANCH  26  50
ATOM     50  C   UNL A   1      39.459  33.422  36.638  1.00  0.00     0.023 A 
ATOM     51  C   UNL A   1      38.821  32.961  37.798  1.00  0.00     0.031 A 
ATOM     52  C   UNL A   1      39.924  34.750  36.612  1.00  0.00     0.131 A 
ATOM     53  C   UNL A   1      38.666  33.827  38.893  1.00  0.00     0.055 A 
ATOM     54  C   UNL A   1      39.797  35.594  37.714  1.00  0.00     0.041 A 
ATOM     55  F   UNL A   1      40.558  35.224  35.528  1.00  0.00    -0.206 F 
ATOM     56  C   UNL A   1      39.164  35.133  38.864  1.00  0.00     0.022 A 
BRANCH  53  57
ATOM     57  S   UNL A   1      37.817  33.218  40.376  1.00  0.00     0.124 S 
ATOM     58  O   UNL A   1      38.668  32.101  40.767  1.00  0.00    -0.237 OA
ATOM     59  O   UNL A   1      37.846  34.387  41.250  1.00  0.00    -0.237 OA
ATOM     60  O   UNL A   1      36.491  32.851  39.882  1.00  0.00    -0.744 OA
ENDBRANCH  53  57
ENDBRANCH  26  50
BRANCH  38  61
ATOM     61  C   UNL A   1      44.193  28.471  35.265  1.00  0.00     0.023 A 
ATOM     62  C   UNL A   1      44.004  27.480  36.242  1.00  0.00     0.031 A 
ATOM     63  C   UNL A   1      45.501  28.911  35.002  1.00  0.00     0.131 A 
ATOM     64  C   UNL A   1      45.110  26.974  36.941  1.00  0.00     0.055 A 
ATOM     65  C   UNL A   1      46.601  28.377  35.673  1.00  0.00     0.041 A 
ATOM     66  F   UNL A   1      45.729  29.856  34.075  1.00  0.00    -0.206 F 
ATOM     67  C   UNL A   1      46.408  27.405  36.651  1.00  0.00     0.022 A 
BRANCH  64  68
ATOM     68  S   UNL A   1      44.833  25.752  38.252  1.00  0.00     0.124 S 
ATOM     69  O   UNL A   1      46.192  25.297  38.530  1.00  0.00    -0.237 OA
ATOM     70  O   UNL A   1      44.200  26.544  39.300  1.00  0.00    -0.237 OA
ATOM     71  O   UNL A   1      43.965  24.761  37.617  1.00  0.00    -0.744 OA
ENDBRANCH  64  68
ENDBRANCH  38  61
ENDBRANCH  12  13
ENDBRANCH   5   7
ENDBRANCH   2   3
ENDBRANCH   1   2
BRANCH   1  72
ATOM     72  C   UNL A   1      31.131  30.868  25.661  1.00  0.00     0.023 C 
BRANCH  72  73
ATOM     73  C   UNL A   1      32.375  29.991  25.777  1.00  0.00     0.116 C 
BRANCH  73  74
ATOM     74  N   UNL A   1      33.006  29.709  24.499  1.00  0.00    -0.352 N 
ATOM     75  C   UNL A   1      32.541  28.935  23.459  1.00  0.00     0.256 C 
ATOM     76  H   UNL A   1      33.886  30.127  24.357  1.00  0.00     0.163 HD
ATOM     77  O   UNL A   1      33.194  28.832  22.424  1.00  0.00    -0.269 OA
BRANCH  75  78
ATOM     78  C   UNL A   1      31.269  28.209  23.607  1.00  0.00     0.098 A 
ATOM     79  C   UNL A   1      30.130  28.857  23.110  1.00  0.00     0.138 A 
ATOM     80  C   UNL A   1      31.195  26.896  24.121  1.00  0.00     0.053 A 
ATOM     81  F   UNL A   1      30.214  30.095  22.596  1.00  0.00    -0.206 F 
ATOM     82  C   UNL A   1      28.881  28.256  23.161  1.00  0.00     0.040 A 
ATOM     83  C   UNL A   1      29.916  26.302  24.127  1.00  0.00     0.027 A 
ATOM     84  C   UNL A   1      28.772  26.973  23.674  1.00  0.00     0.005 A 
BRANCH  80  85
ATOM     85  N   UNL A   1      32.256  26.171  24.618  1.00  0.00    -0.365 N 
ATOM     86  C   UNL A   1      32.708  26.167  25.999  1.00  0.00     0.123 C 
ATOM     87  C   UNL A   1      33.225  25.501  23.741  1.00  0.00     0.181 C 
ATOM     88  C   UNL A   1      34.214  26.000  25.887  1.00  0.00     0.088 C 
ATOM     89  C   UNL A   1      34.431  25.114  24.658  1.00  0.00     0.205 C 
BRANCH  89  90
ATOM     90  N   UNL A   1      34.614  23.660  24.849  1.00  0.00    -0.331 N 
ATOM     91  C   UNL A   1      35.405  23.207  25.991  1.00  0.00     0.262 C 
ATOM     92  C   UNL A   1      34.925  22.915  23.624  1.00  0.00     0.262 C 
ATOM     93  H   UNL A   1      33.665  23.411  25.125  1.00  0.00     0.348 HD
ATOM     94  C   UNL A   1      36.911  23.086  25.739  1.00  0.00     0.062 C 
ATOM     95  C   UNL A   1      36.412  22.804  23.286  1.00  0.00     0.062 C 
ATOM     96  C   UNL A   1      37.224  22.300  24.472  1.00  0.00     0.012 C 
ENDBRANCH  89  90
ENDBRANCH  80  85
ENDBRANCH  75  78
ENDBRANCH  73  74
ENDBRANCH  72  73
ENDBRANCH   1  72
TORSDOF 16
ENDMDL
MODEL 2
REMARK VINA RESULT:     -12.4      5.517      8.624
REMARK SMILES O=C(NCCCCNC(=O)c1c(F)cccc1N1CC[C@@H]([NH+]2CCCCC2)C1)c1ccc(-c2c3nc(c(-c4cc(S(=O)(=O)[O-])ccc4F)c4ccc([nH]4)c(-c4cc(S(=O)(=O)[O-])ccc4F)c4nc(c(-c5cc(S(=O)(=O)[O-])ccc5F)c5ccc2[nH]5)C=C4)C=C3)cc1
REMARK SMILES IDX 5 1 4 2 3 3 1 4 2 5 29 7 30 8 91 9 31 10 90 11 32 12 33 13
REMARK SMILES IDX 34 14 84 15 35 16 89 17 83 18 85 19 36 20 88 21 82 22 81 23
REMARK SMILES IDX 37 25 69 26 49 27 68 28 50 29 53 30 67 31 86 32 51 33 52 34
REMARK SMILES IDX 66 36 87 37 54 38 38 39 39 40 47 41 40 42 46 43 48 44 45 45
REMARK SMILES IDX 41 46 42 47 43 48 44 49 70 50 71 51 79 52 72 53 78 54 80 55
REMARK SMILES IDX 77 56 73 57 74 58 75 59 76 60 55 61 56 62 64 63 57 64 63 65
REMARK SMILES IDX 65 66 62 67 58 68 59 69 60 70 61 71 6 72 7 73 8 74 9 75
REMARK SMILES IDX 10 77 11 78 12 79 17 80 13 81 14 82 16 83 15 84 18 85 19 86
REMARK SMILES IDX 28 87 20 88 21 89 22 90 23 91 27 92 24 94 26 95 25 96
REMARK H PARENT 3 6 85 24 53 35 8 76 22 93
REMARK Flexibility Score: inf
ROOT
ATOM      1  C   UNL A   1      35.512  22.545  24.993  1.00  0.00     0.023 C 
ENDROOT
BRANCH   1   2
ATOM      2  C   UNL A   1      36.984  22.507  24.605  1.00  0.00     0.116 C 
BRANCH   2   3
ATOM      3  N   UNL A   1      37.691  21.327  25.084  1.00  0.00    -0.352 N 
ATOM      4  O   UNL A   1      39.307  20.154  26.133  1.00  0.00    -0.269 OA
ATOM      5  C   UNL A   1      38.803  21.249  25.893  1.00  0.00     0.251 C 
ATOM      6  H   UNL A   1      37.323  20.465  24.786  1.00  0.00     0.163 HD
BRANCH   5   7
ATOM      7  C   UNL A   1      39.409  22.484  26.439  1.00  0.00     0.039 A 
ATOM      8  C   UNL A   1      38.911  23.738  26.086  1.00  0.00     0.014 A 
ATOM      9  C   UNL A   1      40.512  22.386  27.295  1.00  0.00     0.014 A 
ATOM     10  C   UNL A   1      39.619  24.882  26.435  1.00  0.00     0.010 A 
ATOM     11  C   UNL A   1      41.164  23.545  27.728  1.00  0.00     0.010 A 
ATOM     12  C   UNL A   1      40.749  24.802  27.267  1.00  0.00    -0.014 A 
BRANCH  12  13
ATOM     13  C   UNL A   1      41.433  26.061  27.663  1.00  0.00     0.031 A 
ATOM     14  C   UNL A   1      42.795  26.418  27.133  1.00  0.00     0.074 A 
ATOM     15  C   UNL A   1      40.769  26.928  28.456  1.00  0.00     0.049 A 
ATOM     16  N   UNL A   1      43.483  27.518  27.311  1.00  0.00    -0.248 NA
ATOM     17  C   UNL A   1      43.479  25.414  26.306  1.00  0.00     0.031 C 
ATOM     18  C   UNL A   1      39.445  26.684  29.036  1.00  0.00     0.029 A 
ATOM     19  N   UNL A   1      41.084  28.195  28.869  1.00  0.00    -0.354 N 
ATOM     20  C   UNL A   1      44.687  27.334  26.639  1.00  0.00     0.074 A 
ATOM     21  C   UNL A   1      44.644  26.003  26.069  1.00  0.00     0.031 C 
ATOM     22  C   UNL A   1      39.026  27.795  29.654  1.00  0.00     0.029 A 
ATOM     23  C   UNL A   1      40.076  28.805  29.579  1.00  0.00     0.049 A 
ATOM     24  H   UNL A   1      41.948  28.627  28.679  1.00  0.00     0.167 HD
ATOM     25  C   UNL A   1      45.724  28.196  26.507  1.00  0.00     0.034 A 
ATOM     26  C   UNL A   1      39.997  30.037  30.115  1.00  0.00     0.034 A 
ATOM     27  C   UNL A   1      45.741  29.527  27.063  1.00  0.00     0.049 A 
ATOM     28  C   UNL A   1      41.164  30.968  29.973  1.00  0.00     0.074 A 
ATOM     29  C   UNL A   1      46.722  30.498  26.943  1.00  0.00     0.029 A 
ATOM     30  N   UNL A   1      44.736  30.077  27.849  1.00  0.00    -0.354 N 
ATOM     31  N   UNL A   1      42.297  30.770  29.341  1.00  0.00    -0.248 NA
ATOM     32  C   UNL A   1      41.053  32.277  30.628  1.00  0.00     0.031 C 
ATOM     33  C   UNL A   1      46.340  31.607  27.706  1.00  0.00     0.029 A 
ATOM     34  C   UNL A   1      45.090  31.356  28.250  1.00  0.00     0.049 A 
ATOM     35  H   UNL A   1      43.895  29.623  28.088  1.00  0.00     0.167 HD
ATOM     36  C   UNL A   1      43.037  31.932  29.522  1.00  0.00     0.074 A 
ATOM     37  C   UNL A   1      42.218  32.830  30.314  1.00  0.00     0.031 C 
ATOM     38  C   UNL A   1      44.280  32.226  29.068  1.00  0.00     0.034 A 
BRANCH  25  39
ATOM     39  C   UNL A   1      46.948  27.715  25.768  1.00  0.00     0.023 A 
ATOM     40  C   UNL A   1      47.145  27.982  24.403  1.00  0.00     0.031 A 
ATOM     41  C   UNL A   1      47.942  26.991  26.450  1.00  0.00     0.131 A 
ATOM     42  C   UNL A   1      48.285  27.486  23.751  1.00  0.00     0.055 A 
ATOM     43  C   UNL A   1      49.105  26.555  25.811  1.00  0.00     0.041 A 
ATOM     44  F   UNL A   1      47.798  26.695  27.751  1.00  0.00    -0.206 F 
ATOM     45  C   UNL A   1      49.277  26.794  24.452  1.00  0.00     0.022 A 
BRANCH  42  46
ATOM     46  S   UNL A   1      48.414  27.677  21.952  1.00  0.00     0.124 S 
ATOM     47  O   UNL A   1      47.114  28.260  21.623  1.00  0.00    -0.237 OA
ATOM     48  O   UNL A   1      49.564  28.562  21.808  1.00  0.00    -0.237 OA
ATOM     49  O   UNL A   1      48.615  26.311  21.474  1.00  0.00    -0.744 OA
ENDBRANCH  42  46
ENDBRANCH  25  39
BRANCH  26  50
ATOM     50  C   UNL A   1      38.769  30.428  30.855  1.00  0.00     0.023 A 
ATOM     51  C   UNL A   1      37.754  31.169  30.233  1.00  0.00     0.031 A 
ATOM     52  C   UNL A   1      38.565  29.994  32.178  1.00  0.00     0.131 A 
ATOM     53  C   UNL A   1      36.573  31.454  30.938  1.00  0.00     0.055 A 
ATOM     54  C   UNL A   1      37.378  30.252  32.861  1.00  0.00     0.041 A 
ATOM     55  F   UNL A   1      39.504  29.265  32.802  1.00  0.00    -0.206 F 
ATOM     56  C   UNL A   1      36.372  30.986  32.241  1.00  0.00     0.022 A 
BRANCH  53  57
ATOM     57  S   UNL A   1      35.282  32.434  30.123  1.00  0.00     0.124 S 
ATOM     58  O   UNL A   1      34.336  32.643  31.214  1.00  0.00    -0.237 OA
ATOM     59  O   UNL A   1      36.022  33.611  29.680  1.00  0.00    -0.237 OA
ATOM     60  O   UNL A   1      34.817  31.557  29.051  1.00  0.00    -0.744 OA
ENDBRANCH  53  57
ENDBRANCH  26  50
BRANCH  38  61
ATOM     61  C   UNL A   1      44.833  33.581  29.413  1.00  0.00     0.023 A 
ATOM     62  C   UNL A   1      44.623  34.690  28.577  1.00  0.00     0.031 A 
ATOM     63  C   UNL A   1      45.541  33.772  30.612  1.00  0.00     0.131 A 
ATOM     64  C   UNL A   1      45.137  35.943  28.942  1.00  0.00     0.055 A 
ATOM     65  C   UNL A   1      46.016  35.028  30.989  1.00  0.00     0.041 A 
ATOM     66  F   UNL A   1      45.763  32.741  31.443  1.00  0.00    -0.206 F 
ATOM     67  C   UNL A   1      45.818  36.121  30.150  1.00  0.00     0.022 A 
BRANCH  64  68
ATOM     68  S   UNL A   1      44.921  37.343  27.810  1.00  0.00     0.124 S 
ATOM     69  O   UNL A   1      43.904  36.834  26.894  1.00  0.00    -0.237 OA
ATOM     70  O   UNL A   1      44.495  38.414  28.703  1.00  0.00    -0.237 OA
ATOM     71  O   UNL A   1      46.249  37.518  27.225  1.00  0.00    -0.744 OA
ENDBRANCH  64  68
ENDBRANCH  38  61
ENDBRANCH  12  13
ENDBRANCH   5   7
ENDBRANCH   2   3
ENDBRANCH   1   2
BRANCH   1  72
ATOM     72  C   UNL A   1      35.213  22.850  26.457  1.00  0.00     0.023 C 
BRANCH  72  73
ATOM     73  C   UNL A   1      34.379  21.808  27.197  1.00  0.00     0.116 C 
BRANCH  73  74
ATOM     74  N   UNL A   1      33.050  22.276  27.555  1.00  0.00    -0.352 N 
ATOM     75  C   UNL A   1      31.960  22.483  26.742  1.00  0.00     0.256 C 
ATOM     76  H   UNL A   1      32.912  22.473  28.510  1.00  0.00     0.163 HD
ATOM     77  O   UNL A   1      30.891  22.850  27.221  1.00  0.00    -0.269 OA
BRANCH  75  78
ATOM     78  C   UNL A   1      32.091  22.286  25.288  1.00  0.00     0.098 A 
ATOM     79  C   UNL A   1      32.189  20.957  24.854  1.00  0.00     0.138 A 
ATOM     80  C   UNL A   1      32.020  23.352  24.365  1.00  0.00     0.053 A 
ATOM     81  F   UNL A   1      32.226  19.947  25.737  1.00  0.00    -0.206 F 
ATOM     82  C   UNL A   1      32.281  20.647  23.505  1.00  0.00     0.040 A 
ATOM     83  C   UNL A   1      32.083  22.998  23.002  1.00  0.00     0.027 A 
ATOM     84  C   UNL A   1      32.230  21.672  22.573  1.00  0.00     0.005 A 
BRANCH  80  85
ATOM     85  N   UNL A   1      31.909  24.685  24.691  1.00  0.00    -0.365 N 
ATOM     86  C   UNL A   1      32.879  25.458  25.447  1.00  0.00     0.123 C 
ATOM     87  C   UNL A   1      30.654  25.430  24.523  1.00  0.00     0.181 C 
ATOM     88  C   UNL A   1      32.028  26.442  26.232  1.00  0.00     0.088 C 
ATOM     89  C   UNL A   1      30.839  26.762  25.322  1.00  0.00     0.205 C 
BRANCH  89  90
ATOM     90  N   UNL A   1      30.889  27.977  24.483  1.00  0.00    -0.331 N 
ATOM     91  C   UNL A   1      31.205  27.826  23.064  1.00  0.00     0.262 C 
ATOM     92  C   UNL A   1      31.588  29.114  25.093  1.00  0.00     0.262 C 
ATOM     93  H   UNL A   1      29.895  28.204  24.465  1.00  0.00     0.348 HD
ATOM     94  C   UNL A   1      32.697  27.858  22.719  1.00  0.00     0.062 C 
ATOM     95  C   UNL A   1      33.092  29.174  24.830  1.00  0.00     0.062 C 
ATOM     96  C   UNL A   1      33.411  29.049  23.346  1.00  0.00     0.012 C 
ENDBRANCH  89  90
ENDBRANCH  80  85
ENDBRANCH  75  78
ENDBRANCH  73  74
ENDBRANCH  72  73
ENDBRANCH   1  72
TORSDOF 16
ENDMDL
MODEL 3
REMARK VINA RESULT:     -12.3      5.431     11.544
REMARK SMILES O=C(NCCCCNC(=O)c1c(F)cccc1N1CC[C@@H]([NH+]2CCCCC2)C1)c1ccc(-c2c3nc(c(-c4cc(S(=O)(=O)[O-])ccc4F)c4ccc([nH]4)c(-c4cc(S(=O)(=O)[O-])ccc4F)c4nc(c(-c5cc(S(=O)(=O)[O-])ccc5F)c5ccc2[nH]5)C=C4)C=C3)cc1
REMARK SMILES IDX 5 1 4 2 3 3 1 4 2 5 29 7 30 8 91 9 31 10 90 11 32 12 33 13
REMARK SMILES IDX 34 14 84 15 35 16 89 17 83 18 85 19 36 20 88 21 82 22 81 23
REMARK SMILES IDX 37 25 69 26 49 27 68 28 50 29 53 30 67 31 86 32 51 33 52 34
REMARK SMILES IDX 66 36 87 37 54 38 38 39 39 40 47 41 40 42 46 43 48 44 45 45
REMARK SMILES IDX 41 46 42 47 43 48 44 49 70 50 71 51 79 52 72 53 78 54 80 55
REMARK SMILES IDX 77 56 73 57 74 58 75 59 76 60 55 61 56 62 64 63 57 64 63 65
REMARK SMILES IDX 65 66 62 67 58 68 59 69 60 70 61 71 6 72 7 73 8 74 9 75
REMARK SMILES IDX 10 77 11 78 12 79 17 80 13 81 14 82 16 83 15 84 18 85 19 86
REMARK SMILES IDX 28 87 20 88 21 89 22 90 23 91 27 92 24 94 26 95 25 96
REMARK H PARENT 3 6 85 24 53 35 8 76 22 93
REMARK Flexibility Score: inf
ROOT
ATOM      1  C   UNL A   1      38.219  19.622  24.809  1.00  0.00     0.023 C 
ENDROOT
BRANCH   1   2
ATOM      2  C   UNL A   1      39.126  20.003  25.971  1.00  0.00     0.116 C 
BRANCH   2   3
ATOM      3  N   UNL A   1      40.325  19.184  26.078  1.00  0.00    -0.352 N 
ATOM      4  O   UNL A   1      42.525  18.736  26.303  1.00  0.00    -0.269 OA
ATOM      5  C   UNL A   1      41.624  19.572  26.322  1.00  0.00     0.251 C 
ATOM      6  H   UNL A   1      40.188  18.217  25.959  1.00  0.00     0.163 HD
BRANCH   5   7
ATOM      7  C   UNL A   1      41.936  20.998  26.567  1.00  0.00     0.039 A 
ATOM      8  C   UNL A   1      41.869  21.930  25.531  1.00  0.00     0.014 A 
ATOM      9  C   UNL A   1      42.331  21.403  27.846  1.00  0.00     0.014 A 
ATOM     10  C   UNL A   1      42.366  23.212  25.727  1.00  0.00     0.010 A 
ATOM     11  C   UNL A   1      42.737  22.724  28.066  1.00  0.00     0.010 A 
ATOM     12  C   UNL A   1      42.799  23.629  26.997  1.00  0.00    -0.014 A 
BRANCH  12  13
ATOM     13  C   UNL A   1      43.262  25.032  27.168  1.00  0.00     0.031 A 
ATOM     14  C   UNL A   1      42.376  26.086  27.775  1.00  0.00     0.074 A 
ATOM     15  C   UNL A   1      44.536  25.329  26.838  1.00  0.00     0.049 A 
ATOM     16  N   UNL A   1      42.664  27.327  28.075  1.00  0.00    -0.248 NA
ATOM     17  C   UNL A   1      40.989  25.706  28.076  1.00  0.00     0.031 C 
ATOM     18  C   UNL A   1      45.484  24.388  26.234  1.00  0.00     0.029 A 
ATOM     19  N   UNL A   1      45.267  26.476  27.004  1.00  0.00    -0.354 N 
ATOM     20  C   UNL A   1      41.494  27.884  28.579  1.00  0.00     0.074 A 
ATOM     21  C   UNL A   1      40.484  26.849  28.522  1.00  0.00     0.031 C 
ATOM     22  C   UNL A   1      46.690  24.967  26.162  1.00  0.00     0.029 A 
ATOM     23  C   UNL A   1      46.587  26.339  26.645  1.00  0.00     0.049 A 
ATOM     24  H   UNL A   1      44.884  27.316  27.346  1.00  0.00     0.167 HD
ATOM     25  C   UNL A   1      41.287  29.138  29.051  1.00  0.00     0.034 A 
ATOM     26  C   UNL A   1      47.607  27.216  26.692  1.00  0.00     0.034 A 
ATOM     27  C   UNL A   1      42.311  30.152  29.121  1.00  0.00     0.049 A 
ATOM     28  C   UNL A   1      47.352  28.604  27.199  1.00  0.00     0.074 A 
ATOM     29  C   UNL A   1      42.217  31.438  29.629  1.00  0.00     0.029 A 
ATOM     30  N   UNL A   1      43.616  30.002  28.667  1.00  0.00    -0.354 N 
ATOM     31  N   UNL A   1      46.235  29.112  27.664  1.00  0.00    -0.248 NA
ATOM     32  C   UNL A   1      48.482  29.540  27.174  1.00  0.00     0.031 C 
ATOM     33  C   UNL A   1      43.442  32.082  29.424  1.00  0.00     0.029 A 
ATOM     34  C   UNL A   1      44.323  31.180  28.849  1.00  0.00     0.049 A 
ATOM     35  H   UNL A   1      43.984  29.178  28.272  1.00  0.00     0.167 HD
ATOM     36  C   UNL A   1      46.527  30.432  27.986  1.00  0.00     0.074 A 
ATOM     37  C   UNL A   1      47.928  30.638  27.673  1.00  0.00     0.031 C 
ATOM     38  C   UNL A   1      45.708  31.382  28.499  1.00  0.00     0.034 A 
BRANCH  25  39
ATOM     39  C   UNL A   1      39.891  29.503  29.487  1.00  0.00     0.023 A 
ATOM     40  C   UNL A   1      39.534  29.586  30.844  1.00  0.00     0.031 A 
ATOM     41  C   UNL A   1      38.904  29.788  28.526  1.00  0.00     0.131 A 
ATOM     42  C   UNL A   1      38.212  29.898  31.201  1.00  0.00     0.055 A 
ATOM     43  C   UNL A   1      37.608  30.161  28.889  1.00  0.00     0.041 A 
ATOM     44  F   UNL A   1      39.186  29.709  27.216  1.00  0.00    -0.206 F 
ATOM     45  C   UNL A   1      37.254  30.209  30.233  1.00  0.00     0.022 A 
BRANCH  42  46
ATOM     46  S   UNL A   1      37.737  29.805  32.950  1.00  0.00     0.124 S 
ATOM     47  O   UNL A   1      36.646  30.775  33.011  1.00  0.00    -0.237 OA
ATOM     48  O   UNL A   1      37.355  28.406  33.101  1.00  0.00    -0.237 OA
ATOM     49  O   UNL A   1      38.952  30.199  33.658  1.00  0.00    -0.744 OA
ENDBRANCH  42  46
ENDBRANCH  25  39
BRANCH  26  50
ATOM     50  C   UNL A   1      48.950  26.791  26.216  1.00  0.00     0.023 A 
ATOM     51  C   UNL A   1      49.454  27.230  24.983  1.00  0.00     0.031 A 
ATOM     52  C   UNL A   1      49.778  25.998  27.032  1.00  0.00     0.131 A 
ATOM     53  C   UNL A   1      50.756  26.872  24.600  1.00  0.00     0.055 A 
ATOM     54  C   UNL A   1      51.081  25.674  26.661  1.00  0.00     0.041 A 
ATOM     55  F   UNL A   1      49.341  25.574  28.228  1.00  0.00    -0.206 F 
ATOM     56  C   UNL A   1      51.578  26.112  25.437  1.00  0.00     0.022 A 
BRANCH  53  57
ATOM     57  S   UNL A   1      51.380  27.432  22.991  1.00  0.00     0.124 S 
ATOM     58  O   UNL A   1      52.747  26.924  23.010  1.00  0.00    -0.237 OA
ATOM     59  O   UNL A   1      50.464  26.778  22.061  1.00  0.00    -0.237 OA
ATOM     60  O   UNL A   1      51.252  28.886  23.064  1.00  0.00    -0.744 OA
ENDBRANCH  53  57
ENDBRANCH  26  50
BRANCH  38  61
ATOM     61  C   UNL A   1      46.308  32.736  28.761  1.00  0.00     0.023 A 
ATOM     62  C   UNL A   1      46.210  33.773  27.820  1.00  0.00     0.031 A 
ATOM     63  C   UNL A   1      46.947  33.001  29.984  1.00  0.00     0.131 A 
ATOM     64  C   UNL A   1      46.764  35.029  28.109  1.00  0.00     0.055 A 
ATOM     65  C   UNL A   1      47.462  34.262  30.283  1.00  0.00     0.041 A 
ATOM     66  F   UNL A   1      47.062  32.039  30.916  1.00  0.00    -0.206 F 
ATOM     67  C   UNL A   1      47.375  35.284  29.340  1.00  0.00     0.022 A 
BRANCH  64  68
ATOM     68  S   UNL A   1      46.693  36.330  26.847  1.00  0.00     0.124 S 
ATOM     69  O   UNL A   1      45.254  36.491  26.663  1.00  0.00    -0.237 OA
ATOM     70  O   UNL A   1      47.381  37.441  27.495  1.00  0.00    -0.237 OA
ATOM     71  O   UNL A   1      47.402  35.743  25.711  1.00  0.00    -0.744 OA
ENDBRANCH  64  68
ENDBRANCH  38  61
ENDBRANCH  12  13
ENDBRANCH   5   7
ENDBRANCH   2   3
ENDBRANCH   1   2
BRANCH   1  72
ATOM     72  C   UNL A   1      36.747  19.996  24.957  1.00  0.00     0.023 C 
BRANCH  72  73
ATOM     73  C   UNL A   1      36.466  21.419  25.430  1.00  0.00     0.116 C 
BRANCH  73  74
ATOM     74  N   UNL A   1      35.503  21.490  26.516  1.00  0.00    -0.352 N 
ATOM     75  C   UNL A   1      34.132  21.375  26.462  1.00  0.00     0.256 C 
ATOM     76  H   UNL A   1      35.883  21.641  27.411  1.00  0.00     0.163 HD
ATOM     77  O   UNL A   1      33.467  21.423  27.493  1.00  0.00    -0.269 OA
BRANCH  75  78
ATOM     78  C   UNL A   1      33.467  21.221  25.158  1.00  0.00     0.098 A 
ATOM     79  C   UNL A   1      33.125  19.911  24.793  1.00  0.00     0.138 A 
ATOM     80  C   UNL A   1      33.096  22.322  24.357  1.00  0.00     0.053 A 
ATOM     81  F   UNL A   1      33.457  18.871  25.575  1.00  0.00    -0.206 F 
ATOM     82  C   UNL A   1      32.463  19.647  23.603  1.00  0.00     0.040 A 
ATOM     83  C   UNL A   1      32.395  22.019  23.171  1.00  0.00     0.027 A 
ATOM     84  C   UNL A   1      32.097  20.705  22.786  1.00  0.00     0.005 A 
BRANCH  80  85
ATOM     85  N   UNL A   1      33.371  23.642  24.635  1.00  0.00    -0.365 N 
ATOM     86  C   UNL A   1      34.548  24.374  24.197  1.00  0.00     0.123 C 
ATOM     87  C   UNL A   1      32.615  24.406  25.636  1.00  0.00     0.181 C 
ATOM     88  C   UNL A   1      34.825  25.334  25.342  1.00  0.00     0.088 C 
ATOM     89  C   UNL A   1      33.448  25.702  25.902  1.00  0.00     0.205 C 
BRANCH  89  90
ATOM     90  N   UNL A   1      32.803  26.950  25.445  1.00  0.00    -0.331 N 
ATOM     91  C   UNL A   1      33.633  28.144  25.295  1.00  0.00     0.262 C 
ATOM     92  C   UNL A   1      31.515  27.243  26.084  1.00  0.00     0.262 C 
ATOM     93  H   UNL A   1      32.612  26.691  24.477  1.00  0.00     0.348 HD
ATOM     94  C   UNL A   1      33.778  29.003  26.554  1.00  0.00     0.062 C 
ATOM     95  C   UNL A   1      31.595  28.053  27.377  1.00  0.00     0.062 C 
ATOM     96  C   UNL A   1      32.435  29.313  27.202  1.00  0.00     0.012 C 
ENDBRANCH  89  90
ENDBRANCH  80  85
ENDBRANCH  75  78
ENDBRANCH  73  74
ENDBRANCH  72  73
ENDBRANCH   1  72
TORSDOF 16
ENDMDL
