MODEL 1
REMARK VINA RESULT:     -11.8      0.000      0.000
REMARK SMILES C[C@]1(c2nnnn2CCC(=O)NCCCCNC(=O)c2ccc(-c3c4nc(c(-c5cc(S(=O)(=O)[O-])ccc5F)c5ccc([nH]5)c(-c5cc(S(=O)(=O)[O-])ccc5F)c5nc(c(-c6cc(S(=O)(=O)[O-])ccc6F)c6ccc3[nH]6)C=C5)C=C4)cc2)CCCO1
REMARK SMILES IDX 14 1 13 2 12 3 10 4 11 5 9 7 8 8 7 9 3 10 4 11 5 12 6 13
REMARK SMILES IDX 2 14 1 15 83 16 86 17 84 18 85 19 15 20 16 21 17 22 18 23
REMARK SMILES IDX 19 25 20 26 21 27 82 28 22 29 81 30 23 31 24 32 25 33 75 34
REMARK SMILES IDX 26 35 80 36 74 37 76 38 27 39 79 40 73 41 72 42 28 44 60 45
REMARK SMILES IDX 40 46 59 47 41 48 44 49 58 50 77 51 42 52 43 53 57 55 78 56
REMARK SMILES IDX 45 57 29 58 30 59 38 60 31 61 37 62 39 63 36 64 32 65 33 66
REMARK SMILES IDX 34 67 35 68 61 69 62 70 70 71 63 72 69 73 71 74 68 75 64 76
REMARK SMILES IDX 65 77 66 78 67 79 46 80 47 81 55 82 48 83 54 84 56 85 53 86
REMARK SMILES IDX 49 87 50 88 51 89 52 90
REMARK H PARENT 12 6 17 24 76 43 44 54
REMARK Flexibility Score: inf
ROOT
ATOM      1  C   UNL A   1      37.285  31.112  32.864  1.00  0.00     0.023 C 
ENDROOT
BRANCH   1   2
ATOM      2  C   UNL A   1      37.109  31.997  34.095  1.00  0.00     0.116 C 
BRANCH   2   3
ATOM      3  N   UNL A   1      37.115  33.405  33.726  1.00  0.00    -0.356 N 
ATOM      4  C   UNL A   1      36.084  34.232  33.398  1.00  0.00     0.221 C 
ATOM      5  O   UNL A   1      36.342  35.337  32.918  1.00  0.00    -0.275 OA
ATOM      6  H   UNL A   1      38.004  33.826  33.711  1.00  0.00     0.163 HD
BRANCH   4   7
ATOM      7  C   UNL A   1      34.642  33.830  33.641  1.00  0.00     0.124 C 
BRANCH   7   8
ATOM      8  C   UNL A   1      33.839  33.767  32.345  1.00  0.00     0.158 C 
BRANCH   8   9
ATOM      9  N   UNL A   1      33.215  35.022  31.992  1.00  0.00    -0.226 N 
ATOM     10  C   UNL A   1      33.289  35.813  30.870  1.00  0.00     0.183 A 
ATOM     11  N   UNL A   1      32.754  36.981  31.192  1.00  0.00    -0.111 NA
ATOM     12  N   UNL A   1      32.153  36.813  32.405  1.00  0.00    -0.024 NA
ATOM     13  N   UNL A   1      32.377  35.598  32.875  1.00  0.00    -0.045 NA
BRANCH  10  14
ATOM     14  C   UNL A   1      33.610  35.413  29.467  1.00  0.00     0.126 C 
ATOM     15  C   UNL A   1      33.661  36.702  28.622  1.00  0.00     0.051 C 
ATOM     16  C   UNL A   1      34.881  34.585  29.319  1.00  0.00     0.046 C 
ATOM     17  O   UNL A   1      32.569  34.579  28.927  1.00  0.00    -0.367 OA
ATOM     18  C   UNL A   1      34.657  33.915  27.981  1.00  0.00     0.032 C 
ATOM     19  C   UNL A   1      33.163  33.655  27.995  1.00  0.00     0.161 C 
ENDBRANCH  10  14
ENDBRANCH   8   9
ENDBRANCH   7   8
ENDBRANCH   4   7
ENDBRANCH   2   3
ENDBRANCH   1   2
BRANCH   1  20
ATOM     20  C   UNL A   1      38.444  31.440  31.924  1.00  0.00     0.023 C 
BRANCH  20  21
ATOM     21  C   UNL A   1      38.023  31.932  30.550  1.00  0.00     0.116 C 
BRANCH  21  22
ATOM     22  N   UNL A   1      36.681  31.493  30.173  1.00  0.00    -0.352 N 
ATOM     23  C   UNL A   1      36.351  30.510  29.263  1.00  0.00     0.251 C 
ATOM     24  H   UNL A   1      35.929  31.949  30.617  1.00  0.00     0.163 HD
ATOM     25  O   UNL A   1      35.224  30.425  28.789  1.00  0.00    -0.269 OA
BRANCH  23  26
ATOM     26  C   UNL A   1      37.419  29.581  28.859  1.00  0.00     0.039 A 
ATOM     27  C   UNL A   1      38.135  29.817  27.689  1.00  0.00     0.014 A 
ATOM     28  C   UNL A   1      37.816  28.599  29.770  1.00  0.00     0.014 A 
ATOM     29  C   UNL A   1      39.340  29.146  27.502  1.00  0.00     0.010 A 
ATOM     30  C   UNL A   1      39.055  27.999  29.619  1.00  0.00     0.010 A 
ATOM     31  C   UNL A   1      39.840  28.283  28.498  1.00  0.00    -0.014 A 
BRANCH  31  32
ATOM     32  C   UNL A   1      41.257  27.882  28.430  1.00  0.00     0.031 A 
ATOM     33  C   UNL A   1      41.523  26.655  27.625  1.00  0.00     0.074 A 
ATOM     34  C   UNL A   1      42.328  28.601  28.830  1.00  0.00     0.049 A 
ATOM     35  N   UNL A   1      41.892  25.494  28.057  1.00  0.00    -0.248 NA
ATOM     36  C   UNL A   1      41.239  26.684  26.181  1.00  0.00     0.031 C 
ATOM     37  C   UNL A   1      42.338  29.977  29.330  1.00  0.00     0.029 A 
ATOM     38  N   UNL A   1      43.662  28.283  28.775  1.00  0.00    -0.354 N 
ATOM     39  C   UNL A   1      42.150  24.729  26.922  1.00  0.00     0.074 A 
ATOM     40  C   UNL A   1      41.540  25.433  25.827  1.00  0.00     0.031 C 
ATOM     41  C   UNL A   1      43.600  30.455  29.304  1.00  0.00     0.029 A 
ATOM     42  C   UNL A   1      44.505  29.368  28.973  1.00  0.00     0.049 A 
ATOM     43  H   UNL A   1      43.991  27.370  28.608  1.00  0.00     0.167 HD
ATOM     44  C   UNL A   1      43.086  23.738  26.955  1.00  0.00     0.034 A 
ATOM     45  C   UNL A   1      45.858  29.409  28.912  1.00  0.00     0.034 A 
ATOM     46  C   UNL A   1      43.466  23.438  28.317  1.00  0.00     0.049 A 
ATOM     47  C   UNL A   1      46.376  28.069  29.258  1.00  0.00     0.074 A 
ATOM     48  C   UNL A   1      42.936  22.781  29.404  1.00  0.00     0.029 A 
ATOM     49  N   UNL A   1      44.524  24.179  28.770  1.00  0.00    -0.354 N 
ATOM     50  N   UNL A   1      46.166  27.503  30.416  1.00  0.00    -0.248 NA
ATOM     51  C   UNL A   1      46.901  27.182  28.226  1.00  0.00     0.031 C 
ATOM     52  C   UNL A   1      43.600  23.312  30.554  1.00  0.00     0.029 A 
ATOM     53  C   UNL A   1      44.533  24.258  30.138  1.00  0.00     0.049 A 
ATOM     54  H   UNL A   1      45.195  24.601  28.186  1.00  0.00     0.167 HD
ATOM     55  C   UNL A   1      46.110  26.154  30.140  1.00  0.00     0.074 A 
ATOM     56  C   UNL A   1      46.749  26.005  28.840  1.00  0.00     0.031 C 
ATOM     57  C   UNL A   1      45.241  25.339  30.805  1.00  0.00     0.034 A 
BRANCH  44  58
ATOM     58  C   UNL A   1      44.030  23.363  25.817  1.00  0.00     0.023 A 
ATOM     59  C   UNL A   1      43.985  22.023  25.365  1.00  0.00     0.031 A 
ATOM     60  C   UNL A   1      45.150  24.107  25.388  1.00  0.00     0.131 A 
ATOM     61  C   UNL A   1      45.049  21.459  24.637  1.00  0.00     0.055 A 
ATOM     62  C   UNL A   1      46.181  23.556  24.617  1.00  0.00     0.041 A 
ATOM     63  F   UNL A   1      45.363  25.373  25.759  1.00  0.00    -0.206 F 
ATOM     64  C   UNL A   1      46.152  22.218  24.264  1.00  0.00     0.022 A 
BRANCH  61  65
ATOM     65  S   UNL A   1      45.043  19.671  24.330  1.00  0.00     0.124 S 
ATOM     66  O   UNL A   1      44.528  19.605  22.968  1.00  0.00    -0.237 OA
ATOM     67  O   UNL A   1      46.451  19.331  24.507  1.00  0.00    -0.237 OA
ATOM     68  O   UNL A   1      44.146  19.154  25.362  1.00  0.00    -0.744 OA
ENDBRANCH  61  65
ENDBRANCH  44  58
BRANCH  45  69
ATOM     69  C   UNL A   1      46.700  30.534  28.437  1.00  0.00     0.023 A 
ATOM     70  C   UNL A   1      46.251  31.468  27.484  1.00  0.00     0.031 A 
ATOM     71  C   UNL A   1      47.909  30.836  29.104  1.00  0.00     0.131 A 
ATOM     72  C   UNL A   1      46.995  32.643  27.238  1.00  0.00     0.055 A 
ATOM     73  C   UNL A   1      48.647  31.993  28.850  1.00  0.00     0.041 A 
ATOM     74  F   UNL A   1      48.373  30.049  30.090  1.00  0.00    -0.206 F 
ATOM     75  C   UNL A   1      48.184  32.910  27.920  1.00  0.00     0.022 A 
BRANCH  72  76
ATOM     76  S   UNL A   1      46.352  33.907  26.098  1.00  0.00     0.124 S 
ATOM     77  O   UNL A   1      47.539  34.260  25.328  1.00  0.00    -0.237 OA
ATOM     78  O   UNL A   1      45.305  33.183  25.384  1.00  0.00    -0.237 OA
ATOM     79  O   UNL A   1      45.865  34.956  26.995  1.00  0.00    -0.744 OA
ENDBRANCH  72  76
ENDBRANCH  45  69
BRANCH  57  80
ATOM     80  C   UNL A   1      44.892  25.682  32.231  1.00  0.00     0.023 A 
ATOM     81  C   UNL A   1      43.720  26.347  32.650  1.00  0.00     0.031 A 
ATOM     82  C   UNL A   1      45.813  25.296  33.224  1.00  0.00     0.131 A 
ATOM     83  C   UNL A   1      43.515  26.615  34.017  1.00  0.00     0.055 A 
ATOM     84  C   UNL A   1      45.597  25.545  34.578  1.00  0.00     0.041 A 
ATOM     85  F   UNL A   1      46.946  24.656  32.891  1.00  0.00    -0.206 F 
ATOM     86  C   UNL A   1      44.448  26.215  34.979  1.00  0.00     0.022 A 
BRANCH  83  87
ATOM     87  S   UNL A   1      42.043  27.534  34.571  1.00  0.00     0.124 S 
ATOM     88  O   UNL A   1      41.615  28.254  33.377  1.00  0.00    -0.237 OA
ATOM     89  O   UNL A   1      41.157  26.465  35.023  1.00  0.00    -0.237 OA
ATOM     90  O   UNL A   1      42.560  28.388  35.642  1.00  0.00    -0.744 OA
ENDBRANCH  83  87
ENDBRANCH  57  80
ENDBRANCH  31  32
ENDBRANCH  23  26
ENDBRANCH  21  22
ENDBRANCH  20  21
ENDBRANCH   1  20
TORSDOF 17
ENDMDL
MODEL 2
REMARK VINA RESULT:     -11.5      4.656      9.156
REMARK SMILES C[C@]1(c2nnnn2CCC(=O)NCCCCNC(=O)c2ccc(-c3c4nc(c(-c5cc(S(=O)(=O)[O-])ccc5F)c5ccc([nH]5)c(-c5cc(S(=O)(=O)[O-])ccc5F)c5nc(c(-c6cc(S(=O)(=O)[O-])ccc6F)c6ccc3[nH]6)C=C5)C=C4)cc2)CCCO1
REMARK SMILES IDX 14 1 13 2 12 3 10 4 11 5 9 7 8 8 7 9 3 10 4 11 5 12 6 13
REMARK SMILES IDX 2 14 1 15 83 16 86 17 84 18 85 19 15 20 16 21 17 22 18 23
REMARK SMILES IDX 19 25 20 26 21 27 82 28 22 29 81 30 23 31 24 32 25 33 75 34
REMARK SMILES IDX 26 35 80 36 74 37 76 38 27 39 79 40 73 41 72 42 28 44 60 45
REMARK SMILES IDX 40 46 59 47 41 48 44 49 58 50 77 51 42 52 43 53 57 55 78 56
REMARK SMILES IDX 45 57 29 58 30 59 38 60 31 61 37 62 39 63 36 64 32 65 33 66
REMARK SMILES IDX 34 67 35 68 61 69 62 70 70 71 63 72 69 73 71 74 68 75 64 76
REMARK SMILES IDX 65 77 66 78 67 79 46 80 47 81 55 82 48 83 54 84 56 85 53 86
REMARK SMILES IDX 49 87 50 88 51 89 52 90
REMARK H PARENT 12 6 17 24 76 43 44 54
REMARK Flexibility Score: inf
ROOT
ATOM      1  C   UNL A   1      33.627  30.020  26.849  1.00  0.00     0.023 C 
ENDROOT
BRANCH   1   2
ATOM      2  C   UNL A   1      32.605  29.635  25.782  1.00  0.00     0.116 C 
BRANCH   2   3
ATOM      3  N   UNL A   1      33.225  29.582  24.466  1.00  0.00    -0.356 N 
ATOM      4  C   UNL A   1      33.752  28.527  23.785  1.00  0.00     0.221 C 
ATOM      5  O   UNL A   1      34.413  28.751  22.768  1.00  0.00    -0.275 OA
ATOM      6  H   UNL A   1      33.272  30.445  23.995  1.00  0.00     0.163 HD
BRANCH   4   7
ATOM      7  C   UNL A   1      33.515  27.099  24.235  1.00  0.00     0.124 C 
BRANCH   7   8
ATOM      8  C   UNL A   1      32.263  26.499  23.602  1.00  0.00     0.158 C 
BRANCH   8   9
ATOM      9  N   UNL A   1      32.540  25.672  22.449  1.00  0.00    -0.226 N 
ATOM     10  C   UNL A   1      32.757  24.322  22.305  1.00  0.00     0.183 A 
ATOM     11  N   UNL A   1      33.250  24.143  21.089  1.00  0.00    -0.111 NA
ATOM     12  N   UNL A   1      33.103  25.329  20.431  1.00  0.00    -0.024 NA
ATOM     13  N   UNL A   1      32.612  26.255  21.237  1.00  0.00    -0.045 NA
BRANCH  10  14
ATOM     14  C   UNL A   1      32.280  23.204  23.174  1.00  0.00     0.126 C 
ATOM     15  C   UNL A   1      30.809  23.496  23.534  1.00  0.00     0.051 C 
ATOM     16  C   UNL A   1      32.453  21.815  22.572  1.00  0.00     0.046 C 
ATOM     17  O   UNL A   1      33.029  23.162  24.402  1.00  0.00    -0.367 OA
ATOM     18  C   UNL A   1      32.406  20.938  23.804  1.00  0.00     0.032 C 
ATOM     19  C   UNL A   1      33.116  21.792  24.837  1.00  0.00     0.161 C 
ENDBRANCH  10  14
ENDBRANCH   8   9
ENDBRANCH   7   8
ENDBRANCH   4   7
ENDBRANCH   2   3
ENDBRANCH   1   2
BRANCH   1  20
ATOM     20  C   UNL A   1      33.502  31.410  27.471  1.00  0.00     0.023 C 
BRANCH  20  21
ATOM     21  C   UNL A   1      34.829  32.077  27.794  1.00  0.00     0.116 C 
BRANCH  21  22
ATOM     22  N   UNL A   1      34.902  32.567  29.169  1.00  0.00    -0.352 N 
ATOM     23  C   UNL A   1      35.793  32.177  30.146  1.00  0.00     0.251 C 
ATOM     24  H   UNL A   1      34.241  33.251  29.426  1.00  0.00     0.163 HD
ATOM     25  O   UNL A   1      35.588  32.406  31.332  1.00  0.00    -0.269 OA
BRANCH  23  26
ATOM     26  C   UNL A   1      36.993  31.445  29.709  1.00  0.00     0.039 A 
ATOM     27  C   UNL A   1      38.255  31.984  29.942  1.00  0.00     0.014 A 
ATOM     28  C   UNL A   1      36.835  30.133  29.254  1.00  0.00     0.014 A 
ATOM     29  C   UNL A   1      39.363  31.147  29.842  1.00  0.00     0.010 A 
ATOM     30  C   UNL A   1      37.930  29.286  29.239  1.00  0.00     0.010 A 
ATOM     31  C   UNL A   1      39.199  29.776  29.556  1.00  0.00    -0.014 A 
BRANCH  31  32
ATOM     32  C   UNL A   1      40.332  28.869  29.811  1.00  0.00     0.031 A 
ATOM     33  C   UNL A   1      40.603  28.593  31.252  1.00  0.00     0.074 A 
ATOM     34  C   UNL A   1      40.997  28.119  28.905  1.00  0.00     0.049 A 
ATOM     35  N   UNL A   1      41.612  28.992  31.955  1.00  0.00    -0.248 NA
ATOM     36  C   UNL A   1      39.580  27.884  32.038  1.00  0.00     0.031 C 
ATOM     37  C   UNL A   1      40.685  27.960  27.484  1.00  0.00     0.029 A 
ATOM     38  N   UNL A   1      42.043  27.250  29.090  1.00  0.00    -0.354 N 
ATOM     39  C   UNL A   1      41.490  28.361  33.190  1.00  0.00     0.074 A 
ATOM     40  C   UNL A   1      40.139  27.872  33.250  1.00  0.00     0.031 C 
ATOM     41  C   UNL A   1      41.349  26.892  26.994  1.00  0.00     0.029 A 
ATOM     42  C   UNL A   1      42.275  26.413  28.008  1.00  0.00     0.049 A 
ATOM     43  H   UNL A   1      42.579  27.222  29.916  1.00  0.00     0.167 HD
ATOM     44  C   UNL A   1      42.598  28.055  33.922  1.00  0.00     0.034 A 
ATOM     45  C   UNL A   1      43.174  25.406  27.894  1.00  0.00     0.034 A 
ATOM     46  C   UNL A   1      43.761  28.736  33.398  1.00  0.00     0.049 A 
ATOM     47  C   UNL A   1      44.318  25.708  28.782  1.00  0.00     0.074 A 
ATOM     48  C   UNL A   1      44.286  30.009  33.398  1.00  0.00     0.029 A 
ATOM     49  N   UNL A   1      44.437  28.022  32.446  1.00  0.00    -0.354 N 
ATOM     50  N   UNL A   1      45.066  26.768  28.640  1.00  0.00    -0.248 NA
ATOM     51  C   UNL A   1      44.493  24.993  30.040  1.00  0.00     0.031 C 
ATOM     52  C   UNL A   1      45.166  30.078  32.274  1.00  0.00     0.029 A 
ATOM     53  C   UNL A   1      45.176  28.841  31.634  1.00  0.00     0.049 A 
ATOM     54  H   UNL A   1      44.397  27.042  32.357  1.00  0.00     0.167 HD
ATOM     55  C   UNL A   1      45.460  27.090  29.920  1.00  0.00     0.074 A 
ATOM     56  C   UNL A   1      45.245  25.880  30.700  1.00  0.00     0.031 C 
ATOM     57  C   UNL A   1      45.578  28.392  30.310  1.00  0.00     0.034 A 
BRANCH  44  58
ATOM     58  C   UNL A   1      42.788  26.806  34.778  1.00  0.00     0.023 A 
ATOM     59  C   UNL A   1      43.570  25.766  34.225  1.00  0.00     0.031 A 
ATOM     60  C   UNL A   1      42.018  26.449  35.905  1.00  0.00     0.131 A 
ATOM     61  C   UNL A   1      43.485  24.447  34.709  1.00  0.00     0.055 A 
ATOM     62  C   UNL A   1      41.977  25.146  36.418  1.00  0.00     0.041 A 
ATOM     63  F   UNL A   1      41.193  27.302  36.521  1.00  0.00    -0.206 F 
ATOM     64  C   UNL A   1      42.687  24.130  35.802  1.00  0.00     0.022 A 
BRANCH  61  65
ATOM     65  S   UNL A   1      44.307  23.123  33.782  1.00  0.00     0.124 S 
ATOM     66  O   UNL A   1      45.613  23.712  33.516  1.00  0.00    -0.237 OA
ATOM     67  O   UNL A   1      44.276  22.022  34.739  1.00  0.00    -0.237 OA
ATOM     68  O   UNL A   1      43.450  22.950  32.610  1.00  0.00    -0.744 OA
ENDBRANCH  61  65
ENDBRANCH  44  58
BRANCH  45  69
ATOM     69  C   UNL A   1      43.009  24.136  27.145  1.00  0.00     0.023 A 
ATOM     70  C   UNL A   1      43.918  23.715  26.157  1.00  0.00     0.031 A 
ATOM     71  C   UNL A   1      42.044  23.194  27.568  1.00  0.00     0.131 A 
ATOM     72  C   UNL A   1      43.845  22.402  25.640  1.00  0.00     0.055 A 
ATOM     73  C   UNL A   1      41.968  21.901  27.047  1.00  0.00     0.041 A 
ATOM     74  F   UNL A   1      41.189  23.475  28.566  1.00  0.00    -0.206 F 
ATOM     75  C   UNL A   1      42.880  21.496  26.086  1.00  0.00     0.022 A 
BRANCH  72  76
ATOM     76  S   UNL A   1      45.096  21.818  24.455  1.00  0.00     0.124 S 
ATOM     77  O   UNL A   1      44.524  20.556  24.002  1.00  0.00    -0.237 OA
ATOM     78  O   UNL A   1      45.135  22.902  23.480  1.00  0.00    -0.237 OA
ATOM     79  O   UNL A   1      46.303  21.690  25.273  1.00  0.00    -0.744 OA
ENDBRANCH  72  76
ENDBRANCH  45  69
BRANCH  57  80
ATOM     80  C   UNL A   1      45.983  29.412  29.276  1.00  0.00     0.023 A 
ATOM     81  C   UNL A   1      45.096  30.163  28.475  1.00  0.00     0.031 A 
ATOM     82  C   UNL A   1      47.362  29.634  29.105  1.00  0.00     0.131 A 
ATOM     83  C   UNL A   1      45.604  31.083  27.537  1.00  0.00     0.055 A 
ATOM     84  C   UNL A   1      47.861  30.559  28.190  1.00  0.00     0.041 A 
ATOM     85  F   UNL A   1      48.259  28.953  29.838  1.00  0.00    -0.206 F 
ATOM     86  C   UNL A   1      46.981  31.281  27.395  1.00  0.00     0.022 A 
BRANCH  83  87
ATOM     87  S   UNL A   1      44.479  32.011  26.446  1.00  0.00     0.124 S 
ATOM     88  O   UNL A   1      45.333  32.425  25.340  1.00  0.00    -0.237 OA
ATOM     89  O   UNL A   1      43.460  31.015  26.127  1.00  0.00    -0.237 OA
ATOM     90  O   UNL A   1      44.011  33.107  27.296  1.00  0.00    -0.744 OA
ENDBRANCH  83  87
ENDBRANCH  57  80
ENDBRANCH  31  32
ENDBRANCH  23  26
ENDBRANCH  21  22
ENDBRANCH  20  21
ENDBRANCH   1  20
TORSDOF 17
ENDMDL
MODEL 3
REMARK VINA RESULT:     -11.4      3.884      5.776
REMARK SMILES C[C@]1(c2nnnn2CCC(=O)NCCCCNC(=O)c2ccc(-c3c4nc(c(-c5cc(S(=O)(=O)[O-])ccc5F)c5ccc([nH]5)c(-c5cc(S(=O)(=O)[O-])ccc5F)c5nc(c(-c6cc(S(=O)(=O)[O-])ccc6F)c6ccc3[nH]6)C=C5)C=C4)cc2)CCCO1
REMARK SMILES IDX 14 1 13 2 12 3 10 4 11 5 9 7 8 8 7 9 3 10 4 11 5 12 6 13
REMARK SMILES IDX 2 14 1 15 83 16 86 17 84 18 85 19 15 20 16 21 17 22 18 23
REMARK SMILES IDX 19 25 20 26 21 27 82 28 22 29 81 30 23 31 24 32 25 33 75 34
REMARK SMILES IDX 26 35 80 36 74 37 76 38 27 39 79 40 73 41 72 42 28 44 60 45
REMARK SMILES IDX 40 46 59 47 41 48 44 49 58 50 77 51 42 52 43 53 57 55 78 56
REMARK SMILES IDX 45 57 29 58 30 59 38 60 31 61 37 62 39 63 36 64 32 65 33 66
REMARK SMILES IDX 34 67 35 68 61 69 62 70 70 71 63 72 69 73 71 74 68 75 64 76
REMARK SMILES IDX 65 77 66 78 67 79 46 80 47 81 55 82 48 83 54 84 56 85 53 86
REMARK SMILES IDX 49 87 50 88 51 89 52 90
REMARK H PARENT 12 6 17 24 76 43 44 54
REMARK Flexibility Score: inf
ROOT
ATOM      1  C   UNL A   1      33.938  28.636  27.237  1.00  0.00     0.023 C 
ENDROOT
BRANCH   1   2
ATOM      2  C   UNL A   1      33.198  28.036  26.043  1.00  0.00     0.116 C 
BRANCH   2   3
ATOM      3  N   UNL A   1      32.231  27.040  26.481  1.00  0.00    -0.356 N 
ATOM      4  C   UNL A   1      31.080  26.614  25.890  1.00  0.00     0.221 C 
ATOM      5  O   UNL A   1      30.308  25.908  26.542  1.00  0.00    -0.275 OA
ATOM      6  H   UNL A   1      32.441  26.608  27.339  1.00  0.00     0.163 HD
BRANCH   4   7
ATOM      7  C   UNL A   1      30.755  26.965  24.452  1.00  0.00     0.124 C 
BRANCH   7   8
ATOM      8  C   UNL A   1      30.732  25.732  23.553  1.00  0.00     0.158 C 
BRANCH   8   9
ATOM      9  N   UNL A   1      31.912  25.598  22.728  1.00  0.00    -0.226 N 
ATOM     10  C   UNL A   1      33.178  25.133  22.988  1.00  0.00     0.183 A 
ATOM     11  N   UNL A   1      33.937  25.504  21.968  1.00  0.00    -0.111 NA
ATOM     12  N   UNL A   1      33.092  25.969  21.003  1.00  0.00    -0.024 NA
ATOM     13  N   UNL A   1      31.843  25.973  21.436  1.00  0.00    -0.045 NA
BRANCH  10  14
ATOM     14  C   UNL A   1      33.616  24.152  24.026  1.00  0.00     0.126 C 
ATOM     15  C   UNL A   1      34.340  23.002  23.296  1.00  0.00     0.051 C 
ATOM     16  C   UNL A   1      34.471  24.745  25.140  1.00  0.00     0.046 C 
ATOM     17  O   UNL A   1      32.478  23.589  24.704  1.00  0.00    -0.367 OA
ATOM     18  C   UNL A   1      34.301  23.718  26.238  1.00  0.00     0.032 C 
ATOM     19  C   UNL A   1      32.857  23.290  26.060  1.00  0.00     0.161 C 
ENDBRANCH  10  14
ENDBRANCH   8   9
ENDBRANCH   7   8
ENDBRANCH   4   7
ENDBRANCH   2   3
ENDBRANCH   1   2
BRANCH   1  20
ATOM     20  C   UNL A   1      33.912  30.156  27.385  1.00  0.00     0.023 C 
BRANCH  20  21
ATOM     21  C   UNL A   1      35.268  30.786  27.660  1.00  0.00     0.116 C 
BRANCH  21  22
ATOM     22  N   UNL A   1      35.474  31.106  29.071  1.00  0.00    -0.352 N 
ATOM     23  C   UNL A   1      36.303  30.454  29.960  1.00  0.00     0.251 C 
ATOM     24  H   UNL A   1      34.964  31.870  29.426  1.00  0.00     0.163 HD
ATOM     25  O   UNL A   1      36.180  30.591  31.172  1.00  0.00    -0.269 OA
BRANCH  23  26
ATOM     26  C   UNL A   1      37.327  29.561  29.395  1.00  0.00     0.039 A 
ATOM     27  C   UNL A   1      37.943  29.889  28.191  1.00  0.00     0.014 A 
ATOM     28  C   UNL A   1      37.794  28.510  30.189  1.00  0.00     0.014 A 
ATOM     29  C   UNL A   1      39.124  29.236  27.850  1.00  0.00     0.010 A 
ATOM     30  C   UNL A   1      39.012  27.925  29.887  1.00  0.00     0.010 A 
ATOM     31  C   UNL A   1      39.701  28.298  28.730  1.00  0.00    -0.014 A 
BRANCH  31  32
ATOM     32  C   UNL A   1      41.105  27.905  28.511  1.00  0.00     0.031 A 
ATOM     33  C   UNL A   1      41.289  26.635  27.749  1.00  0.00     0.074 A 
ATOM     34  C   UNL A   1      42.206  28.653  28.736  1.00  0.00     0.049 A 
ATOM     35  N   UNL A   1      41.725  25.504  28.196  1.00  0.00    -0.248 NA
ATOM     36  C   UNL A   1      40.830  26.580  26.352  1.00  0.00     0.031 C 
ATOM     37  C   UNL A   1      42.257  30.055  29.153  1.00  0.00     0.029 A 
ATOM     38  N   UNL A   1      43.528  28.343  28.535  1.00  0.00    -0.354 N 
ATOM     39  C   UNL A   1      41.854  24.677  27.083  1.00  0.00     0.074 A 
ATOM     40  C   UNL A   1      41.104  25.313  26.033  1.00  0.00     0.031 C 
ATOM     41  C   UNL A   1      43.499  30.541  28.946  1.00  0.00     0.029 A 
ATOM     42  C   UNL A   1      44.373  29.444  28.568  1.00  0.00     0.049 A 
ATOM     43  H   UNL A   1      43.847  27.425  28.381  1.00  0.00     0.167 HD
ATOM     44  C   UNL A   1      42.801  23.697  27.056  1.00  0.00     0.034 A 
ATOM     45  C   UNL A   1      45.708  29.492  28.339  1.00  0.00     0.034 A 
ATOM     46  C   UNL A   1      43.349  23.479  28.376  1.00  0.00     0.049 A 
ATOM     47  C   UNL A   1      46.284  28.178  28.693  1.00  0.00     0.074 A 
ATOM     48  C   UNL A   1      42.966  22.880  29.555  1.00  0.00     0.029 A 
ATOM     49  N   UNL A   1      44.443  24.252  28.654  1.00  0.00    -0.354 N 
ATOM     50  N   UNL A   1      46.225  27.677  29.898  1.00  0.00    -0.248 NA
ATOM     51  C   UNL A   1      46.691  27.238  27.656  1.00  0.00     0.031 C 
ATOM     52  C   UNL A   1      43.757  23.481  30.583  1.00  0.00     0.029 A 
ATOM     53  C   UNL A   1      44.618  24.410  30.003  1.00  0.00     0.049 A 
ATOM     54  H   UNL A   1      45.032  24.645  27.969  1.00  0.00     0.167 HD
ATOM     55  C   UNL A   1      46.156  26.315  29.707  1.00  0.00     0.074 A 
ATOM     56  C   UNL A   1      46.633  26.097  28.348  1.00  0.00     0.031 C 
ATOM     57  C   UNL A   1      45.386  25.532  30.517  1.00  0.00     0.034 A 
BRANCH  44  58
ATOM     58  C   UNL A   1      43.604  23.264  25.833  1.00  0.00     0.023 A 
ATOM     59  C   UNL A   1      43.527  21.900  25.468  1.00  0.00     0.031 A 
ATOM     60  C   UNL A   1      44.650  23.993  25.228  1.00  0.00     0.131 A 
ATOM     61  C   UNL A   1      44.503  21.304  24.648  1.00  0.00     0.055 A 
ATOM     62  C   UNL A   1      45.589  23.408  24.368  1.00  0.00     0.041 A 
ATOM     63  F   UNL A   1      44.887  25.281  25.496  1.00  0.00    -0.206 F 
ATOM     64  C   UNL A   1      45.539  22.051  24.099  1.00  0.00     0.022 A 
BRANCH  61  65
ATOM     65  S   UNL A   1      44.490  19.502  24.446  1.00  0.00     0.124 S 
ATOM     66  O   UNL A   1      44.612  19.363  23.001  1.00  0.00    -0.237 OA
ATOM     67  O   UNL A   1      45.651  19.103  25.236  1.00  0.00    -0.237 OA
ATOM     68  O   UNL A   1      43.197  19.110  25.004  1.00  0.00    -0.744 OA
ENDBRANCH  61  65
ENDBRANCH  44  58
BRANCH  45  69
ATOM     69  C   UNL A   1      46.468  30.595  27.702  1.00  0.00     0.023 A 
ATOM     70  C   UNL A   1      45.846  31.617  26.961  1.00  0.00     0.031 A 
ATOM     71  C   UNL A   1      47.835  30.777  28.017  1.00  0.00     0.131 A 
ATOM     72  C   UNL A   1      46.580  32.760  26.573  1.00  0.00     0.055 A 
ATOM     73  C   UNL A   1      48.560  31.902  27.622  1.00  0.00     0.041 A 
ATOM     74  F   UNL A   1      48.492  29.899  28.793  1.00  0.00    -0.206 F 
ATOM     75  C   UNL A   1      47.929  32.907  26.906  1.00  0.00     0.022 A 
BRANCH  72  76
ATOM     76  S   UNL A   1      45.745  34.135  25.723  1.00  0.00     0.124 S 
ATOM     77  O   UNL A   1      46.870  34.887  25.178  1.00  0.00    -0.237 OA
ATOM     78  O   UNL A   1      44.899  33.440  24.758  1.00  0.00    -0.237 OA
ATOM     79  O   UNL A   1      45.018  34.806  26.800  1.00  0.00    -0.744 OA
ENDBRANCH  72  76
ENDBRANCH  45  69
BRANCH  57  80
ATOM     80  C   UNL A   1      45.209  25.953  31.954  1.00  0.00     0.023 A 
ATOM     81  C   UNL A   1      44.039  26.521  32.502  1.00  0.00     0.031 A 
ATOM     82  C   UNL A   1      46.302  25.753  32.818  1.00  0.00     0.131 A 
ATOM     83  C   UNL A   1      44.003  26.879  33.864  1.00  0.00     0.055 A 
ATOM     84  C   UNL A   1      46.257  26.089  34.169  1.00  0.00     0.041 A 
ATOM     85  F   UNL A   1      47.444  25.213  32.359  1.00  0.00    -0.206 F 
ATOM     86  C   UNL A   1      45.107  26.662  34.696  1.00  0.00     0.022 A 
BRANCH  83  87
ATOM     87  S   UNL A   1      42.528  27.677  34.575  1.00  0.00     0.124 S 
ATOM     88  O   UNL A   1      42.060  26.718  35.568  1.00  0.00    -0.237 OA
ATOM     89  O   UNL A   1      43.070  28.927  35.100  1.00  0.00    -0.237 OA
ATOM     90  O   UNL A   1      41.641  27.837  33.421  1.00  0.00    -0.744 OA
ENDBRANCH  83  87
ENDBRANCH  57  80
ENDBRANCH  31  32
ENDBRANCH  23  26
ENDBRANCH  21  22
ENDBRANCH  20  21
ENDBRANCH   1  20
TORSDOF 17
ENDMDL
