MODEL 1
REMARK VINA RESULT:     -13.0      0.000      0.000
REMARK SMILES Cn1cc(-c2ccn(Cc3ccc(C(=O)NCCCCNC(=O)c4ccc(-c5c6nc(c(-c7cc(S(=O)(=O)[O-])ccc7F)c7ccc([nH]7)c(-c7cc(S(=O)(=O)[O-])ccc7F)c7nc(c(-c8cc(S(=O)(=O)[O-])ccc8F)c8ccc5[nH]8)C=C7)C=C6)cc4)cc3)n2)cn1
REMARK SMILES IDX 18 1 17 2 16 3 14 4 15 5 13 7 10 8 11 9 88 10 12 11 87 12
REMARK SMILES IDX 9 13 8 14 5 15 6 16 89 17 7 18 4 19 1 20 2 21 3 22 91 23
REMARK SMILES IDX 90 24 19 25 20 26 21 27 22 28 23 30 24 31 25 32 86 33 26 34
REMARK SMILES IDX 85 35 27 36 28 37 29 38 79 39 30 40 84 41 78 42 80 43 31 44
REMARK SMILES IDX 83 45 77 46 76 47 32 49 64 50 44 51 63 52 45 53 48 54 62 55
REMARK SMILES IDX 81 56 46 57 47 58 61 60 82 61 49 62 33 63 34 64 42 65 35 66
REMARK SMILES IDX 41 67 43 68 40 69 36 70 37 71 38 72 39 73 65 74 66 75 74 76
REMARK SMILES IDX 67 77 73 78 75 79 72 80 68 81 69 82 70 83 71 84 50 85 51 86
REMARK SMILES IDX 59 87 52 88 58 89 60 90 57 91 53 92 54 93 55 94 56 95
REMARK H PARENT 16 6 21 29 80 48 48 59
REMARK Flexibility Score: inf
ROOT
ATOM      1  C   UNL A   1      33.042  30.270  27.319  1.00  0.00     0.023 C 
ENDROOT
BRANCH   1   2
ATOM      2  C   UNL A   1      31.937  29.206  27.245  1.00  0.00     0.116 C 
BRANCH   2   3
ATOM      3  N   UNL A   1      31.492  28.996  25.880  1.00  0.00    -0.352 N 
ATOM      4  C   UNL A   1      31.584  27.919  25.030  1.00  0.00     0.251 C 
ATOM      5  O   UNL A   1      31.073  28.024  23.915  1.00  0.00    -0.269 OA
ATOM      6  H   UNL A   1      31.035  29.774  25.486  1.00  0.00     0.163 HD
BRANCH   4   7
ATOM      7  C   UNL A   1      32.229  26.629  25.403  1.00  0.00     0.039 A 
ATOM      8  C   UNL A   1      33.568  24.194  25.946  1.00  0.00    -0.026 A 
ATOM      9  C   UNL A   1      34.241  25.246  25.315  1.00  0.00     0.006 A 
ATOM     10  C   UNL A   1      32.247  24.401  26.361  1.00  0.00     0.006 A 
ATOM     11  C   UNL A   1      33.576  26.450  25.046  1.00  0.00     0.014 A 
ATOM     12  C   UNL A   1      31.594  25.609  26.110  1.00  0.00     0.014 A 
BRANCH   8  13
ATOM     13  C   UNL A   1      34.239  22.866  26.204  1.00  0.00     0.179 C 
BRANCH  13  14
ATOM     14  N   UNL A   1      33.679  21.762  25.425  1.00  0.00    -0.268 N 
ATOM     15  C   UNL A   1      33.377  19.771  24.766  1.00  0.00     0.095 A 
ATOM     16  C   UNL A   1      32.769  20.597  23.800  1.00  0.00     0.050 A 
ATOM     17  N   UNL A   1      33.973  20.477  25.730  1.00  0.00    -0.172 NA
ATOM     18  C   UNL A   1      32.978  21.879  24.252  1.00  0.00     0.110 A 
BRANCH  15  19
ATOM     19  C   UNL A   1      33.381  18.322  24.713  1.00  0.00     0.040 A 
ATOM     20  C   UNL A   1      32.557  14.913  25.493  1.00  0.00     0.173 C 
ATOM     21  N   UNL A   1      33.036  16.189  25.023  1.00  0.00    -0.275 N 
ATOM     22  C   UNL A   1      32.620  17.424  25.425  1.00  0.00     0.118 A 
ATOM     23  N   UNL A   1      34.012  16.225  24.097  1.00  0.00    -0.181 NA
ATOM     24  C   UNL A   1      34.221  17.534  23.907  1.00  0.00     0.145 A 
ENDBRANCH  15  19
ENDBRANCH  13  14
ENDBRANCH   8  13
ENDBRANCH   4   7
ENDBRANCH   2   3
ENDBRANCH   1   2
BRANCH   1  25
ATOM     25  C   UNL A   1      34.370  29.892  26.648  1.00  0.00     0.023 C 
BRANCH  25  26
ATOM     26  C   UNL A   1      35.354  29.147  27.542  1.00  0.00     0.116 C 
BRANCH  26  27
ATOM     27  N   UNL A   1      35.519  29.769  28.856  1.00  0.00    -0.352 N 
ATOM     28  C   UNL A   1      36.503  29.516  29.799  1.00  0.00     0.251 C 
ATOM     29  H   UNL A   1      34.850  30.450  29.100  1.00  0.00     0.163 HD
ATOM     30  O   UNL A   1      36.311  29.741  30.981  1.00  0.00    -0.269 OA
BRANCH  28  31
ATOM     31  C   UNL A   1      37.792  28.975  29.326  1.00  0.00     0.039 A 
ATOM     32  C   UNL A   1      38.466  29.519  28.231  1.00  0.00     0.014 A 
ATOM     33  C   UNL A   1      38.344  27.926  30.054  1.00  0.00     0.014 A 
ATOM     34  C   UNL A   1      39.749  29.054  27.939  1.00  0.00     0.010 A 
ATOM     35  C   UNL A   1      39.659  27.585  29.868  1.00  0.00     0.010 A 
ATOM     36  C   UNL A   1      40.352  28.102  28.781  1.00  0.00    -0.014 A 
BRANCH  36  37
ATOM     37  C   UNL A   1      41.757  27.732  28.622  1.00  0.00     0.031 A 
ATOM     38  C   UNL A   1      41.978  26.489  27.835  1.00  0.00     0.074 A 
ATOM     39  C   UNL A   1      42.784  28.549  28.948  1.00  0.00     0.049 A 
ATOM     40  N   UNL A   1      42.383  25.346  28.275  1.00  0.00    -0.248 NA
ATOM     41  C   UNL A   1      41.545  26.455  26.428  1.00  0.00     0.031 C 
ATOM     42  C   UNL A   1      42.734  29.929  29.446  1.00  0.00     0.029 A 
ATOM     43  N   UNL A   1      44.120  28.348  28.788  1.00  0.00    -0.354 N 
ATOM     44  C   UNL A   1      42.510  24.524  27.161  1.00  0.00     0.074 A 
ATOM     45  C   UNL A   1      41.774  25.178  26.113  1.00  0.00     0.031 C 
ATOM     46  C   UNL A   1      43.947  30.509  29.303  1.00  0.00     0.029 A 
ATOM     47  C   UNL A   1      44.898  29.501  28.872  1.00  0.00     0.049 A 
ATOM     48  H   UNL A   1      44.507  27.457  28.625  1.00  0.00     0.167 HD
ATOM     49  C   UNL A   1      43.422  23.510  27.139  1.00  0.00     0.034 A 
ATOM     50  C   UNL A   1      46.223  29.627  28.582  1.00  0.00     0.034 A 
ATOM     51  C   UNL A   1      43.906  23.226  28.475  1.00  0.00     0.049 A 
ATOM     52  C   UNL A   1      46.803  28.263  28.703  1.00  0.00     0.074 A 
ATOM     53  C   UNL A   1      43.292  22.898  29.671  1.00  0.00     0.029 A 
ATOM     54  N   UNL A   1      45.159  23.685  28.827  1.00  0.00    -0.354 N 
ATOM     55  N   UNL A   1      46.844  27.606  29.832  1.00  0.00    -0.248 NA
ATOM     56  C   UNL A   1      46.843  27.434  27.507  1.00  0.00     0.031 C 
ATOM     57  C   UNL A   1      43.970  23.684  30.651  1.00  0.00     0.029 A 
ATOM     58  C   UNL A   1      45.023  24.351  30.022  1.00  0.00     0.049 A 
ATOM     59  H   UNL A   1      45.992  23.558  28.318  1.00  0.00     0.167 HD
ATOM     60  C   UNL A   1      46.463  26.311  29.510  1.00  0.00     0.074 A 
ATOM     61  C   UNL A   1      46.561  26.245  28.050  1.00  0.00     0.031 C 
ATOM     62  C   UNL A   1      45.822  25.502  30.408  1.00  0.00     0.034 A 
BRANCH  49  63
ATOM     63  C   UNL A   1      44.162  23.029  25.907  1.00  0.00     0.023 A 
ATOM     64  C   UNL A   1      44.200  21.636  25.690  1.00  0.00     0.031 A 
ATOM     65  C   UNL A   1      45.055  23.793  25.124  1.00  0.00     0.131 A 
ATOM     66  C   UNL A   1      45.164  21.061  24.844  1.00  0.00     0.055 A 
ATOM     67  C   UNL A   1      45.964  23.219  24.229  1.00  0.00     0.041 A 
ATOM     68  F   UNL A   1      45.172  25.119  25.237  1.00  0.00    -0.206 F 
ATOM     69  C   UNL A   1      46.050  21.844  24.112  1.00  0.00     0.022 A 
BRANCH  66  70
ATOM     70  S   UNL A   1      45.364  19.262  24.878  1.00  0.00     0.124 S 
ATOM     71  O   UNL A   1      44.321  18.870  25.820  1.00  0.00    -0.237 OA
ATOM     72  O   UNL A   1      45.135  18.910  23.481  1.00  0.00    -0.237 OA
ATOM     73  O   UNL A   1      46.734  19.082  25.350  1.00  0.00    -0.744 OA
ENDBRANCH  66  70
ENDBRANCH  49  63
BRANCH  50  74
ATOM     74  C   UNL A   1      46.882  30.769  27.873  1.00  0.00     0.023 A 
ATOM     75  C   UNL A   1      46.178  31.730  27.111  1.00  0.00     0.031 A 
ATOM     76  C   UNL A   1      48.241  31.058  28.139  1.00  0.00     0.131 A 
ATOM     77  C   UNL A   1      46.834  32.903  26.652  1.00  0.00     0.055 A 
ATOM     78  C   UNL A   1      48.882  32.213  27.683  1.00  0.00     0.041 A 
ATOM     79  F   UNL A   1      48.981  30.262  28.928  1.00  0.00    -0.206 F 
ATOM     80  C   UNL A   1      48.178  33.146  26.943  1.00  0.00     0.022 A 
BRANCH  77  81
ATOM     81  S   UNL A   1      45.925  34.189  25.726  1.00  0.00     0.124 S 
ATOM     82  O   UNL A   1      46.981  34.807  24.932  1.00  0.00    -0.237 OA
ATOM     83  O   UNL A   1      44.933  33.408  24.994  1.00  0.00    -0.237 OA
ATOM     84  O   UNL A   1      45.372  35.044  26.778  1.00  0.00    -0.744 OA
ENDBRANCH  77  81
ENDBRANCH  50  74
BRANCH  62  85
ATOM     85  C   UNL A   1      45.753  25.918  31.868  1.00  0.00     0.023 A 
ATOM     86  C   UNL A   1      44.633  26.506  32.501  1.00  0.00     0.031 A 
ATOM     87  C   UNL A   1      46.841  25.557  32.685  1.00  0.00     0.131 A 
ATOM     88  C   UNL A   1      44.639  26.714  33.898  1.00  0.00     0.055 A 
ATOM     89  C   UNL A   1      46.833  25.740  34.066  1.00  0.00     0.041 A 
ATOM     90  F   UNL A   1      47.928  24.974  32.152  1.00  0.00    -0.206 F 
ATOM     91  C   UNL A   1      45.733  26.324  34.678  1.00  0.00     0.022 A 
BRANCH  88  92
ATOM     92  S   UNL A   1      43.230  27.514  34.736  1.00  0.00     0.124 S 
ATOM     93  O   UNL A   1      43.758  28.816  35.125  1.00  0.00    -0.237 OA
ATOM     94  O   UNL A   1      42.206  27.523  33.694  1.00  0.00    -0.237 OA
ATOM     95  O   UNL A   1      42.945  26.614  35.857  1.00  0.00    -0.744 OA
ENDBRANCH  88  92
ENDBRANCH  62  85
ENDBRANCH  36  37
ENDBRANCH  28  31
ENDBRANCH  26  27
ENDBRANCH  25  26
ENDBRANCH   1  25
TORSDOF 17
ENDMDL
MODEL 2
REMARK VINA RESULT:     -12.8      2.760      7.391
REMARK SMILES Cn1cc(-c2ccn(Cc3ccc(C(=O)NCCCCNC(=O)c4ccc(-c5c6nc(c(-c7cc(S(=O)(=O)[O-])ccc7F)c7ccc([nH]7)c(-c7cc(S(=O)(=O)[O-])ccc7F)c7nc(c(-c8cc(S(=O)(=O)[O-])ccc8F)c8ccc5[nH]8)C=C7)C=C6)cc4)cc3)n2)cn1
REMARK SMILES IDX 18 1 17 2 16 3 14 4 15 5 13 7 10 8 11 9 88 10 12 11 87 12
REMARK SMILES IDX 9 13 8 14 5 15 6 16 89 17 7 18 4 19 1 20 2 21 3 22 91 23
REMARK SMILES IDX 90 24 19 25 20 26 21 27 22 28 23 30 24 31 25 32 86 33 26 34
REMARK SMILES IDX 85 35 27 36 28 37 29 38 79 39 30 40 84 41 78 42 80 43 31 44
REMARK SMILES IDX 83 45 77 46 76 47 32 49 64 50 44 51 63 52 45 53 48 54 62 55
REMARK SMILES IDX 81 56 46 57 47 58 61 60 82 61 49 62 33 63 34 64 42 65 35 66
REMARK SMILES IDX 41 67 43 68 40 69 36 70 37 71 38 72 39 73 65 74 66 75 74 76
REMARK SMILES IDX 67 77 73 78 75 79 72 80 68 81 69 82 70 83 71 84 50 85 51 86
REMARK SMILES IDX 59 87 52 88 58 89 60 90 57 91 53 92 54 93 55 94 56 95
REMARK H PARENT 16 6 21 29 80 48 48 59
REMARK Flexibility Score: inf
ROOT
ATOM      1  C   UNL A   1      31.746  30.084  25.738  1.00  0.00     0.023 C 
ENDROOT
BRANCH   1   2
ATOM      2  C   UNL A   1      32.405  29.358  24.556  1.00  0.00     0.116 C 
BRANCH   2   3
ATOM      3  N   UNL A   1      31.503  29.260  23.423  1.00  0.00    -0.352 N 
ATOM      4  C   UNL A   1      30.782  28.213  22.900  1.00  0.00     0.251 C 
ATOM      5  O   UNL A   1      30.060  28.442  21.929  1.00  0.00    -0.269 OA
ATOM      6  H   UNL A   1      31.384  30.106  22.935  1.00  0.00     0.163 HD
BRANCH   4   7
ATOM      7  C   UNL A   1      30.798  26.836  23.470  1.00  0.00     0.039 A 
ATOM      8  C   UNL A   1      30.864  24.302  24.733  1.00  0.00    -0.026 A 
ATOM      9  C   UNL A   1      30.370  25.420  25.414  1.00  0.00     0.006 A 
ATOM     10  C   UNL A   1      31.257  24.455  23.398  1.00  0.00     0.006 A 
ATOM     11  C   UNL A   1      30.339  26.673  24.788  1.00  0.00     0.014 A 
ATOM     12  C   UNL A   1      31.206  25.702  22.770  1.00  0.00     0.014 A 
BRANCH   8  13
ATOM     13  C   UNL A   1      30.959  22.949  25.396  1.00  0.00     0.179 C 
BRANCH  13  14
ATOM     14  N   UNL A   1      32.274  22.322  25.269  1.00  0.00    -0.268 N 
ATOM     15  C   UNL A   1      34.386  22.156  25.278  1.00  0.00     0.095 A 
ATOM     16  C   UNL A   1      33.908  20.994  24.642  1.00  0.00     0.050 A 
ATOM     17  N   UNL A   1      33.399  22.988  25.618  1.00  0.00    -0.172 NA
ATOM     18  C   UNL A   1      32.539  21.126  24.651  1.00  0.00     0.110 A 
BRANCH  15  19
ATOM     19  C   UNL A   1      35.789  22.434  25.519  1.00  0.00     0.040 A 
ATOM     20  C   UNL A   1      38.763  24.205  26.485  1.00  0.00     0.173 C 
ATOM     21  N   UNL A   1      37.716  23.320  26.038  1.00  0.00    -0.275 N 
ATOM     22  C   UNL A   1      36.371  23.553  26.068  1.00  0.00     0.118 A 
ATOM     23  N   UNL A   1      38.044  22.127  25.508  1.00  0.00    -0.181 NA
ATOM     24  C   UNL A   1      36.861  21.585  25.192  1.00  0.00     0.145 A 
ENDBRANCH  15  19
ENDBRANCH  13  14
ENDBRANCH   8  13
ENDBRANCH   4   7
ENDBRANCH   2   3
ENDBRANCH   1   2
BRANCH   1  25
ATOM     25  C   UNL A   1      32.232  29.659  27.130  1.00  0.00     0.023 C 
BRANCH  25  26
ATOM     26  C   UNL A   1      33.733  29.795  27.358  1.00  0.00     0.116 C 
BRANCH  26  27
ATOM     27  N   UNL A   1      34.236  31.138  27.073  1.00  0.00    -0.352 N 
ATOM     28  C   UNL A   1      35.318  31.783  27.654  1.00  0.00     0.251 C 
ATOM     29  H   UNL A   1      33.748  31.646  26.385  1.00  0.00     0.163 HD
ATOM     30  O   UNL A   1      35.384  32.999  27.676  1.00  0.00    -0.269 OA
BRANCH  28  31
ATOM     31  C   UNL A   1      36.389  30.950  28.235  1.00  0.00     0.039 A 
ATOM     32  C   UNL A   1      36.482  29.580  27.981  1.00  0.00     0.014 A 
ATOM     33  C   UNL A   1      37.345  31.599  29.009  1.00  0.00     0.014 A 
ATOM     34  C   UNL A   1      37.606  28.892  28.439  1.00  0.00     0.010 A 
ATOM     35  C   UNL A   1      38.520  30.961  29.317  1.00  0.00     0.010 A 
ATOM     36  C   UNL A   1      38.637  29.597  29.086  1.00  0.00    -0.014 A 
BRANCH  36  37
ATOM     37  C   UNL A   1      39.908  28.952  29.409  1.00  0.00     0.031 A 
ATOM     38  C   UNL A   1      40.173  28.816  30.867  1.00  0.00     0.074 A 
ATOM     39  C   UNL A   1      40.678  28.320  28.494  1.00  0.00     0.049 A 
ATOM     40  N   UNL A   1      41.046  29.458  31.566  1.00  0.00    -0.248 NA
ATOM     41  C   UNL A   1      39.258  27.997  31.679  1.00  0.00     0.031 C 
ATOM     42  C   UNL A   1      40.406  28.096  27.069  1.00  0.00     0.029 A 
ATOM     43  N   UNL A   1      41.837  27.633  28.679  1.00  0.00    -0.354 N 
ATOM     44  C   UNL A   1      40.973  28.936  32.853  1.00  0.00     0.074 A 
ATOM     45  C   UNL A   1      39.724  28.224  32.910  1.00  0.00     0.031 C 
ATOM     46  C   UNL A   1      41.227  27.130  26.596  1.00  0.00     0.029 A 
ATOM     47  C   UNL A   1      42.193  26.793  27.626  1.00  0.00     0.049 A 
ATOM     48  H   UNL A   1      42.382  27.722  29.495  1.00  0.00     0.167 HD
ATOM     49  C   UNL A   1      42.066  28.925  33.668  1.00  0.00     0.034 A 
ATOM     50  C   UNL A   1      43.191  25.867  27.609  1.00  0.00     0.034 A 
ATOM     51  C   UNL A   1      43.095  29.809  33.158  1.00  0.00     0.049 A 
ATOM     52  C   UNL A   1      44.160  26.284  28.657  1.00  0.00     0.074 A 
ATOM     53  C   UNL A   1      43.129  31.150  32.818  1.00  0.00     0.029 A 
ATOM     54  N   UNL A   1      44.180  29.247  32.518  1.00  0.00    -0.354 N 
ATOM     55  N   UNL A   1      44.837  27.401  28.595  1.00  0.00    -0.248 NA
ATOM     56  C   UNL A   1      43.980  25.747  29.999  1.00  0.00     0.031 C 
ATOM     57  C   UNL A   1      43.860  31.192  31.592  1.00  0.00     0.029 A 
ATOM     58  C   UNL A   1      44.325  29.904  31.318  1.00  0.00     0.049 A 
ATOM     59  H   UNL A   1      44.743  28.514  32.856  1.00  0.00     0.167 HD
ATOM     60  C   UNL A   1      44.776  27.931  29.876  1.00  0.00     0.074 A 
ATOM     61  C   UNL A   1      44.311  26.826  30.717  1.00  0.00     0.031 C 
ATOM     62  C   UNL A   1      44.817  29.280  30.102  1.00  0.00     0.034 A 
BRANCH  49  63
ATOM     63  C   UNL A   1      42.375  27.860  34.701  1.00  0.00     0.023 A 
ATOM     64  C   UNL A   1      43.129  26.751  34.267  1.00  0.00     0.031 A 
ATOM     65  C   UNL A   1      41.748  27.716  35.958  1.00  0.00     0.131 A 
ATOM     66  C   UNL A   1      43.131  25.547  34.991  1.00  0.00     0.055 A 
ATOM     67  C   UNL A   1      41.813  26.539  36.711  1.00  0.00     0.041 A 
ATOM     68  F   UNL A   1      40.965  28.657  36.494  1.00  0.00    -0.206 F 
ATOM     69  C   UNL A   1      42.475  25.431  36.212  1.00  0.00     0.022 A 
BRANCH  66  70
ATOM     70  S   UNL A   1      43.841  24.079  34.205  1.00  0.00     0.124 S 
ATOM     71  O   UNL A   1      42.784  23.095  34.414  1.00  0.00    -0.237 OA
ATOM     72  O   UNL A   1      44.033  24.538  32.834  1.00  0.00    -0.237 OA
ATOM     73  O   UNL A   1      45.069  23.850  34.963  1.00  0.00    -0.744 OA
ENDBRANCH  66  70
ENDBRANCH  49  63
BRANCH  50  74
ATOM     74  C   UNL A   1      43.137  24.501  26.999  1.00  0.00     0.023 A 
ATOM     75  C   UNL A   1      44.059  24.037  26.032  1.00  0.00     0.031 A 
ATOM     76  C   UNL A   1      42.274  23.527  27.555  1.00  0.00     0.131 A 
ATOM     77  C   UNL A   1      44.082  22.665  25.662  1.00  0.00     0.055 A 
ATOM     78  C   UNL A   1      42.300  22.180  27.185  1.00  0.00     0.041 A 
ATOM     79  F   UNL A   1      41.422  23.836  28.546  1.00  0.00    -0.206 F 
ATOM     80  C   UNL A   1      43.211  21.741  26.242  1.00  0.00     0.022 A 
BRANCH  77  81
ATOM     81  S   UNL A   1      45.310  22.034  24.466  1.00  0.00     0.124 S 
ATOM     82  O   UNL A   1      46.435  21.689  25.327  1.00  0.00    -0.237 OA
ATOM     83  O   UNL A   1      44.601  20.921  23.845  1.00  0.00    -0.237 OA
ATOM     84  O   UNL A   1      45.546  23.176  23.580  1.00  0.00    -0.744 OA
ENDBRANCH  77  81
ENDBRANCH  50  74
BRANCH  62  85
ATOM     85  C   UNL A   1      45.200  30.214  28.966  1.00  0.00     0.023 A 
ATOM     86  C   UNL A   1      46.518  30.606  28.636  1.00  0.00     0.031 A 
ATOM     87  C   UNL A   1      44.171  30.604  28.088  1.00  0.00     0.131 A 
ATOM     88  C   UNL A   1      46.759  31.363  27.467  1.00  0.00     0.055 A 
ATOM     89  C   UNL A   1      44.415  31.328  26.923  1.00  0.00     0.041 A 
ATOM     90  F   UNL A   1      42.899  30.246  28.330  1.00  0.00    -0.206 F 
ATOM     91  C   UNL A   1      45.711  31.714  26.610  1.00  0.00     0.022 A 
BRANCH  88  92
ATOM     92  S   UNL A   1      48.441  31.924  27.040  1.00  0.00     0.124 S 
ATOM     93  O   UNL A   1      48.976  32.396  28.312  1.00  0.00    -0.237 OA
ATOM     94  O   UNL A   1      49.051  30.712  26.499  1.00  0.00    -0.237 OA
ATOM     95  O   UNL A   1      48.207  32.978  26.050  1.00  0.00    -0.744 OA
ENDBRANCH  88  92
ENDBRANCH  62  85
ENDBRANCH  36  37
ENDBRANCH  28  31
ENDBRANCH  26  27
ENDBRANCH  25  26
ENDBRANCH   1  25
TORSDOF 17
ENDMDL
MODEL 3
REMARK VINA RESULT:     -12.6      1.996      2.520
REMARK SMILES Cn1cc(-c2ccn(Cc3ccc(C(=O)NCCCCNC(=O)c4ccc(-c5c6nc(c(-c7cc(S(=O)(=O)[O-])ccc7F)c7ccc([nH]7)c(-c7cc(S(=O)(=O)[O-])ccc7F)c7nc(c(-c8cc(S(=O)(=O)[O-])ccc8F)c8ccc5[nH]8)C=C7)C=C6)cc4)cc3)n2)cn1
REMARK SMILES IDX 18 1 17 2 16 3 14 4 15 5 13 7 10 8 11 9 88 10 12 11 87 12
REMARK SMILES IDX 9 13 8 14 5 15 6 16 89 17 7 18 4 19 1 20 2 21 3 22 91 23
REMARK SMILES IDX 90 24 19 25 20 26 21 27 22 28 23 30 24 31 25 32 86 33 26 34
REMARK SMILES IDX 85 35 27 36 28 37 29 38 79 39 30 40 84 41 78 42 80 43 31 44
REMARK SMILES IDX 83 45 77 46 76 47 32 49 64 50 44 51 63 52 45 53 48 54 62 55
REMARK SMILES IDX 81 56 46 57 47 58 61 60 82 61 49 62 33 63 34 64 42 65 35 66
REMARK SMILES IDX 41 67 43 68 40 69 36 70 37 71 38 72 39 73 65 74 66 75 74 76
REMARK SMILES IDX 67 77 73 78 75 79 72 80 68 81 69 82 70 83 71 84 50 85 51 86
REMARK SMILES IDX 59 87 52 88 58 89 60 90 57 91 53 92 54 93 55 94 56 95
REMARK H PARENT 16 6 21 29 80 48 48 59
REMARK Flexibility Score: inf
ROOT
ATOM      1  C   UNL A   1      33.402  29.242  25.922  1.00  0.00     0.023 C 
ENDROOT
BRANCH   1   2
ATOM      2  C   UNL A   1      31.871  29.232  26.037  1.00  0.00     0.116 C 
BRANCH   2   3
ATOM      3  N   UNL A   1      31.243  29.702  24.815  1.00  0.00    -0.352 N 
ATOM      4  C   UNL A   1      30.791  29.047  23.695  1.00  0.00     0.251 C 
ATOM      5  O   UNL A   1      30.261  29.722  22.812  1.00  0.00    -0.269 OA
ATOM      6  H   UNL A   1      31.116  30.677  24.784  1.00  0.00     0.163 HD
BRANCH   4   7
ATOM      7  C   UNL A   1      30.872  27.570  23.514  1.00  0.00     0.039 A 
ATOM      8  C   UNL A   1      31.018  24.746  23.371  1.00  0.00    -0.026 A 
ATOM      9  C   UNL A   1      30.275  25.366  24.382  1.00  0.00     0.006 A 
ATOM     10  C   UNL A   1      31.625  25.552  22.400  1.00  0.00     0.006 A 
ATOM     11  C   UNL A   1      30.205  26.764  24.452  1.00  0.00     0.014 A 
ATOM     12  C   UNL A   1      31.536  26.944  22.461  1.00  0.00     0.014 A 
BRANCH   8  13
ATOM     13  C   UNL A   1      31.156  23.245  23.298  1.00  0.00     0.179 C 
BRANCH  13  14
ATOM     14  N   UNL A   1      32.089  22.690  24.280  1.00  0.00    -0.268 N 
ATOM     15  C   UNL A   1      33.910  21.944  25.063  1.00  0.00     0.095 A 
ATOM     16  C   UNL A   1      32.915  21.601  25.999  1.00  0.00     0.050 A 
ATOM     17  N   UNL A   1      33.405  22.564  23.994  1.00  0.00    -0.172 NA
ATOM     18  C   UNL A   1      31.747  22.098  25.468  1.00  0.00     0.110 A 
BRANCH  15  19
ATOM     19  C   UNL A   1      35.319  21.640  25.224  1.00  0.00     0.040 A 
ATOM     20  C   UNL A   1      38.808  22.091  25.955  1.00  0.00     0.173 C 
ATOM     21  N   UNL A   1      37.468  21.690  25.606  1.00  0.00    -0.275 N 
ATOM     22  C   UNL A   1      36.335  22.446  25.684  1.00  0.00     0.118 A 
ATOM     23  N   UNL A   1      37.255  20.449  25.130  1.00  0.00    -0.181 NA
ATOM     24  C   UNL A   1      35.936  20.420  24.898  1.00  0.00     0.145 A 
ENDBRANCH  15  19
ENDBRANCH  13  14
ENDBRANCH   8  13
ENDBRANCH   4   7
ENDBRANCH   2   3
ENDBRANCH   1   2
BRANCH   1  25
ATOM     25  C   UNL A   1      34.137  30.110  26.954  1.00  0.00     0.023 C 
BRANCH  25  26
ATOM     26  C   UNL A   1      35.258  29.405  27.708  1.00  0.00     0.116 C 
BRANCH  26  27
ATOM     27  N   UNL A   1      35.465  29.939  29.054  1.00  0.00    -0.352 N 
ATOM     28  C   UNL A   1      36.438  29.575  29.973  1.00  0.00     0.251 C 
ATOM     29  H   UNL A   1      34.840  30.642  29.343  1.00  0.00     0.163 HD
ATOM     30  O   UNL A   1      36.266  29.742  31.167  1.00  0.00    -0.269 OA
BRANCH  28  31
ATOM     31  C   UNL A   1      37.691  28.988  29.458  1.00  0.00     0.039 A 
ATOM     32  C   UNL A   1      38.336  29.494  28.327  1.00  0.00     0.014 A 
ATOM     33  C   UNL A   1      38.241  27.935  30.182  1.00  0.00     0.014 A 
ATOM     34  C   UNL A   1      39.591  28.986  27.993  1.00  0.00     0.010 A 
ATOM     35  C   UNL A   1      39.537  27.552  29.949  1.00  0.00     0.010 A 
ATOM     36  C   UNL A   1      40.200  28.030  28.826  1.00  0.00    -0.014 A 
BRANCH  36  37
ATOM     37  C   UNL A   1      41.586  27.616  28.618  1.00  0.00     0.031 A 
ATOM     38  C   UNL A   1      41.740  26.373  27.816  1.00  0.00     0.074 A 
ATOM     39  C   UNL A   1      42.650  28.396  28.914  1.00  0.00     0.049 A 
ATOM     40  N   UNL A   1      42.122  25.213  28.235  1.00  0.00    -0.248 NA
ATOM     41  C   UNL A   1      41.259  26.363  26.425  1.00  0.00     0.031 C 
ATOM     42  C   UNL A   1      42.661  29.773  29.422  1.00  0.00     0.029 A 
ATOM     43  N   UNL A   1      43.972  28.153  28.709  1.00  0.00    -0.354 N 
ATOM     44  C   UNL A   1      42.184  24.396  27.112  1.00  0.00     0.074 A 
ATOM     45  C   UNL A   1      41.435  25.081  26.093  1.00  0.00     0.031 C 
ATOM     46  C   UNL A   1      43.887  30.314  29.243  1.00  0.00     0.029 A 
ATOM     47  C   UNL A   1      44.790  29.279  28.774  1.00  0.00     0.049 A 
ATOM     48  H   UNL A   1      44.324  27.252  28.527  1.00  0.00     0.167 HD
ATOM     49  C   UNL A   1      43.061  23.353  27.053  1.00  0.00     0.034 A 
ATOM     50  C   UNL A   1      46.108  29.364  28.439  1.00  0.00     0.034 A 
ATOM     51  C   UNL A   1      43.580  23.044  28.370  1.00  0.00     0.049 A 
ATOM     52  C   UNL A   1      46.647  27.982  28.533  1.00  0.00     0.074 A 
ATOM     53  C   UNL A   1      42.996  22.726  29.584  1.00  0.00     0.029 A 
ATOM     54  N   UNL A   1      44.858  23.458  28.683  1.00  0.00    -0.354 N 
ATOM     55  N   UNL A   1      46.704  27.315  29.656  1.00  0.00    -0.248 NA
ATOM     56  C   UNL A   1      46.619  27.161  27.330  1.00  0.00     0.031 C 
ATOM     57  C   UNL A   1      43.731  23.483  30.545  1.00  0.00     0.029 A 
ATOM     58  C   UNL A   1      44.784  24.120  29.886  1.00  0.00     0.049 A 
ATOM     59  H   UNL A   1      45.669  23.309  28.145  1.00  0.00     0.167 HD
ATOM     60  C   UNL A   1      46.270  26.036  29.338  1.00  0.00     0.074 A 
ATOM     61  C   UNL A   1      46.317  25.977  27.875  1.00  0.00     0.031 C 
ATOM     62  C   UNL A   1      45.633  25.241  30.252  1.00  0.00     0.034 A 
BRANCH  49  63
ATOM     63  C   UNL A   1      43.743  22.857  25.794  1.00  0.00     0.023 A 
ATOM     64  C   UNL A   1      43.861  21.461  25.640  1.00  0.00     0.031 A 
ATOM     65  C   UNL A   1      44.525  23.635  24.912  1.00  0.00     0.131 A 
ATOM     66  C   UNL A   1      44.799  20.905  24.753  1.00  0.00     0.055 A 
ATOM     67  C   UNL A   1      45.405  23.076  23.980  1.00  0.00     0.041 A 
ATOM     68  F   UNL A   1      44.559  24.971  24.954  1.00  0.00    -0.206 F 
ATOM     69  C   UNL A   1      45.576  21.705  23.921  1.00  0.00     0.022 A 
BRANCH  66  70
ATOM     70  S   UNL A   1      45.122  19.127  24.857  1.00  0.00     0.124 S 
ATOM     71  O   UNL A   1      43.828  18.620  25.299  1.00  0.00    -0.237 OA
ATOM     72  O   UNL A   1      45.503  18.812  23.484  1.00  0.00    -0.237 OA
ATOM     73  O   UNL A   1      46.200  19.035  25.839  1.00  0.00    -0.744 OA
ENDBRANCH  66  70
ENDBRANCH  49  63
BRANCH  50  74
ATOM     74  C   UNL A   1      46.780  30.490  27.716  1.00  0.00     0.023 A 
ATOM     75  C   UNL A   1      46.080  31.528  27.059  1.00  0.00     0.031 A 
ATOM     76  C   UNL A   1      48.174  30.675  27.867  1.00  0.00     0.131 A 
ATOM     77  C   UNL A   1      46.774  32.674  26.586  1.00  0.00     0.055 A 
ATOM     78  C   UNL A   1      48.852  31.804  27.397  1.00  0.00     0.041 A 
ATOM     79  F   UNL A   1      48.924  29.798  28.553  1.00  0.00    -0.206 F 
ATOM     80  C   UNL A   1      48.152  32.813  26.761  1.00  0.00     0.022 A 
BRANCH  77  81
ATOM     81  S   UNL A   1      45.879  34.057  25.796  1.00  0.00     0.124 S 
ATOM     82  O   UNL A   1      44.891  33.362  24.978  1.00  0.00    -0.237 OA
ATOM     83  O   UNL A   1      45.368  34.798  26.944  1.00  0.00    -0.237 OA
ATOM     84  O   UNL A   1      46.921  34.751  25.037  1.00  0.00    -0.744 OA
ENDBRANCH  77  81
ENDBRANCH  50  74
BRANCH  62  85
ATOM     85  C   UNL A   1      45.626  25.648  31.716  1.00  0.00     0.023 A 
ATOM     86  C   UNL A   1      46.687  25.444  32.629  1.00  0.00     0.031 A 
ATOM     87  C   UNL A   1      44.532  26.417  32.158  1.00  0.00     0.131 A 
ATOM     88  C   UNL A   1      46.619  25.998  33.927  1.00  0.00     0.055 A 
ATOM     89  C   UNL A   1      44.481  26.983  33.430  1.00  0.00     0.041 A 
ATOM     90  F   UNL A   1      43.501  26.669  31.334  1.00  0.00    -0.206 F 
ATOM     91  C   UNL A   1      45.523  26.772  34.322  1.00  0.00     0.022 A 
BRANCH  88  92
ATOM     92  S   UNL A   1      47.950  25.711  35.142  1.00  0.00     0.124 S 
ATOM     93  O   UNL A   1      48.897  26.785  34.870  1.00  0.00    -0.237 OA
ATOM     94  O   UNL A   1      47.238  25.789  36.415  1.00  0.00    -0.237 OA
ATOM     95  O   UNL A   1      48.437  24.371  34.802  1.00  0.00    -0.744 OA
ENDBRANCH  88  92
ENDBRANCH  62  85
ENDBRANCH  36  37
ENDBRANCH  28  31
ENDBRANCH  26  27
ENDBRANCH  25  26
ENDBRANCH   1  25
TORSDOF 17
ENDMDL
