MODEL 1
REMARK VINA RESULT:     -13.5      0.000      0.000
REMARK SMILES CC1(C)S[C@@H](c2cccc3c2sc2ccccc23)[NH2+][C@@H]1C(=O)NCCCCNC(=O)c1ccc(-c2c3nc(c(-c4cc(S(=O)(=O)[O-])ccc4F)c4ccc([nH]4)c(-c4cc(S(=O)(=O)[O-])ccc4F)c4nc(c(-c5cc(S(=O)(=O)[O-])ccc5F)c5ccc2[nH]5)C=C4)C=C3)cc1
REMARK SMILES IDX 26 1 25 2 24 3 23 4 21 5 22 6 20 8 1 9 2 10 3 11 4 12 5 13
REMARK SMILES IDX 19 14 6 17 7 18 11 19 8 20 10 21 12 22 9 23 18 24 13 25
REMARK SMILES IDX 17 26 14 27 16 28 15 29 27 30 28 31 29 32 30 34 31 35 32 36
REMARK SMILES IDX 93 37 33 38 92 39 34 40 35 41 36 42 86 43 37 44 91 45 85 46
REMARK SMILES IDX 87 47 38 48 90 49 84 50 83 51 39 53 71 54 51 55 70 56 52 57
REMARK SMILES IDX 55 58 69 59 88 60 53 61 54 62 68 64 89 65 56 66 40 67 41 68
REMARK SMILES IDX 49 69 42 70 48 71 50 72 47 73 43 74 44 75 45 76 46 77 72 78
REMARK SMILES IDX 73 79 81 80 74 81 80 82 82 83 79 84 75 85 76 86 77 87 78 88
REMARK SMILES IDX 57 89 58 90 66 91 59 92 65 93 67 94 64 95 60 96 61 97 62 98
REMARK SMILES IDX 63 99
REMARK H PARENT 23 7 19 15 19 16 28 33 87 52 55 63
REMARK Flexibility Score: inf
ROOT
ATOM      1  C   UNL A   1      31.560  31.692  26.755  1.00  0.00     0.023 C 
ENDROOT
BRANCH   1   2
ATOM      2  C   UNL A   1      31.791  30.282  26.219  1.00  0.00     0.023 C 
BRANCH   2   3
ATOM      3  C   UNL A   1      32.293  29.258  27.232  1.00  0.00     0.116 C 
BRANCH   3   4
ATOM      4  N   UNL A   1      31.569  28.001  27.163  1.00  0.00    -0.351 N 
ATOM      5  C   UNL A   1      31.786  26.879  26.417  1.00  0.00     0.279 C 
ATOM      6  O   UNL A   1      30.967  25.970  26.579  1.00  0.00    -0.268 OA
ATOM      7  H   UNL A   1      30.787  27.949  27.758  1.00  0.00     0.163 HD
BRANCH   5   8
ATOM      8  C   UNL A   1      32.898  26.813  25.329  1.00  0.00     0.289 C 
ATOM      9  C   UNL A   1      33.526  27.077  22.871  1.00  0.00     0.030 C 
ATOM     10  C   UNL A   1      32.446  26.579  23.856  1.00  0.00     0.077 C 
ATOM     11  C   UNL A   1      31.107  27.180  23.425  1.00  0.00     0.030 C 
ATOM     12  S   UNL A   1      32.385  24.752  23.707  1.00  0.00    -0.081 SA
ATOM     13  C   UNL A   1      33.303  24.470  25.247  1.00  0.00     0.276 C 
ATOM     14  N   UNL A   1      33.901  25.753  25.627  1.00  0.00    -0.320 N 
ATOM     15  H   UNL A   1      34.753  25.916  25.088  1.00  0.00     0.348 HD
ATOM     16  H   UNL A   1      34.150  25.758  26.617  1.00  0.00     0.348 HD
BRANCH  13  17
ATOM     17  C   UNL A   1      34.368  23.392  25.144  1.00  0.00     0.038 A 
ATOM     18  C   UNL A   1      35.738  23.729  25.268  1.00  0.00     0.012 A 
ATOM     19  C   UNL A   1      34.066  22.008  24.981  1.00  0.00     0.046 A 
ATOM     20  C   UNL A   1      36.741  22.776  25.218  1.00  0.00     0.001 A 
ATOM     21  C   UNL A   1      35.063  21.028  24.908  1.00  0.00     0.001 A 
ATOM     22  S   UNL A   1      32.506  21.278  24.859  1.00  0.00    -0.135 S 
ATOM     23  C   UNL A   1      36.414  21.437  25.033  1.00  0.00     0.010 A 
ATOM     24  C   UNL A   1      34.522  19.694  24.701  1.00  0.00     0.000 A 
ATOM     25  C   UNL A   1      33.130  19.698  24.666  1.00  0.00     0.036 A 
ATOM     26  C   UNL A   1      35.185  18.448  24.539  1.00  0.00     0.010 A 
ATOM     27  C   UNL A   1      32.392  18.510  24.488  1.00  0.00     0.019 A 
ATOM     28  C   UNL A   1      34.459  17.269  24.352  1.00  0.00     0.001 A 
ATOM     29  C   UNL A   1      33.073  17.302  24.330  1.00  0.00     0.002 A 
ENDBRANCH  13  17
ENDBRANCH   5   8
ENDBRANCH   3   4
ENDBRANCH   2   3
ENDBRANCH   1   2
BRANCH   1  30
ATOM     30  C   UNL A   1      32.803  32.414  27.261  1.00  0.00     0.116 C 
BRANCH  30  31
ATOM     31  N   UNL A   1      32.559  33.815  27.566  1.00  0.00    -0.352 N 
ATOM     32  C   UNL A   1      33.145  34.617  28.517  1.00  0.00     0.251 C 
ATOM     33  H   UNL A   1      31.873  34.253  27.012  1.00  0.00     0.163 HD
ATOM     34  O   UNL A   1      32.690  35.738  28.730  1.00  0.00    -0.269 OA
BRANCH  32  35
ATOM     35  C   UNL A   1      34.299  34.118  29.298  1.00  0.00     0.039 A 
ATOM     36  C   UNL A   1      34.062  33.399  30.473  1.00  0.00     0.014 A 
ATOM     37  C   UNL A   1      35.609  34.353  28.874  1.00  0.00     0.014 A 
ATOM     38  C   UNL A   1      35.138  32.858  31.184  1.00  0.00     0.010 A 
ATOM     39  C   UNL A   1      36.672  33.743  29.536  1.00  0.00     0.010 A 
ATOM     40  C   UNL A   1      36.450  32.995  30.703  1.00  0.00    -0.014 A 
BRANCH  40  41
ATOM     41  C   UNL A   1      37.605  32.394  31.420  1.00  0.00     0.031 A 
ATOM     42  C   UNL A   1      38.369  31.259  30.790  1.00  0.00     0.074 A 
ATOM     43  C   UNL A   1      37.930  32.822  32.657  1.00  0.00     0.049 A 
ATOM     44  N   UNL A   1      39.345  30.540  31.282  1.00  0.00    -0.248 NA
ATOM     45  C   UNL A   1      37.951  30.857  29.438  1.00  0.00     0.031 C 
ATOM     46  C   UNL A   1      37.242  33.887  33.390  1.00  0.00     0.029 A 
ATOM     47  N   UNL A   1      38.914  32.410  33.520  1.00  0.00    -0.354 N 
ATOM     48  C   UNL A   1      39.647  29.593  30.308  1.00  0.00     0.074 A 
ATOM     49  C   UNL A   1      38.701  29.787  29.230  1.00  0.00     0.031 C 
ATOM     50  C   UNL A   1      37.842  34.060  34.579  1.00  0.00     0.029 A 
ATOM     51  C   UNL A   1      38.926  33.092  34.715  1.00  0.00     0.049 A 
ATOM     52  H   UNL A   1      39.553  31.693  33.304  1.00  0.00     0.167 HD
ATOM     53  C   UNL A   1      40.636  28.664  30.301  1.00  0.00     0.034 A 
ATOM     54  C   UNL A   1      39.713  32.947  35.800  1.00  0.00     0.034 A 
ATOM     55  C   UNL A   1      41.579  28.493  31.379  1.00  0.00     0.049 A 
ATOM     56  C   UNL A   1      40.799  31.898  35.776  1.00  0.00     0.074 A 
ATOM     57  C   UNL A   1      42.647  27.615  31.462  1.00  0.00     0.029 A 
ATOM     58  N   UNL A   1      41.569  29.213  32.568  1.00  0.00    -0.354 N 
ATOM     59  N   UNL A   1      41.097  31.038  34.830  1.00  0.00    -0.248 NA
ATOM     60  C   UNL A   1      41.661  31.814  36.961  1.00  0.00     0.031 C 
ATOM     61  C   UNL A   1      43.239  27.758  32.721  1.00  0.00     0.029 A 
ATOM     62  C   UNL A   1      42.595  28.783  33.396  1.00  0.00     0.049 A 
ATOM     63  H   UNL A   1      40.926  29.925  32.790  1.00  0.00     0.167 HD
ATOM     64  C   UNL A   1      42.209  30.338  35.293  1.00  0.00     0.074 A 
ATOM     65  C   UNL A   1      42.532  30.887  36.594  1.00  0.00     0.031 C 
ATOM     66  C   UNL A   1      42.905  29.337  34.694  1.00  0.00     0.034 A 
BRANCH  53  67
ATOM     67  C   UNL A   1      40.722  27.752  29.099  1.00  0.00     0.023 A 
ATOM     68  C   UNL A   1      41.664  27.965  28.076  1.00  0.00     0.031 A 
ATOM     69  C   UNL A   1      39.827  26.678  28.951  1.00  0.00     0.131 A 
ATOM     70  C   UNL A   1      41.633  27.175  26.917  1.00  0.00     0.055 A 
ATOM     71  C   UNL A   1      39.860  25.839  27.835  1.00  0.00     0.041 A 
ATOM     72  F   UNL A   1      38.891  26.435  29.882  1.00  0.00    -0.206 F 
ATOM     73  C   UNL A   1      40.755  26.095  26.801  1.00  0.00     0.022 A 
BRANCH  70  74
ATOM     74  S   UNL A   1      42.648  27.678  25.500  1.00  0.00     0.124 S 
ATOM     75  O   UNL A   1      43.937  27.938  26.139  1.00  0.00    -0.237 OA
ATOM     76  O   UNL A   1      42.588  26.507  24.635  1.00  0.00    -0.237 OA
ATOM     77  O   UNL A   1      41.963  28.866  24.992  1.00  0.00    -0.744 OA
ENDBRANCH  70  74
ENDBRANCH  53  67
BRANCH  54  78
ATOM     78  C   UNL A   1      39.513  33.807  37.002  1.00  0.00     0.023 A 
ATOM     79  C   UNL A   1      38.900  33.301  38.159  1.00  0.00     0.031 A 
ATOM     80  C   UNL A   1      39.889  35.162  36.996  1.00  0.00     0.131 A 
ATOM     81  C   UNL A   1      38.633  34.155  39.241  1.00  0.00     0.055 A 
ATOM     82  C   UNL A   1      39.672  35.994  38.096  1.00  0.00     0.041 A 
ATOM     83  F   UNL A   1      40.484  35.697  35.918  1.00  0.00    -0.206 F 
ATOM     84  C   UNL A   1      39.026  35.494  39.223  1.00  0.00     0.022 A 
BRANCH  81  85
ATOM     85  S   UNL A   1      37.679  33.508  40.643  1.00  0.00     0.124 S 
ATOM     86  O   UNL A   1      37.623  34.669  41.524  1.00  0.00    -0.237 OA
ATOM     87  O   UNL A   1      36.424  33.125  40.005  1.00  0.00    -0.237 OA
ATOM     88  O   UNL A   1      38.495  32.396  41.125  1.00  0.00    -0.744 OA
ENDBRANCH  81  85
ENDBRANCH  54  78
BRANCH  66  89
ATOM     89  C   UNL A   1      44.123  28.818  35.420  1.00  0.00     0.023 A 
ATOM     90  C   UNL A   1      44.052  27.744  36.323  1.00  0.00     0.031 A 
ATOM     91  C   UNL A   1      45.375  29.427  35.216  1.00  0.00     0.131 A 
ATOM     92  C   UNL A   1      45.195  27.353  37.038  1.00  0.00     0.055 A 
ATOM     93  C   UNL A   1      46.523  28.991  35.879  1.00  0.00     0.041 A 
ATOM     94  F   UNL A   1      45.504  30.458  34.367  1.00  0.00    -0.206 F 
ATOM     95  C   UNL A   1      46.433  27.958  36.808  1.00  0.00     0.022 A 
BRANCH  92  96
ATOM     96  S   UNL A   1      45.021  26.114  38.351  1.00  0.00     0.124 S 
ATOM     97  O   UNL A   1      44.550  26.922  39.471  1.00  0.00    -0.237 OA
ATOM     98  O   UNL A   1      44.048  25.189  37.779  1.00  0.00    -0.237 OA
ATOM     99  O   UNL A   1      46.372  25.577  38.498  1.00  0.00    -0.744 OA
ENDBRANCH  92  96
ENDBRANCH  66  89
ENDBRANCH  40  41
ENDBRANCH  32  35
ENDBRANCH  30  31
ENDBRANCH   1  30
TORSDOF 15
ENDMDL
MODEL 2
REMARK VINA RESULT:     -13.2      5.588     11.812
REMARK SMILES CC1(C)S[C@@H](c2cccc3c2sc2ccccc23)[NH2+][C@@H]1C(=O)NCCCCNC(=O)c1ccc(-c2c3nc(c(-c4cc(S(=O)(=O)[O-])ccc4F)c4ccc([nH]4)c(-c4cc(S(=O)(=O)[O-])ccc4F)c4nc(c(-c5cc(S(=O)(=O)[O-])ccc5F)c5ccc2[nH]5)C=C4)C=C3)cc1
REMARK SMILES IDX 26 1 25 2 24 3 23 4 21 5 22 6 20 8 1 9 2 10 3 11 4 12 5 13
REMARK SMILES IDX 19 14 6 17 7 18 11 19 8 20 10 21 12 22 9 23 18 24 13 25
REMARK SMILES IDX 17 26 14 27 16 28 15 29 27 30 28 31 29 32 30 34 31 35 32 36
REMARK SMILES IDX 93 37 33 38 92 39 34 40 35 41 36 42 86 43 37 44 91 45 85 46
REMARK SMILES IDX 87 47 38 48 90 49 84 50 83 51 39 53 71 54 51 55 70 56 52 57
REMARK SMILES IDX 55 58 69 59 88 60 53 61 54 62 68 64 89 65 56 66 40 67 41 68
REMARK SMILES IDX 49 69 42 70 48 71 50 72 47 73 43 74 44 75 45 76 46 77 72 78
REMARK SMILES IDX 73 79 81 80 74 81 80 82 82 83 79 84 75 85 76 86 77 87 78 88
REMARK SMILES IDX 57 89 58 90 66 91 59 92 65 93 67 94 64 95 60 96 61 97 62 98
REMARK SMILES IDX 63 99
REMARK H PARENT 23 7 19 15 19 16 28 33 87 52 55 63
REMARK Flexibility Score: inf
ROOT
ATOM      1  C   UNL A   1      37.795  20.283  24.950  1.00  0.00     0.023 C 
ENDROOT
BRANCH   1   2
ATOM      2  C   UNL A   1      36.642  21.284  24.948  1.00  0.00     0.023 C 
BRANCH   2   3
ATOM      3  C   UNL A   1      36.952  22.657  24.361  1.00  0.00     0.116 C 
BRANCH   3   4
ATOM      4  N   UNL A   1      35.970  23.080  23.378  1.00  0.00    -0.351 N 
ATOM      5  C   UNL A   1      34.789  23.750  23.517  1.00  0.00     0.279 C 
ATOM      6  O   UNL A   1      34.168  23.947  22.470  1.00  0.00    -0.268 OA
ATOM      7  H   UNL A   1      36.196  22.841  22.450  1.00  0.00     0.163 HD
BRANCH   5   8
ATOM      8  C   UNL A   1      34.201  24.105  24.914  1.00  0.00     0.289 C 
ATOM      9  C   UNL A   1      32.605  23.476  26.803  1.00  0.00     0.030 C 
ATOM     10  C   UNL A   1      32.802  23.519  25.271  1.00  0.00     0.077 C 
ATOM     11  C   UNL A   1      32.453  22.137  24.717  1.00  0.00     0.030 C 
ATOM     12  S   UNL A   1      31.629  24.767  24.614  1.00  0.00    -0.081 SA
ATOM     13  C   UNL A   1      32.911  26.031  24.379  1.00  0.00     0.276 C 
ATOM     14  N   UNL A   1      34.096  25.577  25.113  1.00  0.00    -0.320 N 
ATOM     15  H   UNL A   1      33.995  25.789  26.106  1.00  0.00     0.348 HD
ATOM     16  H   UNL A   1      34.935  26.049  24.774  1.00  0.00     0.348 HD
BRANCH  13  17
ATOM     17  C   UNL A   1      32.500  27.421  24.832  1.00  0.00     0.038 A 
ATOM     18  C   UNL A   1      33.201  28.065  25.881  1.00  0.00     0.012 A 
ATOM     19  C   UNL A   1      31.455  28.168  24.213  1.00  0.00     0.046 A 
ATOM     20  C   UNL A   1      32.887  29.347  26.302  1.00  0.00     0.001 A 
ATOM     21  C   UNL A   1      31.106  29.456  24.633  1.00  0.00     0.001 A 
ATOM     22  S   UNL A   1      30.463  27.688  22.884  1.00  0.00    -0.135 S 
ATOM     23  C   UNL A   1      31.845  30.038  25.694  1.00  0.00     0.010 A 
ATOM     24  C   UNL A   1      29.988  30.006  23.883  1.00  0.00     0.000 A 
ATOM     25  C   UNL A   1      29.552  29.135  22.888  1.00  0.00     0.036 A 
ATOM     26  C   UNL A   1      29.313  31.249  24.017  1.00  0.00     0.010 A 
ATOM     27  C   UNL A   1      28.486  29.468  22.029  1.00  0.00     0.019 A 
ATOM     28  C   UNL A   1      28.248  31.580  23.175  1.00  0.00     0.001 A 
ATOM     29  C   UNL A   1      27.841  30.697  22.188  1.00  0.00     0.002 A 
ENDBRANCH  13  17
ENDBRANCH   5   8
ENDBRANCH   3   4
ENDBRANCH   2   3
ENDBRANCH   1   2
BRANCH   1  30
ATOM     30  C   UNL A   1      39.012  20.685  25.774  1.00  0.00     0.116 C 
BRANCH  30  31
ATOM     31  N   UNL A   1      39.983  19.611  25.909  1.00  0.00    -0.352 N 
ATOM     32  C   UNL A   1      41.339  19.681  26.120  1.00  0.00     0.251 C 
ATOM     33  H   UNL A   1      39.615  18.700  25.839  1.00  0.00     0.163 HD
ATOM     34  O   UNL A   1      42.019  18.661  26.047  1.00  0.00    -0.269 OA
BRANCH  32  35
ATOM     35  C   UNL A   1      41.979  20.986  26.403  1.00  0.00     0.039 A 
ATOM     36  C   UNL A   1      42.279  21.839  25.338  1.00  0.00     0.014 A 
ATOM     37  C   UNL A   1      42.278  21.370  27.713  1.00  0.00     0.014 A 
ATOM     38  C   UNL A   1      42.816  23.105  25.594  1.00  0.00     0.010 A 
ATOM     39  C   UNL A   1      42.733  22.660  27.970  1.00  0.00     0.010 A 
ATOM     40  C   UNL A   1      43.015  23.540  26.914  1.00  0.00    -0.014 A 
BRANCH  40  41
ATOM     41  C   UNL A   1      43.545  24.898  27.211  1.00  0.00     0.031 A 
ATOM     42  C   UNL A   1      42.626  25.958  27.757  1.00  0.00     0.074 A 
ATOM     43  C   UNL A   1      44.831  25.195  26.934  1.00  0.00     0.049 A 
ATOM     44  N   UNL A   1      42.866  27.221  27.999  1.00  0.00    -0.248 NA
ATOM     45  C   UNL A   1      41.241  25.547  28.034  1.00  0.00     0.031 C 
ATOM     46  C   UNL A   1      45.811  24.266  26.366  1.00  0.00     0.029 A 
ATOM     47  N   UNL A   1      45.534  26.364  27.084  1.00  0.00    -0.354 N 
ATOM     48  C   UNL A   1      41.660  27.759  28.440  1.00  0.00     0.074 A 
ATOM     49  C   UNL A   1      40.678  26.699  28.362  1.00  0.00     0.031 C 
ATOM     50  C   UNL A   1      46.991  24.894  26.242  1.00  0.00     0.029 A 
ATOM     51  C   UNL A   1      46.846  26.280  26.675  1.00  0.00     0.049 A 
ATOM     52  H   UNL A   1      45.137  27.187  27.451  1.00  0.00     0.167 HD
ATOM     53  C   UNL A   1      41.401  29.012  28.891  1.00  0.00     0.034 A 
ATOM     54  C   UNL A   1      47.816  27.215  26.643  1.00  0.00     0.034 A 
ATOM     55  C   UNL A   1      42.396  30.053  28.974  1.00  0.00     0.049 A 
ATOM     56  C   UNL A   1      47.502  28.606  27.137  1.00  0.00     0.074 A 
ATOM     57  C   UNL A   1      42.257  31.344  29.455  1.00  0.00     0.029 A 
ATOM     58  N   UNL A   1      43.718  29.926  28.564  1.00  0.00    -0.354 N 
ATOM     59  N   UNL A   1      46.367  29.087  27.590  1.00  0.00    -0.248 NA
ATOM     60  C   UNL A   1      48.606  29.574  27.129  1.00  0.00     0.031 C 
ATOM     61  C   UNL A   1      43.472  32.015  29.275  1.00  0.00     0.029 A 
ATOM     62  C   UNL A   1      44.396  31.120  28.759  1.00  0.00     0.049 A 
ATOM     63  H   UNL A   1      44.115  29.107  28.189  1.00  0.00     0.167 HD
ATOM     64  C   UNL A   1      46.634  30.404  27.958  1.00  0.00     0.074 A 
ATOM     65  C   UNL A   1      48.039  30.633  27.686  1.00  0.00     0.031 C 
ATOM     66  C   UNL A   1      45.797  31.337  28.480  1.00  0.00     0.034 A 
BRANCH  53  67
ATOM     67  C   UNL A   1      39.980  29.320  29.301  1.00  0.00     0.023 A 
ATOM     68  C   UNL A   1      39.600  29.388  30.654  1.00  0.00     0.031 A 
ATOM     69  C   UNL A   1      38.981  29.512  28.331  1.00  0.00     0.131 A 
ATOM     70  C   UNL A   1      38.249  29.551  30.997  1.00  0.00     0.055 A 
ATOM     71  C   UNL A   1      37.653  29.764  28.679  1.00  0.00     0.041 A 
ATOM     72  F   UNL A   1      39.275  29.438  27.023  1.00  0.00    -0.206 F 
ATOM     73  C   UNL A   1      37.276  29.768  30.019  1.00  0.00     0.022 A 
BRANCH  70  74
ATOM     74  S   UNL A   1      37.762  29.320  32.729  1.00  0.00     0.124 S 
ATOM     75  O   UNL A   1      36.475  30.012  32.767  1.00  0.00    -0.237 OA
ATOM     76  O   UNL A   1      37.712  27.869  32.853  1.00  0.00    -0.237 OA
ATOM     77  O   UNL A   1      38.834  29.975  33.477  1.00  0.00    -0.744 OA
ENDBRANCH  70  74
ENDBRANCH  53  67
BRANCH  54  78
ATOM     78  C   UNL A   1      49.175  26.880  26.127  1.00  0.00     0.023 A 
ATOM     79  C   UNL A   1      49.604  27.335  24.870  1.00  0.00     0.031 A 
ATOM     80  C   UNL A   1      50.049  26.060  26.863  1.00  0.00     0.131 A 
ATOM     81  C   UNL A   1      50.847  26.925  24.363  1.00  0.00     0.055 A 
ATOM     82  C   UNL A   1      51.308  25.701  26.379  1.00  0.00     0.041 A 
ATOM     83  F   UNL A   1      49.692  25.602  28.074  1.00  0.00    -0.206 F 
ATOM     84  C   UNL A   1      51.707  26.122  25.114  1.00  0.00     0.022 A 
BRANCH  81  85
ATOM     85  S   UNL A   1      51.286  27.385  22.664  1.00  0.00     0.124 S 
ATOM     86  O   UNL A   1      52.623  26.815  22.539  1.00  0.00    -0.237 OA
ATOM     87  O   UNL A   1      50.235  26.731  21.891  1.00  0.00    -0.237 OA
ATOM     88  O   UNL A   1      51.229  28.845  22.681  1.00  0.00    -0.744 OA
ENDBRANCH  81  85
ENDBRANCH  54  78
BRANCH  66  89
ATOM     89  C   UNL A   1      46.401  32.671  28.848  1.00  0.00     0.023 A 
ATOM     90  C   UNL A   1      46.423  33.753  27.952  1.00  0.00     0.031 A 
ATOM     91  C   UNL A   1      46.982  32.854  30.117  1.00  0.00     0.131 A 
ATOM     92  C   UNL A   1      47.070  34.946  28.309  1.00  0.00     0.055 A 
ATOM     93  C   UNL A   1      47.566  34.064  30.492  1.00  0.00     0.041 A 
ATOM     94  F   UNL A   1      46.992  31.856  31.015  1.00  0.00    -0.206 F 
ATOM     95  C   UNL A   1      47.626  35.114  29.580  1.00  0.00     0.022 A 
BRANCH  92  96
ATOM     96  S   UNL A   1      47.272  36.238  27.053  1.00  0.00     0.124 S 
ATOM     97  O   UNL A   1      47.176  35.476  25.813  1.00  0.00    -0.237 OA
ATOM     98  O   UNL A   1      46.153  37.130  27.341  1.00  0.00    -0.237 OA
ATOM     99  O   UNL A   1      48.594  36.793  27.340  1.00  0.00    -0.744 OA
ENDBRANCH  92  96
ENDBRANCH  66  89
ENDBRANCH  40  41
ENDBRANCH  32  35
ENDBRANCH  30  31
ENDBRANCH   1  30
TORSDOF 15
ENDMDL
MODEL 3
REMARK VINA RESULT:     -13.2      5.561      9.529
REMARK SMILES CC1(C)S[C@@H](c2cccc3c2sc2ccccc23)[NH2+][C@@H]1C(=O)NCCCCNC(=O)c1ccc(-c2c3nc(c(-c4cc(S(=O)(=O)[O-])ccc4F)c4ccc([nH]4)c(-c4cc(S(=O)(=O)[O-])ccc4F)c4nc(c(-c5cc(S(=O)(=O)[O-])ccc5F)c5ccc2[nH]5)C=C4)C=C3)cc1
REMARK SMILES IDX 26 1 25 2 24 3 23 4 21 5 22 6 20 8 1 9 2 10 3 11 4 12 5 13
REMARK SMILES IDX 19 14 6 17 7 18 11 19 8 20 10 21 12 22 9 23 18 24 13 25
REMARK SMILES IDX 17 26 14 27 16 28 15 29 27 30 28 31 29 32 30 34 31 35 32 36
REMARK SMILES IDX 93 37 33 38 92 39 34 40 35 41 36 42 86 43 37 44 91 45 85 46
REMARK SMILES IDX 87 47 38 48 90 49 84 50 83 51 39 53 71 54 51 55 70 56 52 57
REMARK SMILES IDX 55 58 69 59 88 60 53 61 54 62 68 64 89 65 56 66 40 67 41 68
REMARK SMILES IDX 49 69 42 70 48 71 50 72 47 73 43 74 44 75 45 76 46 77 72 78
REMARK SMILES IDX 73 79 81 80 74 81 80 82 82 83 79 84 75 85 76 86 77 87 78 88
REMARK SMILES IDX 57 89 58 90 66 91 59 92 65 93 67 94 64 95 60 96 61 97 62 98
REMARK SMILES IDX 63 99
REMARK H PARENT 23 7 19 15 19 16 28 33 87 52 55 63
REMARK Flexibility Score: inf
ROOT
ATOM      1  C   UNL A   1      37.405  20.299  24.997  1.00  0.00     0.023 C 
ENDROOT
BRANCH   1   2
ATOM      2  C   UNL A   1      36.210  21.165  24.607  1.00  0.00     0.023 C 
BRANCH   2   3
ATOM      3  C   UNL A   1      36.541  22.531  24.015  1.00  0.00     0.116 C 
BRANCH   3   4
ATOM      4  N   UNL A   1      35.512  23.012  23.109  1.00  0.00    -0.351 N 
ATOM      5  C   UNL A   1      34.389  23.754  23.337  1.00  0.00     0.279 C 
ATOM      6  O   UNL A   1      33.700  23.988  22.341  1.00  0.00    -0.268 OA
ATOM      7  H   UNL A   1      35.649  22.760  22.168  1.00  0.00     0.163 HD
BRANCH   5   8
ATOM      8  C   UNL A   1      33.936  24.145  24.775  1.00  0.00     0.289 C 
ATOM      9  C   UNL A   1      32.525  23.567  26.820  1.00  0.00     0.030 C 
ATOM     10  C   UNL A   1      32.577  23.571  25.276  1.00  0.00     0.077 C 
ATOM     11  C   UNL A   1      32.176  22.176  24.792  1.00  0.00     0.030 C 
ATOM     12  S   UNL A   1      31.347  24.806  24.703  1.00  0.00    -0.081 SA
ATOM     13  C   UNL A   1      32.601  26.060  24.316  1.00  0.00     0.276 C 
ATOM     14  N   UNL A   1      33.850  25.622  24.946  1.00  0.00    -0.320 N 
ATOM     15  H   UNL A   1      33.844  25.859  25.938  1.00  0.00     0.348 HD
ATOM     16  H   UNL A   1      34.653  26.083  24.518  1.00  0.00     0.348 HD
BRANCH  13  17
ATOM     17  C   UNL A   1      32.235  27.462  24.771  1.00  0.00     0.038 A 
ATOM     18  C   UNL A   1      32.946  28.076  25.830  1.00  0.00     0.012 A 
ATOM     19  C   UNL A   1      31.224  28.248  24.143  1.00  0.00     0.046 A 
ATOM     20  C   UNL A   1      32.673  29.366  26.254  1.00  0.00     0.001 A 
ATOM     21  C   UNL A   1      30.916  29.546  24.566  1.00  0.00     0.001 A 
ATOM     22  S   UNL A   1      30.230  27.809  22.801  1.00  0.00    -0.135 S 
ATOM     23  C   UNL A   1      31.664  30.097  25.637  1.00  0.00     0.010 A 
ATOM     24  C   UNL A   1      29.827  30.139  23.806  1.00  0.00     0.000 A 
ATOM     25  C   UNL A   1      29.371  29.288  22.802  1.00  0.00     0.036 A 
ATOM     26  C   UNL A   1      29.195  31.404  23.938  1.00  0.00     0.010 A 
ATOM     27  C   UNL A   1      28.327  29.663  21.933  1.00  0.00     0.019 A 
ATOM     28  C   UNL A   1      28.152  31.777  23.086  1.00  0.00     0.001 A 
ATOM     29  C   UNL A   1      27.726  30.913  22.090  1.00  0.00     0.002 A 
ENDBRANCH  13  17
ENDBRANCH   5   8
ENDBRANCH   3   4
ENDBRANCH   2   3
ENDBRANCH   1   2
BRANCH   1  30
ATOM     30  C   UNL A   1      38.634  21.058  25.483  1.00  0.00     0.116 C 
BRANCH  30  31
ATOM     31  N   UNL A   1      39.589  20.204  26.172  1.00  0.00    -0.352 N 
ATOM     32  C   UNL A   1      40.696  20.551  26.911  1.00  0.00     0.251 C 
ATOM     33  H   UNL A   1      39.419  19.237  26.098  1.00  0.00     0.163 HD
ATOM     34  O   UNL A   1      41.474  19.677  27.284  1.00  0.00    -0.269 OA
BRANCH  32  35
ATOM     35  C   UNL A   1      40.961  21.972  27.227  1.00  0.00     0.039 A 
ATOM     36  C   UNL A   1      41.650  22.288  28.400  1.00  0.00     0.014 A 
ATOM     37  C   UNL A   1      40.535  22.990  26.369  1.00  0.00     0.014 A 
ATOM     38  C   UNL A   1      41.973  23.621  28.677  1.00  0.00     0.010 A 
ATOM     39  C   UNL A   1      40.930  24.304  26.604  1.00  0.00     0.010 A 
ATOM     40  C   UNL A   1      41.647  24.637  27.764  1.00  0.00    -0.014 A 
BRANCH  40  41
ATOM     41  C   UNL A   1      42.016  26.055  28.018  1.00  0.00     0.031 A 
ATOM     42  C   UNL A   1      43.391  26.547  27.652  1.00  0.00     0.074 A 
ATOM     43  C   UNL A   1      41.143  26.881  28.630  1.00  0.00     0.049 A 
ATOM     44  N   UNL A   1      43.940  27.714  27.869  1.00  0.00    -0.248 NA
ATOM     45  C   UNL A   1      44.279  25.582  26.985  1.00  0.00     0.031 C 
ATOM     46  C   UNL A   1      39.795  26.512  29.068  1.00  0.00     0.029 A 
ATOM     47  N   UNL A   1      41.260  28.198  28.996  1.00  0.00    -0.354 N 
ATOM     48  C   UNL A   1      45.240  27.619  27.380  1.00  0.00     0.074 A 
ATOM     49  C   UNL A   1      45.415  26.258  26.923  1.00  0.00     0.031 C 
ATOM     50  C   UNL A   1      39.203  27.584  29.619  1.00  0.00     0.029 A 
ATOM     51  C   UNL A   1      40.140  28.703  29.617  1.00  0.00     0.049 A 
ATOM     52  H   UNL A   1      42.069  28.733  28.830  1.00  0.00     0.167 HD
ATOM     53  C   UNL A   1      46.192  28.583  27.297  1.00  0.00     0.034 A 
ATOM     54  C   UNL A   1      39.900  29.924  30.135  1.00  0.00     0.034 A 
ATOM     55  C   UNL A   1      45.996  29.940  27.746  1.00  0.00     0.049 A 
ATOM     56  C   UNL A   1      40.977  30.978  30.044  1.00  0.00     0.074 A 
ATOM     57  C   UNL A   1      46.872  31.009  27.672  1.00  0.00     0.029 A 
ATOM     58  N   UNL A   1      44.843  30.418  28.357  1.00  0.00    -0.354 N 
ATOM     59  N   UNL A   1      42.187  30.883  29.541  1.00  0.00    -0.248 NA
ATOM     60  C   UNL A   1      40.649  32.305  30.576  1.00  0.00     0.031 C 
ATOM     61  C   UNL A   1      46.277  32.112  28.294  1.00  0.00     0.029 A 
ATOM     62  C   UNL A   1      44.995  31.757  28.685  1.00  0.00     0.049 A 
ATOM     63  H   UNL A   1      44.034  29.883  28.532  1.00  0.00     0.167 HD
ATOM     64  C   UNL A   1      42.747  32.152  29.662  1.00  0.00     0.074 A 
ATOM     65  C   UNL A   1      41.739  32.994  30.273  1.00  0.00     0.031 C 
ATOM     66  C   UNL A   1      43.981  32.586  29.296  1.00  0.00     0.034 A 
BRANCH  53  67
ATOM     67  C   UNL A   1      47.531  28.186  26.722  1.00  0.00     0.023 A 
ATOM     68  C   UNL A   1      47.732  28.061  25.335  1.00  0.00     0.031 A 
ATOM     69  C   UNL A   1      48.614  27.892  27.568  1.00  0.00     0.131 A 
ATOM     70  C   UNL A   1      48.951  27.570  24.843  1.00  0.00     0.055 A 
ATOM     71  C   UNL A   1      49.854  27.489  27.068  1.00  0.00     0.041 A 
ATOM     72  F   UNL A   1      48.481  27.972  28.902  1.00  0.00    -0.206 F 
ATOM     73  C   UNL A   1      50.023  27.310  25.698  1.00  0.00     0.022 A 
BRANCH  70  74
ATOM     74  S   UNL A   1      49.060  27.128  23.087  1.00  0.00     0.124 S 
ATOM     75  O   UNL A   1      48.311  28.218  22.463  1.00  0.00    -0.237 OA
ATOM     76  O   UNL A   1      50.497  27.122  22.850  1.00  0.00    -0.237 OA
ATOM     77  O   UNL A   1      48.409  25.820  23.021  1.00  0.00    -0.744 OA
ENDBRANCH  70  74
ENDBRANCH  53  67
BRANCH  54  78
ATOM     78  C   UNL A   1      38.593  30.228  30.787  1.00  0.00     0.023 A 
ATOM     79  C   UNL A   1      37.596  30.946  30.108  1.00  0.00     0.031 A 
ATOM     80  C   UNL A   1      38.340  29.847  32.116  1.00  0.00     0.131 A 
ATOM     81  C   UNL A   1      36.415  31.307  30.775  1.00  0.00     0.055 A 
ATOM     82  C   UNL A   1      37.140  30.160  32.758  1.00  0.00     0.041 A 
ATOM     83  F   UNL A   1      39.256  29.155  32.811  1.00  0.00    -0.206 F 
ATOM     84  C   UNL A   1      36.175  30.908  32.091  1.00  0.00     0.022 A 
BRANCH  81  85
ATOM     85  S   UNL A   1      35.231  32.386  29.924  1.00  0.00     0.124 S 
ATOM     86  O   UNL A   1      34.744  31.513  28.862  1.00  0.00    -0.237 OA
ATOM     87  O   UNL A   1      34.281  32.694  30.988  1.00  0.00    -0.237 OA
ATOM     88  O   UNL A   1      36.053  33.510  29.481  1.00  0.00    -0.744 OA
ENDBRANCH  81  85
ENDBRANCH  54  78
BRANCH  66  89
ATOM     89  C   UNL A   1      44.280  34.053  29.492  1.00  0.00     0.023 A 
ATOM     90  C   UNL A   1      43.939  35.018  28.528  1.00  0.00     0.031 A 
ATOM     91  C   UNL A   1      44.936  34.488  30.658  1.00  0.00     0.131 A 
ATOM     92  C   UNL A   1      44.313  36.357  28.717  1.00  0.00     0.055 A 
ATOM     93  C   UNL A   1      45.246  35.831  30.871  1.00  0.00     0.041 A 
ATOM     94  F   UNL A   1      45.287  33.611  31.612  1.00  0.00    -0.206 F 
ATOM     95  C   UNL A   1      44.949  36.773  29.890  1.00  0.00     0.022 A 
BRANCH  92  96
ATOM     96  S   UNL A   1      44.056  37.533  27.361  1.00  0.00     0.124 S 
ATOM     97  O   UNL A   1      45.385  37.605  26.763  1.00  0.00    -0.237 OA
ATOM     98  O   UNL A   1      43.033  36.867  26.561  1.00  0.00    -0.237 OA
ATOM     99  O   UNL A   1      43.614  38.750  28.040  1.00  0.00    -0.744 OA
ENDBRANCH  92  96
ENDBRANCH  66  89
ENDBRANCH  40  41
ENDBRANCH  32  35
ENDBRANCH  30  31
ENDBRANCH   1  30
TORSDOF 15
ENDMDL
