MODEL 1
REMARK VINA RESULT:     -11.5      0.000      0.000
REMARK SMILES Cc1ccc(N)c(SCCOc2ccccc2C(=O)NCCCCNC(=O)c2ccc(-c3c4nc(c(-c5cc(S(=O)(=O)[O-])ccc5F)c5ccc([nH]5)c(-c5cc(S(=O)(=O)[O-])ccc5F)c5nc(c(-c6cc(S(=O)(=O)[O-])ccc6F)c6ccc3[nH]6)C=C5)C=C4)cc2)c1
REMARK SMILES IDX 21 1 20 2 18 3 19 4 17 6 12 7 13 8 14 9 16 10 15 11 11 12
REMARK SMILES IDX 10 13 9 14 8 15 7 16 1 17 2 18 3 19 91 20 4 21 5 22 6 23
REMARK SMILES IDX 22 26 23 27 24 28 25 29 26 30 27 32 28 33 29 34 90 35 30 36
REMARK SMILES IDX 89 37 31 38 32 39 33 40 83 41 34 42 88 43 82 44 84 45 35 46
REMARK SMILES IDX 87 47 81 48 80 49 36 51 68 52 48 53 67 54 49 55 52 56 66 57
REMARK SMILES IDX 85 58 50 59 51 60 65 62 86 63 53 64 37 65 38 66 46 67 39 68
REMARK SMILES IDX 45 69 47 70 44 71 40 72 41 73 42 74 43 75 69 76 70 77 78 78
REMARK SMILES IDX 71 79 77 80 79 81 76 82 72 83 73 84 74 85 75 86 54 87 55 88
REMARK SMILES IDX 63 89 56 90 62 91 64 92 61 93 57 94 58 95 59 96 60 97
REMARK H PARENT 20 5 6 24 6 25 25 31 84 50 52 61
REMARK Flexibility Score: inf
ROOT
ATOM      1  C   UNL A   1      30.379  26.818  24.672  1.00  0.00     0.116 C 
ENDROOT
BRANCH   1   2
ATOM      2  N   UNL A   1      30.713  26.962  23.284  1.00  0.00    -0.352 N 
ATOM      3  C   UNL A   1      31.212  26.105  22.383  1.00  0.00     0.255 C 
ATOM      4  O   UNL A   1      31.053  26.575  21.235  1.00  0.00    -0.269 OA
ATOM      5  H   UNL A   1      30.542  27.863  22.924  1.00  0.00     0.163 HD
BRANCH   3   6
ATOM      6  C   UNL A   1      31.777  24.772  22.710  1.00  0.00     0.081 A 
ATOM      7  C   UNL A   1      33.122  24.745  22.911  1.00  0.00     0.132 A 
ATOM      8  C   UNL A   1      33.826  23.538  22.816  1.00  0.00     0.047 A 
ATOM      9  C   UNL A   1      33.130  22.339  22.978  1.00  0.00     0.004 A 
ATOM     10  C   UNL A   1      31.186  23.657  23.289  1.00  0.00     0.018 A 
ATOM     11  C   UNL A   1      31.823  22.425  23.400  1.00  0.00     0.001 A 
BRANCH   7  12
ATOM     12  O   UNL A   1      33.597  25.811  23.655  1.00  0.00    -0.492 OA
BRANCH  12  13
ATOM     13  C   UNL A   1      34.101  25.340  24.973  1.00  0.00     0.241 C 
BRANCH  13  14
ATOM     14  C   UNL A   1      33.127  24.751  26.100  1.00  0.00     0.116 C 
BRANCH  14  15
ATOM     15  S   UNL A   1      33.070  23.005  27.168  1.00  0.00    -0.120 SA
BRANCH  15  16
ATOM     16  C   UNL A   1      33.752  21.423  26.460  1.00  0.00     0.031 A 
ATOM     17  C   UNL A   1      32.534  18.559  24.281  1.00  0.00     0.044 C 
ATOM     18  C   UNL A   1      33.513  19.385  25.090  1.00  0.00    -0.050 A 
ATOM     19  C   UNL A   1      34.812  19.538  24.613  1.00  0.00     0.005 A 
ATOM     20  C   UNL A   1      33.076  20.217  26.153  1.00  0.00     0.020 A 
ATOM     21  C   UNL A   1      35.631  20.517  25.173  1.00  0.00     0.027 A 
ATOM     22  C   UNL A   1      35.124  21.450  26.101  1.00  0.00     0.045 A 
BRANCH  22  23
ATOM     23  N   UNL A   1      35.954  22.506  26.496  1.00  0.00    -0.398 N 
ATOM     24  H   UNL A   1      36.770  22.709  25.984  1.00  0.00     0.156 HD
ATOM     25  H   UNL A   1      35.722  23.047  27.286  1.00  0.00     0.156 HD
ENDBRANCH  22  23
ENDBRANCH  15  16
ENDBRANCH  14  15
ENDBRANCH  13  14
ENDBRANCH  12  13
ENDBRANCH   7  12
ENDBRANCH   3   6
ENDBRANCH   1   2
BRANCH   1  26
ATOM     26  C   UNL A   1      31.183  27.842  25.474  1.00  0.00     0.023 C 
BRANCH  26  27
ATOM     27  C   UNL A   1      32.078  28.781  24.637  1.00  0.00     0.023 C 
BRANCH  27  28
ATOM     28  C   UNL A   1      33.210  29.459  25.404  1.00  0.00     0.116 C 
BRANCH  28  29
ATOM     29  N   UNL A   1      32.844  30.813  25.790  1.00  0.00    -0.352 N 
ATOM     30  C   UNL A   1      33.194  31.513  26.904  1.00  0.00     0.251 C 
ATOM     31  H   UNL A   1      32.261  31.291  25.156  1.00  0.00     0.163 HD
ATOM     32  O   UNL A   1      32.500  32.485  27.252  1.00  0.00    -0.269 OA
BRANCH  30  33
ATOM     33  C   UNL A   1      34.380  31.133  27.691  1.00  0.00     0.039 A 
ATOM     34  C   UNL A   1      35.412  32.055  27.866  1.00  0.00     0.014 A 
ATOM     35  C   UNL A   1      34.502  29.837  28.202  1.00  0.00     0.014 A 
ATOM     36  C   UNL A   1      36.557  31.685  28.573  1.00  0.00     0.010 A 
ATOM     37  C   UNL A   1      35.606  29.495  28.978  1.00  0.00     0.010 A 
ATOM     38  C   UNL A   1      36.660  30.405  29.144  1.00  0.00    -0.014 A 
BRANCH  38  39
ATOM     39  C   UNL A   1      37.893  29.984  29.855  1.00  0.00     0.031 A 
ATOM     40  C   UNL A   1      38.165  30.498  31.245  1.00  0.00     0.074 A 
ATOM     41  C   UNL A   1      38.774  29.165  29.247  1.00  0.00     0.049 A 
ATOM     42  N   UNL A   1      39.195  30.283  32.023  1.00  0.00    -0.248 NA
ATOM     43  C   UNL A   1      37.158  31.401  31.826  1.00  0.00     0.031 C 
ATOM     44  C   UNL A   1      38.634  28.635  27.890  1.00  0.00     0.029 A 
ATOM     45  N   UNL A   1      39.959  28.636  29.688  1.00  0.00    -0.354 N 
ATOM     46  C   UNL A   1      38.965  31.031  33.174  1.00  0.00     0.074 A 
ATOM     47  C   UNL A   1      37.736  31.762  32.960  1.00  0.00     0.031 C 
ATOM     48  C   UNL A   1      39.675  27.830  27.622  1.00  0.00     0.029 A 
ATOM     49  C   UNL A   1      40.578  27.820  28.769  1.00  0.00     0.049 A 
ATOM     50  H   UNL A   1      40.333  28.822  30.580  1.00  0.00     0.167 HD
ATOM     51  C   UNL A   1      39.696  31.082  34.315  1.00  0.00     0.034 A 
ATOM     52  C   UNL A   1      41.743  27.147  28.842  1.00  0.00     0.034 A 
ATOM     53  C   UNL A   1      40.911  30.330  34.516  1.00  0.00     0.049 A 
ATOM     54  C   UNL A   1      42.546  27.228  30.117  1.00  0.00     0.074 A 
ATOM     55  C   UNL A   1      41.712  30.270  35.643  1.00  0.00     0.029 A 
ATOM     56  N   UNL A   1      41.503  29.509  33.564  1.00  0.00    -0.354 N 
ATOM     57  N   UNL A   1      42.292  27.904  31.215  1.00  0.00    -0.248 NA
ATOM     58  C   UNL A   1      43.782  26.438  30.172  1.00  0.00     0.031 C 
ATOM     59  C   UNL A   1      42.823  29.471  35.349  1.00  0.00     0.029 A 
ATOM     60  C   UNL A   1      42.671  28.958  34.070  1.00  0.00     0.049 A 
ATOM     61  H   UNL A   1      41.147  29.343  32.662  1.00  0.00     0.167 HD
ATOM     62  C   UNL A   1      43.315  27.585  32.104  1.00  0.00     0.074 A 
ATOM     63  C   UNL A   1      44.179  26.646  31.418  1.00  0.00     0.031 C 
ATOM     64  C   UNL A   1      43.521  28.022  33.373  1.00  0.00     0.034 A 
BRANCH  51  65
ATOM     65  C   UNL A   1      39.208  31.996  35.416  1.00  0.00     0.023 A 
ATOM     66  C   UNL A   1      39.624  33.336  35.506  1.00  0.00     0.031 A 
ATOM     67  C   UNL A   1      38.334  31.513  36.407  1.00  0.00     0.131 A 
ATOM     68  C   UNL A   1      39.232  34.121  36.602  1.00  0.00     0.055 A 
ATOM     69  C   UNL A   1      37.877  32.326  37.447  1.00  0.00     0.041 A 
ATOM     70  F   UNL A   1      37.919  30.237  36.391  1.00  0.00    -0.206 F 
ATOM     71  C   UNL A   1      38.339  33.634  37.557  1.00  0.00     0.022 A 
BRANCH  68  72
ATOM     72  S   UNL A   1      40.026  35.735  36.838  1.00  0.00     0.124 S 
ATOM     73  O   UNL A   1      41.432  35.358  36.952  1.00  0.00    -0.237 OA
ATOM     74  O   UNL A   1      39.653  36.452  35.623  1.00  0.00    -0.237 OA
ATOM     75  O   UNL A   1      39.420  36.237  38.070  1.00  0.00    -0.744 OA
ENDBRANCH  68  72
ENDBRANCH  51  65
BRANCH  52  76
ATOM     76  C   UNL A   1      42.228  26.336  27.687  1.00  0.00     0.023 A 
ATOM     77  C   UNL A   1      41.831  24.998  27.522  1.00  0.00     0.031 A 
ATOM     78  C   UNL A   1      43.141  26.869  26.760  1.00  0.00     0.131 A 
ATOM     79  C   UNL A   1      42.393  24.223  26.496  1.00  0.00     0.055 A 
ATOM     80  C   UNL A   1      43.649  26.111  25.703  1.00  0.00     0.041 A 
ATOM     81  F   UNL A   1      43.551  28.144  26.866  1.00  0.00    -0.206 F 
ATOM     82  C   UNL A   1      43.288  24.775  25.576  1.00  0.00     0.022 A 
BRANCH  79  83
ATOM     83  S   UNL A   1      42.016  22.448  26.443  1.00  0.00     0.124 S 
ATOM     84  O   UNL A   1      40.558  22.455  26.455  1.00  0.00    -0.237 OA
ATOM     85  O   UNL A   1      42.647  22.043  25.192  1.00  0.00    -0.237 OA
ATOM     86  O   UNL A   1      42.649  21.931  27.656  1.00  0.00    -0.744 OA
ENDBRANCH  79  83
ENDBRANCH  52  76
BRANCH  64  87
ATOM     87  C   UNL A   1      44.694  27.433  34.121  1.00  0.00     0.023 A 
ATOM     88  C   UNL A   1      44.600  26.215  34.817  1.00  0.00     0.031 A 
ATOM     89  C   UNL A   1      45.923  28.119  34.153  1.00  0.00     0.131 A 
ATOM     90  C   UNL A   1      45.689  25.756  35.573  1.00  0.00     0.055 A 
ATOM     91  C   UNL A   1      47.026  27.619  34.846  1.00  0.00     0.041 A 
ATOM     92  F   UNL A   1      46.071  29.288  33.509  1.00  0.00    -0.206 F 
ATOM     93  C   UNL A   1      46.908  26.441  35.576  1.00  0.00     0.022 A 
BRANCH  90  94
ATOM     94  S   UNL A   1      45.456  24.315  36.649  1.00  0.00     0.124 S 
ATOM     95  O   UNL A   1      45.506  24.917  37.977  1.00  0.00    -0.237 OA
ATOM     96  O   UNL A   1      44.152  23.817  36.223  1.00  0.00    -0.237 OA
ATOM     97  O   UNL A   1      46.587  23.451  36.316  1.00  0.00    -0.744 OA
ENDBRANCH  90  94
ENDBRANCH  64  87
ENDBRANCH  38  39
ENDBRANCH  30  33
ENDBRANCH  28  29
ENDBRANCH  27  28
ENDBRANCH  26  27
ENDBRANCH   1  26
TORSDOF 20
ENDMDL
MODEL 2
REMARK VINA RESULT:     -11.4      4.745     10.022
REMARK SMILES Cc1ccc(N)c(SCCOc2ccccc2C(=O)NCCCCNC(=O)c2ccc(-c3c4nc(c(-c5cc(S(=O)(=O)[O-])ccc5F)c5ccc([nH]5)c(-c5cc(S(=O)(=O)[O-])ccc5F)c5nc(c(-c6cc(S(=O)(=O)[O-])ccc6F)c6ccc3[nH]6)C=C5)C=C4)cc2)c1
REMARK SMILES IDX 21 1 20 2 18 3 19 4 17 6 12 7 13 8 14 9 16 10 15 11 11 12
REMARK SMILES IDX 10 13 9 14 8 15 7 16 1 17 2 18 3 19 91 20 4 21 5 22 6 23
REMARK SMILES IDX 22 26 23 27 24 28 25 29 26 30 27 32 28 33 29 34 90 35 30 36
REMARK SMILES IDX 89 37 31 38 32 39 33 40 83 41 34 42 88 43 82 44 84 45 35 46
REMARK SMILES IDX 87 47 81 48 80 49 36 51 68 52 48 53 67 54 49 55 52 56 66 57
REMARK SMILES IDX 85 58 50 59 51 60 65 62 86 63 53 64 37 65 38 66 46 67 39 68
REMARK SMILES IDX 45 69 47 70 44 71 40 72 41 73 42 74 43 75 69 76 70 77 78 78
REMARK SMILES IDX 71 79 77 80 79 81 76 82 72 83 73 84 74 85 75 86 54 87 55 88
REMARK SMILES IDX 63 89 56 90 62 91 64 92 61 93 57 94 58 95 59 96 60 97
REMARK H PARENT 20 5 6 24 6 25 25 31 84 50 52 61
REMARK Flexibility Score: inf
ROOT
ATOM      1  C   UNL A   1      33.560  20.937  26.595  1.00  0.00     0.116 C 
ENDROOT
BRANCH   1   2
ATOM      2  N   UNL A   1      32.613  21.810  27.229  1.00  0.00    -0.352 N 
ATOM      3  C   UNL A   1      32.191  23.046  26.936  1.00  0.00     0.255 C 
ATOM      4  O   UNL A   1      31.147  23.289  27.580  1.00  0.00    -0.269 OA
ATOM      5  H   UNL A   1      32.194  21.426  28.033  1.00  0.00     0.163 HD
BRANCH   3   6
ATOM      6  C   UNL A   1      32.824  23.937  25.932  1.00  0.00     0.081 A 
ATOM      7  C   UNL A   1      32.690  23.542  24.637  1.00  0.00     0.132 A 
ATOM      8  C   UNL A   1      33.557  24.036  23.655  1.00  0.00     0.047 A 
ATOM      9  C   UNL A   1      34.228  25.237  23.891  1.00  0.00     0.004 A 
ATOM     10  C   UNL A   1      33.126  25.291  25.988  1.00  0.00     0.018 A 
ATOM     11  C   UNL A   1      33.855  25.953  25.005  1.00  0.00     0.001 A 
BRANCH   7  12
ATOM     12  O   UNL A   1      31.427  23.069  24.326  1.00  0.00    -0.492 OA
BRANCH  12  13
ATOM     13  C   UNL A   1      30.708  24.043  23.460  1.00  0.00     0.241 C 
BRANCH  13  14
ATOM     14  C   UNL A   1      29.740  25.168  24.062  1.00  0.00     0.116 C 
BRANCH  14  15
ATOM     15  S   UNL A   1      29.516  27.179  23.742  1.00  0.00    -0.120 SA
BRANCH  15  16
ATOM     16  C   UNL A   1      30.982  28.328  23.789  1.00  0.00     0.031 A 
ATOM     17  C   UNL A   1      33.103  30.077  26.411  1.00  0.00     0.044 C 
ATOM     18  C   UNL A   1      32.666  29.637  25.029  1.00  0.00    -0.050 A 
ATOM     19  C   UNL A   1      33.641  29.287  24.099  1.00  0.00     0.005 A 
ATOM     20  C   UNL A   1      31.312  29.314  24.750  1.00  0.00     0.020 A 
ATOM     21  C   UNL A   1      33.263  28.609  22.941  1.00  0.00     0.027 A 
ATOM     22  C   UNL A   1      31.946  28.139  22.766  1.00  0.00     0.045 A 
BRANCH  22  23
ATOM     23  N   UNL A   1      31.676  27.324  21.660  1.00  0.00    -0.398 N 
ATOM     24  H   UNL A   1      31.264  26.439  21.790  1.00  0.00     0.156 HD
ATOM     25  H   UNL A   1      31.897  27.634  20.753  1.00  0.00     0.156 HD
ENDBRANCH  22  23
ENDBRANCH  15  16
ENDBRANCH  14  15
ENDBRANCH  13  14
ENDBRANCH  12  13
ENDBRANCH   7  12
ENDBRANCH   3   6
ENDBRANCH   1   2
BRANCH   1  26
ATOM     26  C   UNL A   1      34.952  21.556  26.722  1.00  0.00     0.023 C 
BRANCH  26  27
ATOM     27  C   UNL A   1      35.758  21.640  25.408  1.00  0.00     0.023 C 
BRANCH  27  28
ATOM     28  C   UNL A   1      37.131  22.296  25.525  1.00  0.00     0.116 C 
BRANCH  28  29
ATOM     29  N   UNL A   1      38.136  21.340  25.964  1.00  0.00    -0.352 N 
ATOM     30  C   UNL A   1      39.423  21.560  26.348  1.00  0.00     0.251 C 
ATOM     31  H   UNL A   1      37.842  20.400  25.988  1.00  0.00     0.163 HD
ATOM     32  O   UNL A   1      40.233  20.616  26.321  1.00  0.00    -0.269 OA
BRANCH  30  33
ATOM     33  C   UNL A   1      39.858  22.895  26.793  1.00  0.00     0.039 A 
ATOM     34  C   UNL A   1      39.438  24.024  26.089  1.00  0.00     0.014 A 
ATOM     35  C   UNL A   1      40.738  23.028  27.872  1.00  0.00     0.014 A 
ATOM     36  C   UNL A   1      39.883  25.288  26.480  1.00  0.00     0.010 A 
ATOM     37  C   UNL A   1      41.113  24.293  28.313  1.00  0.00     0.010 A 
ATOM     38  C   UNL A   1      40.716  25.434  27.601  1.00  0.00    -0.014 A 
BRANCH  38  39
ATOM     39  C   UNL A   1      41.235  26.769  27.997  1.00  0.00     0.031 A 
ATOM     40  C   UNL A   1      42.663  27.136  27.686  1.00  0.00     0.074 A 
ATOM     41  C   UNL A   1      40.436  27.634  28.651  1.00  0.00     0.049 A 
ATOM     42  N   UNL A   1      43.321  28.229  27.976  1.00  0.00    -0.248 NA
ATOM     43  C   UNL A   1      43.469  26.124  26.985  1.00  0.00     0.031 C 
ATOM     44  C   UNL A   1      39.048  27.373  29.038  1.00  0.00     0.029 A 
ATOM     45  N   UNL A   1      40.672  28.905  29.107  1.00  0.00    -0.354 N 
ATOM     46  C   UNL A   1      44.615  28.031  27.504  1.00  0.00     0.074 A 
ATOM     47  C   UNL A   1      44.668  26.685  26.977  1.00  0.00     0.031 C 
ATOM     48  C   UNL A   1      38.547  28.463  29.642  1.00  0.00     0.029 A 
ATOM     49  C   UNL A   1      39.587  29.483  29.726  1.00  0.00     0.049 A 
ATOM     50  H   UNL A   1      41.538  29.363  29.001  1.00  0.00     0.167 HD
ATOM     51  C   UNL A   1      45.656  28.900  27.485  1.00  0.00     0.034 A 
ATOM     52  C   UNL A   1      39.452  30.695  30.301  1.00  0.00     0.034 A 
ATOM     53  C   UNL A   1      45.577  30.246  27.999  1.00  0.00     0.049 A 
ATOM     54  C   UNL A   1      40.627  31.641  30.278  1.00  0.00     0.074 A 
ATOM     55  C   UNL A   1      46.552  31.228  27.997  1.00  0.00     0.029 A 
ATOM     56  N   UNL A   1      44.459  30.798  28.613  1.00  0.00    -0.354 N 
ATOM     57  N   UNL A   1      41.832  31.455  29.786  1.00  0.00    -0.248 NA
ATOM     58  C   UNL A   1      40.418  32.968  30.870  1.00  0.00     0.031 C 
ATOM     59  C   UNL A   1      46.049  32.347  28.670  1.00  0.00     0.029 A 
ATOM     60  C   UNL A   1      44.729  32.098  29.014  1.00  0.00     0.049 A 
ATOM     61  H   UNL A   1      43.601  30.334  28.745  1.00  0.00     0.167 HD
ATOM     62  C   UNL A   1      42.507  32.658  29.972  1.00  0.00     0.074 A 
ATOM     63  C   UNL A   1      41.571  33.563  30.606  1.00  0.00     0.031 C 
ATOM     64  C   UNL A   1      43.784  32.989  29.644  1.00  0.00     0.034 A 
BRANCH  51  65
ATOM     65  C   UNL A   1      46.964  28.409  26.910  1.00  0.00     0.023 A 
ATOM     66  C   UNL A   1      47.178  28.321  25.523  1.00  0.00     0.031 A 
ATOM     67  C   UNL A   1      48.007  27.999  27.761  1.00  0.00     0.131 A 
ATOM     68  C   UNL A   1      48.366  27.760  25.029  1.00  0.00     0.055 A 
ATOM     69  C   UNL A   1      49.222  27.525  27.262  1.00  0.00     0.041 A 
ATOM     70  F   UNL A   1      47.857  28.037  29.094  1.00  0.00    -0.206 F 
ATOM     71  C   UNL A   1      49.401  27.389  25.889  1.00  0.00     0.022 A 
BRANCH  68  72
ATOM     72  S   UNL A   1      48.478  27.388  23.258  1.00  0.00     0.124 S 
ATOM     73  O   UNL A   1      49.807  27.899  22.932  1.00  0.00    -0.237 OA
ATOM     74  O   UNL A   1      48.327  25.937  23.229  1.00  0.00    -0.237 OA
ATOM     75  O   UNL A   1      47.368  28.142  22.678  1.00  0.00    -0.744 OA
ENDBRANCH  68  72
ENDBRANCH  51  65
BRANCH  52  76
ATOM     76  C   UNL A   1      38.165  31.093  30.942  1.00  0.00     0.023 A 
ATOM     77  C   UNL A   1      37.159  31.743  30.208  1.00  0.00     0.031 A 
ATOM     78  C   UNL A   1      37.944  30.879  32.314  1.00  0.00     0.131 A 
ATOM     79  C   UNL A   1      36.008  32.212  30.861  1.00  0.00     0.055 A 
ATOM     80  C   UNL A   1      36.769  31.293  32.947  1.00  0.00     0.041 A 
ATOM     81  F   UNL A   1      38.868  30.258  33.064  1.00  0.00    -0.206 F 
ATOM     82  C   UNL A   1      35.800  31.978  32.222  1.00  0.00     0.022 A 
BRANCH  79  83
ATOM     83  S   UNL A   1      34.832  33.228  29.924  1.00  0.00     0.124 S 
ATOM     84  O   UNL A   1      34.020  33.802  30.992  1.00  0.00    -0.237 OA
ATOM     85  O   UNL A   1      35.720  34.151  29.226  1.00  0.00    -0.237 OA
ATOM     86  O   UNL A   1      34.149  32.257  29.072  1.00  0.00    -0.744 OA
ENDBRANCH  79  83
ENDBRANCH  52  76
BRANCH  64  87
ATOM     87  C   UNL A   1      44.214  34.413  29.908  1.00  0.00     0.023 A 
ATOM     88  C   UNL A   1      44.025  35.437  28.964  1.00  0.00     0.031 A 
ATOM     89  C   UNL A   1      44.845  34.742  31.122  1.00  0.00     0.131 A 
ATOM     90  C   UNL A   1      44.525  36.723  29.217  1.00  0.00     0.055 A 
ATOM     91  C   UNL A   1      45.274  36.040  31.399  1.00  0.00     0.041 A 
ATOM     92  F   UNL A   1      45.055  33.805  32.061  1.00  0.00    -0.206 F 
ATOM     93  C   UNL A   1      45.131  37.036  30.437  1.00  0.00     0.022 A 
BRANCH  90  94
ATOM     94  S   UNL A   1      44.481  37.952  27.885  1.00  0.00     0.124 S 
ATOM     95  O   UNL A   1      43.093  37.872  27.444  1.00  0.00    -0.237 OA
ATOM     96  O   UNL A   1      44.860  39.178  28.580  1.00  0.00    -0.237 OA
ATOM     97  O   UNL A   1      45.467  37.454  26.927  1.00  0.00    -0.744 OA
ENDBRANCH  90  94
ENDBRANCH  64  87
ENDBRANCH  38  39
ENDBRANCH  30  33
ENDBRANCH  28  29
ENDBRANCH  27  28
ENDBRANCH  26  27
ENDBRANCH   1  26
TORSDOF 20
ENDMDL
MODEL 3
REMARK VINA RESULT:     -11.3      1.434      7.594
REMARK SMILES Cc1ccc(N)c(SCCOc2ccccc2C(=O)NCCCCNC(=O)c2ccc(-c3c4nc(c(-c5cc(S(=O)(=O)[O-])ccc5F)c5ccc([nH]5)c(-c5cc(S(=O)(=O)[O-])ccc5F)c5nc(c(-c6cc(S(=O)(=O)[O-])ccc6F)c6ccc3[nH]6)C=C5)C=C4)cc2)c1
REMARK SMILES IDX 21 1 20 2 18 3 19 4 17 6 12 7 13 8 14 9 16 10 15 11 11 12
REMARK SMILES IDX 10 13 9 14 8 15 7 16 1 17 2 18 3 19 91 20 4 21 5 22 6 23
REMARK SMILES IDX 22 26 23 27 24 28 25 29 26 30 27 32 28 33 29 34 90 35 30 36
REMARK SMILES IDX 89 37 31 38 32 39 33 40 83 41 34 42 88 43 82 44 84 45 35 46
REMARK SMILES IDX 87 47 81 48 80 49 36 51 68 52 48 53 67 54 49 55 52 56 66 57
REMARK SMILES IDX 85 58 50 59 51 60 65 62 86 63 53 64 37 65 38 66 46 67 39 68
REMARK SMILES IDX 45 69 47 70 44 71 40 72 41 73 42 74 43 75 69 76 70 77 78 78
REMARK SMILES IDX 71 79 77 80 79 81 76 82 72 83 73 84 74 85 75 86 54 87 55 88
REMARK SMILES IDX 63 89 56 90 62 91 64 92 61 93 57 94 58 95 59 96 60 97
REMARK H PARENT 20 5 6 24 6 25 25 31 84 50 52 61
REMARK Flexibility Score: inf
ROOT
ATOM      1  C   UNL A   1      30.530  26.835  25.000  1.00  0.00     0.116 C 
ENDROOT
BRANCH   1   2
ATOM      2  N   UNL A   1      30.805  27.072  23.612  1.00  0.00    -0.352 N 
ATOM      3  C   UNL A   1      31.248  26.274  22.633  1.00  0.00     0.255 C 
ATOM      4  O   UNL A   1      31.049  26.826  21.528  1.00  0.00    -0.269 OA
ATOM      5  H   UNL A   1      30.635  27.998  23.325  1.00  0.00     0.163 HD
BRANCH   3   6
ATOM      6  C   UNL A   1      31.803  24.912  22.840  1.00  0.00     0.081 A 
ATOM      7  C   UNL A   1      33.156  24.849  22.967  1.00  0.00     0.132 A 
ATOM      8  C   UNL A   1      33.829  23.640  22.755  1.00  0.00     0.047 A 
ATOM      9  C   UNL A   1      33.119  22.444  22.874  1.00  0.00     0.004 A 
ATOM     10  C   UNL A   1      31.220  23.771  23.374  1.00  0.00     0.018 A 
ATOM     11  C   UNL A   1      31.838  22.524  23.368  1.00  0.00     0.001 A 
BRANCH   7  12
ATOM     12  O   UNL A   1      33.689  25.855  23.754  1.00  0.00    -0.492 OA
BRANCH  12  13
ATOM     13  C   UNL A   1      34.225  25.291  25.023  1.00  0.00     0.241 C 
BRANCH  13  14
ATOM     14  C   UNL A   1      33.270  24.692  26.161  1.00  0.00     0.116 C 
BRANCH  14  15
ATOM     15  S   UNL A   1      33.208  22.920  27.186  1.00  0.00    -0.120 SA
BRANCH  15  16
ATOM     16  C   UNL A   1      33.814  21.339  26.410  1.00  0.00     0.031 A 
ATOM     17  C   UNL A   1      32.455  18.623  24.128  1.00  0.00     0.044 C 
ATOM     18  C   UNL A   1      33.475  19.371  24.961  1.00  0.00    -0.050 A 
ATOM     19  C   UNL A   1      34.777  19.485  24.479  1.00  0.00     0.005 A 
ATOM     20  C   UNL A   1      33.083  20.178  26.061  1.00  0.00     0.020 A 
ATOM     21  C   UNL A   1      35.642  20.404  25.072  1.00  0.00     0.027 A 
ATOM     22  C   UNL A   1      35.184  21.320  26.040  1.00  0.00     0.045 A 
BRANCH  22  23
ATOM     23  N   UNL A   1      36.063  22.321  26.471  1.00  0.00    -0.398 N 
ATOM     24  H   UNL A   1      36.551  22.216  27.319  1.00  0.00     0.156 HD
ATOM     25  H   UNL A   1      36.194  23.131  25.926  1.00  0.00     0.156 HD
ENDBRANCH  22  23
ENDBRANCH  15  16
ENDBRANCH  14  15
ENDBRANCH  13  14
ENDBRANCH  12  13
ENDBRANCH   7  12
ENDBRANCH   3   6
ENDBRANCH   1   2
BRANCH   1  26
ATOM     26  C   UNL A   1      31.343  27.825  25.834  1.00  0.00     0.023 C 
BRANCH  26  27
ATOM     27  C   UNL A   1      32.206  28.816  25.024  1.00  0.00     0.023 C 
BRANCH  27  28
ATOM     28  C   UNL A   1      33.400  29.406  25.771  1.00  0.00     0.116 C 
BRANCH  28  29
ATOM     29  N   UNL A   1      33.146  30.785  26.160  1.00  0.00    -0.352 N 
ATOM     30  C   UNL A   1      33.664  31.493  27.201  1.00  0.00     0.251 C 
ATOM     31  H   UNL A   1      32.510  31.274  25.590  1.00  0.00     0.163 HD
ATOM     32  O   UNL A   1      33.063  32.505  27.604  1.00  0.00    -0.269 OA
BRANCH  30  33
ATOM     33  C   UNL A   1      34.921  31.074  27.845  1.00  0.00     0.039 A 
ATOM     34  C   UNL A   1      35.022  29.791  28.385  1.00  0.00     0.014 A 
ATOM     35  C   UNL A   1      35.983  31.976  27.974  1.00  0.00     0.014 A 
ATOM     36  C   UNL A   1      36.194  29.406  29.036  1.00  0.00     0.010 A 
ATOM     37  C   UNL A   1      37.181  31.562  28.548  1.00  0.00     0.010 A 
ATOM     38  C   UNL A   1      37.288  30.283  29.113  1.00  0.00    -0.014 A 
BRANCH  38  39
ATOM     39  C   UNL A   1      38.523  29.901  29.845  1.00  0.00     0.031 A 
ATOM     40  C   UNL A   1      39.465  28.892  29.242  1.00  0.00     0.074 A 
ATOM     41  C   UNL A   1      38.782  30.438  31.054  1.00  0.00     0.049 A 
ATOM     42  N   UNL A   1      40.573  28.396  29.730  1.00  0.00    -0.248 NA
ATOM     43  C   UNL A   1      39.095  28.344  27.927  1.00  0.00     0.031 C 
ATOM     44  C   UNL A   1      37.922  31.395  31.752  1.00  0.00     0.029 A 
ATOM     45  N   UNL A   1      39.838  30.257  31.909  1.00  0.00    -0.354 N 
ATOM     46  C   UNL A   1      41.023  27.472  28.791  1.00  0.00     0.074 A 
ATOM     47  C   UNL A   1      40.029  27.425  27.741  1.00  0.00     0.031 C 
ATOM     48  C   UNL A   1      38.503  31.743  32.913  1.00  0.00     0.029 A 
ATOM     49  C   UNL A   1      39.751  31.002  33.062  1.00  0.00     0.049 A 
ATOM     50  H   UNL A   1      40.590  29.651  31.715  1.00  0.00     0.167 HD
ATOM     51  C   UNL A   1      42.172  26.752  28.788  1.00  0.00     0.034 A 
ATOM     52  C   UNL A   1      40.583  31.073  34.121  1.00  0.00     0.034 A 
ATOM     53  C   UNL A   1      43.160  26.828  29.837  1.00  0.00     0.049 A 
ATOM     54  C   UNL A   1      41.849  30.254  34.102  1.00  0.00     0.074 A 
ATOM     55  C   UNL A   1      44.379  26.178  29.923  1.00  0.00     0.029 A 
ATOM     56  N   UNL A   1      43.040  27.599  30.987  1.00  0.00    -0.354 N 
ATOM     57  N   UNL A   1      42.283  29.419  33.184  1.00  0.00    -0.248 NA
ATOM     58  C   UNL A   1      42.749  30.401  35.253  1.00  0.00     0.031 C 
ATOM     59  C   UNL A   1      44.962  26.500  31.153  1.00  0.00     0.029 A 
ATOM     60  C   UNL A   1      44.152  27.422  31.797  1.00  0.00     0.049 A 
ATOM     61  H   UNL A   1      42.278  28.185  31.197  1.00  0.00     0.167 HD
ATOM     62  C   UNL A   1      43.526  28.977  33.629  1.00  0.00     0.074 A 
ATOM     63  C   UNL A   1      43.776  29.649  34.888  1.00  0.00     0.031 C 
ATOM     64  C   UNL A   1      44.387  28.100  33.050  1.00  0.00     0.034 A 
BRANCH  51  65
ATOM     65  C   UNL A   1      42.403  25.811  27.629  1.00  0.00     0.023 A 
ATOM     66  C   UNL A   1      41.884  24.504  27.621  1.00  0.00     0.031 A 
ATOM     67  C   UNL A   1      43.175  26.216  26.525  1.00  0.00     0.131 A 
ATOM     68  C   UNL A   1      42.209  23.625  26.575  1.00  0.00     0.055 A 
ATOM     69  C   UNL A   1      43.421  25.365  25.445  1.00  0.00     0.041 A 
ATOM     70  F   UNL A   1      43.718  27.442  26.483  1.00  0.00    -0.206 F 
ATOM     71  C   UNL A   1      42.950  24.056  25.474  1.00  0.00     0.022 A 
BRANCH  68  72
ATOM     72  S   UNL A   1      41.774  21.873  26.750  1.00  0.00     0.124 S 
ATOM     73  O   UNL A   1      42.471  21.518  27.984  1.00  0.00    -0.237 OA
ATOM     74  O   UNL A   1      40.319  21.914  26.828  1.00  0.00    -0.237 OA
ATOM     75  O   UNL A   1      42.318  21.263  25.537  1.00  0.00    -0.744 OA
ENDBRANCH  68  72
ENDBRANCH  51  65
BRANCH  52  76
ATOM     76  C   UNL A   1      40.258  31.947  35.286  1.00  0.00     0.023 A 
ATOM     77  C   UNL A   1      39.317  31.551  36.251  1.00  0.00     0.031 A 
ATOM     78  C   UNL A   1      40.842  33.220  35.421  1.00  0.00     0.131 A 
ATOM     79  C   UNL A   1      38.942  32.440  37.271  1.00  0.00     0.055 A 
ATOM     80  C   UNL A   1      40.512  34.076  36.474  1.00  0.00     0.041 A 
ATOM     81  F   UNL A   1      41.752  33.648  34.531  1.00  0.00    -0.206 F 
ATOM     82  C   UNL A   1      39.545  33.694  37.397  1.00  0.00     0.022 A 
BRANCH  79  83
ATOM     83  S   UNL A   1      37.576  31.974  38.370  1.00  0.00     0.124 S 
ATOM     84  O   UNL A   1      36.565  32.965  38.022  1.00  0.00    -0.237 OA
ATOM     85  O   UNL A   1      37.305  30.603  37.950  1.00  0.00    -0.237 OA
ATOM     86  O   UNL A   1      38.154  32.112  39.706  1.00  0.00    -0.744 OA
ENDBRANCH  79  83
ENDBRANCH  52  76
BRANCH  64  87
ATOM     87  C   UNL A   1      45.709  27.874  33.745  1.00  0.00     0.023 A 
ATOM     88  C   UNL A   1      45.886  26.855  34.698  1.00  0.00     0.031 A 
ATOM     89  C   UNL A   1      46.804  28.710  33.461  1.00  0.00     0.131 A 
ATOM     90  C   UNL A   1      47.105  26.744  35.384  1.00  0.00     0.055 A 
ATOM     91  C   UNL A   1      48.038  28.546  34.092  1.00  0.00     0.041 A 
ATOM     92  F   UNL A   1      46.693  29.701  32.561  1.00  0.00    -0.206 F 
ATOM     93  C   UNL A   1      48.188  27.571  35.073  1.00  0.00     0.022 A 
BRANCH  90  94
ATOM     94  S   UNL A   1      47.219  25.582  36.772  1.00  0.00     0.124 S 
ATOM     95  O   UNL A   1      47.659  26.451  37.859  1.00  0.00    -0.237 OA
ATOM     96  O   UNL A   1      45.853  25.080  36.871  1.00  0.00    -0.237 OA
ATOM     97  O   UNL A   1      48.207  24.604  36.319  1.00  0.00    -0.744 OA
ENDBRANCH  90  94
ENDBRANCH  64  87
ENDBRANCH  38  39
ENDBRANCH  30  33
ENDBRANCH  28  29
ENDBRANCH  27  28
ENDBRANCH  26  27
ENDBRANCH   1  26
TORSDOF 20
ENDMDL
