MODEL 1
REMARK VINA RESULT:     -12.2      0.000      0.000
REMARK SMILES C[C@H]1CCC[C@@H]1n1c(SCC(=O)NCCCCNC(=O)c2ccc(-c3c4nc(c(-c5cc(S(=O)(=O)[O-])ccc5F)c5ccc([nH]5)c(-c5cc(S(=O)(=O)[O-])ccc5F)c5nc(c(-c6cc(S(=O)(=O)[O-])ccc6F)c6ccc3[nH]6)C=C5)C=C4)cc2)nc2cnccc21
REMARK SMILES IDX 15 1 14 2 13 3 11 4 12 5 10 7 9 8 8 9 7 10 90 11 84 12 85 13
REMARK SMILES IDX 89 14 86 15 88 16 87 17 6 18 1 19 2 20 3 21 4 22 5 23 16 24
REMARK SMILES IDX 17 25 18 26 19 27 20 29 21 30 22 31 83 32 23 33 82 34 24 35
REMARK SMILES IDX 25 36 26 37 76 38 27 39 81 40 75 41 77 42 28 43 80 44 74 45
REMARK SMILES IDX 73 46 29 48 61 49 41 50 60 51 42 52 45 53 59 54 78 55 43 56
REMARK SMILES IDX 44 57 58 59 79 60 46 61 30 62 31 63 39 64 32 65 38 66 40 67
REMARK SMILES IDX 37 68 33 69 34 70 35 71 36 72 62 73 63 74 71 75 64 76 70 77
REMARK SMILES IDX 72 78 69 79 65 80 66 81 67 82 68 83 47 84 48 85 56 86 49 87
REMARK SMILES IDX 55 88 57 89 54 90 50 91 51 92 52 93 53 94
REMARK H PARENT 13 6 18 28 77 47 45 58
REMARK Flexibility Score: inf
ROOT
ATOM      1  C   UNL A   1      31.638  27.878  26.407  1.00  0.00     0.023 C 
ENDROOT
BRANCH   1   2
ATOM      2  C   UNL A   1      32.293  26.512  26.276  1.00  0.00     0.116 C 
BRANCH   2   3
ATOM      3  N   UNL A   1      31.422  25.439  26.698  1.00  0.00    -0.355 N 
ATOM      4  C   UNL A   1      31.031  24.352  25.995  1.00  0.00     0.230 C 
ATOM      5  O   UNL A   1      30.725  23.356  26.663  1.00  0.00    -0.274 OA
ATOM      6  H   UNL A   1      31.069  25.509  27.614  1.00  0.00     0.163 HD
BRANCH   4   7
ATOM      7  C   UNL A   1      31.115  24.277  24.492  1.00  0.00     0.178 C 
BRANCH   7   8
ATOM      8  S   UNL A   1      32.367  23.360  23.599  1.00  0.00    -0.078 SA
BRANCH   8   9
ATOM      9  C   UNL A   1      32.521  21.657  23.907  1.00  0.00     0.169 A 
ATOM     10  N   UNL A   1      33.565  20.999  24.570  1.00  0.00    -0.315 N 
ATOM     11  C   UNL A   1      33.462  19.649  24.231  1.00  0.00     0.072 A 
ATOM     12  N   UNL A   1      31.909  20.836  23.076  1.00  0.00    -0.221 NA
ATOM     13  C   UNL A   1      32.528  19.620  23.197  1.00  0.00     0.108 A 
ATOM     14  C   UNL A   1      34.098  18.464  24.627  1.00  0.00     0.049 A 
ATOM     15  C   UNL A   1      32.367  18.446  22.446  1.00  0.00     0.141 A 
ATOM     16  C   UNL A   1      33.869  17.346  23.836  1.00  0.00     0.113 A 
ATOM     17  N   UNL A   1      33.073  17.326  22.750  1.00  0.00    -0.262 NA
BRANCH  10  18
ATOM     18  C   UNL A   1      34.718  21.648  25.203  1.00  0.00     0.093 C 
ATOM     19  C   UNL A   1      34.052  22.578  27.533  1.00  0.00     0.010 C 
ATOM     20  C   UNL A   1      34.508  22.884  26.109  1.00  0.00     0.009 C 
ATOM     21  C   UNL A   1      35.879  23.565  26.127  1.00  0.00     0.005 C 
ATOM     22  C   UNL A   1      36.361  23.450  24.702  1.00  0.00     0.002 C 
ATOM     23  C   UNL A   1      35.694  22.196  24.165  1.00  0.00     0.026 C 
ENDBRANCH  10  18
ENDBRANCH   8   9
ENDBRANCH   7   8
ENDBRANCH   4   7
ENDBRANCH   2   3
ENDBRANCH   1   2
BRANCH   1  24
ATOM     24  C   UNL A   1      32.397  28.922  27.236  1.00  0.00     0.023 C 
BRANCH  24  25
ATOM     25  C   UNL A   1      33.602  29.592  26.569  1.00  0.00     0.116 C 
BRANCH  25  26
ATOM     26  N   UNL A   1      33.938  30.905  27.076  1.00  0.00    -0.352 N 
ATOM     27  C   UNL A   1      35.055  31.476  27.626  1.00  0.00     0.251 C 
ATOM     28  H   UNL A   1      33.187  31.538  27.009  1.00  0.00     0.163 HD
ATOM     29  O   UNL A   1      34.998  32.698  27.787  1.00  0.00    -0.269 OA
BRANCH  27  30
ATOM     30  C   UNL A   1      36.270  30.742  28.076  1.00  0.00     0.039 A 
ATOM     31  C   UNL A   1      37.431  31.332  28.570  1.00  0.00     0.014 A 
ATOM     32  C   UNL A   1      36.234  29.337  27.956  1.00  0.00     0.014 A 
ATOM     33  C   UNL A   1      38.551  30.556  28.848  1.00  0.00     0.010 A 
ATOM     34  C   UNL A   1      37.346  28.551  28.262  1.00  0.00     0.010 A 
ATOM     35  C   UNL A   1      38.520  29.167  28.677  1.00  0.00    -0.014 A 
BRANCH  35  36
ATOM     36  C   UNL A   1      39.714  28.425  29.079  1.00  0.00     0.031 A 
ATOM     37  C   UNL A   1      40.001  28.463  30.537  1.00  0.00     0.074 A 
ATOM     38  C   UNL A   1      40.486  27.678  28.265  1.00  0.00     0.049 A 
ATOM     39  N   UNL A   1      40.975  29.063  31.141  1.00  0.00    -0.248 NA
ATOM     40  C   UNL A   1      39.005  27.870  31.439  1.00  0.00     0.031 C 
ATOM     41  C   UNL A   1      40.174  27.250  26.901  1.00  0.00     0.029 A 
ATOM     42  N   UNL A   1      41.674  27.053  28.532  1.00  0.00    -0.354 N 
ATOM     43  C   UNL A   1      40.835  28.744  32.491  1.00  0.00     0.074 A 
ATOM     44  C   UNL A   1      39.522  28.169  32.632  1.00  0.00     0.031 C 
ATOM     45  C   UNL A   1      41.021  26.258  26.548  1.00  0.00     0.029 A 
ATOM     46  C   UNL A   1      42.024  26.098  27.591  1.00  0.00     0.049 A 
ATOM     47  H   UNL A   1      42.228  27.263  29.317  1.00  0.00     0.167 HD
ATOM     48  C   UNL A   1      41.905  28.749  33.336  1.00  0.00     0.034 A 
ATOM     49  C   UNL A   1      43.022  25.189  27.678  1.00  0.00     0.034 A 
ATOM     50  C   UNL A   1      43.044  29.384  32.731  1.00  0.00     0.049 A 
ATOM     51  C   UNL A   1      44.035  25.654  28.649  1.00  0.00     0.074 A 
ATOM     52  C   UNL A   1      43.461  30.666  32.462  1.00  0.00     0.029 A 
ATOM     53  N   UNL A   1      43.842  28.533  32.014  1.00  0.00    -0.354 N 
ATOM     54  N   UNL A   1      44.831  26.665  28.447  1.00  0.00    -0.248 NA
ATOM     55  C   UNL A   1      44.006  25.151  30.019  1.00  0.00     0.031 C 
ATOM     56  C   UNL A   1      44.417  30.559  31.410  1.00  0.00     0.029 A 
ATOM     57  C   UNL A   1      44.567  29.213  31.074  1.00  0.00     0.049 A 
ATOM     58  H   UNL A   1      43.887  27.560  32.157  1.00  0.00     0.167 HD
ATOM     59  C   UNL A   1      45.022  27.198  29.706  1.00  0.00     0.074 A 
ATOM     60  C   UNL A   1      44.688  26.123  30.628  1.00  0.00     0.031 C 
ATOM     61  C   UNL A   1      45.090  28.548  29.893  1.00  0.00     0.034 A 
BRANCH  48  62
ATOM     62  C   UNL A   1      42.086  27.792  34.502  1.00  0.00     0.023 A 
ATOM     63  C   UNL A   1      42.686  26.528  34.372  1.00  0.00     0.031 A 
ATOM     64  C   UNL A   1      41.901  28.246  35.827  1.00  0.00     0.131 A 
ATOM     65  C   UNL A   1      43.088  25.782  35.491  1.00  0.00     0.055 A 
ATOM     66  C   UNL A   1      42.358  27.530  36.944  1.00  0.00     0.041 A 
ATOM     67  F   UNL A   1      41.329  29.434  36.081  1.00  0.00    -0.206 F 
ATOM     68  C   UNL A   1      42.963  26.291  36.777  1.00  0.00     0.022 A 
BRANCH  65  69
ATOM     69  S   UNL A   1      43.820  24.138  35.263  1.00  0.00     0.124 S 
ATOM     70  O   UNL A   1      44.437  23.903  36.570  1.00  0.00    -0.237 OA
ATOM     71  O   UNL A   1      42.633  23.328  34.974  1.00  0.00    -0.237 OA
ATOM     72  O   UNL A   1      44.732  24.318  34.151  1.00  0.00    -0.744 OA
ENDBRANCH  65  69
ENDBRANCH  48  62
BRANCH  49  73
ATOM     73  C   UNL A   1      42.986  23.787  27.206  1.00  0.00     0.023 A 
ATOM     74  C   UNL A   1      43.934  23.350  26.264  1.00  0.00     0.031 A 
ATOM     75  C   UNL A   1      41.867  22.969  27.430  1.00  0.00     0.131 A 
ATOM     76  C   UNL A   1      43.724  22.171  25.539  1.00  0.00     0.055 A 
ATOM     77  C   UNL A   1      41.663  21.784  26.714  1.00  0.00     0.041 A 
ATOM     78  F   UNL A   1      40.911  23.340  28.297  1.00  0.00    -0.206 F 
ATOM     79  C   UNL A   1      42.588  21.388  25.751  1.00  0.00     0.022 A 
BRANCH  76  80
ATOM     80  S   UNL A   1      44.896  21.675  24.249  1.00  0.00     0.124 S 
ATOM     81  O   UNL A   1      44.528  22.554  23.140  1.00  0.00    -0.237 OA
ATOM     82  O   UNL A   1      46.176  21.968  24.883  1.00  0.00    -0.237 OA
ATOM     83  O   UNL A   1      44.596  20.263  24.039  1.00  0.00    -0.744 OA
ENDBRANCH  76  80
ENDBRANCH  49  73
BRANCH  61  84
ATOM     84  C   UNL A   1      45.532  29.413  28.742  1.00  0.00     0.023 A 
ATOM     85  C   UNL A   1      46.886  29.793  28.714  1.00  0.00     0.031 A 
ATOM     86  C   UNL A   1      44.678  29.971  27.775  1.00  0.00     0.131 A 
ATOM     87  C   UNL A   1      47.345  30.716  27.770  1.00  0.00     0.055 A 
ATOM     88  C   UNL A   1      45.157  30.835  26.784  1.00  0.00     0.041 A 
ATOM     89  F   UNL A   1      43.354  29.758  27.797  1.00  0.00    -0.206 F 
ATOM     90  C   UNL A   1      46.493  31.223  26.788  1.00  0.00     0.022 A 
BRANCH  87  91
ATOM     91  S   UNL A   1      49.021  31.390  27.896  1.00  0.00     0.124 S 
ATOM     92  O   UNL A   1      49.685  30.412  28.753  1.00  0.00    -0.237 OA
ATOM     93  O   UNL A   1      49.459  31.403  26.501  1.00  0.00    -0.237 OA
ATOM     94  O   UNL A   1      48.828  32.711  28.488  1.00  0.00    -0.744 OA
ENDBRANCH  87  91
ENDBRANCH  61  84
ENDBRANCH  35  36
ENDBRANCH  27  30
ENDBRANCH  25  26
ENDBRANCH  24  25
ENDBRANCH   1  24
TORSDOF 17
ENDMDL
MODEL 2
REMARK VINA RESULT:     -12.2      3.746      9.260
REMARK SMILES C[C@H]1CCC[C@@H]1n1c(SCC(=O)NCCCCNC(=O)c2ccc(-c3c4nc(c(-c5cc(S(=O)(=O)[O-])ccc5F)c5ccc([nH]5)c(-c5cc(S(=O)(=O)[O-])ccc5F)c5nc(c(-c6cc(S(=O)(=O)[O-])ccc6F)c6ccc3[nH]6)C=C5)C=C4)cc2)nc2cnccc21
REMARK SMILES IDX 15 1 14 2 13 3 11 4 12 5 10 7 9 8 8 9 7 10 90 11 84 12 85 13
REMARK SMILES IDX 89 14 86 15 88 16 87 17 6 18 1 19 2 20 3 21 4 22 5 23 16 24
REMARK SMILES IDX 17 25 18 26 19 27 20 29 21 30 22 31 83 32 23 33 82 34 24 35
REMARK SMILES IDX 25 36 26 37 76 38 27 39 81 40 75 41 77 42 28 43 80 44 74 45
REMARK SMILES IDX 73 46 29 48 61 49 41 50 60 51 42 52 45 53 59 54 78 55 43 56
REMARK SMILES IDX 44 57 58 59 79 60 46 61 30 62 31 63 39 64 32 65 38 66 40 67
REMARK SMILES IDX 37 68 33 69 34 70 35 71 36 72 62 73 63 74 71 75 64 76 70 77
REMARK SMILES IDX 72 78 69 79 65 80 66 81 67 82 68 83 47 84 48 85 56 86 49 87
REMARK SMILES IDX 55 88 57 89 54 90 50 91 51 92 52 93 53 94
REMARK H PARENT 13 6 18 28 77 47 45 58
REMARK Flexibility Score: inf
ROOT
ATOM      1  C   UNL A   1      36.179  23.620  25.033  1.00  0.00     0.023 C 
ENDROOT
BRANCH   1   2
ATOM      2  C   UNL A   1      34.804  23.360  24.438  1.00  0.00     0.116 C 
BRANCH   2   3
ATOM      3  N   UNL A   1      34.601  24.062  23.192  1.00  0.00    -0.355 N 
ATOM      4  C   UNL A   1      33.489  24.706  22.765  1.00  0.00     0.230 C 
ATOM      5  O   UNL A   1      33.673  25.624  21.955  1.00  0.00    -0.274 OA
ATOM      6  H   UNL A   1      35.367  24.073  22.575  1.00  0.00     0.163 HD
BRANCH   4   7
ATOM      7  C   UNL A   1      32.124  24.455  23.351  1.00  0.00     0.178 C 
BRANCH   7   8
ATOM      8  S   UNL A   1      31.267  25.596  24.432  1.00  0.00    -0.078 SA
BRANCH   8   9
ATOM      9  C   UNL A   1      30.511  26.992  23.726  1.00  0.00     0.169 A 
ATOM     10  N   UNL A   1      30.854  28.337  23.915  1.00  0.00    -0.315 N 
ATOM     11  C   UNL A   1      29.758  29.090  23.491  1.00  0.00     0.072 A 
ATOM     12  N   UNL A   1      29.243  26.882  23.381  1.00  0.00    -0.221 NA
ATOM     13  C   UNL A   1      28.740  28.154  23.314  1.00  0.00     0.108 A 
ATOM     14  C   UNL A   1      29.488  30.454  23.306  1.00  0.00     0.049 A 
ATOM     15  C   UNL A   1      27.421  28.596  23.132  1.00  0.00     0.141 A 
ATOM     16  C   UNL A   1      28.157  30.799  23.114  1.00  0.00     0.113 A 
ATOM     17  N   UNL A   1      27.136  29.922  23.072  1.00  0.00    -0.262 NA
BRANCH  10  18
ATOM     18  C   UNL A   1      31.987  28.827  24.707  1.00  0.00     0.093 C 
ATOM     19  C   UNL A   1      34.156  28.792  23.283  1.00  0.00     0.010 C 
ATOM     20  C   UNL A   1      33.399  28.235  24.485  1.00  0.00     0.009 C 
ATOM     21  C   UNL A   1      34.145  28.566  25.780  1.00  0.00     0.005 C 
ATOM     22  C   UNL A   1      33.123  28.316  26.862  1.00  0.00     0.002 C 
ATOM     23  C   UNL A   1      31.782  28.570  26.198  1.00  0.00     0.026 C 
ENDBRANCH  10  18
ENDBRANCH   8   9
ENDBRANCH   7   8
ENDBRANCH   4   7
ENDBRANCH   2   3
ENDBRANCH   1   2
BRANCH   1  24
ATOM     24  C   UNL A   1      37.265  22.582  24.722  1.00  0.00     0.023 C 
BRANCH  24  25
ATOM     25  C   UNL A   1      37.941  21.908  25.919  1.00  0.00     0.116 C 
BRANCH  25  26
ATOM     26  N   UNL A   1      39.375  21.747  25.810  1.00  0.00    -0.352 N 
ATOM     27  C   UNL A   1      40.466  22.428  26.279  1.00  0.00     0.251 C 
ATOM     28  H   UNL A   1      39.625  20.962  25.271  1.00  0.00     0.163 HD
ATOM     29  O   UNL A   1      41.553  21.871  26.102  1.00  0.00    -0.269 OA
BRANCH  27  30
ATOM     30  C   UNL A   1      40.438  23.772  26.920  1.00  0.00     0.039 A 
ATOM     31  C   UNL A   1      39.481  24.757  26.685  1.00  0.00     0.014 A 
ATOM     32  C   UNL A   1      41.492  24.064  27.811  1.00  0.00     0.014 A 
ATOM     33  C   UNL A   1      39.619  26.021  27.247  1.00  0.00     0.010 A 
ATOM     34  C   UNL A   1      41.618  25.322  28.401  1.00  0.00     0.010 A 
ATOM     35  C   UNL A   1      40.697  26.315  28.090  1.00  0.00    -0.014 A 
BRANCH  35  36
ATOM     36  C   UNL A   1      40.712  27.641  28.707  1.00  0.00     0.031 A 
ATOM     37  C   UNL A   1      41.696  28.584  28.115  1.00  0.00     0.074 A 
ATOM     38  C   UNL A   1      39.876  28.066  29.674  1.00  0.00     0.049 A 
ATOM     39  N   UNL A   1      42.778  29.046  28.653  1.00  0.00    -0.248 NA
ATOM     40  C   UNL A   1      41.519  28.952  26.705  1.00  0.00     0.031 C 
ATOM     41  C   UNL A   1      38.649  27.412  30.131  1.00  0.00     0.029 A 
ATOM     42  N   UNL A   1      39.896  29.237  30.382  1.00  0.00    -0.354 N 
ATOM     43  C   UNL A   1      43.312  29.936  27.722  1.00  0.00     0.074 A 
ATOM     44  C   UNL A   1      42.602  29.699  26.490  1.00  0.00     0.031 C 
ATOM     45  C   UNL A   1      37.927  28.293  30.858  1.00  0.00     0.029 A 
ATOM     46  C   UNL A   1      38.711  29.505  31.048  1.00  0.00     0.049 A 
ATOM     47  H   UNL A   1      40.678  29.833  30.416  1.00  0.00     0.167 HD
ATOM     48  C   UNL A   1      44.119  30.966  28.105  1.00  0.00     0.034 A 
ATOM     49  C   UNL A   1      38.357  30.659  31.660  1.00  0.00     0.034 A 
ATOM     50  C   UNL A   1      44.546  30.813  29.469  1.00  0.00     0.049 A 
ATOM     51  C   UNL A   1      39.569  31.434  31.999  1.00  0.00     0.074 A 
ATOM     52  C   UNL A   1      45.461  30.056  30.161  1.00  0.00     0.029 A 
ATOM     53  N   UNL A   1      43.697  31.374  30.386  1.00  0.00    -0.354 N 
ATOM     54  N   UNL A   1      40.426  31.087  32.917  1.00  0.00    -0.248 NA
ATOM     55  C   UNL A   1      40.007  32.511  31.117  1.00  0.00     0.031 C 
ATOM     56  C   UNL A   1      45.012  30.034  31.514  1.00  0.00     0.029 A 
ATOM     57  C   UNL A   1      43.843  30.788  31.614  1.00  0.00     0.049 A 
ATOM     58  H   UNL A   1      43.066  32.102  30.187  1.00  0.00     0.167 HD
ATOM     59  C   UNL A   1      41.635  31.551  32.439  1.00  0.00     0.074 A 
ATOM     60  C   UNL A   1      41.291  32.585  31.475  1.00  0.00     0.031 C 
ATOM     61  C   UNL A   1      42.779  30.825  32.602  1.00  0.00     0.034 A 
BRANCH  48  62
ATOM     62  C   UNL A   1      44.152  32.330  27.436  1.00  0.00     0.023 A 
ATOM     63  C   UNL A   1      43.502  33.460  27.962  1.00  0.00     0.031 A 
ATOM     64  C   UNL A   1      45.068  32.585  26.391  1.00  0.00     0.131 A 
ATOM     65  C   UNL A   1      43.767  34.753  27.486  1.00  0.00     0.055 A 
ATOM     66  C   UNL A   1      45.379  33.882  25.956  1.00  0.00     0.041 A 
ATOM     67  F   UNL A   1      45.743  31.586  25.799  1.00  0.00    -0.206 F 
ATOM     68  C   UNL A   1      44.731  34.977  26.511  1.00  0.00     0.022 A 
BRANCH  65  69
ATOM     69  S   UNL A   1      42.867  36.169  28.176  1.00  0.00     0.124 S 
ATOM     70  O   UNL A   1      43.533  36.343  29.469  1.00  0.00    -0.237 OA
ATOM     71  O   UNL A   1      43.149  37.207  27.180  1.00  0.00    -0.237 OA
ATOM     72  O   UNL A   1      41.492  35.714  28.224  1.00  0.00    -0.744 OA
ENDBRANCH  65  69
ENDBRANCH  48  62
BRANCH  49  73
ATOM     73  C   UNL A   1      37.012  31.275  31.677  1.00  0.00     0.023 A 
ATOM     74  C   UNL A   1      36.378  31.587  30.461  1.00  0.00     0.031 A 
ATOM     75  C   UNL A   1      36.479  31.835  32.850  1.00  0.00     0.131 A 
ATOM     76  C   UNL A   1      35.296  32.473  30.431  1.00  0.00     0.055 A 
ATOM     77  C   UNL A   1      35.389  32.711  32.821  1.00  0.00     0.041 A 
ATOM     78  F   UNL A   1      37.052  31.599  34.041  1.00  0.00    -0.206 F 
ATOM     79  C   UNL A   1      34.801  33.047  31.604  1.00  0.00     0.022 A 
BRANCH  76  80
ATOM     80  S   UNL A   1      34.558  32.955  28.847  1.00  0.00     0.124 S 
ATOM     81  O   UNL A   1      33.549  33.929  29.258  1.00  0.00    -0.237 OA
ATOM     82  O   UNL A   1      35.708  33.504  28.138  1.00  0.00    -0.237 OA
ATOM     83  O   UNL A   1      34.025  31.702  28.323  1.00  0.00    -0.744 OA
ENDBRANCH  76  80
ENDBRANCH  49  73
BRANCH  61  84
ATOM     84  C   UNL A   1      42.858  29.854  33.750  1.00  0.00     0.023 A 
ATOM     85  C   UNL A   1      43.610  30.252  34.870  1.00  0.00     0.031 A 
ATOM     86  C   UNL A   1      42.352  28.542  33.738  1.00  0.00     0.131 A 
ATOM     87  C   UNL A   1      43.862  29.354  35.912  1.00  0.00     0.055 A 
ATOM     88  C   UNL A   1      42.540  27.672  34.817  1.00  0.00     0.041 A 
ATOM     89  F   UNL A   1      41.725  28.040  32.664  1.00  0.00    -0.206 F 
ATOM     90  C   UNL A   1      43.311  28.071  35.904  1.00  0.00     0.022 A 
BRANCH  87  91
ATOM     91  S   UNL A   1      45.034  29.786  37.223  1.00  0.00     0.124 S 
ATOM     92  O   UNL A   1      45.635  31.014  36.709  1.00  0.00    -0.237 OA
ATOM     93  O   UNL A   1      44.159  29.953  38.383  1.00  0.00    -0.237 OA
ATOM     94  O   UNL A   1      45.928  28.633  37.293  1.00  0.00    -0.744 OA
ENDBRANCH  87  91
ENDBRANCH  61  84
ENDBRANCH  35  36
ENDBRANCH  27  30
ENDBRANCH  25  26
ENDBRANCH  24  25
ENDBRANCH   1  24
TORSDOF 17
ENDMDL
MODEL 3
REMARK VINA RESULT:     -12.2      3.538      8.960
REMARK SMILES C[C@H]1CCC[C@@H]1n1c(SCC(=O)NCCCCNC(=O)c2ccc(-c3c4nc(c(-c5cc(S(=O)(=O)[O-])ccc5F)c5ccc([nH]5)c(-c5cc(S(=O)(=O)[O-])ccc5F)c5nc(c(-c6cc(S(=O)(=O)[O-])ccc6F)c6ccc3[nH]6)C=C5)C=C4)cc2)nc2cnccc21
REMARK SMILES IDX 15 1 14 2 13 3 11 4 12 5 10 7 9 8 8 9 7 10 90 11 84 12 85 13
REMARK SMILES IDX 89 14 86 15 88 16 87 17 6 18 1 19 2 20 3 21 4 22 5 23 16 24
REMARK SMILES IDX 17 25 18 26 19 27 20 29 21 30 22 31 83 32 23 33 82 34 24 35
REMARK SMILES IDX 25 36 26 37 76 38 27 39 81 40 75 41 77 42 28 43 80 44 74 45
REMARK SMILES IDX 73 46 29 48 61 49 41 50 60 51 42 52 45 53 59 54 78 55 43 56
REMARK SMILES IDX 44 57 58 59 79 60 46 61 30 62 31 63 39 64 32 65 38 66 40 67
REMARK SMILES IDX 37 68 33 69 34 70 35 71 36 72 62 73 63 74 71 75 64 76 70 77
REMARK SMILES IDX 72 78 69 79 65 80 66 81 67 82 68 83 47 84 48 85 56 86 49 87
REMARK SMILES IDX 55 88 57 89 54 90 50 91 51 92 52 93 53 94
REMARK H PARENT 13 6 18 28 77 47 45 58
REMARK Flexibility Score: inf
ROOT
ATOM      1  C   UNL A   1      36.808  21.622  24.491  1.00  0.00     0.023 C 
ENDROOT
BRANCH   1   2
ATOM      2  C   UNL A   1      35.908  21.009  25.552  1.00  0.00     0.116 C 
BRANCH   2   3
ATOM      3  N   UNL A   1      34.913  20.127  24.989  1.00  0.00    -0.355 N 
ATOM      4  C   UNL A   1      33.570  20.170  25.147  1.00  0.00     0.230 C 
ATOM      5  O   UNL A   1      32.900  19.679  24.229  1.00  0.00    -0.274 OA
ATOM      6  H   UNL A   1      35.255  19.403  24.418  1.00  0.00     0.163 HD
BRANCH   4   7
ATOM      7  C   UNL A   1      32.903  20.912  26.277  1.00  0.00     0.178 C 
BRANCH   7   8
ATOM      8  S   UNL A   1      32.249  22.572  26.142  1.00  0.00    -0.078 SA
BRANCH   8   9
ATOM      9  C   UNL A   1      32.926  23.632  24.944  1.00  0.00     0.169 A 
ATOM     10  N   UNL A   1      32.980  25.032  24.973  1.00  0.00    -0.315 N 
ATOM     11  C   UNL A   1      33.233  25.447  23.664  1.00  0.00     0.072 A 
ATOM     12  N   UNL A   1      32.962  23.193  23.701  1.00  0.00    -0.221 NA
ATOM     13  C   UNL A   1      33.064  24.296  22.895  1.00  0.00     0.108 A 
ATOM     14  C   UNL A   1      33.513  26.668  23.035  1.00  0.00     0.049 A 
ATOM     15  C   UNL A   1      32.996  24.405  21.498  1.00  0.00     0.141 A 
ATOM     16  C   UNL A   1      33.440  26.679  21.648  1.00  0.00     0.113 A 
ATOM     17  N   UNL A   1      33.146  25.608  20.888  1.00  0.00    -0.262 NA
BRANCH  10  18
ATOM     18  C   UNL A   1      32.527  25.881  26.078  1.00  0.00     0.093 C 
ATOM     19  C   UNL A   1      29.935  25.871  26.209  1.00  0.00     0.010 C 
ATOM     20  C   UNL A   1      31.205  26.675  25.951  1.00  0.00     0.009 C 
ATOM     21  C   UNL A   1      31.344  27.791  26.989  1.00  0.00     0.005 C 
ATOM     22  C   UNL A   1      32.782  28.231  26.860  1.00  0.00     0.002 C 
ATOM     23  C   UNL A   1      33.523  26.999  26.373  1.00  0.00     0.026 C 
ENDBRANCH  10  18
ENDBRANCH   8   9
ENDBRANCH   7   8
ENDBRANCH   4   7
ENDBRANCH   2   3
ENDBRANCH   1   2
BRANCH   1  24
ATOM     24  C   UNL A   1      38.021  22.413  24.999  1.00  0.00     0.023 C 
BRANCH  24  25
ATOM     25  C   UNL A   1      38.826  21.788  26.141  1.00  0.00     0.116 C 
BRANCH  25  26
ATOM     26  N   UNL A   1      40.263  21.804  25.965  1.00  0.00    -0.352 N 
ATOM     27  C   UNL A   1      41.279  22.632  26.361  1.00  0.00     0.251 C 
ATOM     28  H   UNL A   1      40.586  21.038  25.438  1.00  0.00     0.163 HD
ATOM     29  O   UNL A   1      42.419  22.209  26.146  1.00  0.00    -0.269 OA
BRANCH  27  30
ATOM     30  C   UNL A   1      41.110  23.983  26.964  1.00  0.00     0.039 A 
ATOM     31  C   UNL A   1      40.202  24.949  26.535  1.00  0.00     0.014 A 
ATOM     32  C   UNL A   1      41.970  24.304  28.035  1.00  0.00     0.014 A 
ATOM     33  C   UNL A   1      40.212  26.222  27.094  1.00  0.00     0.010 A 
ATOM     34  C   UNL A   1      41.964  25.571  28.619  1.00  0.00     0.010 A 
ATOM     35  C   UNL A   1      41.105  26.545  28.122  1.00  0.00    -0.014 A 
BRANCH  35  36
ATOM     36  C   UNL A   1      40.983  27.878  28.710  1.00  0.00     0.031 A 
ATOM     37  C   UNL A   1      41.950  28.876  28.180  1.00  0.00     0.074 A 
ATOM     38  C   UNL A   1      40.044  28.263  29.597  1.00  0.00     0.049 A 
ATOM     39  N   UNL A   1      42.952  29.417  28.794  1.00  0.00    -0.248 NA
ATOM     40  C   UNL A   1      41.866  29.208  26.752  1.00  0.00     0.031 C 
ATOM     41  C   UNL A   1      38.829  27.536  29.966  1.00  0.00     0.029 A 
ATOM     42  N   UNL A   1      39.931  29.444  30.279  1.00  0.00    -0.354 N 
ATOM     43  C   UNL A   1      43.502  30.325  27.891  1.00  0.00     0.074 A 
ATOM     44  C   UNL A   1      42.913  30.022  26.611  1.00  0.00     0.031 C 
ATOM     45  C   UNL A   1      37.994  28.379  30.613  1.00  0.00     0.029 A 
ATOM     46  C   UNL A   1      38.680  29.642  30.841  1.00  0.00     0.049 A 
ATOM     47  H   UNL A   1      40.667  30.090  30.364  1.00  0.00     0.167 HD
ATOM     48  C   UNL A   1      44.206  31.412  28.316  1.00  0.00     0.034 A 
ATOM     49  C   UNL A   1      38.202  30.780  31.397  1.00  0.00     0.034 A 
ATOM     50  C   UNL A   1      44.528  31.309  29.714  1.00  0.00     0.049 A 
ATOM     51  C   UNL A   1      39.330  31.639  31.817  1.00  0.00     0.074 A 
ATOM     52  C   UNL A   1      45.430  30.626  30.494  1.00  0.00     0.029 A 
ATOM     53  N   UNL A   1      43.572  31.827  30.546  1.00  0.00    -0.354 N 
ATOM     54  N   UNL A   1      40.129  31.364  32.809  1.00  0.00    -0.248 NA
ATOM     55  C   UNL A   1      39.768  32.729  30.950  1.00  0.00     0.031 C 
ATOM     56  C   UNL A   1      44.874  30.595  31.806  1.00  0.00     0.029 A 
ATOM     57  C   UNL A   1      43.653  31.272  31.794  1.00  0.00     0.049 A 
ATOM     58  H   UNL A   1      42.914  32.509  30.281  1.00  0.00     0.167 HD
ATOM     59  C   UNL A   1      41.340  31.899  32.421  1.00  0.00     0.074 A 
ATOM     60  C   UNL A   1      41.010  32.893  31.410  1.00  0.00     0.031 C 
ATOM     61  C   UNL A   1      42.511  31.254  32.691  1.00  0.00     0.034 A 
BRANCH  48  62
ATOM     62  C   UNL A   1      44.206  32.764  27.623  1.00  0.00     0.023 A 
ATOM     63  C   UNL A   1      43.398  33.838  28.034  1.00  0.00     0.031 A 
ATOM     64  C   UNL A   1      45.223  33.086  26.697  1.00  0.00     0.131 A 
ATOM     65  C   UNL A   1      43.607  35.143  27.563  1.00  0.00     0.055 A 
ATOM     66  C   UNL A   1      45.473  34.400  26.274  1.00  0.00     0.041 A 
ATOM     67  F   UNL A   1      46.053  32.144  26.221  1.00  0.00    -0.206 F 
ATOM     68  C   UNL A   1      44.665  35.440  26.714  1.00  0.00     0.022 A 
BRANCH  65  69
ATOM     69  S   UNL A   1      42.506  36.482  28.099  1.00  0.00     0.124 S 
ATOM     70  O   UNL A   1      41.361  35.734  28.623  1.00  0.00    -0.237 OA
ATOM     71  O   UNL A   1      43.331  37.153  29.106  1.00  0.00    -0.237 OA
ATOM     72  O   UNL A   1      42.270  37.240  26.886  1.00  0.00    -0.744 OA
ENDBRANCH  65  69
ENDBRANCH  48  62
BRANCH  49  73
ATOM     73  C   UNL A   1      36.824  31.306  31.292  1.00  0.00     0.023 A 
ATOM     74  C   UNL A   1      36.285  31.586  30.023  1.00  0.00     0.031 A 
ATOM     75  C   UNL A   1      36.149  31.819  32.411  1.00  0.00     0.131 A 
ATOM     76  C   UNL A   1      35.153  32.400  29.896  1.00  0.00     0.055 A 
ATOM     77  C   UNL A   1      35.011  32.622  32.284  1.00  0.00     0.041 A 
ATOM     78  F   UNL A   1      36.624  31.611  33.650  1.00  0.00    -0.206 F 
ATOM     79  C   UNL A   1      34.516  32.929  31.019  1.00  0.00     0.022 A 
BRANCH  76  80
ATOM     80  S   UNL A   1      34.533  32.845  28.252  1.00  0.00     0.124 S 
ATOM     81  O   UNL A   1      35.762  33.185  27.538  1.00  0.00    -0.237 OA
ATOM     82  O   UNL A   1      33.887  31.606  27.833  1.00  0.00    -0.237 OA
ATOM     83  O   UNL A   1      33.643  33.971  28.515  1.00  0.00    -0.744 OA
ENDBRANCH  76  80
ENDBRANCH  49  73
BRANCH  61  84
ATOM     84  C   UNL A   1      42.558  30.308  33.863  1.00  0.00     0.023 A 
ATOM     85  C   UNL A   1      42.952  30.847  35.101  1.00  0.00     0.031 A 
ATOM     86  C   UNL A   1      42.365  28.917  33.789  1.00  0.00     0.131 A 
ATOM     87  C   UNL A   1      43.170  30.013  36.201  1.00  0.00     0.055 A 
ATOM     88  C   UNL A   1      42.509  28.096  34.912  1.00  0.00     0.041 A 
ATOM     89  F   UNL A   1      42.103  28.304  32.626  1.00  0.00    -0.206 F 
ATOM     90  C   UNL A   1      42.928  28.641  36.122  1.00  0.00     0.022 A 
BRANCH  87  91
ATOM     91  S   UNL A   1      43.918  30.675  37.712  1.00  0.00     0.124 S 
ATOM     92  O   UNL A   1      42.763  31.235  38.409  1.00  0.00    -0.237 OA
ATOM     93  O   UNL A   1      44.501  29.481  38.323  1.00  0.00    -0.237 OA
ATOM     94  O   UNL A   1      44.890  31.651  37.228  1.00  0.00    -0.744 OA
ENDBRANCH  87  91
ENDBRANCH  61  84
ENDBRANCH  35  36
ENDBRANCH  27  30
ENDBRANCH  25  26
ENDBRANCH  24  25
ENDBRANCH   1  24
TORSDOF 17
ENDMDL
