MODEL 1
REMARK VINA RESULT:     -13.8      0.000      0.000
REMARK SMILES Cc1ccc(NS(=O)(=O)c2cc(C(=O)Nc3ccccc3C(=O)NCCCCNC(=O)c3ccc(-c4c5nc(c(-c6cc(S(=O)(=O)[O-])ccc6F)c6ccc([nH]6)c(-c6cc(S(=O)(=O)[O-])ccc6F)c6nc(c(-c7cc(S(=O)(=O)[O-])ccc7F)c7ccc4[nH]7)C=C6)C=C5)cc3)ccc2Br)cc1
REMARK SMILES IDX 25 1 24 2 22 3 23 4 21 6 16 7 17 8 18 9 20 10 19 11 15 12
REMARK SMILES IDX 13 13 14 14 12 16 10 17 11 18 97 19 96 20 98 21 95 22 7 23
REMARK SMILES IDX 8 24 9 25 6 26 5 28 1 29 2 30 3 31 100 32 4 33 99 34 26 35
REMARK SMILES IDX 27 36 28 37 29 38 30 39 31 41 32 42 33 43 94 44 34 45 93 46
REMARK SMILES IDX 35 47 36 48 37 49 87 50 38 51 92 52 86 53 88 54 39 55 91 56
REMARK SMILES IDX 85 57 84 58 40 60 72 61 52 62 71 63 53 64 56 65 70 66 89 67
REMARK SMILES IDX 54 68 55 69 69 71 90 72 57 73 41 74 42 75 50 76 43 77 49 78
REMARK SMILES IDX 51 79 48 80 44 81 45 82 46 83 47 84 73 85 74 86 82 87 75 88
REMARK SMILES IDX 81 89 83 90 80 91 76 92 77 93 78 94 79 95 58 96 59 97 67 98
REMARK SMILES IDX 60 99 66 100 68 101 65 102 61 103 62 104 63 105 64 106
REMARK H PARENT 24 5 15 15 6 27 29 40 88 59 56 70
REMARK Flexibility Score: inf
ROOT
ATOM      1  C   UNL A   1      32.418  27.532  26.394  1.00  0.00     0.116 C 
ENDROOT
BRANCH   1   2
ATOM      2  N   UNL A   1      33.413  27.655  25.344  1.00  0.00    -0.352 N 
ATOM      3  C   UNL A   1      33.405  28.505  24.255  1.00  0.00     0.253 C 
ATOM      4  O   UNL A   1      34.416  28.628  23.572  1.00  0.00    -0.269 OA
ATOM      5  H   UNL A   1      34.191  27.057  25.418  1.00  0.00     0.163 HD
BRANCH   3   6
ATOM      6  C   UNL A   1      32.128  29.129  23.812  1.00  0.00     0.063 A 
ATOM      7  C   UNL A   1      31.431  28.698  22.185  1.00  0.00     0.054 A 
ATOM      8  C   UNL A   1      29.659  29.582  21.699  1.00  0.00     0.027 A 
ATOM      9  C   UNL A   1      28.833  30.619  22.924  1.00  0.00     0.002 A 
ATOM     10  C   UNL A   1      31.214  30.215  24.867  1.00  0.00     0.016 A 
ATOM     11  C   UNL A   1      29.627  30.893  24.456  1.00  0.00     0.001 A 
BRANCH   7  12
ATOM     12  N   UNL A   1      32.296  27.654  21.517  1.00  0.00    -0.321 N 
ATOM     13  C   UNL A   1      32.593  26.294  21.764  1.00  0.00     0.255 C 
ATOM     14  O   UNL A   1      33.298  25.695  20.945  1.00  0.00    -0.269 OA
ATOM     15  H   UNL A   1      32.763  28.003  20.723  1.00  0.00     0.170 HD
BRANCH  13  16
ATOM     16  C   UNL A   1      31.977  25.455  22.847  1.00  0.00     0.041 A 
ATOM     17  C   UNL A   1      32.529  24.204  24.868  1.00  0.00     0.102 A 
ATOM     18  C   UNL A   1      32.791  24.665  23.602  1.00  0.00     0.037 A 
ATOM     19  C   UNL A   1      31.206  24.140  25.242  1.00  0.00     0.038 A 
ATOM     20  C   UNL A   1      30.248  24.743  24.394  1.00  0.00     0.018 A 
ATOM     21  Br  UNL A   1      30.612  23.178  26.752  1.00  0.00    -0.049 Br
ATOM     22  C   UNL A   1      30.645  25.474  23.246  1.00  0.00     0.015 A 
BRANCH  17  23
ATOM     23  S   UNL A   1      33.991  23.953  25.876  1.00  0.00     0.263 S 
ATOM     24  O   UNL A   1      33.541  23.506  27.176  1.00  0.00    -0.201 OA
ATOM     25  O   UNL A   1      34.785  25.156  25.744  1.00  0.00    -0.201 OA
BRANCH  23  26
ATOM     26  N   UNL A   1      34.873  22.626  25.207  1.00  0.00    -0.280 N 
ATOM     27  H   UNL A   1      35.806  22.813  24.957  1.00  0.00     0.180 HD
BRANCH  26  28
ATOM     28  C   UNL A   1      34.387  21.193  24.955  1.00  0.00     0.049 A 
ATOM     29  C   UNL A   1      33.953  16.326  23.400  1.00  0.00     0.044 C 
ATOM     30  C   UNL A   1      34.033  17.692  24.016  1.00  0.00    -0.051 A 
ATOM     31  C   UNL A   1      35.598  18.363  24.528  1.00  0.00     0.005 A 
ATOM     32  C   UNL A   1      32.561  18.619  23.949  1.00  0.00     0.005 A 
ATOM     33  C   UNL A   1      35.814  20.057  25.006  1.00  0.00     0.027 A 
ATOM     34  C   UNL A   1      32.620  20.343  24.406  1.00  0.00     0.027 A 
ENDBRANCH  26  28
ENDBRANCH  23  26
ENDBRANCH  17  23
ENDBRANCH  13  16
ENDBRANCH   7  12
ENDBRANCH   3   6
ENDBRANCH   1   2
BRANCH   1  35
ATOM     35  C   UNL A   1      32.490  28.515  27.546  1.00  0.00     0.023 C 
BRANCH  35  36
ATOM     36  C   UNL A   1      33.762  29.273  27.763  1.00  0.00     0.023 C 
BRANCH  36  37
ATOM     37  C   UNL A   1      33.628  30.711  27.376  1.00  0.00     0.116 C 
BRANCH  37  38
ATOM     38  N   UNL A   1      34.579  31.634  27.958  1.00  0.00    -0.352 N 
ATOM     39  C   UNL A   1      35.669  31.324  28.757  1.00  0.00     0.251 C 
ATOM     40  H   UNL A   1      34.437  32.589  27.765  1.00  0.00     0.163 HD
ATOM     41  O   UNL A   1      36.226  32.207  29.405  1.00  0.00    -0.269 OA
BRANCH  39  42
ATOM     42  C   UNL A   1      36.289  29.959  28.691  1.00  0.00     0.039 A 
ATOM     43  C   UNL A   1      36.572  29.384  29.937  1.00  0.00     0.014 A 
ATOM     44  C   UNL A   1      37.135  29.671  27.639  1.00  0.00     0.014 A 
ATOM     45  C   UNL A   1      37.854  28.914  30.177  1.00  0.00     0.010 A 
ATOM     46  C   UNL A   1      38.457  29.609  27.933  1.00  0.00     0.010 A 
ATOM     47  C   UNL A   1      38.807  29.196  29.210  1.00  0.00    -0.014 A 
BRANCH  47  48
ATOM     48  C   UNL A   1      40.190  28.797  29.232  1.00  0.00     0.031 A 
ATOM     49  C   UNL A   1      40.338  27.368  28.841  1.00  0.00     0.074 A 
ATOM     50  C   UNL A   1      41.069  29.828  29.299  1.00  0.00     0.049 A 
ATOM     51  N   UNL A   1      41.237  26.565  29.266  1.00  0.00    -0.248 NA
ATOM     52  C   UNL A   1      39.352  26.629  28.009  1.00  0.00     0.031 C 
ATOM     53  C   UNL A   1      42.479  29.922  28.957  1.00  0.00     0.029 A 
ATOM     54  N   UNL A   1      40.817  31.069  29.910  1.00  0.00    -0.354 N 
ATOM     55  C   UNL A   1      41.267  25.522  28.353  1.00  0.00     0.074 A 
ATOM     56  C   UNL A   1      39.955  25.456  27.792  1.00  0.00     0.031 C 
ATOM     57  C   UNL A   1      43.042  30.924  29.666  1.00  0.00     0.029 A 
ATOM     58  C   UNL A   1      42.015  31.478  30.535  1.00  0.00     0.049 A 
ATOM     59  H   UNL A   1      39.965  31.560  29.902  1.00  0.00     0.167 HD
ATOM     60  C   UNL A   1      42.482  25.059  27.956  1.00  0.00     0.034 A 
ATOM     61  C   UNL A   1      42.066  31.518  31.903  1.00  0.00     0.034 A 
ATOM     62  C   UNL A   1      43.498  25.902  28.573  1.00  0.00     0.049 A 
ATOM     63  C   UNL A   1      42.886  30.337  32.394  1.00  0.00     0.074 A 
ATOM     64  C   UNL A   1      44.239  26.968  28.100  1.00  0.00     0.029 A 
ATOM     65  N   UNL A   1      43.560  25.942  29.950  1.00  0.00    -0.354 N 
ATOM     66  N   UNL A   1      42.963  29.194  31.761  1.00  0.00    -0.248 NA
ATOM     67  C   UNL A   1      43.807  30.419  33.525  1.00  0.00     0.031 C 
ATOM     68  C   UNL A   1      44.720  27.678  29.234  1.00  0.00     0.029 A 
ATOM     69  C   UNL A   1      44.236  27.057  30.373  1.00  0.00     0.049 A 
ATOM     70  H   UNL A   1      43.171  25.263  30.547  1.00  0.00     0.167 HD
ATOM     71  C   UNL A   1      43.973  28.444  32.309  1.00  0.00     0.074 A 
ATOM     72  C   UNL A   1      44.450  29.243  33.425  1.00  0.00     0.031 C 
ATOM     73  C   UNL A   1      44.414  27.257  31.791  1.00  0.00     0.034 A 
BRANCH  60  74
ATOM     74  C   UNL A   1      42.852  24.105  26.854  1.00  0.00     0.023 A 
ATOM     75  C   UNL A   1      42.311  22.804  26.953  1.00  0.00     0.031 A 
ATOM     76  C   UNL A   1      43.642  24.344  25.719  1.00  0.00     0.131 A 
ATOM     77  C   UNL A   1      42.576  21.804  26.013  1.00  0.00     0.055 A 
ATOM     78  C   UNL A   1      43.903  23.343  24.764  1.00  0.00     0.041 A 
ATOM     79  F   UNL A   1      44.177  25.543  25.463  1.00  0.00    -0.206 F 
ATOM     80  C   UNL A   1      43.372  22.065  24.908  1.00  0.00     0.022 A 
BRANCH  77  81
ATOM     81  S   UNL A   1      41.844  20.171  26.290  1.00  0.00     0.124 S 
ATOM     82  O   UNL A   1      40.418  20.449  26.142  1.00  0.00    -0.237 OA
ATOM     83  O   UNL A   1      42.458  19.372  25.235  1.00  0.00    -0.237 OA
ATOM     84  O   UNL A   1      42.271  19.838  27.647  1.00  0.00    -0.744 OA
ENDBRANCH  77  81
ENDBRANCH  60  74
BRANCH  61  85
ATOM     85  C   UNL A   1      40.760  32.037  32.449  1.00  0.00     0.023 A 
ATOM     86  C   UNL A   1      40.156  31.248  33.466  1.00  0.00     0.031 A 
ATOM     87  C   UNL A   1      40.492  33.413  32.453  1.00  0.00     0.131 A 
ATOM     88  C   UNL A   1      39.564  31.869  34.580  1.00  0.00     0.055 A 
ATOM     89  C   UNL A   1      39.835  34.014  33.536  1.00  0.00     0.041 A 
ATOM     90  F   UNL A   1      41.015  34.216  31.515  1.00  0.00    -0.206 F 
ATOM     91  C   UNL A   1      39.434  33.256  34.638  1.00  0.00     0.022 A 
BRANCH  88  92
ATOM     92  S   UNL A   1      39.160  30.858  36.038  1.00  0.00     0.124 S 
ATOM     93  O   UNL A   1      37.764  30.505  35.803  1.00  0.00    -0.237 OA
ATOM     94  O   UNL A   1      40.117  29.756  35.935  1.00  0.00    -0.237 OA
ATOM     95  O   UNL A   1      39.391  31.753  37.170  1.00  0.00    -0.744 OA
ENDBRANCH  88  92
ENDBRANCH  61  85
BRANCH  73  96
ATOM     96  C   UNL A   1      45.137  26.185  32.572  1.00  0.00     0.023 A 
ATOM     97  C   UNL A   1      44.442  25.159  33.206  1.00  0.00     0.031 A 
ATOM     98  C   UNL A   1      46.554  26.084  32.622  1.00  0.00     0.131 A 
ATOM     99  C   UNL A   1      45.111  24.207  33.981  1.00  0.00     0.055 A 
ATOM    100  C   UNL A   1      47.223  25.049  33.273  1.00  0.00     0.041 A 
ATOM    101  F   UNL A   1      47.368  26.971  32.033  1.00  0.00    -0.206 F 
ATOM    102  C   UNL A   1      46.499  24.121  33.998  1.00  0.00     0.022 A 
BRANCH  99 103
ATOM    103  S   UNL A   1      44.096  23.191  35.068  1.00  0.00     0.124 S 
ATOM    104  O   UNL A   1      44.557  23.621  36.388  1.00  0.00    -0.237 OA
ATOM    105  O   UNL A   1      42.742  23.603  34.710  1.00  0.00    -0.237 OA
ATOM    106  O   UNL A   1      44.456  21.826  34.697  1.00  0.00    -0.744 OA
ENDBRANCH  99 103
ENDBRANCH  73  96
ENDBRANCH  47  48
ENDBRANCH  39  42
ENDBRANCH  37  38
ENDBRANCH  36  37
ENDBRANCH  35  36
ENDBRANCH   1  35
TORSDOF 19
ENDMDL
MODEL 2
REMARK VINA RESULT:     -13.6      3.949      9.310
REMARK SMILES Cc1ccc(NS(=O)(=O)c2cc(C(=O)Nc3ccccc3C(=O)NCCCCNC(=O)c3ccc(-c4c5nc(c(-c6cc(S(=O)(=O)[O-])ccc6F)c6ccc([nH]6)c(-c6cc(S(=O)(=O)[O-])ccc6F)c6nc(c(-c7cc(S(=O)(=O)[O-])ccc7F)c7ccc4[nH]7)C=C6)C=C5)cc3)ccc2Br)cc1
REMARK SMILES IDX 25 1 24 2 22 3 23 4 21 6 16 7 17 8 18 9 20 10 19 11 15 12
REMARK SMILES IDX 13 13 14 14 12 16 10 17 11 18 97 19 96 20 98 21 95 22 7 23
REMARK SMILES IDX 8 24 9 25 6 26 5 28 1 29 2 30 3 31 100 32 4 33 99 34 26 35
REMARK SMILES IDX 27 36 28 37 29 38 30 39 31 41 32 42 33 43 94 44 34 45 93 46
REMARK SMILES IDX 35 47 36 48 37 49 87 50 38 51 92 52 86 53 88 54 39 55 91 56
REMARK SMILES IDX 85 57 84 58 40 60 72 61 52 62 71 63 53 64 56 65 70 66 89 67
REMARK SMILES IDX 54 68 55 69 69 71 90 72 57 73 41 74 42 75 50 76 43 77 49 78
REMARK SMILES IDX 51 79 48 80 44 81 45 82 46 83 47 84 73 85 74 86 82 87 75 88
REMARK SMILES IDX 81 89 83 90 80 91 76 92 77 93 78 94 79 95 58 96 59 97 67 98
REMARK SMILES IDX 60 99 66 100 68 101 65 102 61 103 62 104 63 105 64 106
REMARK H PARENT 24 5 15 15 6 27 29 40 88 59 56 70
REMARK Flexibility Score: inf
ROOT
ATOM      1  C   UNL A   1      37.498  21.058  25.035  1.00  0.00     0.116 C 
ENDROOT
BRANCH   1   2
ATOM      2  N   UNL A   1      37.242  21.987  23.950  1.00  0.00    -0.352 N 
ATOM      3  C   UNL A   1      36.289  22.985  23.886  1.00  0.00     0.253 C 
ATOM      4  O   UNL A   1      36.336  23.814  22.984  1.00  0.00    -0.269 OA
ATOM      5  H   UNL A   1      37.821  21.894  23.159  1.00  0.00     0.163 HD
BRANCH   3   6
ATOM      6  C   UNL A   1      35.115  22.949  24.802  1.00  0.00     0.063 A 
ATOM      7  C   UNL A   1      33.431  22.947  24.109  1.00  0.00     0.054 A 
ATOM      8  C   UNL A   1      31.901  22.853  25.454  1.00  0.00     0.027 A 
ATOM      9  C   UNL A   1      32.287  22.657  27.206  1.00  0.00     0.002 A 
ATOM     10  C   UNL A   1      35.313  22.813  26.554  1.00  0.00     0.016 A 
ATOM     11  C   UNL A   1      33.965  22.636  27.693  1.00  0.00     0.001 A 
BRANCH   7  12
ATOM     12  N   UNL A   1      33.498  22.923  22.598  1.00  0.00    -0.321 N 
ATOM     13  C   UNL A   1      33.181  23.838  21.569  1.00  0.00     0.255 C 
ATOM     14  O   UNL A   1      33.445  23.519  20.405  1.00  0.00    -0.269 OA
ATOM     15  H   UNL A   1      33.842  22.069  22.250  1.00  0.00     0.170 HD
BRANCH  13  16
ATOM     16  C   UNL A   1      32.713  25.251  21.777  1.00  0.00     0.041 A 
ATOM     17  C   UNL A   1      30.956  26.564  22.846  1.00  0.00     0.102 A 
ATOM     18  C   UNL A   1      31.429  25.460  22.182  1.00  0.00     0.037 A 
ATOM     19  C   UNL A   1      31.681  27.727  22.710  1.00  0.00     0.038 A 
ATOM     20  C   UNL A   1      32.949  27.647  22.088  1.00  0.00     0.018 A 
ATOM     21  Br  UNL A   1      31.007  29.420  23.194  1.00  0.00    -0.049 Br
ATOM     22  C   UNL A   1      33.498  26.397  21.704  1.00  0.00     0.015 A 
BRANCH  17  23
ATOM     23  S   UNL A   1      29.572  26.230  23.936  1.00  0.00     0.263 S 
ATOM     24  O   UNL A   1      29.275  24.818  23.829  1.00  0.00    -0.201 OA
ATOM     25  O   UNL A   1      28.564  27.221  23.626  1.00  0.00    -0.201 OA
BRANCH  23  26
ATOM     26  N   UNL A   1      30.109  26.469  25.561  1.00  0.00    -0.280 N 
ATOM     27  H   UNL A   1      29.441  26.300  26.264  1.00  0.00     0.180 HD
BRANCH  26  28
ATOM     28  C   UNL A   1      31.494  26.911  26.049  1.00  0.00     0.049 A 
ATOM     29  C   UNL A   1      35.636  29.643  27.345  1.00  0.00     0.044 C 
ATOM     30  C   UNL A   1      34.444  28.759  27.121  1.00  0.00    -0.051 A 
ATOM     31  C   UNL A   1      32.802  29.358  27.450  1.00  0.00     0.005 A 
ATOM     32  C   UNL A   1      34.779  27.260  26.305  1.00  0.00     0.005 A 
ATOM     33  C   UNL A   1      31.338  28.485  26.958  1.00  0.00     0.027 A 
ATOM     34  C   UNL A   1      33.403  26.266  25.752  1.00  0.00     0.027 A 
ENDBRANCH  26  28
ENDBRANCH  23  26
ENDBRANCH  17  23
ENDBRANCH  13  16
ENDBRANCH   7  12
ENDBRANCH   3   6
ENDBRANCH   1   2
BRANCH   1  35
ATOM     35  C   UNL A   1      38.780  21.239  25.824  1.00  0.00     0.023 C 
BRANCH  35  36
ATOM     36  C   UNL A   1      39.062  22.575  26.436  1.00  0.00     0.023 C 
BRANCH  36  37
ATOM     37  C   UNL A   1      40.529  22.847  26.533  1.00  0.00     0.116 C 
BRANCH  37  38
ATOM     38  N   UNL A   1      41.396  22.044  25.697  1.00  0.00    -0.352 N 
ATOM     39  C   UNL A   1      42.782  22.069  25.655  1.00  0.00     0.251 C 
ATOM     40  H   UNL A   1      40.952  21.408  25.089  1.00  0.00     0.163 HD
ATOM     41  O   UNL A   1      43.378  21.544  24.718  1.00  0.00    -0.269 OA
BRANCH  39  42
ATOM     42  C   UNL A   1      43.563  22.564  26.838  1.00  0.00     0.039 A 
ATOM     43  C   UNL A   1      42.909  22.429  28.069  1.00  0.00     0.014 A 
ATOM     44  C   UNL A   1      44.401  23.648  26.665  1.00  0.00     0.014 A 
ATOM     45  C   UNL A   1      42.789  23.544  28.884  1.00  0.00     0.010 A 
ATOM     46  C   UNL A   1      43.981  24.821  27.201  1.00  0.00     0.010 A 
ATOM     47  C   UNL A   1      43.191  24.754  28.340  1.00  0.00    -0.014 A 
BRANCH  47  48
ATOM     48  C   UNL A   1      43.177  26.033  28.999  1.00  0.00     0.031 A 
ATOM     49  C   UNL A   1      41.935  26.787  28.673  1.00  0.00     0.074 A 
ATOM     50  C   UNL A   1      44.102  26.166  29.983  1.00  0.00     0.049 A 
ATOM     51  N   UNL A   1      41.831  28.058  28.590  1.00  0.00    -0.248 NA
ATOM     52  C   UNL A   1      40.665  26.146  28.242  1.00  0.00     0.031 C 
ATOM     53  C   UNL A   1      44.185  27.071  31.118  1.00  0.00     0.029 A 
ATOM     54  N   UNL A   1      45.346  25.513  30.019  1.00  0.00    -0.354 N 
ATOM     55  C   UNL A   1      40.476  28.329  28.698  1.00  0.00     0.074 A 
ATOM     56  C   UNL A   1      39.805  27.168  28.207  1.00  0.00     0.031 C 
ATOM     57  C   UNL A   1      45.478  27.203  31.487  1.00  0.00     0.029 A 
ATOM     58  C   UNL A   1      46.281  26.422  30.559  1.00  0.00     0.049 A 
ATOM     59  H   UNL A   1      45.530  24.592  29.723  1.00  0.00     0.167 HD
ATOM     60  C   UNL A   1      40.097  29.369  29.488  1.00  0.00     0.034 A 
ATOM     61  C   UNL A   1      47.266  26.917  29.746  1.00  0.00     0.034 A 
ATOM     62  C   UNL A   1      41.296  29.901  30.122  1.00  0.00     0.049 A 
ATOM     63  C   UNL A   1      46.930  28.357  29.397  1.00  0.00     0.074 A 
ATOM     64  C   UNL A   1      41.847  29.721  31.376  1.00  0.00     0.029 A 
ATOM     65  N   UNL A   1      42.289  30.408  29.310  1.00  0.00    -0.354 N 
ATOM     66  N   UNL A   1      45.707  28.817  29.311  1.00  0.00    -0.248 NA
ATOM     67  C   UNL A   1      47.937  29.410  29.294  1.00  0.00     0.031 C 
ATOM     68  C   UNL A   1      43.215  30.098  31.291  1.00  0.00     0.029 A 
ATOM     69  C   UNL A   1      43.483  30.465  29.982  1.00  0.00     0.049 A 
ATOM     70  H   UNL A   1      42.159  30.689  28.376  1.00  0.00     0.167 HD
ATOM     71  C   UNL A   1      45.745  30.186  29.244  1.00  0.00     0.074 A 
ATOM     72  C   UNL A   1      47.163  30.505  29.208  1.00  0.00     0.031 C 
ATOM     73  C   UNL A   1      44.638  30.988  29.291  1.00  0.00     0.034 A 
BRANCH  60  74
ATOM     74  C   UNL A   1      38.734  29.785  29.968  1.00  0.00     0.023 A 
ATOM     75  C   UNL A   1      38.315  31.081  29.596  1.00  0.00     0.031 A 
ATOM     76  C   UNL A   1      37.806  29.043  30.716  1.00  0.00     0.131 A 
ATOM     77  C   UNL A   1      37.081  31.613  29.979  1.00  0.00     0.055 A 
ATOM     78  C   UNL A   1      36.557  29.570  31.095  1.00  0.00     0.041 A 
ATOM     79  F   UNL A   1      38.042  27.782  31.094  1.00  0.00    -0.206 F 
ATOM     80  C   UNL A   1      36.189  30.862  30.730  1.00  0.00     0.022 A 
BRANCH  77  81
ATOM     81  S   UNL A   1      36.693  33.304  29.460  1.00  0.00     0.124 S 
ATOM     82  O   UNL A   1      36.202  33.098  28.100  1.00  0.00    -0.237 OA
ATOM     83  O   UNL A   1      35.702  33.713  30.449  1.00  0.00    -0.237 OA
ATOM     84  O   UNL A   1      37.980  33.988  29.555  1.00  0.00    -0.744 OA
ENDBRANCH  77  81
ENDBRANCH  60  74
BRANCH  61  85
ATOM     85  C   UNL A   1      47.771  25.830  28.833  1.00  0.00     0.023 A 
ATOM     86  C   UNL A   1      47.255  25.843  27.509  1.00  0.00     0.031 A 
ATOM     87  C   UNL A   1      49.047  25.281  29.024  1.00  0.00     0.131 A 
ATOM     88  C   UNL A   1      48.106  25.587  26.419  1.00  0.00     0.055 A 
ATOM     89  C   UNL A   1      49.863  24.960  27.930  1.00  0.00     0.041 A 
ATOM     90  F   UNL A   1      49.590  25.221  30.249  1.00  0.00    -0.206 F 
ATOM     91  C   UNL A   1      49.424  25.181  26.623  1.00  0.00     0.022 A 
BRANCH  88  92
ATOM     92  S   UNL A   1      47.532  25.995  24.741  1.00  0.00     0.124 S 
ATOM     93  O   UNL A   1      48.440  27.067  24.345  1.00  0.00    -0.237 OA
ATOM     94  O   UNL A   1      47.704  24.728  24.029  1.00  0.00    -0.237 OA
ATOM     95  O   UNL A   1      46.141  26.398  24.926  1.00  0.00    -0.744 OA
ENDBRANCH  88  92
ENDBRANCH  61  85
BRANCH  73  96
ATOM     96  C   UNL A   1      44.560  32.395  28.749  1.00  0.00     0.023 A 
ATOM     97  C   UNL A   1      44.286  32.639  27.406  1.00  0.00     0.031 A 
ATOM     98  C   UNL A   1      44.650  33.550  29.573  1.00  0.00     0.131 A 
ATOM     99  C   UNL A   1      44.280  33.941  26.897  1.00  0.00     0.055 A 
ATOM    100  C   UNL A   1      44.497  34.848  29.087  1.00  0.00     0.041 A 
ATOM    101  F   UNL A   1      44.875  33.486  30.893  1.00  0.00    -0.206 F 
ATOM    102  C   UNL A   1      44.353  35.053  27.728  1.00  0.00     0.022 A 
BRANCH  99 103
ATOM    103  S   UNL A   1      44.320  34.107  25.103  1.00  0.00     0.124 S 
ATOM    104  O   UNL A   1      43.156  34.958  24.862  1.00  0.00    -0.237 OA
ATOM    105  O   UNL A   1      45.617  34.736  24.875  1.00  0.00    -0.237 OA
ATOM    106  O   UNL A   1      44.196  32.732  24.629  1.00  0.00    -0.744 OA
ENDBRANCH  99 103
ENDBRANCH  73  96
ENDBRANCH  47  48
ENDBRANCH  39  42
ENDBRANCH  37  38
ENDBRANCH  36  37
ENDBRANCH  35  36
ENDBRANCH   1  35
TORSDOF 19
ENDMDL
MODEL 3
REMARK VINA RESULT:     -13.5      2.317      3.019
REMARK SMILES Cc1ccc(NS(=O)(=O)c2cc(C(=O)Nc3ccccc3C(=O)NCCCCNC(=O)c3ccc(-c4c5nc(c(-c6cc(S(=O)(=O)[O-])ccc6F)c6ccc([nH]6)c(-c6cc(S(=O)(=O)[O-])ccc6F)c6nc(c(-c7cc(S(=O)(=O)[O-])ccc7F)c7ccc4[nH]7)C=C6)C=C5)cc3)ccc2Br)cc1
REMARK SMILES IDX 25 1 24 2 22 3 23 4 21 6 16 7 17 8 18 9 20 10 19 11 15 12
REMARK SMILES IDX 13 13 14 14 12 16 10 17 11 18 97 19 96 20 98 21 95 22 7 23
REMARK SMILES IDX 8 24 9 25 6 26 5 28 1 29 2 30 3 31 100 32 4 33 99 34 26 35
REMARK SMILES IDX 27 36 28 37 29 38 30 39 31 41 32 42 33 43 94 44 34 45 93 46
REMARK SMILES IDX 35 47 36 48 37 49 87 50 38 51 92 52 86 53 88 54 39 55 91 56
REMARK SMILES IDX 85 57 84 58 40 60 72 61 52 62 71 63 53 64 56 65 70 66 89 67
REMARK SMILES IDX 54 68 55 69 69 71 90 72 57 73 41 74 42 75 50 76 43 77 49 78
REMARK SMILES IDX 51 79 48 80 44 81 45 82 46 83 47 84 73 85 74 86 82 87 75 88
REMARK SMILES IDX 81 89 83 90 80 91 76 92 77 93 78 94 79 95 58 96 59 97 67 98
REMARK SMILES IDX 60 99 66 100 68 101 65 102 61 103 62 104 63 105 64 106
REMARK H PARENT 24 5 15 15 6 27 29 40 88 59 56 70
REMARK Flexibility Score: inf
ROOT
ATOM      1  C   UNL A   1      32.328  28.109  26.428  1.00  0.00     0.116 C 
ENDROOT
BRANCH   1   2
ATOM      2  N   UNL A   1      33.196  28.161  25.266  1.00  0.00    -0.352 N 
ATOM      3  C   UNL A   1      33.002  28.851  24.084  1.00  0.00     0.253 C 
ATOM      4  O   UNL A   1      33.924  28.954  23.282  1.00  0.00    -0.269 OA
ATOM      5  H   UNL A   1      34.028  27.639  25.328  1.00  0.00     0.163 HD
BRANCH   3   6
ATOM      6  C   UNL A   1      31.637  29.311  23.711  1.00  0.00     0.063 A 
ATOM      7  C   UNL A   1      30.719  28.441  22.401  1.00  0.00     0.054 A 
ATOM      8  C   UNL A   1      28.843  29.132  22.000  1.00  0.00     0.027 A 
ATOM      9  C   UNL A   1      28.161  30.454  23.022  1.00  0.00     0.002 A 
ATOM     10  C   UNL A   1      30.838  30.633  24.573  1.00  0.00     0.016 A 
ATOM     11  C   UNL A   1      29.169  31.150  24.267  1.00  0.00     0.001 A 
BRANCH   7  12
ATOM     12  N   UNL A   1      31.528  27.264  21.903  1.00  0.00    -0.321 N 
ATOM     13  C   UNL A   1      31.715  25.929  22.325  1.00  0.00     0.255 C 
ATOM     14  O   UNL A   1      32.402  25.185  21.617  1.00  0.00    -0.269 OA
ATOM     15  H   UNL A   1      32.047  27.479  21.094  1.00  0.00     0.170 HD
BRANCH  13  16
ATOM     16  C   UNL A   1      31.001  25.274  23.474  1.00  0.00     0.041 A 
ATOM     17  C   UNL A   1      31.153  23.392  25.020  1.00  0.00     0.102 A 
ATOM     18  C   UNL A   1      31.325  23.990  23.796  1.00  0.00     0.037 A 
ATOM     19  C   UNL A   1      30.199  23.939  25.848  1.00  0.00     0.038 A 
ATOM     20  C   UNL A   1      29.630  25.179  25.475  1.00  0.00     0.018 A 
ATOM     21  Br  UNL A   1      29.531  23.050  27.372  1.00  0.00    -0.049 Br
ATOM     22  C   UNL A   1      30.097  25.884  24.336  1.00  0.00     0.015 A 
BRANCH  17  23
ATOM     23  S   UNL A   1      32.355  22.114  25.389  1.00  0.00     0.263 S 
ATOM     24  O   UNL A   1      31.774  20.852  24.986  1.00  0.00    -0.201 OA
ATOM     25  O   UNL A   1      32.769  22.331  26.759  1.00  0.00    -0.201 OA
BRANCH  23  26
ATOM     26  N   UNL A   1      33.716  22.353  24.351  1.00  0.00    -0.280 N 
ATOM     27  H   UNL A   1      33.525  22.353  23.385  1.00  0.00     0.180 HD
BRANCH  26  28
ATOM     28  C   UNL A   1      35.183  22.565  24.741  1.00  0.00     0.049 A 
ATOM     29  C   UNL A   1      39.939  22.001  26.575  1.00  0.00     0.044 C 
ATOM     30  C   UNL A   1      38.624  22.226  25.889  1.00  0.00    -0.051 A 
ATOM     31  C   UNL A   1      37.765  20.875  25.115  1.00  0.00     0.005 A 
ATOM     32  C   UNL A   1      37.923  23.801  26.134  1.00  0.00     0.005 A 
ATOM     33  C   UNL A   1      36.095  21.000  24.529  1.00  0.00     0.027 A 
ATOM     34  C   UNL A   1      36.247  24.080  25.591  1.00  0.00     0.027 A 
ENDBRANCH  26  28
ENDBRANCH  23  26
ENDBRANCH  17  23
ENDBRANCH  13  16
ENDBRANCH   7  12
ENDBRANCH   3   6
ENDBRANCH   1   2
BRANCH   1  35
ATOM     35  C   UNL A   1      32.521  29.169  27.494  1.00  0.00     0.023 C 
BRANCH  35  36
ATOM     36  C   UNL A   1      33.536  30.243  27.262  1.00  0.00     0.023 C 
BRANCH  36  37
ATOM     37  C   UNL A   1      34.926  29.770  27.549  1.00  0.00     0.116 C 
BRANCH  37  38
ATOM     38  N   UNL A   1      35.909  30.787  27.855  1.00  0.00    -0.352 N 
ATOM     39  C   UNL A   1      37.210  30.593  28.294  1.00  0.00     0.251 C 
ATOM     40  H   UNL A   1      35.623  31.722  27.737  1.00  0.00     0.163 HD
ATOM     41  O   UNL A   1      37.842  31.530  28.774  1.00  0.00    -0.269 OA
BRANCH  39  42
ATOM     42  C   UNL A   1      37.916  29.298  28.013  1.00  0.00     0.039 A 
ATOM     43  C   UNL A   1      37.793  28.335  29.023  1.00  0.00     0.014 A 
ATOM     44  C   UNL A   1      39.092  29.334  27.292  1.00  0.00     0.014 A 
ATOM     45  C   UNL A   1      38.945  27.754  29.532  1.00  0.00     0.010 A 
ATOM     46  C   UNL A   1      40.232  29.119  27.994  1.00  0.00     0.010 A 
ATOM     47  C   UNL A   1      40.149  28.294  29.107  1.00  0.00    -0.014 A 
BRANCH  47  48
ATOM     48  C   UNL A   1      41.464  27.848  29.483  1.00  0.00     0.031 A 
ATOM     49  C   UNL A   1      41.821  26.586  28.777  1.00  0.00     0.074 A 
ATOM     50  C   UNL A   1      42.206  28.779  30.134  1.00  0.00     0.049 A 
ATOM     51  N   UNL A   1      42.570  25.659  29.236  1.00  0.00    -0.248 NA
ATOM     52  C   UNL A   1      41.219  26.159  27.487  1.00  0.00     0.031 C 
ATOM     53  C   UNL A   1      43.641  28.908  30.332  1.00  0.00     0.029 A 
ATOM     54  N   UNL A   1      41.690  29.802  30.948  1.00  0.00    -0.354 N 
ATOM     55  C   UNL A   1      42.968  24.920  28.132  1.00  0.00     0.074 A 
ATOM     56  C   UNL A   1      41.928  25.074  27.165  1.00  0.00     0.031 C 
ATOM     57  C   UNL A   1      43.872  29.640  31.443  1.00  0.00     0.029 A 
ATOM     58  C   UNL A   1      42.581  29.965  32.031  1.00  0.00     0.049 A 
ATOM     59  H   UNL A   1      40.863  30.311  30.791  1.00  0.00     0.167 HD
ATOM     60  C   UNL A   1      44.271  24.541  28.056  1.00  0.00     0.034 A 
ATOM     61  C   UNL A   1      42.166  29.608  33.286  1.00  0.00     0.034 A 
ATOM     62  C   UNL A   1      44.968  25.127  29.194  1.00  0.00     0.049 A 
ATOM     63  C   UNL A   1      42.842  28.304  33.670  1.00  0.00     0.074 A 
ATOM     64  C   UNL A   1      45.760  26.252  29.323  1.00  0.00     0.029 A 
ATOM     65  N   UNL A   1      44.560  24.769  30.461  1.00  0.00    -0.354 N 
ATOM     66  N   UNL A   1      43.195  27.387  32.805  1.00  0.00    -0.248 NA
ATOM     67  C   UNL A   1      43.322  28.019  35.021  1.00  0.00     0.031 C 
ATOM     68  C   UNL A   1      45.788  26.587  30.705  1.00  0.00     0.029 A 
ATOM     69  C   UNL A   1      44.987  25.686  31.386  1.00  0.00     0.049 A 
ATOM     70  H   UNL A   1      44.034  23.964  30.672  1.00  0.00     0.167 HD
ATOM     71  C   UNL A   1      44.005  26.470  33.426  1.00  0.00     0.074 A 
ATOM     72  C   UNL A   1      44.030  26.895  34.816  1.00  0.00     0.031 C 
ATOM     73  C   UNL A   1      44.664  25.464  32.775  1.00  0.00     0.034 A 
BRANCH  60  74
ATOM     74  C   UNL A   1      45.046  23.928  26.923  1.00  0.00     0.023 A 
ATOM     75  C   UNL A   1      44.597  22.665  26.476  1.00  0.00     0.031 A 
ATOM     76  C   UNL A   1      46.144  24.458  26.227  1.00  0.00     0.131 A 
ATOM     77  C   UNL A   1      45.224  21.966  25.442  1.00  0.00     0.055 A 
ATOM     78  C   UNL A   1      46.772  23.762  25.177  1.00  0.00     0.041 A 
ATOM     79  F   UNL A   1      46.646  25.667  26.503  1.00  0.00    -0.206 F 
ATOM     80  C   UNL A   1      46.316  22.508  24.780  1.00  0.00     0.022 A 
BRANCH  77  81
ATOM     81  S   UNL A   1      44.561  20.340  25.000  1.00  0.00     0.124 S 
ATOM     82  O   UNL A   1      43.266  20.347  25.675  1.00  0.00    -0.237 OA
ATOM     83  O   UNL A   1      44.529  20.402  23.543  1.00  0.00    -0.237 OA
ATOM     84  O   UNL A   1      45.543  19.413  25.558  1.00  0.00    -0.744 OA
ENDBRANCH  77  81
ENDBRANCH  60  74
BRANCH  61  85
ATOM     85  C   UNL A   1      40.724  30.003  33.481  1.00  0.00     0.023 A 
ATOM     86  C   UNL A   1      40.474  31.397  33.602  1.00  0.00     0.031 A 
ATOM     87  C   UNL A   1      39.695  29.204  32.962  1.00  0.00     0.131 A 
ATOM     88  C   UNL A   1      39.362  31.971  32.959  1.00  0.00     0.055 A 
ATOM     89  C   UNL A   1      38.555  29.783  32.388  1.00  0.00     0.041 A 
ATOM     90  F   UNL A   1      39.856  27.879  32.835  1.00  0.00    -0.206 F 
ATOM     91  C   UNL A   1      38.418  31.171  32.318  1.00  0.00     0.022 A 
BRANCH  88  92
ATOM     92  S   UNL A   1      39.281  33.781  32.793  1.00  0.00     0.124 S 
ATOM     93  O   UNL A   1      39.474  34.236  34.166  1.00  0.00    -0.237 OA
ATOM     94  O   UNL A   1      40.383  34.066  31.873  1.00  0.00    -0.237 OA
ATOM     95  O   UNL A   1      37.953  34.031  32.238  1.00  0.00    -0.744 OA
ENDBRANCH  88  92
ENDBRANCH  61  85
BRANCH  73  96
ATOM     96  C   UNL A   1      45.145  24.184  33.417  1.00  0.00     0.023 A 
ATOM     97  C   UNL A   1      46.386  24.110  34.042  1.00  0.00     0.031 A 
ATOM     98  C   UNL A   1      44.337  23.019  33.524  1.00  0.00     0.131 A 
ATOM     99  C   UNL A   1      46.853  22.905  34.576  1.00  0.00     0.055 A 
ATOM    100  C   UNL A   1      44.748  21.863  34.188  1.00  0.00     0.041 A 
ATOM    101  F   UNL A   1      43.103  22.939  33.007  1.00  0.00    -0.206 F 
ATOM    102  C   UNL A   1      46.036  21.786  34.684  1.00  0.00     0.022 A 
BRANCH  99 103
ATOM    103  S   UNL A   1      48.606  22.828  34.986  1.00  0.00     0.124 S 
ATOM    104  O   UNL A   1      49.031  24.202  34.718  1.00  0.00    -0.237 OA
ATOM    105  O   UNL A   1      48.584  22.440  36.393  1.00  0.00    -0.237 OA
ATOM    106  O   UNL A   1      49.129  21.824  34.065  1.00  0.00    -0.744 OA
ENDBRANCH  99 103
ENDBRANCH  73  96
ENDBRANCH  47  48
ENDBRANCH  39  42
ENDBRANCH  37  38
ENDBRANCH  36  37
ENDBRANCH  35  36
ENDBRANCH   1  35
TORSDOF 19
ENDMDL
