MODEL 1
REMARK VINA RESULT:     -10.3      0.000      0.000
REMARK SMILES O=C(CCNC(=O)CCc1nc2ccccc2[nH]1)NCCCCNC(=O)c1ccc(-c2c3nc(c(-c4cc(S(=O)(=O)[O-])ccc4F)c4ccc([nH]4)c(-c4cc(S(=O)(=O)[O-])ccc4F)c4nc(c(-c5cc(S(=O)(=O)[O-])ccc5F)c5ccc2[nH]5)C=C4)C=C3)cc1
REMARK SMILES IDX 20 1 19 2 1 3 2 4 3 6 4 7 5 8 6 9 7 11 8 12 9 13 10 14 11 15
REMARK SMILES IDX 18 16 12 17 17 18 13 20 16 21 14 22 15 23 21 24 22 25 23 26
REMARK SMILES IDX 24 27 25 28 26 30 27 31 28 32 89 33 29 34 88 35 30 36 31 37
REMARK SMILES IDX 32 38 82 39 33 40 87 41 81 42 83 43 34 44 86 45 80 46 79 47
REMARK SMILES IDX 35 49 67 50 47 51 66 52 48 53 51 54 65 55 84 56 49 57 50 58
REMARK SMILES IDX 64 60 85 61 52 62 36 63 37 64 45 65 38 66 44 67 46 68 43 69
REMARK SMILES IDX 39 70 40 71 41 72 42 73 68 74 69 75 77 76 70 77 76 78 78 79
REMARK SMILES IDX 75 80 71 81 72 82 73 83 74 84 53 85 54 86 62 87 55 88 61 89
REMARK SMILES IDX 63 90 60 91 56 92 57 93 58 94 59 95
REMARK H PARENT 19 5 5 10 18 19 24 29 83 48 51 59
REMARK Flexibility Score: inf
ROOT
ATOM      1  C   UNL A   1      36.989  21.451  24.906  1.00  0.00     0.116 C 
ENDROOT
BRANCH   1   2
ATOM      2  N   UNL A   1      35.635  21.012  24.680  1.00  0.00    -0.356 N 
ATOM      3  O   UNL A   1      34.799  21.554  26.743  1.00  0.00    -0.275 OA
ATOM      4  C   UNL A   1      34.676  20.991  25.660  1.00  0.00     0.221 C 
ATOM      5  H   UNL A   1      35.386  20.712  23.775  1.00  0.00     0.163 HD
BRANCH   4   6
ATOM      6  C   UNL A   1      33.532  20.054  25.345  1.00  0.00     0.121 C 
BRANCH   6   7
ATOM      7  C   UNL A   1      32.188  20.748  25.096  1.00  0.00     0.125 C 
BRANCH   7   8
ATOM      8  N   UNL A   1      31.814  21.534  26.262  1.00  0.00    -0.356 N 
ATOM      9  C   UNL A   1      31.350  22.807  26.353  1.00  0.00     0.220 C 
ATOM     10  H   UNL A   1      31.914  21.068  27.123  1.00  0.00     0.163 HD
ATOM     11  O   UNL A   1      31.420  23.351  27.457  1.00  0.00    -0.275 OA
BRANCH   9  12
ATOM     12  C   UNL A   1      30.716  23.531  25.181  1.00  0.00     0.108 C 
BRANCH  12  13
ATOM     13  C   UNL A   1      31.653  24.469  24.412  1.00  0.00     0.085 C 
BRANCH  13  14
ATOM     14  C   UNL A   1      31.570  25.877  24.910  1.00  0.00     0.107 A 
ATOM     15  N   UNL A   1      31.850  26.942  24.198  1.00  0.00    -0.233 NA
ATOM     16  N   UNL A   1      31.269  26.245  26.204  1.00  0.00    -0.342 N 
ATOM     17  C   UNL A   1      31.991  27.968  25.077  1.00  0.00     0.089 A 
ATOM     18  C   UNL A   1      31.582  27.582  26.345  1.00  0.00     0.065 A 
ATOM     19  H   UNL A   1      30.898  25.660  26.903  1.00  0.00     0.168 HD
ATOM     20  C   UNL A   1      32.529  29.240  24.856  1.00  0.00     0.030 A 
ATOM     21  C   UNL A   1      31.595  28.460  27.429  1.00  0.00     0.028 A 
ATOM     22  C   UNL A   1      32.618  30.114  25.938  1.00  0.00     0.002 A 
ATOM     23  C   UNL A   1      32.134  29.737  27.194  1.00  0.00     0.002 A 
ENDBRANCH  13  14
ENDBRANCH  12  13
ENDBRANCH   9  12
ENDBRANCH   7   8
ENDBRANCH   6   7
ENDBRANCH   4   6
ENDBRANCH   1   2
BRANCH   1  24
ATOM     24  C   UNL A   1      37.917  20.250  25.093  1.00  0.00     0.023 C 
BRANCH  24  25
ATOM     25  C   UNL A   1      39.383  20.593  25.397  1.00  0.00     0.023 C 
BRANCH  25  26
ATOM     26  C   UNL A   1      40.032  19.822  26.541  1.00  0.00     0.116 C 
BRANCH  26  27
ATOM     27  N   UNL A   1      41.214  19.091  26.130  1.00  0.00    -0.352 N 
ATOM     28  C   UNL A   1      42.473  19.566  25.876  1.00  0.00     0.251 C 
ATOM     29  H   UNL A   1      41.095  18.120  26.018  1.00  0.00     0.163 HD
ATOM     30  O   UNL A   1      43.321  18.818  25.391  1.00  0.00    -0.269 OA
BRANCH  28  31
ATOM     31  C   UNL A   1      42.791  20.983  26.149  1.00  0.00     0.039 A 
ATOM     32  C   UNL A   1      43.041  21.369  27.467  1.00  0.00     0.014 A 
ATOM     33  C   UNL A   1      42.859  21.919  25.112  1.00  0.00     0.014 A 
ATOM     34  C   UNL A   1      43.410  22.686  27.741  1.00  0.00     0.010 A 
ATOM     35  C   UNL A   1      43.299  23.214  25.379  1.00  0.00     0.010 A 
ATOM     36  C   UNL A   1      43.574  23.613  26.697  1.00  0.00    -0.014 A 
BRANCH  36  37
ATOM     37  C   UNL A   1      44.029  25.000  26.975  1.00  0.00     0.031 A 
ATOM     38  C   UNL A   1      43.066  26.014  27.529  1.00  0.00     0.074 A 
ATOM     39  C   UNL A   1      45.299  25.355  26.691  1.00  0.00     0.049 A 
ATOM     40  N   UNL A   1      43.259  27.279  27.798  1.00  0.00    -0.248 NA
ATOM     41  C   UNL A   1      41.696  25.547  27.790  1.00  0.00     0.031 C 
ATOM     42  C   UNL A   1      46.315  24.466  26.122  1.00  0.00     0.029 A 
ATOM     43  N   UNL A   1      45.953  26.552  26.839  1.00  0.00    -0.354 N 
ATOM     44  C   UNL A   1      42.035  27.764  28.249  1.00  0.00     0.074 A 
ATOM     45  C   UNL A   1      41.093  26.668  28.157  1.00  0.00     0.031 C 
ATOM     46  C   UNL A   1      47.469  25.139  26.000  1.00  0.00     0.029 A 
ATOM     47  C   UNL A   1      47.266  26.519  26.430  1.00  0.00     0.049 A 
ATOM     48  H   UNL A   1      45.522  27.358  27.203  1.00  0.00     0.167 HD
ATOM     49  C   UNL A   1      41.732  29.001  28.716  1.00  0.00     0.034 A 
ATOM     50  C   UNL A   1      48.198  27.493  26.395  1.00  0.00     0.034 A 
ATOM     51  C   UNL A   1      42.688  30.078  28.804  1.00  0.00     0.049 A 
ATOM     52  C   UNL A   1      47.825  28.872  26.879  1.00  0.00     0.074 A 
ATOM     53  C   UNL A   1      42.504  31.352  29.312  1.00  0.00     0.029 A 
ATOM     54  N   UNL A   1      44.004  30.015  28.361  1.00  0.00    -0.354 N 
ATOM     55  N   UNL A   1      46.678  29.300  27.355  1.00  0.00    -0.248 NA
ATOM     56  C   UNL A   1      48.876  29.897  26.831  1.00  0.00     0.031 C 
ATOM     57  C   UNL A   1      43.679  32.082  29.100  1.00  0.00     0.029 A 
ATOM     58  C   UNL A   1      44.629  31.239  28.547  1.00  0.00     0.049 A 
ATOM     59  H   UNL A   1      44.430  29.217  27.972  1.00  0.00     0.167 HD
ATOM     60  C   UNL A   1      46.881  30.635  27.694  1.00  0.00     0.074 A 
ATOM     61  C   UNL A   1      48.264  30.934  27.383  1.00  0.00     0.031 C 
ATOM     62  C   UNL A   1      46.006  31.530  28.221  1.00  0.00     0.034 A 
BRANCH  49  63
ATOM     63  C   UNL A   1      40.302  29.258  29.132  1.00  0.00     0.023 A 
ATOM     64  C   UNL A   1      39.906  29.234  30.481  1.00  0.00     0.031 A 
ATOM     65  C   UNL A   1      39.313  29.508  28.163  1.00  0.00     0.131 A 
ATOM     66  C   UNL A   1      38.550  29.376  30.817  1.00  0.00     0.055 A 
ATOM     67  C   UNL A   1      37.980  29.737  28.511  1.00  0.00     0.041 A 
ATOM     68  F   UNL A   1      39.624  29.521  26.857  1.00  0.00    -0.206 F 
ATOM     69  C   UNL A   1      37.589  29.654  29.844  1.00  0.00     0.022 A 
BRANCH  66  70
ATOM     70  S   UNL A   1      38.042  29.037  32.525  1.00  0.00     0.124 S 
ATOM     71  O   UNL A   1      36.611  29.328  32.470  1.00  0.00    -0.237 OA
ATOM     72  O   UNL A   1      38.403  27.633  32.690  1.00  0.00    -0.237 OA
ATOM     73  O   UNL A   1      38.831  29.982  33.312  1.00  0.00    -0.744 OA
ENDBRANCH  66  70
ENDBRANCH  49  63
BRANCH  50  74
ATOM     74  C   UNL A   1      49.569  27.213  25.877  1.00  0.00     0.023 A 
ATOM     75  C   UNL A   1      50.622  26.897  26.749  1.00  0.00     0.031 A 
ATOM     76  C   UNL A   1      49.857  27.301  24.503  1.00  0.00     0.131 A 
ATOM     77  C   UNL A   1      51.923  26.733  26.247  1.00  0.00     0.055 A 
ATOM     78  C   UNL A   1      51.141  27.076  24.001  1.00  0.00     0.041 A 
ATOM     79  F   UNL A   1      48.888  27.598  23.622  1.00  0.00    -0.206 F 
ATOM     80  C   UNL A   1      52.186  26.804  24.877  1.00  0.00     0.022 A 
BRANCH  77  81
ATOM     81  S   UNL A   1      53.286  26.516  27.423  1.00  0.00     0.124 S 
ATOM     82  O   UNL A   1      53.892  25.276  26.950  1.00  0.00    -0.237 OA
ATOM     83  O   UNL A   1      54.065  27.732  27.214  1.00  0.00    -0.237 OA
ATOM     84  O   UNL A   1      52.609  26.428  28.716  1.00  0.00    -0.744 OA
ENDBRANCH  77  81
ENDBRANCH  50  74
BRANCH  62  85
ATOM     85  C   UNL A   1      46.541  32.907  28.540  1.00  0.00     0.023 A 
ATOM     86  C   UNL A   1      46.663  33.905  27.558  1.00  0.00     0.031 A 
ATOM     87  C   UNL A   1      46.942  33.220  29.852  1.00  0.00     0.131 A 
ATOM     88  C   UNL A   1      47.230  35.146  27.888  1.00  0.00     0.055 A 
ATOM     89  C   UNL A   1      47.439  34.479  30.190  1.00  0.00     0.041 A 
ATOM     90  F   UNL A   1      46.852  32.305  30.832  1.00  0.00    -0.206 F 
ATOM     91  C   UNL A   1      47.598  35.446  29.201  1.00  0.00     0.022 A 
BRANCH  88  92
ATOM     92  S   UNL A   1      47.574  36.329  26.557  1.00  0.00     0.124 S 
ATOM     93  O   UNL A   1      46.286  36.998  26.405  1.00  0.00    -0.237 OA
ATOM     94  O   UNL A   1      48.649  37.136  27.125  1.00  0.00    -0.237 OA
ATOM     95  O   UNL A   1      47.967  35.478  25.435  1.00  0.00    -0.744 OA
ENDBRANCH  88  92
ENDBRANCH  62  85
ENDBRANCH  36  37
ENDBRANCH  28  31
ENDBRANCH  26  27
ENDBRANCH  25  26
ENDBRANCH  24  25
ENDBRANCH   1  24
TORSDOF 19
ENDMDL
MODEL 2
REMARK VINA RESULT:     -10.1      8.750     14.740
REMARK SMILES O=C(CCNC(=O)CCc1nc2ccccc2[nH]1)NCCCCNC(=O)c1ccc(-c2c3nc(c(-c4cc(S(=O)(=O)[O-])ccc4F)c4ccc([nH]4)c(-c4cc(S(=O)(=O)[O-])ccc4F)c4nc(c(-c5cc(S(=O)(=O)[O-])ccc5F)c5ccc2[nH]5)C=C4)C=C3)cc1
REMARK SMILES IDX 20 1 19 2 1 3 2 4 3 6 4 7 5 8 6 9 7 11 8 12 9 13 10 14 11 15
REMARK SMILES IDX 18 16 12 17 17 18 13 20 16 21 14 22 15 23 21 24 22 25 23 26
REMARK SMILES IDX 24 27 25 28 26 30 27 31 28 32 89 33 29 34 88 35 30 36 31 37
REMARK SMILES IDX 32 38 82 39 33 40 87 41 81 42 83 43 34 44 86 45 80 46 79 47
REMARK SMILES IDX 35 49 67 50 47 51 66 52 48 53 51 54 65 55 84 56 49 57 50 58
REMARK SMILES IDX 64 60 85 61 52 62 36 63 37 64 45 65 38 66 44 67 46 68 43 69
REMARK SMILES IDX 39 70 40 71 41 72 42 73 68 74 69 75 77 76 70 77 76 78 78 79
REMARK SMILES IDX 75 80 71 81 72 82 73 83 74 84 53 85 54 86 62 87 55 88 61 89
REMARK SMILES IDX 63 90 60 91 56 92 57 93 58 94 59 95
REMARK H PARENT 19 5 5 10 18 19 24 29 83 48 51 59
REMARK Flexibility Score: inf
ROOT
ATOM      1  C   UNL A   1      46.604  20.555  36.349  1.00  0.00     0.116 C 
ENDROOT
BRANCH   1   2
ATOM      2  N   UNL A   1      47.435  19.787  37.242  1.00  0.00    -0.356 N 
ATOM      3  O   UNL A   1      46.003  19.759  39.029  1.00  0.00    -0.275 OA
ATOM      4  C   UNL A   1      47.114  19.552  38.554  1.00  0.00     0.221 C 
ATOM      5  H   UNL A   1      48.276  19.413  36.891  1.00  0.00     0.163 HD
BRANCH   4   6
ATOM      6  C   UNL A   1      48.315  19.185  39.397  1.00  0.00     0.121 C 
BRANCH   6   7
ATOM      7  C   UNL A   1      48.002  18.285  40.597  1.00  0.00     0.125 C 
BRANCH   7   8
ATOM      8  N   UNL A   1      47.320  19.053  41.627  1.00  0.00    -0.356 N 
ATOM      9  C   UNL A   1      46.244  18.738  42.394  1.00  0.00     0.220 C 
ATOM     10  H   UNL A   1      47.699  19.946  41.795  1.00  0.00     0.163 HD
ATOM     11  O   UNL A   1      45.661  19.670  42.952  1.00  0.00    -0.275 OA
BRANCH   9  12
ATOM     12  C   UNL A   1      45.793  17.307  42.619  1.00  0.00     0.108 C 
BRANCH  12  13
ATOM     13  C   UNL A   1      44.593  17.143  43.557  1.00  0.00     0.085 C 
BRANCH  13  14
ATOM     14  C   UNL A   1      43.574  16.198  43.006  1.00  0.00     0.107 A 
ATOM     15  N   UNL A   1      43.115  15.141  43.631  1.00  0.00    -0.233 NA
ATOM     16  N   UNL A   1      43.038  16.260  41.737  1.00  0.00    -0.342 N 
ATOM     17  C   UNL A   1      42.496  14.376  42.695  1.00  0.00     0.089 A 
ATOM     18  C   UNL A   1      42.380  15.070  41.500  1.00  0.00     0.065 A 
ATOM     19  H   UNL A   1      43.112  17.016  41.112  1.00  0.00     0.168 HD
ATOM     20  C   UNL A   1      42.068  13.048  42.796  1.00  0.00     0.030 A 
ATOM     21  C   UNL A   1      41.752  14.521  40.381  1.00  0.00     0.028 A 
ATOM     22  C   UNL A   1      41.499  12.453  41.671  1.00  0.00     0.002 A 
ATOM     23  C   UNL A   1      41.323  13.188  40.495  1.00  0.00     0.002 A 
ENDBRANCH  13  14
ENDBRANCH  12  13
ENDBRANCH   9  12
ENDBRANCH   7   8
ENDBRANCH   6   7
ENDBRANCH   4   6
ENDBRANCH   1   2
BRANCH   1  24
ATOM     24  C   UNL A   1      46.961  22.040  36.427  1.00  0.00     0.023 C 
BRANCH  24  25
ATOM     25  C   UNL A   1      48.108  22.490  35.510  1.00  0.00     0.023 C 
BRANCH  25  26
ATOM     26  C   UNL A   1      48.147  23.973  35.160  1.00  0.00     0.116 C 
BRANCH  26  27
ATOM     27  N   UNL A   1      48.277  24.824  36.326  1.00  0.00    -0.352 N 
ATOM     28  C   UNL A   1      47.630  25.998  36.609  1.00  0.00     0.251 C 
ATOM     29  H   UNL A   1      48.917  24.516  37.008  1.00  0.00     0.163 HD
ATOM     30  O   UNL A   1      47.976  26.664  37.584  1.00  0.00    -0.269 OA
BRANCH  28  31
ATOM     31  C   UNL A   1      46.551  26.474  35.720  1.00  0.00     0.039 A 
ATOM     32  C   UNL A   1      45.330  25.797  35.730  1.00  0.00     0.014 A 
ATOM     33  C   UNL A   1      46.735  27.589  34.895  1.00  0.00     0.014 A 
ATOM     34  C   UNL A   1      44.274  26.269  34.950  1.00  0.00     0.010 A 
ATOM     35  C   UNL A   1      45.657  28.100  34.174  1.00  0.00     0.010 A 
ATOM     36  C   UNL A   1      44.417  27.442  34.190  1.00  0.00    -0.014 A 
BRANCH  36  37
ATOM     37  C   UNL A   1      43.277  27.986  33.407  1.00  0.00     0.031 A 
ATOM     38  C   UNL A   1      43.104  27.606  31.962  1.00  0.00     0.074 A 
ATOM     39  C   UNL A   1      42.421  28.851  33.989  1.00  0.00     0.049 A 
ATOM     40  N   UNL A   1      42.202  28.005  31.103  1.00  0.00    -0.248 NA
ATOM     41  C   UNL A   1      44.093  26.673  31.403  1.00  0.00     0.031 C 
ATOM     42  C   UNL A   1      42.506  29.317  35.375  1.00  0.00     0.029 A 
ATOM     43  N   UNL A   1      41.316  29.494  33.491  1.00  0.00    -0.354 N 
ATOM     44  C   UNL A   1      42.520  27.383  29.900  1.00  0.00     0.074 A 
ATOM     45  C   UNL A   1      43.735  26.629  30.129  1.00  0.00     0.031 C 
ATOM     46  C   UNL A   1      41.479  30.144  35.624  1.00  0.00     0.029 A 
ATOM     47  C   UNL A   1      40.692  30.311  34.406  1.00  0.00     0.049 A 
ATOM     48  H   UNL A   1      40.999  29.382  32.566  1.00  0.00     0.167 HD
ATOM     49  C   UNL A   1      41.850  27.421  28.722  1.00  0.00     0.034 A 
ATOM     50  C   UNL A   1      39.616  31.113  34.276  1.00  0.00     0.034 A 
ATOM     51  C   UNL A   1      40.637  28.175  28.516  1.00  0.00     0.049 A 
ATOM     52  C   UNL A   1      38.912  31.171  32.943  1.00  0.00     0.074 A 
ATOM     53  C   UNL A   1      39.845  28.240  27.383  1.00  0.00     0.029 A 
ATOM     54  N   UNL A   1      40.046  29.008  29.459  1.00  0.00    -0.354 N 
ATOM     55  N   UNL A   1      39.194  30.533  31.830  1.00  0.00    -0.248 NA
ATOM     56  C   UNL A   1      37.740  32.051  32.852  1.00  0.00     0.031 C 
ATOM     57  C   UNL A   1      38.827  29.173  27.611  1.00  0.00     0.029 A 
ATOM     58  C   UNL A   1      38.925  29.621  28.919  1.00  0.00     0.049 A 
ATOM     59  H   UNL A   1      40.375  29.143  30.377  1.00  0.00     0.167 HD
ATOM     60  C   UNL A   1      38.211  30.909  30.918  1.00  0.00     0.074 A 
ATOM     61  C   UNL A   1      37.324  31.816  31.617  1.00  0.00     0.031 C 
ATOM     62  C   UNL A   1      38.053  30.534  29.622  1.00  0.00     0.034 A 
BRANCH  49  63
ATOM     63  C   UNL A   1      42.436  26.650  27.561  1.00  0.00     0.023 A 
ATOM     64  C   UNL A   1      42.238  25.267  27.413  1.00  0.00     0.031 A 
ATOM     65  C   UNL A   1      43.225  27.306  26.599  1.00  0.00     0.131 A 
ATOM     66  C   UNL A   1      42.884  24.571  26.378  1.00  0.00     0.055 A 
ATOM     67  C   UNL A   1      43.792  26.624  25.520  1.00  0.00     0.041 A 
ATOM     68  F   UNL A   1      43.470  28.623  26.696  1.00  0.00    -0.206 F 
ATOM     69  C   UNL A   1      43.638  25.245  25.415  1.00  0.00     0.022 A 
BRANCH  66  70
ATOM     70  S   UNL A   1      42.852  22.758  26.402  1.00  0.00     0.124 S 
ATOM     71  O   UNL A   1      41.725  22.494  27.294  1.00  0.00    -0.237 OA
ATOM     72  O   UNL A   1      42.645  22.427  24.996  1.00  0.00    -0.237 OA
ATOM     73  O   UNL A   1      44.161  22.399  26.943  1.00  0.00    -0.744 OA
ENDBRANCH  66  70
ENDBRANCH  49  63
BRANCH  50  74
ATOM     74  C   UNL A   1      39.139  31.934  35.426  1.00  0.00     0.023 A 
ATOM     75  C   UNL A   1      39.596  33.247  35.617  1.00  0.00     0.031 A 
ATOM     76  C   UNL A   1      38.252  31.402  36.379  1.00  0.00     0.131 A 
ATOM     77  C   UNL A   1      39.207  33.966  36.759  1.00  0.00     0.055 A 
ATOM     78  C   UNL A   1      37.819  32.142  37.482  1.00  0.00     0.041 A 
ATOM     79  F   UNL A   1      37.780  30.152  36.247  1.00  0.00    -0.206 F 
ATOM     80  C   UNL A   1      38.309  33.429  37.683  1.00  0.00     0.022 A 
BRANCH  77  81
ATOM     81  S   UNL A   1      39.968  35.584  37.067  1.00  0.00     0.124 S 
ATOM     82  O   UNL A   1      41.368  35.222  37.258  1.00  0.00    -0.237 OA
ATOM     83  O   UNL A   1      39.653  36.307  35.840  1.00  0.00    -0.237 OA
ATOM     84  O   UNL A   1      39.277  36.061  38.264  1.00  0.00    -0.744 OA
ENDBRANCH  77  81
ENDBRANCH  50  74
BRANCH  62  85
ATOM     85  C   UNL A   1      36.843  31.069  28.894  1.00  0.00     0.023 A 
ATOM     86  C   UNL A   1      35.831  30.223  28.407  1.00  0.00     0.031 A 
ATOM     87  C   UNL A   1      36.705  32.453  28.678  1.00  0.00     0.131 A 
ATOM     88  C   UNL A   1      34.761  30.762  27.677  1.00  0.00     0.055 A 
ATOM     89  C   UNL A   1      35.603  32.989  28.013  1.00  0.00     0.041 A 
ATOM     90  F   UNL A   1      37.642  33.310  29.117  1.00  0.00    -0.206 F 
ATOM     91  C   UNL A   1      34.629  32.140  27.495  1.00  0.00     0.022 A 
BRANCH  88  92
ATOM     92  S   UNL A   1      33.593  29.626  26.878  1.00  0.00     0.124 S 
ATOM     93  O   UNL A   1      34.487  28.633  26.294  1.00  0.00    -0.237 OA
ATOM     94  O   UNL A   1      32.780  29.171  28.002  1.00  0.00    -0.237 OA
ATOM     95  O   UNL A   1      32.894  30.475  25.914  1.00  0.00    -0.744 OA
ENDBRANCH  88  92
ENDBRANCH  62  85
ENDBRANCH  36  37
ENDBRANCH  28  31
ENDBRANCH  26  27
ENDBRANCH  25  26
ENDBRANCH  24  25
ENDBRANCH   1  24
TORSDOF 19
ENDMDL
MODEL 3
REMARK VINA RESULT:     -10.1      6.680     11.806
REMARK SMILES O=C(CCNC(=O)CCc1nc2ccccc2[nH]1)NCCCCNC(=O)c1ccc(-c2c3nc(c(-c4cc(S(=O)(=O)[O-])ccc4F)c4ccc([nH]4)c(-c4cc(S(=O)(=O)[O-])ccc4F)c4nc(c(-c5cc(S(=O)(=O)[O-])ccc5F)c5ccc2[nH]5)C=C4)C=C3)cc1
REMARK SMILES IDX 20 1 19 2 1 3 2 4 3 6 4 7 5 8 6 9 7 11 8 12 9 13 10 14 11 15
REMARK SMILES IDX 18 16 12 17 17 18 13 20 16 21 14 22 15 23 21 24 22 25 23 26
REMARK SMILES IDX 24 27 25 28 26 30 27 31 28 32 89 33 29 34 88 35 30 36 31 37
REMARK SMILES IDX 32 38 82 39 33 40 87 41 81 42 83 43 34 44 86 45 80 46 79 47
REMARK SMILES IDX 35 49 67 50 47 51 66 52 48 53 51 54 65 55 84 56 49 57 50 58
REMARK SMILES IDX 64 60 85 61 52 62 36 63 37 64 45 65 38 66 44 67 46 68 43 69
REMARK SMILES IDX 39 70 40 71 41 72 42 73 68 74 69 75 77 76 70 77 76 78 78 79
REMARK SMILES IDX 75 80 71 81 72 82 73 83 74 84 53 85 54 86 62 87 55 88 61 89
REMARK SMILES IDX 63 90 60 91 56 92 57 93 58 94 59 95
REMARK H PARENT 19 5 5 10 18 19 24 29 83 48 51 59
REMARK Flexibility Score: inf
ROOT
ATOM      1  C   UNL A   1      35.511  32.860  31.206  1.00  0.00     0.116 C 
ENDROOT
BRANCH   1   2
ATOM      2  N   UNL A   1      36.715  33.038  31.978  1.00  0.00    -0.356 N 
ATOM      3  O   UNL A   1      35.754  32.931  34.054  1.00  0.00    -0.275 OA
ATOM      4  C   UNL A   1      36.721  33.177  33.342  1.00  0.00     0.221 C 
ATOM      5  H   UNL A   1      37.576  33.061  31.501  1.00  0.00     0.163 HD
BRANCH   4   6
ATOM      6  C   UNL A   1      37.978  33.837  33.860  1.00  0.00     0.121 C 
BRANCH   6   7
ATOM      7  C   UNL A   1      38.146  33.787  35.383  1.00  0.00     0.125 C 
BRANCH   7   8
ATOM      8  N   UNL A   1      37.845  32.450  35.870  1.00  0.00    -0.356 N 
ATOM      9  C   UNL A   1      37.752  31.974  37.139  1.00  0.00     0.220 C 
ATOM     10  H   UNL A   1      37.683  31.781  35.165  1.00  0.00     0.163 HD
ATOM     11  O   UNL A   1      37.813  30.752  37.285  1.00  0.00    -0.275 OA
BRANCH   9  12
ATOM     12  C   UNL A   1      37.526  32.879  38.335  1.00  0.00     0.108 C 
BRANCH  12  13
ATOM     13  C   UNL A   1      36.402  32.440  39.279  1.00  0.00     0.085 C 
BRANCH  13  14
ATOM     14  C   UNL A   1      36.926  32.001  40.610  1.00  0.00     0.107 A 
ATOM     15  N   UNL A   1      37.730  30.983  40.800  1.00  0.00    -0.233 NA
ATOM     16  N   UNL A   1      36.575  32.553  41.823  1.00  0.00    -0.342 N 
ATOM     17  C   UNL A   1      37.693  30.705  42.130  1.00  0.00     0.089 A 
ATOM     18  C   UNL A   1      37.018  31.703  42.816  1.00  0.00     0.065 A 
ATOM     19  H   UNL A   1      36.093  33.401  41.957  1.00  0.00     0.168 HD
ATOM     20  C   UNL A   1      38.167  29.572  42.799  1.00  0.00     0.030 A 
ATOM     21  C   UNL A   1      36.865  31.678  44.203  1.00  0.00     0.028 A 
ATOM     22  C   UNL A   1      37.966  29.489  44.176  1.00  0.00     0.002 A 
ATOM     23  C   UNL A   1      37.349  30.537  44.865  1.00  0.00     0.002 A 
ENDBRANCH  13  14
ENDBRANCH  12  13
ENDBRANCH   9  12
ENDBRANCH   7   8
ENDBRANCH   6   7
ENDBRANCH   4   6
ENDBRANCH   1   2
BRANCH   1  24
ATOM     24  C   UNL A   1      34.909  34.215  30.831  1.00  0.00     0.023 C 
BRANCH  24  25
ATOM     25  C   UNL A   1      34.524  34.378  29.353  1.00  0.00     0.023 C 
BRANCH  25  26
ATOM     26  C   UNL A   1      35.174  33.404  28.377  1.00  0.00     0.116 C 
BRANCH  26  27
ATOM     27  N   UNL A   1      34.236  32.444  27.830  1.00  0.00    -0.352 N 
ATOM     28  C   UNL A   1      34.398  31.096  27.641  1.00  0.00     0.251 C 
ATOM     29  H   UNL A   1      33.363  32.810  27.558  1.00  0.00     0.163 HD
ATOM     30  O   UNL A   1      33.543  30.461  27.025  1.00  0.00    -0.269 OA
BRANCH  28  31
ATOM     31  C   UNL A   1      35.614  30.426  28.144  1.00  0.00     0.039 A 
ATOM     32  C   UNL A   1      36.764  30.448  27.353  1.00  0.00     0.014 A 
ATOM     33  C   UNL A   1      35.626  29.797  29.393  1.00  0.00     0.014 A 
ATOM     34  C   UNL A   1      37.944  29.883  27.837  1.00  0.00     0.010 A 
ATOM     35  C   UNL A   1      36.823  29.298  29.903  1.00  0.00     0.010 A 
ATOM     36  C   UNL A   1      37.993  29.331  29.128  1.00  0.00    -0.014 A 
BRANCH  36  37
ATOM     37  C   UNL A   1      39.263  28.784  29.675  1.00  0.00     0.031 A 
ATOM     38  C   UNL A   1      39.905  29.423  30.876  1.00  0.00     0.074 A 
ATOM     39  C   UNL A   1      39.854  27.737  29.065  1.00  0.00     0.049 A 
ATOM     40  N   UNL A   1      41.028  29.119  31.474  1.00  0.00    -0.248 NA
ATOM     41  C   UNL A   1      39.202  30.572  31.466  1.00  0.00     0.031 C 
ATOM     42  C   UNL A   1      39.341  27.054  27.876  1.00  0.00     0.029 A 
ATOM     43  N   UNL A   1      41.014  27.063  29.358  1.00  0.00    -0.354 N 
ATOM     44  C   UNL A   1      41.174  30.044  32.502  1.00  0.00     0.074 A 
ATOM     45  C   UNL A   1      40.053  30.956  32.404  1.00  0.00     0.031 C 
ATOM     46  C   UNL A   1      40.163  26.041  27.560  1.00  0.00     0.029 A 
ATOM     47  C   UNL A   1      41.289  26.032  28.489  1.00  0.00     0.049 A 
ATOM     48  H   UNL A   1      41.594  27.296  30.117  1.00  0.00     0.167 HD
ATOM     49  C   UNL A   1      42.140  30.114  33.451  1.00  0.00     0.034 A 
ATOM     50  C   UNL A   1      42.335  25.183  28.439  1.00  0.00     0.034 A 
ATOM     51  C   UNL A   1      43.247  29.191  33.534  1.00  0.00     0.049 A 
ATOM     52  C   UNL A   1      43.421  25.307  29.480  1.00  0.00     0.074 A 
ATOM     53  C   UNL A   1      44.251  29.134  34.484  1.00  0.00     0.029 A 
ATOM     54  N   UNL A   1      43.506  28.173  32.624  1.00  0.00    -0.354 N 
ATOM     55  N   UNL A   1      43.515  26.154  30.480  1.00  0.00    -0.248 NA
ATOM     56  C   UNL A   1      44.535  24.355  29.390  1.00  0.00     0.031 C 
ATOM     57  C   UNL A   1      45.159  28.139  34.104  1.00  0.00     0.029 A 
ATOM     58  C   UNL A   1      44.674  27.510  32.969  1.00  0.00     0.049 A 
ATOM     59  H   UNL A   1      42.941  27.953  31.847  1.00  0.00     0.167 HD
ATOM     60  C   UNL A   1      44.682  25.811  31.158  1.00  0.00     0.074 A 
ATOM     61  C   UNL A   1      45.246  24.673  30.461  1.00  0.00     0.031 C 
ATOM     62  C   UNL A   1      45.234  26.382  32.260  1.00  0.00     0.034 A 
BRANCH  49  63
ATOM     63  C   UNL A   1      42.057  31.245  34.450  1.00  0.00     0.023 A 
ATOM     64  C   UNL A   1      42.626  32.504  34.194  1.00  0.00     0.031 A 
ATOM     65  C   UNL A   1      41.419  31.053  35.689  1.00  0.00     0.131 A 
ATOM     66  C   UNL A   1      42.617  33.495  35.190  1.00  0.00     0.055 A 
ATOM     67  C   UNL A   1      41.335  32.072  36.641  1.00  0.00     0.041 A 
ATOM     68  F   UNL A   1      40.876  29.866  36.002  1.00  0.00    -0.206 F 
ATOM     69  C   UNL A   1      41.951  33.296  36.401  1.00  0.00     0.022 A 
BRANCH  66  70
ATOM     70  S   UNL A   1      43.619  34.985  34.938  1.00  0.00     0.124 S 
ATOM     71  O   UNL A   1      44.855  34.422  34.397  1.00  0.00    -0.237 OA
ATOM     72  O   UNL A   1      42.808  35.759  34.006  1.00  0.00    -0.237 OA
ATOM     73  O   UNL A   1      43.739  35.549  36.282  1.00  0.00    -0.744 OA
ENDBRANCH  66  70
ENDBRANCH  49  63
BRANCH  50  74
ATOM     74  C   UNL A   1      42.422  24.149  27.368  1.00  0.00     0.023 A 
ATOM     75  C   UNL A   1      41.805  22.897  27.519  1.00  0.00     0.031 A 
ATOM     76  C   UNL A   1      43.164  24.379  26.195  1.00  0.00     0.131 A 
ATOM     77  C   UNL A   1      41.981  21.906  26.540  1.00  0.00     0.055 A 
ATOM     78  C   UNL A   1      43.286  23.411  25.195  1.00  0.00     0.041 A 
ATOM     79  F   UNL A   1      43.774  25.558  25.996  1.00  0.00    -0.206 F 
ATOM     80  C   UNL A   1      42.703  22.160  25.372  1.00  0.00     0.022 A 
BRANCH  77  81
ATOM     81  S   UNL A   1      41.328  20.244  26.861  1.00  0.00     0.124 S 
ATOM     82  O   UNL A   1      40.204  20.183  25.933  1.00  0.00    -0.237 OA
ATOM     83  O   UNL A   1      42.474  19.400  26.538  1.00  0.00    -0.237 OA
ATOM     84  O   UNL A   1      40.969  20.288  28.277  1.00  0.00    -0.744 OA
ENDBRANCH  77  81
ENDBRANCH  50  74
BRANCH  62  85
ATOM     85  C   UNL A   1      46.490  25.746  32.807  1.00  0.00     0.023 A 
ATOM     86  C   UNL A   1      46.448  24.720  33.767  1.00  0.00     0.031 A 
ATOM     87  C   UNL A   1      47.752  26.183  32.364  1.00  0.00     0.131 A 
ATOM     88  C   UNL A   1      47.644  24.209  34.296  1.00  0.00     0.055 A 
ATOM     89  C   UNL A   1      48.936  25.622  32.842  1.00  0.00     0.041 A 
ATOM     90  F   UNL A   1      47.855  27.164  31.451  1.00  0.00    -0.206 F 
ATOM     91  C   UNL A   1      48.886  24.637  33.825  1.00  0.00     0.022 A 
BRANCH  88  92
ATOM     92  S   UNL A   1      47.553  23.045  35.685  1.00  0.00     0.124 S 
ATOM     93  O   UNL A   1      48.919  22.536  35.743  1.00  0.00    -0.237 OA
ATOM     94  O   UNL A   1      47.146  23.907  36.790  1.00  0.00    -0.237 OA
ATOM     95  O   UNL A   1      46.548  22.075  35.255  1.00  0.00    -0.744 OA
ENDBRANCH  88  92
ENDBRANCH  62  85
ENDBRANCH  36  37
ENDBRANCH  28  31
ENDBRANCH  26  27
ENDBRANCH  25  26
ENDBRANCH  24  25
ENDBRANCH   1  24
TORSDOF 19
ENDMDL
