MODEL 1
REMARK VINA RESULT:     -12.8      0.000      0.000
REMARK SMILES Cc1ccc([N+](=O)[O-])c(NCc2ccc(C(=O)NCCCCNC(=O)c3ccc(-c4c5nc(c(-c6cc(S(=O)(=O)[O-])ccc6F)c6ccc([nH]6)c(-c6cc(S(=O)(=O)[O-])ccc6F)c6nc(c(-c7cc(S(=O)(=O)[O-])ccc7F)c7ccc4[nH]7)C=C6)C=C5)cc3)cc2)c1
REMARK SMILES IDX 20 1 19 2 18 3 16 4 17 5 15 7 12 8 13 9 90 10 14 11 89 12
REMARK SMILES IDX 11 13 10 14 9 16 1 17 2 18 3 19 91 20 4 21 5 22 6 23 7 24
REMARK SMILES IDX 8 25 21 26 22 27 23 28 24 29 25 31 26 32 27 33 88 34 28 35
REMARK SMILES IDX 87 36 29 37 30 38 31 39 81 40 32 41 86 42 80 43 82 44 33 45
REMARK SMILES IDX 85 46 79 47 78 48 34 50 66 51 46 52 65 53 47 54 50 55 64 56
REMARK SMILES IDX 83 57 48 58 49 59 63 61 84 62 51 63 35 64 36 65 44 66 37 67
REMARK SMILES IDX 43 68 45 69 42 70 38 71 39 72 40 73 41 74 67 75 68 76 76 77
REMARK SMILES IDX 69 78 75 79 77 80 74 81 70 82 71 83 72 84 73 85 52 86 53 87
REMARK SMILES IDX 61 88 54 89 60 90 62 91 59 92 55 93 56 94 57 95 58 96
REMARK H PARENT 18 6 10 15 23 30 82 49 50 60
REMARK Flexibility Score: inf
ROOT
ATOM      1  C   UNL A   1      32.191  30.073  26.329  1.00  0.00     0.023 C 
ENDROOT
BRANCH   1   2
ATOM      2  C   UNL A   1      32.731  29.600  24.968  1.00  0.00     0.116 C 
BRANCH   2   3
ATOM      3  N   UNL A   1      31.728  29.689  23.914  1.00  0.00    -0.352 N 
ATOM      4  C   UNL A   1      31.231  28.782  23.014  1.00  0.00     0.251 C 
ATOM      5  O   UNL A   1      30.310  29.171  22.288  1.00  0.00    -0.269 OA
ATOM      6  H   UNL A   1      31.326  30.584  23.830  1.00  0.00     0.163 HD
BRANCH   4   7
ATOM      7  C   UNL A   1      31.723  27.379  22.848  1.00  0.00     0.039 A 
ATOM      8  C   UNL A   1      32.429  24.634  22.511  1.00  0.00    -0.029 A 
ATOM      9  C   UNL A   1      31.215  24.997  23.113  1.00  0.00     0.006 A 
ATOM     10  C   UNL A   1      33.261  25.663  22.057  1.00  0.00     0.006 A 
ATOM     11  C   UNL A   1      30.870  26.346  23.277  1.00  0.00     0.014 A 
ATOM     12  C   UNL A   1      32.921  27.009  22.239  1.00  0.00     0.014 A 
BRANCH   8  13
ATOM     13  C   UNL A   1      32.741  23.165  22.282  1.00  0.00     0.149 C 
BRANCH  13  14
ATOM     14  N   UNL A   1      32.857  22.425  23.527  1.00  0.00    -0.375 N 
ATOM     15  H   UNL A   1      32.007  22.234  23.984  1.00  0.00     0.161 HD
BRANCH  14  16
ATOM     16  C   UNL A   1      33.989  21.951  24.161  1.00  0.00     0.114 A 
ATOM     17  C   UNL A   1      37.295  23.655  25.146  1.00  0.00     0.044 C 
ATOM     18  C   UNL A   1      36.244  22.597  24.972  1.00  0.00    -0.049 A 
ATOM     19  C   UNL A   1      36.461  21.308  25.452  1.00  0.00     0.010 A 
ATOM     20  C   UNL A   1      35.023  22.898  24.341  1.00  0.00     0.036 A 
ATOM     21  C   UNL A   1      35.485  20.334  25.271  1.00  0.00     0.088 A 
ATOM     22  C   UNL A   1      34.278  20.656  24.614  1.00  0.00     0.292 A 
BRANCH  22  23
ATOM     23  N   UNL A   1      33.329  19.568  24.522  1.00  0.00     0.064 N 
ATOM     24  O   UNL A   1      33.747  18.490  24.074  1.00  0.00    -0.258 OA
ATOM     25  O   UNL A   1      32.146  19.812  24.800  1.00  0.00    -0.258 OA
ENDBRANCH  22  23
ENDBRANCH  14  16
ENDBRANCH  13  14
ENDBRANCH   8  13
ENDBRANCH   4   7
ENDBRANCH   2   3
ENDBRANCH   1   2
BRANCH   1  26
ATOM     26  C   UNL A   1      33.071  31.093  27.057  1.00  0.00     0.023 C 
BRANCH  26  27
ATOM     27  C   UNL A   1      34.256  30.465  27.779  1.00  0.00     0.116 C 
BRANCH  27  28
ATOM     28  N   UNL A   1      34.981  31.341  28.689  1.00  0.00    -0.352 N 
ATOM     29  C   UNL A   1      36.078  31.036  29.483  1.00  0.00     0.251 C 
ATOM     30  H   UNL A   1      34.652  32.267  28.748  1.00  0.00     0.163 HD
ATOM     31  O   UNL A   1      36.502  31.821  30.317  1.00  0.00    -0.269 OA
BRANCH  29  32
ATOM     32  C   UNL A   1      36.822  29.779  29.209  1.00  0.00     0.039 A 
ATOM     33  C   UNL A   1      37.158  28.988  30.314  1.00  0.00     0.014 A 
ATOM     34  C   UNL A   1      37.408  29.542  27.969  1.00  0.00     0.014 A 
ATOM     35  C   UNL A   1      38.265  28.148  30.239  1.00  0.00     0.010 A 
ATOM     36  C   UNL A   1      38.565  28.786  27.919  1.00  0.00     0.010 A 
ATOM     37  C   UNL A   1      39.037  28.155  29.076  1.00  0.00    -0.014 A 
BRANCH  37  38
ATOM     38  C   UNL A   1      40.415  27.671  29.040  1.00  0.00     0.031 A 
ATOM     39  C   UNL A   1      40.719  26.281  28.645  1.00  0.00     0.074 A 
ATOM     40  C   UNL A   1      41.426  28.508  29.369  1.00  0.00     0.049 A 
ATOM     41  N   UNL A   1      41.811  25.665  28.950  1.00  0.00    -0.248 NA
ATOM     42  C   UNL A   1      39.759  25.429  27.951  1.00  0.00     0.031 C 
ATOM     43  C   UNL A   1      42.858  28.287  29.192  1.00  0.00     0.029 A 
ATOM     44  N   UNL A   1      41.349  29.630  30.190  1.00  0.00    -0.354 N 
ATOM     45  C   UNL A   1      41.830  24.472  28.268  1.00  0.00     0.074 A 
ATOM     46  C   UNL A   1      40.484  24.319  27.780  1.00  0.00     0.031 C 
ATOM     47  C   UNL A   1      43.527  29.046  30.074  1.00  0.00     0.029 A 
ATOM     48  C   UNL A   1      42.544  29.688  30.927  1.00  0.00     0.049 A 
ATOM     49  H   UNL A   1      40.596  30.264  30.246  1.00  0.00     0.167 HD
ATOM     50  C   UNL A   1      43.023  23.834  28.097  1.00  0.00     0.034 A 
ATOM     51  C   UNL A   1      42.533  29.644  32.290  1.00  0.00     0.034 A 
ATOM     52  C   UNL A   1      44.042  24.383  29.002  1.00  0.00     0.049 A 
ATOM     53  C   UNL A   1      43.262  28.448  32.860  1.00  0.00     0.074 A 
ATOM     54  C   UNL A   1      45.153  25.190  28.822  1.00  0.00     0.029 A 
ATOM     55  N   UNL A   1      43.830  24.316  30.380  1.00  0.00    -0.354 N 
ATOM     56  N   UNL A   1      43.640  27.414  32.158  1.00  0.00    -0.248 NA
ATOM     57  C   UNL A   1      43.612  28.319  34.271  1.00  0.00     0.031 C 
ATOM     58  C   UNL A   1      45.544  25.686  30.098  1.00  0.00     0.029 A 
ATOM     59  C   UNL A   1      44.704  25.145  31.059  1.00  0.00     0.049 A 
ATOM     60  H   UNL A   1      43.149  23.754  30.813  1.00  0.00     0.167 HD
ATOM     61  C   UNL A   1      44.224  26.483  32.980  1.00  0.00     0.074 A 
ATOM     62  C   UNL A   1      44.216  27.118  34.288  1.00  0.00     0.031 C 
ATOM     63  C   UNL A   1      44.642  25.265  32.515  1.00  0.00     0.034 A 
BRANCH  50  64
ATOM     64  C   UNL A   1      43.352  22.861  26.968  1.00  0.00     0.023 A 
ATOM     65  C   UNL A   1      42.763  21.574  26.982  1.00  0.00     0.031 A 
ATOM     66  C   UNL A   1      44.305  23.055  25.941  1.00  0.00     0.131 A 
ATOM     67  C   UNL A   1      43.141  20.572  26.060  1.00  0.00     0.055 A 
ATOM     68  C   UNL A   1      44.655  22.071  25.007  1.00  0.00     0.041 A 
ATOM     69  F   UNL A   1      44.990  24.189  25.787  1.00  0.00    -0.206 F 
ATOM     70  C   UNL A   1      44.083  20.818  25.067  1.00  0.00     0.022 A 
BRANCH  67  71
ATOM     71  S   UNL A   1      42.438  18.905  26.204  1.00  0.00     0.124 S 
ATOM     72  O   UNL A   1      43.316  18.125  25.338  1.00  0.00    -0.237 OA
ATOM     73  O   UNL A   1      42.540  18.648  27.635  1.00  0.00    -0.237 OA
ATOM     74  O   UNL A   1      41.072  19.068  25.704  1.00  0.00    -0.744 OA
ENDBRANCH  67  71
ENDBRANCH  50  64
BRANCH  51  75
ATOM     75  C   UNL A   1      41.347  30.328  32.883  1.00  0.00     0.023 A 
ATOM     76  C   UNL A   1      41.342  31.740  32.825  1.00  0.00     0.031 A 
ATOM     77  C   UNL A   1      40.128  29.676  33.097  1.00  0.00     0.131 A 
ATOM     78  C   UNL A   1      40.131  32.444  32.788  1.00  0.00     0.055 A 
ATOM     79  C   UNL A   1      38.923  30.393  33.143  1.00  0.00     0.041 A 
ATOM     80  F   UNL A   1      40.063  28.337  33.130  1.00  0.00    -0.206 F 
ATOM     81  C   UNL A   1      38.916  31.775  32.938  1.00  0.00     0.022 A 
BRANCH  78  82
ATOM     82  S   UNL A   1      40.157  34.182  32.248  1.00  0.00     0.124 S 
ATOM     83  O   UNL A   1      38.885  34.304  31.544  1.00  0.00    -0.237 OA
ATOM     84  O   UNL A   1      40.256  34.920  33.508  1.00  0.00    -0.237 OA
ATOM     85  O   UNL A   1      41.355  34.265  31.416  1.00  0.00    -0.744 OA
ENDBRANCH  78  82
ENDBRANCH  51  75
BRANCH  63  86
ATOM     86  C   UNL A   1      45.101  24.100  33.378  1.00  0.00     0.023 A 
ATOM     87  C   UNL A   1      46.372  24.021  33.969  1.00  0.00     0.031 A 
ATOM     88  C   UNL A   1      44.221  23.035  33.694  1.00  0.00     0.131 A 
ATOM     89  C   UNL A   1      46.761  22.902  34.731  1.00  0.00     0.055 A 
ATOM     90  C   UNL A   1      44.581  21.964  34.522  1.00  0.00     0.041 A 
ATOM     91  F   UNL A   1      42.968  22.989  33.220  1.00  0.00    -0.206 F 
ATOM     92  C   UNL A   1      45.866  21.881  35.030  1.00  0.00     0.022 A 
BRANCH  89  93
ATOM     93  S   UNL A   1      48.492  22.782  35.258  1.00  0.00     0.124 S 
ATOM     94  O   UNL A   1      49.099  22.073  34.134  1.00  0.00    -0.237 OA
ATOM     95  O   UNL A   1      48.874  24.183  35.401  1.00  0.00    -0.237 OA
ATOM     96  O   UNL A   1      48.423  22.025  36.505  1.00  0.00    -0.744 OA
ENDBRANCH  89  93
ENDBRANCH  63  86
ENDBRANCH  37  38
ENDBRANCH  29  32
ENDBRANCH  27  28
ENDBRANCH  26  27
ENDBRANCH   1  26
TORSDOF 18
ENDMDL
MODEL 2
REMARK VINA RESULT:     -12.2      1.917      2.293
REMARK SMILES Cc1ccc([N+](=O)[O-])c(NCc2ccc(C(=O)NCCCCNC(=O)c3ccc(-c4c5nc(c(-c6cc(S(=O)(=O)[O-])ccc6F)c6ccc([nH]6)c(-c6cc(S(=O)(=O)[O-])ccc6F)c6nc(c(-c7cc(S(=O)(=O)[O-])ccc7F)c7ccc4[nH]7)C=C6)C=C5)cc3)cc2)c1
REMARK SMILES IDX 20 1 19 2 18 3 16 4 17 5 15 7 12 8 13 9 90 10 14 11 89 12
REMARK SMILES IDX 11 13 10 14 9 16 1 17 2 18 3 19 91 20 4 21 5 22 6 23 7 24
REMARK SMILES IDX 8 25 21 26 22 27 23 28 24 29 25 31 26 32 27 33 88 34 28 35
REMARK SMILES IDX 87 36 29 37 30 38 31 39 81 40 32 41 86 42 80 43 82 44 33 45
REMARK SMILES IDX 85 46 79 47 78 48 34 50 66 51 46 52 65 53 47 54 50 55 64 56
REMARK SMILES IDX 83 57 48 58 49 59 63 61 84 62 51 63 35 64 36 65 44 66 37 67
REMARK SMILES IDX 43 68 45 69 42 70 38 71 39 72 40 73 41 74 67 75 68 76 76 77
REMARK SMILES IDX 69 78 75 79 77 80 74 81 70 82 71 83 72 84 73 85 52 86 53 87
REMARK SMILES IDX 61 88 54 89 60 90 62 91 59 92 55 93 56 94 57 95 58 96
REMARK H PARENT 18 6 10 15 23 30 82 49 50 60
REMARK Flexibility Score: inf
ROOT
ATOM      1  C   UNL A   1      31.707  29.979  26.447  1.00  0.00     0.023 C 
ENDROOT
BRANCH   1   2
ATOM      2  C   UNL A   1      32.088  29.778  24.970  1.00  0.00     0.116 C 
BRANCH   2   3
ATOM      3  N   UNL A   1      30.933  29.853  24.085  1.00  0.00    -0.352 N 
ATOM      4  C   UNL A   1      30.236  28.911  23.372  1.00  0.00     0.251 C 
ATOM      5  O   UNL A   1      29.235  29.306  22.766  1.00  0.00    -0.269 OA
ATOM      6  H   UNL A   1      30.581  30.766  23.976  1.00  0.00     0.163 HD
BRANCH   4   7
ATOM      7  C   UNL A   1      30.603  27.464  23.273  1.00  0.00     0.039 A 
ATOM      8  C   UNL A   1      31.082  24.652  23.179  1.00  0.00    -0.029 A 
ATOM      9  C   UNL A   1      30.252  25.208  24.163  1.00  0.00     0.006 A 
ATOM     10  C   UNL A   1      31.638  25.520  22.233  1.00  0.00     0.006 A 
ATOM     11  C   UNL A   1      30.017  26.591  24.207  1.00  0.00     0.014 A 
ATOM     12  C   UNL A   1      31.416  26.901  22.291  1.00  0.00     0.014 A 
BRANCH   8  13
ATOM     13  C   UNL A   1      31.259  23.145  23.113  1.00  0.00     0.149 C 
BRANCH  13  14
ATOM     14  N   UNL A   1      32.639  22.762  22.871  1.00  0.00    -0.375 N 
ATOM     15  H   UNL A   1      32.952  22.878  21.945  1.00  0.00     0.161 HD
BRANCH  14  16
ATOM     16  C   UNL A   1      33.575  22.258  23.752  1.00  0.00     0.114 A 
ATOM     17  C   UNL A   1      36.774  23.774  25.260  1.00  0.00     0.044 C 
ATOM     18  C   UNL A   1      35.681  22.792  24.953  1.00  0.00    -0.049 A 
ATOM     19  C   UNL A   1      35.677  21.537  25.557  1.00  0.00     0.010 A 
ATOM     20  C   UNL A   1      34.640  23.131  24.069  1.00  0.00     0.036 A 
ATOM     21  C   UNL A   1      34.666  20.631  25.253  1.00  0.00     0.088 A 
ATOM     22  C   UNL A   1      33.647  20.989  24.346  1.00  0.00     0.292 A 
BRANCH  22  23
ATOM     23  N   UNL A   1      32.634  19.975  24.142  1.00  0.00     0.064 N 
ATOM     24  O   UNL A   1      32.119  19.909  23.016  1.00  0.00    -0.258 OA
ATOM     25  O   UNL A   1      32.279  19.311  25.126  1.00  0.00    -0.258 OA
ENDBRANCH  22  23
ENDBRANCH  14  16
ENDBRANCH  13  14
ENDBRANCH   8  13
ENDBRANCH   4   7
ENDBRANCH   2   3
ENDBRANCH   1   2
BRANCH   1  26
ATOM     26  C   UNL A   1      32.477  31.087  27.172  1.00  0.00     0.023 C 
BRANCH  26  27
ATOM     27  C   UNL A   1      33.703  30.583  27.920  1.00  0.00     0.116 C 
BRANCH  27  28
ATOM     28  N   UNL A   1      34.489  31.599  28.607  1.00  0.00    -0.352 N 
ATOM     29  C   UNL A   1      35.713  31.453  29.245  1.00  0.00     0.251 C 
ATOM     30  H   UNL A   1      34.102  32.504  28.621  1.00  0.00     0.163 HD
ATOM     31  O   UNL A   1      36.197  32.352  29.914  1.00  0.00    -0.269 OA
BRANCH  29  32
ATOM     32  C   UNL A   1      36.501  30.219  28.988  1.00  0.00     0.039 A 
ATOM     33  C   UNL A   1      36.987  29.534  30.108  1.00  0.00     0.014 A 
ATOM     34  C   UNL A   1      36.979  29.918  27.716  1.00  0.00     0.014 A 
ATOM     35  C   UNL A   1      38.130  28.749  29.983  1.00  0.00     0.010 A 
ATOM     36  C   UNL A   1      38.168  29.221  27.605  1.00  0.00     0.010 A 
ATOM     37  C   UNL A   1      38.785  28.706  28.752  1.00  0.00    -0.014 A 
BRANCH  37  38
ATOM     38  C   UNL A   1      40.179  28.293  28.613  1.00  0.00     0.031 A 
ATOM     39  C   UNL A   1      40.534  26.869  28.451  1.00  0.00     0.074 A 
ATOM     40  C   UNL A   1      41.158  29.228  28.629  1.00  0.00     0.049 A 
ATOM     41  N   UNL A   1      41.701  26.381  28.708  1.00  0.00    -0.248 NA
ATOM     42  C   UNL A   1      39.561  25.850  28.075  1.00  0.00     0.031 C 
ATOM     43  C   UNL A   1      42.568  29.047  28.295  1.00  0.00     0.029 A 
ATOM     44  N   UNL A   1      41.103  30.486  29.224  1.00  0.00    -0.354 N 
ATOM     45  C   UNL A   1      41.722  25.079  28.271  1.00  0.00     0.074 A 
ATOM     46  C   UNL A   1      40.339  24.765  28.018  1.00  0.00     0.031 C 
ATOM     47  C   UNL A   1      43.285  29.999  28.913  1.00  0.00     0.029 A 
ATOM     48  C   UNL A   1      42.376  30.748  29.759  1.00  0.00     0.049 A 
ATOM     49  H   UNL A   1      40.318  31.080  29.264  1.00  0.00     0.167 HD
ATOM     50  C   UNL A   1      42.928  24.479  28.057  1.00  0.00     0.034 A 
ATOM     51  C   UNL A   1      42.545  30.976  31.093  1.00  0.00     0.034 A 
ATOM     52  C   UNL A   1      44.011  25.247  28.687  1.00  0.00     0.049 A 
ATOM     53  C   UNL A   1      43.431  29.955  31.770  1.00  0.00     0.074 A 
ATOM     54  C   UNL A   1      45.024  26.055  28.200  1.00  0.00     0.029 A 
ATOM     55  N   UNL A   1      43.985  25.445  30.068  1.00  0.00    -0.354 N 
ATOM     56  N   UNL A   1      43.792  28.821  31.232  1.00  0.00    -0.248 NA
ATOM     57  C   UNL A   1      43.969  30.126  33.116  1.00  0.00     0.031 C 
ATOM     58  C   UNL A   1      45.539  26.814  29.290  1.00  0.00     0.029 A 
ATOM     59  C   UNL A   1      44.874  26.434  30.445  1.00  0.00     0.049 A 
ATOM     60  H   UNL A   1      43.410  24.947  30.692  1.00  0.00     0.167 HD
ATOM     61  C   UNL A   1      44.547  28.103  32.125  1.00  0.00     0.074 A 
ATOM     62  C   UNL A   1      44.660  28.984  33.275  1.00  0.00     0.031 C 
ATOM     63  C   UNL A   1      44.993  26.838  31.846  1.00  0.00     0.034 A 
BRANCH  50  64
ATOM     64  C   UNL A   1      43.181  23.318  27.099  1.00  0.00     0.023 A 
ATOM     65  C   UNL A   1      42.449  22.118  27.271  1.00  0.00     0.031 A 
ATOM     66  C   UNL A   1      44.182  23.253  26.101  1.00  0.00     0.131 A 
ATOM     67  C   UNL A   1      42.741  20.954  26.524  1.00  0.00     0.055 A 
ATOM     68  C   UNL A   1      44.448  22.108  25.339  1.00  0.00     0.041 A 
ATOM     69  F   UNL A   1      44.995  24.271  25.817  1.00  0.00    -0.206 F 
ATOM     70  C   UNL A   1      43.736  20.947  25.552  1.00  0.00     0.022 A 
BRANCH  67  71
ATOM     71  S   UNL A   1      41.850  19.413  26.875  1.00  0.00     0.124 S 
ATOM     72  O   UNL A   1      41.008  19.795  28.004  1.00  0.00    -0.237 OA
ATOM     73  O   UNL A   1      41.167  19.155  25.614  1.00  0.00    -0.237 OA
ATOM     74  O   UNL A   1      42.920  18.469  27.201  1.00  0.00    -0.744 OA
ENDBRANCH  67  71
ENDBRANCH  50  64
BRANCH  51  75
ATOM     75  C   UNL A   1      41.398  31.705  31.707  1.00  0.00     0.023 A 
ATOM     76  C   UNL A   1      40.462  30.921  32.418  1.00  0.00     0.031 A 
ATOM     77  C   UNL A   1      41.425  33.081  31.958  1.00  0.00     0.131 A 
ATOM     78  C   UNL A   1      39.728  31.477  33.474  1.00  0.00     0.055 A 
ATOM     79  C   UNL A   1      40.627  33.650  32.962  1.00  0.00     0.041 A 
ATOM     80  F   UNL A   1      42.313  33.874  31.339  1.00  0.00    -0.206 F 
ATOM     81  C   UNL A   1      39.812  32.840  33.758  1.00  0.00     0.022 A 
BRANCH  78  82
ATOM     82  S   UNL A   1      38.904  30.350  34.642  1.00  0.00     0.124 S 
ATOM     83  O   UNL A   1      38.138  29.488  33.750  1.00  0.00    -0.237 OA
ATOM     84  O   UNL A   1      40.025  29.709  35.332  1.00  0.00    -0.237 OA
ATOM     85  O   UNL A   1      38.121  31.246  35.489  1.00  0.00    -0.744 OA
ENDBRANCH  78  82
ENDBRANCH  51  75
BRANCH  63  86
ATOM     86  C   UNL A   1      45.647  25.893  32.841  1.00  0.00     0.023 A 
ATOM     87  C   UNL A   1      44.934  24.988  33.642  1.00  0.00     0.031 A 
ATOM     88  C   UNL A   1      47.057  25.829  32.967  1.00  0.00     0.131 A 
ATOM     89  C   UNL A   1      45.585  24.159  34.575  1.00  0.00     0.055 A 
ATOM     90  C   UNL A   1      47.709  24.943  33.834  1.00  0.00     0.041 A 
ATOM     91  F   UNL A   1      47.868  26.617  32.247  1.00  0.00    -0.206 F 
ATOM     92  C   UNL A   1      46.972  24.114  34.662  1.00  0.00     0.022 A 
BRANCH  89  93
ATOM     93  S   UNL A   1      44.567  23.195  35.725  1.00  0.00     0.124 S 
ATOM     94  O   UNL A   1      43.851  22.302  34.817  1.00  0.00    -0.237 OA
ATOM     95  O   UNL A   1      45.569  22.560  36.575  1.00  0.00    -0.237 OA
ATOM     96  O   UNL A   1      43.740  24.202  36.385  1.00  0.00    -0.744 OA
ENDBRANCH  89  93
ENDBRANCH  63  86
ENDBRANCH  37  38
ENDBRANCH  29  32
ENDBRANCH  27  28
ENDBRANCH  26  27
ENDBRANCH   1  26
TORSDOF 18
ENDMDL
MODEL 3
REMARK VINA RESULT:     -12.2      2.824      3.909
REMARK SMILES Cc1ccc([N+](=O)[O-])c(NCc2ccc(C(=O)NCCCCNC(=O)c3ccc(-c4c5nc(c(-c6cc(S(=O)(=O)[O-])ccc6F)c6ccc([nH]6)c(-c6cc(S(=O)(=O)[O-])ccc6F)c6nc(c(-c7cc(S(=O)(=O)[O-])ccc7F)c7ccc4[nH]7)C=C6)C=C5)cc3)cc2)c1
REMARK SMILES IDX 20 1 19 2 18 3 16 4 17 5 15 7 12 8 13 9 90 10 14 11 89 12
REMARK SMILES IDX 11 13 10 14 9 16 1 17 2 18 3 19 91 20 4 21 5 22 6 23 7 24
REMARK SMILES IDX 8 25 21 26 22 27 23 28 24 29 25 31 26 32 27 33 88 34 28 35
REMARK SMILES IDX 87 36 29 37 30 38 31 39 81 40 32 41 86 42 80 43 82 44 33 45
REMARK SMILES IDX 85 46 79 47 78 48 34 50 66 51 46 52 65 53 47 54 50 55 64 56
REMARK SMILES IDX 83 57 48 58 49 59 63 61 84 62 51 63 35 64 36 65 44 66 37 67
REMARK SMILES IDX 43 68 45 69 42 70 38 71 39 72 40 73 41 74 67 75 68 76 76 77
REMARK SMILES IDX 69 78 75 79 77 80 74 81 70 82 71 83 72 84 73 85 52 86 53 87
REMARK SMILES IDX 61 88 54 89 60 90 62 91 59 92 55 93 56 94 57 95 58 96
REMARK H PARENT 18 6 10 15 23 30 82 49 50 60
REMARK Flexibility Score: inf
ROOT
ATOM      1  C   UNL A   1      34.092  29.346  26.886  1.00  0.00     0.023 C 
ENDROOT
BRANCH   1   2
ATOM      2  C   UNL A   1      32.569  29.183  27.032  1.00  0.00     0.116 C 
BRANCH   2   3
ATOM      3  N   UNL A   1      31.844  29.697  25.877  1.00  0.00    -0.352 N 
ATOM      4  C   UNL A   1      31.273  29.096  24.784  1.00  0.00     0.251 C 
ATOM      5  O   UNL A   1      30.654  29.832  24.009  1.00  0.00    -0.269 OA
ATOM      6  H   UNL A   1      31.744  30.677  25.881  1.00  0.00     0.163 HD
BRANCH   4   7
ATOM      7  C   UNL A   1      31.355  27.636  24.468  1.00  0.00     0.039 A 
ATOM      8  C   UNL A   1      31.265  24.847  23.869  1.00  0.00    -0.029 A 
ATOM      9  C   UNL A   1      30.263  25.450  24.642  1.00  0.00     0.006 A 
ATOM     10  C   UNL A   1      32.288  25.666  23.379  1.00  0.00     0.006 A 
ATOM     11  C   UNL A   1      30.308  26.821  24.935  1.00  0.00     0.014 A 
ATOM     12  C   UNL A   1      32.339  27.031  23.689  1.00  0.00     0.014 A 
BRANCH   8  13
ATOM     13  C   UNL A   1      31.149  23.376  23.509  1.00  0.00     0.149 C 
BRANCH  13  14
ATOM     14  N   UNL A   1      31.879  22.523  24.431  1.00  0.00    -0.375 N 
ATOM     15  H   UNL A   1      31.415  21.696  24.697  1.00  0.00     0.161 HD
BRANCH  14  16
ATOM     16  C   UNL A   1      33.129  22.704  24.988  1.00  0.00     0.114 A 
ATOM     17  C   UNL A   1      36.649  22.818  23.439  1.00  0.00     0.044 C 
ATOM     18  C   UNL A   1      35.551  22.845  24.461  1.00  0.00    -0.049 A 
ATOM     19  C   UNL A   1      35.849  23.061  25.805  1.00  0.00     0.010 A 
ATOM     20  C   UNL A   1      34.208  22.673  24.077  1.00  0.00     0.036 A 
ATOM     21  C   UNL A   1      34.824  23.070  26.744  1.00  0.00     0.088 A 
ATOM     22  C   UNL A   1      33.488  22.871  26.334  1.00  0.00     0.292 A 
BRANCH  22  23
ATOM     23  N   UNL A   1      32.510  22.940  27.398  1.00  0.00     0.064 N 
ATOM     24  O   UNL A   1      32.690  22.203  28.379  1.00  0.00    -0.258 OA
ATOM     25  O   UNL A   1      31.512  23.651  27.217  1.00  0.00    -0.258 OA
ENDBRANCH  22  23
ENDBRANCH  14  16
ENDBRANCH  13  14
ENDBRANCH   8  13
ENDBRANCH   4   7
ENDBRANCH   2   3
ENDBRANCH   1   2
BRANCH   1  26
ATOM     26  C   UNL A   1      34.771  30.141  28.005  1.00  0.00     0.023 C 
BRANCH  26  27
ATOM     27  C   UNL A   1      35.073  31.584  27.626  1.00  0.00     0.116 C 
BRANCH  27  28
ATOM     28  N   UNL A   1      34.197  32.590  28.210  1.00  0.00    -0.352 N 
ATOM     29  C   UNL A   1      34.392  33.331  29.367  1.00  0.00     0.251 C 
ATOM     30  H   UNL A   1      33.361  32.767  27.721  1.00  0.00     0.163 HD
ATOM     31  O   UNL A   1      33.510  34.037  29.831  1.00  0.00    -0.269 OA
BRANCH  29  32
ATOM     32  C   UNL A   1      35.751  33.359  29.969  1.00  0.00     0.039 A 
ATOM     33  C   UNL A   1      36.761  33.975  29.221  1.00  0.00     0.014 A 
ATOM     34  C   UNL A   1      36.071  32.567  31.068  1.00  0.00     0.014 A 
ATOM     35  C   UNL A   1      38.084  33.584  29.411  1.00  0.00     0.010 A 
ATOM     36  C   UNL A   1      37.368  32.104  31.193  1.00  0.00     0.010 A 
ATOM     37  C   UNL A   1      38.358  32.553  30.310  1.00  0.00    -0.014 A 
BRANCH  37  38
ATOM     38  C   UNL A   1      39.598  31.783  30.274  1.00  0.00     0.031 A 
ATOM     39  C   UNL A   1      39.634  30.434  29.675  1.00  0.00     0.074 A 
ATOM     40  C   UNL A   1      40.730  32.314  30.792  1.00  0.00     0.049 A 
ATOM     41  N   UNL A   1      40.538  29.551  29.937  1.00  0.00    -0.248 NA
ATOM     42  C   UNL A   1      38.583  29.930  28.798  1.00  0.00     0.031 C 
ATOM     43  C   UNL A   1      42.093  31.806  30.663  1.00  0.00     0.029 A 
ATOM     44  N   UNL A   1      40.818  33.292  31.780  1.00  0.00    -0.354 N 
ATOM     45  C   UNL A   1      40.365  28.497  29.072  1.00  0.00     0.074 A 
ATOM     46  C   UNL A   1      39.067  28.723  28.490  1.00  0.00     0.031 C 
ATOM     47  C   UNL A   1      42.824  32.258  31.694  1.00  0.00     0.029 A 
ATOM     48  C   UNL A   1      41.927  32.971  32.583  1.00  0.00     0.049 A 
ATOM     49  H   UNL A   1      40.216  34.063  31.895  1.00  0.00     0.167 HD
ATOM     50  C   UNL A   1      41.406  27.639  28.867  1.00  0.00     0.034 A 
ATOM     51  C   UNL A   1      41.782  32.731  33.918  1.00  0.00     0.034 A 
ATOM     52  C   UNL A   1      42.431  27.807  29.906  1.00  0.00     0.049 A 
ATOM     53  C   UNL A   1      42.185  31.332  34.325  1.00  0.00     0.074 A 
ATOM     54  C   UNL A   1      43.700  28.361  29.923  1.00  0.00     0.029 A 
ATOM     55  N   UNL A   1      42.085  27.588  31.240  1.00  0.00    -0.354 N 
ATOM     56  N   UNL A   1      42.396  30.353  33.486  1.00  0.00    -0.248 NA
ATOM     57  C   UNL A   1      42.368  30.922  35.714  1.00  0.00     0.031 C 
ATOM     58  C   UNL A   1      44.069  28.564  31.284  1.00  0.00     0.029 A 
ATOM     59  C   UNL A   1      43.049  28.090  32.094  1.00  0.00     0.049 A 
ATOM     60  H   UNL A   1      41.262  27.135  31.536  1.00  0.00     0.167 HD
ATOM     61  C   UNL A   1      42.691  29.205  34.177  1.00  0.00     0.074 A 
ATOM     62  C   UNL A   1      42.699  29.627  35.568  1.00  0.00     0.031 C 
ATOM     63  C   UNL A   1      42.881  28.006  33.544  1.00  0.00     0.034 A 
BRANCH  50  64
ATOM     64  C   UNL A   1      41.622  26.794  27.615  1.00  0.00     0.023 A 
ATOM     65  C   UNL A   1      41.684  25.385  27.744  1.00  0.00     0.031 A 
ATOM     66  C   UNL A   1      41.901  27.273  26.314  1.00  0.00     0.131 A 
ATOM     67  C   UNL A   1      42.036  24.553  26.657  1.00  0.00     0.055 A 
ATOM     68  C   UNL A   1      42.218  26.444  25.230  1.00  0.00     0.041 A 
ATOM     69  F   UNL A   1      41.923  28.571  26.003  1.00  0.00    -0.206 F 
ATOM     70  C   UNL A   1      42.298  25.078  25.397  1.00  0.00     0.022 A 
BRANCH  67  71
ATOM     71  S   UNL A   1      42.217  22.765  26.915  1.00  0.00     0.124 S 
ATOM     72  O   UNL A   1      42.655  22.699  28.306  1.00  0.00    -0.237 OA
ATOM     73  O   UNL A   1      40.875  22.273  26.632  1.00  0.00    -0.237 OA
ATOM     74  O   UNL A   1      43.234  22.383  25.935  1.00  0.00    -0.744 OA
ENDBRANCH  67  71
ENDBRANCH  50  64
BRANCH  51  75
ATOM     75  C   UNL A   1      40.720  33.569  34.546  1.00  0.00     0.023 A 
ATOM     76  C   UNL A   1      39.639  32.877  35.137  1.00  0.00     0.031 A 
ATOM     77  C   UNL A   1      40.934  34.899  34.927  1.00  0.00     0.131 A 
ATOM     78  C   UNL A   1      38.934  33.444  36.207  1.00  0.00     0.055 A 
ATOM     79  C   UNL A   1      40.171  35.492  35.944  1.00  0.00     0.041 A 
ATOM     80  F   UNL A   1      41.963  35.599  34.426  1.00  0.00    -0.206 F 
ATOM     81  C   UNL A   1      39.200  34.749  36.622  1.00  0.00     0.022 A 
BRANCH  78  82
ATOM     82  S   UNL A   1      37.888  32.357  37.225  1.00  0.00     0.124 S 
ATOM     83  O   UNL A   1      38.659  32.254  38.458  1.00  0.00    -0.237 OA
ATOM     84  O   UNL A   1      36.632  33.103  37.325  1.00  0.00    -0.237 OA
ATOM     85  O   UNL A   1      37.790  31.134  36.433  1.00  0.00    -0.744 OA
ENDBRANCH  78  82
ENDBRANCH  51  75
BRANCH  63  86
ATOM     86  C   UNL A   1      43.001  26.654  34.230  1.00  0.00     0.023 A 
ATOM     87  C   UNL A   1      44.181  25.895  34.257  1.00  0.00     0.031 A 
ATOM     88  C   UNL A   1      41.914  26.105  34.955  1.00  0.00     0.131 A 
ATOM     89  C   UNL A   1      44.230  24.631  34.876  1.00  0.00     0.055 A 
ATOM     90  C   UNL A   1      41.989  24.888  35.643  1.00  0.00     0.041 A 
ATOM     91  F   UNL A   1      40.731  26.731  35.038  1.00  0.00    -0.206 F 
ATOM     92  C   UNL A   1      43.146  24.130  35.589  1.00  0.00     0.022 A 
BRANCH  89  93
ATOM     93  S   UNL A   1      45.723  23.626  34.660  1.00  0.00     0.124 S 
ATOM     94  O   UNL A   1      45.176  22.389  34.109  1.00  0.00    -0.237 OA
ATOM     95  O   UNL A   1      46.514  24.433  33.736  1.00  0.00    -0.237 OA
ATOM     96  O   UNL A   1      46.267  23.517  36.011  1.00  0.00    -0.744 OA
ENDBRANCH  89  93
ENDBRANCH  63  86
ENDBRANCH  37  38
ENDBRANCH  29  32
ENDBRANCH  27  28
ENDBRANCH  26  27
ENDBRANCH   1  26
TORSDOF 18
ENDMDL
