MODEL 1
REMARK VINA RESULT:     -10.4      0.000      0.000
REMARK SMILES CCCCC[NH2+][C@](C)(C(=O)NCCCCNC(=O)c1ccc(-c2c3nc(c(-c4cc(S(=O)(=O)[O-])ccc4F)c4ccc([nH]4)c(-c4cc(S(=O)(=O)[O-])ccc4F)c4nc(c(-c5cc(S(=O)(=O)[O-])ccc5F)c5ccc2[nH]5)C=C4)C=C3)cc1)C(F)(F)F
REMARK SMILES IDX 12 1 11 2 9 3 10 4 7 6 8 7 6 8 5 11 4 12 3 13 2 14 1 15
REMARK SMILES IDX 82 16 83 17 84 18 85 19 13 20 14 21 15 22 16 23 17 24 18 26
REMARK SMILES IDX 19 27 20 28 81 29 21 30 80 31 22 32 23 33 24 34 74 35 25 36
REMARK SMILES IDX 79 37 73 38 75 39 26 40 78 41 72 42 71 43 27 45 59 46 39 47
REMARK SMILES IDX 58 48 40 49 43 50 57 51 76 52 41 53 42 54 56 56 77 57 44 58
REMARK SMILES IDX 28 59 29 60 37 61 30 62 36 63 38 64 35 65 31 66 32 67 33 68
REMARK SMILES IDX 34 69 60 70 61 71 69 72 62 73 68 74 70 75 67 76 63 77 64 78
REMARK SMILES IDX 65 79 66 80 45 81 46 82 54 83 47 84 53 85 55 86 52 87 48 88
REMARK SMILES IDX 49 89 50 90 51 91
REMARK H PARENT 11 5 6 9 6 10 16 25 75 44 43 55
REMARK Flexibility Score: inf
ROOT
ATOM      1  C   UNL A   1      34.936  23.691  23.398  1.00  0.00     0.116 C 
ENDROOT
BRANCH   1   2
ATOM      2  N   UNL A   1      34.405  24.455  24.516  1.00  0.00    -0.350 N 
ATOM      3  C   UNL A   1      33.363  24.182  25.368  1.00  0.00     0.290 C 
ATOM      4  O   UNL A   1      33.197  24.976  26.298  1.00  0.00    -0.267 OA
ATOM      5  H   UNL A   1      34.869  25.305  24.690  1.00  0.00     0.163 HD
BRANCH   3   6
ATOM      6  C   UNL A   1      32.432  22.966  25.137  1.00  0.00     0.268 C 
ATOM      7  C   UNL A   1      31.694  23.173  23.798  1.00  0.00     0.101 C 
BRANCH   6   8
ATOM      8  N   UNL A   1      33.287  21.724  25.216  1.00  0.00    -0.326 N 
ATOM      9  H   UNL A   1      34.263  22.012  25.142  1.00  0.00     0.347 HD
ATOM     10  H   UNL A   1      33.049  21.283  26.104  1.00  0.00     0.347 HD
BRANCH   8  11
ATOM     11  C   UNL A   1      33.043  20.714  24.197  1.00  0.00     0.261 C 
BRANCH  11  12
ATOM     12  C   UNL A   1      32.628  19.387  24.842  1.00  0.00     0.061 C 
BRANCH  12  13
ATOM     13  C   UNL A   1      32.826  18.149  23.961  1.00  0.00     0.006 C 
BRANCH  13  14
ATOM     14  C   UNL A   1      34.255  17.598  23.926  1.00  0.00    -0.003 C 
ATOM     15  C   UNL A   1      34.422  16.289  24.684  1.00  0.00     0.004 C 
ENDBRANCH  13  14
ENDBRANCH  12  13
ENDBRANCH  11  12
ENDBRANCH   8  11
ENDBRANCH   6   8
BRANCH   6  16
ATOM     16  C   UNL A   1      31.360  23.001  26.262  1.00  0.00     0.453 C 
ATOM     17  F   UNL A   1      30.684  24.167  26.336  1.00  0.00    -0.164 F 
ATOM     18  F   UNL A   1      30.423  22.035  26.031  1.00  0.00    -0.164 F 
ATOM     19  F   UNL A   1      31.882  22.721  27.479  1.00  0.00    -0.164 F 
ENDBRANCH   6  16
ENDBRANCH   3   6
ENDBRANCH   1   2
BRANCH   1  20
ATOM     20  C   UNL A   1      36.416  23.365  23.565  1.00  0.00     0.023 C 
BRANCH  20  21
ATOM     21  C   UNL A   1      36.714  21.918  23.945  1.00  0.00     0.023 C 
BRANCH  21  22
ATOM     22  C   UNL A   1      37.088  21.690  25.406  1.00  0.00     0.116 C 
BRANCH  22  23
ATOM     23  N   UNL A   1      38.068  20.629  25.594  1.00  0.00    -0.352 N 
ATOM     24  C   UNL A   1      39.339  20.718  26.110  1.00  0.00     0.251 C 
ATOM     25  H   UNL A   1      37.781  19.728  25.317  1.00  0.00     0.163 HD
ATOM     26  O   UNL A   1      40.079  19.737  26.101  1.00  0.00    -0.269 OA
BRANCH  24  27
ATOM     27  C   UNL A   1      39.816  22.018  26.628  1.00  0.00     0.039 A 
ATOM     28  C   UNL A   1      40.841  22.034  27.576  1.00  0.00     0.014 A 
ATOM     29  C   UNL A   1      39.293  23.213  26.128  1.00  0.00     0.014 A 
ATOM     30  C   UNL A   1      41.404  23.254  27.958  1.00  0.00     0.010 A 
ATOM     31  C   UNL A   1      39.902  24.420  26.456  1.00  0.00     0.010 A 
ATOM     32  C   UNL A   1      40.970  24.451  27.367  1.00  0.00    -0.014 A 
BRANCH  32  33
ATOM     33  C   UNL A   1      41.623  25.749  27.675  1.00  0.00     0.031 A 
ATOM     34  C   UNL A   1      40.873  26.802  28.443  1.00  0.00     0.074 A 
ATOM     35  C   UNL A   1      42.854  26.010  27.192  1.00  0.00     0.049 A 
ATOM     36  N   UNL A   1      41.219  28.033  28.717  1.00  0.00    -0.248 NA
ATOM     37  C   UNL A   1      39.542  26.424  28.939  1.00  0.00     0.031 C 
ATOM     38  C   UNL A   1      43.666  25.083  26.398  1.00  0.00     0.029 A 
ATOM     39  N   UNL A   1      43.634  27.135  27.286  1.00  0.00    -0.354 N 
ATOM     40  C   UNL A   1      40.143  28.584  29.404  1.00  0.00     0.074 A 
ATOM     41  C   UNL A   1      39.111  27.568  29.446  1.00  0.00     0.031 C 
ATOM     42  C   UNL A   1      44.835  25.671  26.097  1.00  0.00     0.029 A 
ATOM     43  C   UNL A   1      44.841  27.027  26.634  1.00  0.00     0.049 A 
ATOM     44  H   UNL A   1      43.356  27.943  27.774  1.00  0.00     0.167 HD
ATOM     45  C   UNL A   1      40.035  29.813  29.968  1.00  0.00     0.034 A 
ATOM     46  C   UNL A   1      45.834  27.925  26.477  1.00  0.00     0.034 A 
ATOM     47  C   UNL A   1      41.077  30.809  29.926  1.00  0.00     0.049 A 
ATOM     48  C   UNL A   1      45.683  29.293  27.090  1.00  0.00     0.074 A 
ATOM     49  C   UNL A   1      41.095  32.066  30.505  1.00  0.00     0.029 A 
ATOM     50  N   UNL A   1      42.288  30.662  29.260  1.00  0.00    -0.354 N 
ATOM     51  N   UNL A   1      44.675  29.786  27.772  1.00  0.00    -0.248 NA
ATOM     52  C   UNL A   1      46.807  30.223  26.917  1.00  0.00     0.031 C 
ATOM     53  C   UNL A   1      42.291  32.699  30.142  1.00  0.00     0.029 A 
ATOM     54  C   UNL A   1      43.049  31.815  29.393  1.00  0.00     0.049 A 
ATOM     55  H   UNL A   1      42.567  29.857  28.767  1.00  0.00     0.167 HD
ATOM     56  C   UNL A   1      45.057  31.074  28.134  1.00  0.00     0.074 A 
ATOM     57  C   UNL A   1      46.390  31.277  27.603  1.00  0.00     0.031 C 
ATOM     58  C   UNL A   1      44.371  32.003  28.847  1.00  0.00     0.034 A 
BRANCH  45  59
ATOM     59  C   UNL A   1      38.730  30.141  30.654  1.00  0.00     0.023 A 
ATOM     60  C   UNL A   1      37.684  30.788  29.973  1.00  0.00     0.031 A 
ATOM     61  C   UNL A   1      38.546  29.850  32.017  1.00  0.00     0.131 A 
ATOM     62  C   UNL A   1      36.542  31.202  30.673  1.00  0.00     0.055 A 
ATOM     63  C   UNL A   1      37.368  30.188  32.688  1.00  0.00     0.041 A 
ATOM     64  F   UNL A   1      39.516  29.252  32.727  1.00  0.00    -0.206 F 
ATOM     65  C   UNL A   1      36.365  30.885  32.022  1.00  0.00     0.022 A 
BRANCH  62  66
ATOM     66  S   UNL A   1      35.365  32.299  29.834  1.00  0.00     0.124 S 
ATOM     67  O   UNL A   1      34.409  32.578  30.903  1.00  0.00    -0.237 OA
ATOM     68  O   UNL A   1      36.211  33.414  29.425  1.00  0.00    -0.237 OA
ATOM     69  O   UNL A   1      34.847  31.475  28.743  1.00  0.00    -0.744 OA
ENDBRANCH  62  66
ENDBRANCH  45  59
BRANCH  46  70
ATOM     70  C   UNL A   1      47.058  27.570  25.705  1.00  0.00     0.023 A 
ATOM     71  C   UNL A   1      47.167  27.890  24.343  1.00  0.00     0.031 A 
ATOM     72  C   UNL A   1      48.121  26.875  26.309  1.00  0.00     0.131 A 
ATOM     73  C   UNL A   1      48.295  27.479  23.617  1.00  0.00     0.055 A 
ATOM     74  C   UNL A   1      49.262  26.509  25.592  1.00  0.00     0.041 A 
ATOM     75  F   UNL A   1      48.069  26.554  27.612  1.00  0.00    -0.206 F 
ATOM     76  C   UNL A   1      49.348  26.800  24.235  1.00  0.00     0.022 A 
BRANCH  73  77
ATOM     77  S   UNL A   1      48.336  27.785  21.830  1.00  0.00     0.124 S 
ATOM     78  O   UNL A   1      48.648  26.459  21.308  1.00  0.00    -0.237 OA
ATOM     79  O   UNL A   1      46.985  28.272  21.576  1.00  0.00    -0.237 OA
ATOM     80  O   UNL A   1      49.394  28.781  21.678  1.00  0.00    -0.744 OA
ENDBRANCH  73  77
ENDBRANCH  46  70
BRANCH  58  81
ATOM     81  C   UNL A   1      45.080  33.305  29.128  1.00  0.00     0.023 A 
ATOM     82  C   UNL A   1      44.949  34.417  28.280  1.00  0.00     0.031 A 
ATOM     83  C   UNL A   1      45.909  33.425  30.258  1.00  0.00     0.131 A 
ATOM     84  C   UNL A   1      45.676  35.588  28.547  1.00  0.00     0.055 A 
ATOM     85  C   UNL A   1      46.587  34.609  30.548  1.00  0.00     0.041 A 
ATOM     86  F   UNL A   1      46.070  32.391  31.100  1.00  0.00    -0.206 F 
ATOM     87  C   UNL A   1      46.482  35.694  29.684  1.00  0.00     0.022 A 
BRANCH  84  88
ATOM     88  S   UNL A   1      45.615  36.946  27.347  1.00  0.00     0.124 S 
ATOM     89  O   UNL A   1      46.098  38.073  28.138  1.00  0.00    -0.237 OA
ATOM     90  O   UNL A   1      46.512  36.475  26.295  1.00  0.00    -0.237 OA
ATOM     91  O   UNL A   1      44.204  37.010  26.972  1.00  0.00    -0.744 OA
ENDBRANCH  84  88
ENDBRANCH  58  81
ENDBRANCH  32  33
ENDBRANCH  24  27
ENDBRANCH  22  23
ENDBRANCH  21  22
ENDBRANCH  20  21
ENDBRANCH   1  20
TORSDOF 20
ENDMDL
MODEL 2
REMARK VINA RESULT:     -10.3      5.257     10.328
REMARK SMILES CCCCC[NH2+][C@](C)(C(=O)NCCCCNC(=O)c1ccc(-c2c3nc(c(-c4cc(S(=O)(=O)[O-])ccc4F)c4ccc([nH]4)c(-c4cc(S(=O)(=O)[O-])ccc4F)c4nc(c(-c5cc(S(=O)(=O)[O-])ccc5F)c5ccc2[nH]5)C=C4)C=C3)cc1)C(F)(F)F
REMARK SMILES IDX 12 1 11 2 9 3 10 4 7 6 8 7 6 8 5 11 4 12 3 13 2 14 1 15
REMARK SMILES IDX 82 16 83 17 84 18 85 19 13 20 14 21 15 22 16 23 17 24 18 26
REMARK SMILES IDX 19 27 20 28 81 29 21 30 80 31 22 32 23 33 24 34 74 35 25 36
REMARK SMILES IDX 79 37 73 38 75 39 26 40 78 41 72 42 71 43 27 45 59 46 39 47
REMARK SMILES IDX 58 48 40 49 43 50 57 51 76 52 41 53 42 54 56 56 77 57 44 58
REMARK SMILES IDX 28 59 29 60 37 61 30 62 36 63 38 64 35 65 31 66 32 67 33 68
REMARK SMILES IDX 34 69 60 70 61 71 69 72 62 73 68 74 70 75 67 76 63 77 64 78
REMARK SMILES IDX 65 79 66 80 45 81 46 82 54 83 47 84 53 85 55 86 52 87 48 88
REMARK SMILES IDX 49 89 50 90 51 91
REMARK H PARENT 11 5 6 9 6 10 16 25 75 44 43 55
REMARK Flexibility Score: inf
ROOT
ATOM      1  C   UNL A   1      32.140  26.652  26.116  1.00  0.00     0.116 C 
ENDROOT
BRANCH   1   2
ATOM      2  N   UNL A   1      31.365  25.562  26.686  1.00  0.00    -0.350 N 
ATOM      3  C   UNL A   1      31.530  24.203  26.587  1.00  0.00     0.290 C 
ATOM      4  O   UNL A   1      30.768  23.510  27.265  1.00  0.00    -0.267 OA
ATOM      5  H   UNL A   1      30.598  25.846  27.234  1.00  0.00     0.163 HD
BRANCH   3   6
ATOM      6  C   UNL A   1      32.591  23.589  25.639  1.00  0.00     0.268 C 
ATOM      7  C   UNL A   1      33.838  24.497  25.662  1.00  0.00     0.101 C 
BRANCH   6   8
ATOM      8  N   UNL A   1      32.821  22.165  26.086  1.00  0.00    -0.326 N 
ATOM      9  H   UNL A   1      32.316  22.028  26.962  1.00  0.00     0.347 HD
ATOM     10  H   UNL A   1      32.493  21.580  25.318  1.00  0.00     0.347 HD
BRANCH   8  11
ATOM     11  C   UNL A   1      34.208  21.782  26.308  1.00  0.00     0.261 C 
BRANCH  11  12
ATOM     12  C   UNL A   1      34.766  21.044  25.086  1.00  0.00     0.061 C 
BRANCH  12  13
ATOM     13  C   UNL A   1      36.294  21.000  24.999  1.00  0.00     0.006 C 
BRANCH  13  14
ATOM     14  C   UNL A   1      36.957  22.299  24.532  1.00  0.00    -0.003 C 
ATOM     15  C   UNL A   1      36.332  22.885  23.274  1.00  0.00     0.004 C 
ENDBRANCH  13  14
ENDBRANCH  12  13
ENDBRANCH  11  12
ENDBRANCH   8  11
ENDBRANCH   6   8
BRANCH   6  16
ATOM     16  C   UNL A   1      32.002  23.654  24.202  1.00  0.00     0.453 C 
ATOM     17  F   UNL A   1      32.518  22.737  23.357  1.00  0.00    -0.164 F 
ATOM     18  F   UNL A   1      30.659  23.412  24.247  1.00  0.00    -0.164 F 
ATOM     19  F   UNL A   1      32.134  24.882  23.647  1.00  0.00    -0.164 F 
ENDBRANCH   6  16
ENDBRANCH   3   6
ENDBRANCH   1   2
BRANCH   1  20
ATOM     20  C   UNL A   1      32.321  27.811  27.090  1.00  0.00     0.023 C 
BRANCH  20  21
ATOM     21  C   UNL A   1      31.708  29.133  26.633  1.00  0.00     0.023 C 
BRANCH  21  22
ATOM     22  C   UNL A   1      32.694  30.148  26.067  1.00  0.00     0.116 C 
BRANCH  22  23
ATOM     23  N   UNL A   1      32.412  31.519  26.472  1.00  0.00    -0.352 N 
ATOM     24  C   UNL A   1      33.145  32.336  27.301  1.00  0.00     0.251 C 
ATOM     25  H   UNL A   1      31.588  31.912  26.104  1.00  0.00     0.163 HD
ATOM     26  O   UNL A   1      32.708  33.436  27.626  1.00  0.00    -0.269 OA
BRANCH  24  27
ATOM     27  C   UNL A   1      34.438  31.852  27.828  1.00  0.00     0.039 A 
ATOM     28  C   UNL A   1      35.494  32.755  27.966  1.00  0.00     0.014 A 
ATOM     29  C   UNL A   1      34.582  30.525  28.241  1.00  0.00     0.014 A 
ATOM     30  C   UNL A   1      36.668  32.348  28.604  1.00  0.00     0.010 A 
ATOM     31  C   UNL A   1      35.723  30.142  28.938  1.00  0.00     0.010 A 
ATOM     32  C   UNL A   1      36.773  31.052  29.135  1.00  0.00    -0.014 A 
BRANCH  32  33
ATOM     33  C   UNL A   1      37.966  30.627  29.911  1.00  0.00     0.031 A 
ATOM     34  C   UNL A   1      38.930  29.636  29.320  1.00  0.00     0.074 A 
ATOM     35  C   UNL A   1      38.135  31.067  31.174  1.00  0.00     0.049 A 
ATOM     36  N   UNL A   1      39.964  29.055  29.871  1.00  0.00    -0.248 NA
ATOM     37  C   UNL A   1      38.671  29.221  27.934  1.00  0.00     0.031 C 
ATOM     38  C   UNL A   1      37.245  31.999  31.872  1.00  0.00     0.029 A 
ATOM     39  N   UNL A   1      39.105  30.781  32.101  1.00  0.00    -0.354 N 
ATOM     40  C   UNL A   1      40.473  28.194  28.905  1.00  0.00     0.074 A 
ATOM     41  C   UNL A   1      39.591  28.285  27.759  1.00  0.00     0.031 C 
ATOM     42  C   UNL A   1      37.723  32.222  33.107  1.00  0.00     0.029 A 
ATOM     43  C   UNL A   1      38.924  31.418  33.307  1.00  0.00     0.049 A 
ATOM     44  H   UNL A   1      39.860  30.175  31.920  1.00  0.00     0.167 HD
ATOM     45  C   UNL A   1      41.584  27.417  28.959  1.00  0.00     0.034 A 
ATOM     46  C   UNL A   1      39.637  31.351  34.448  1.00  0.00     0.034 A 
ATOM     47  C   UNL A   1      42.456  27.346  30.106  1.00  0.00     0.049 A 
ATOM     48  C   UNL A   1      40.853  30.463  34.496  1.00  0.00     0.074 A 
ATOM     49  C   UNL A   1      43.634  26.634  30.253  1.00  0.00     0.029 A 
ATOM     50  N   UNL A   1      42.243  28.010  31.308  1.00  0.00    -0.354 N 
ATOM     51  N   UNL A   1      41.345  29.684  33.560  1.00  0.00    -0.248 NA
ATOM     52  C   UNL A   1      41.614  30.451  35.752  1.00  0.00     0.031 C 
ATOM     53  C   UNL A   1      44.101  26.821  31.560  1.00  0.00     0.029 A 
ATOM     54  C   UNL A   1      43.252  27.703  32.209  1.00  0.00     0.049 A 
ATOM     55  H   UNL A   1      41.486  28.611  31.494  1.00  0.00     0.167 HD
ATOM     56  C   UNL A   1      42.490  29.112  34.106  1.00  0.00     0.074 A 
ATOM     57  C   UNL A   1      42.620  29.643  35.448  1.00  0.00     0.031 C 
ATOM     58  C   UNL A   1      43.360  28.233  33.547  1.00  0.00     0.034 A 
BRANCH  45  59
ATOM     59  C   UNL A   1      41.891  26.571  27.747  1.00  0.00     0.023 A 
ATOM     60  C   UNL A   1      41.590  25.198  27.713  1.00  0.00     0.031 A 
ATOM     61  C   UNL A   1      42.536  27.129  26.630  1.00  0.00     0.131 A 
ATOM     62  C   UNL A   1      42.012  24.414  26.631  1.00  0.00     0.055 A 
ATOM     63  C   UNL A   1      42.876  26.359  25.516  1.00  0.00     0.041 A 
ATOM     64  F   UNL A   1      42.868  28.430  26.611  1.00  0.00    -0.206 F 
ATOM     65  C   UNL A   1      42.632  24.988  25.519  1.00  0.00     0.022 A 
BRANCH  62  66
ATOM     66  S   UNL A   1      41.881  22.609  26.769  1.00  0.00     0.124 S 
ATOM     67  O   UNL A   1      40.597  22.458  27.451  1.00  0.00    -0.237 OA
ATOM     68  O   UNL A   1      41.919  22.183  25.376  1.00  0.00    -0.237 OA
ATOM     69  O   UNL A   1      43.049  22.242  27.567  1.00  0.00    -0.744 OA
ENDBRANCH  62  66
ENDBRANCH  45  59
BRANCH  46  70
ATOM     70  C   UNL A   1      39.226  32.139  35.643  1.00  0.00     0.023 A 
ATOM     71  C   UNL A   1      38.500  31.541  36.685  1.00  0.00     0.031 A 
ATOM     72  C   UNL A   1      39.522  33.510  35.745  1.00  0.00     0.131 A 
ATOM     73  C   UNL A   1      38.056  32.319  37.765  1.00  0.00     0.055 A 
ATOM     74  C   UNL A   1      39.117  34.270  36.845  1.00  0.00     0.041 A 
ATOM     75  F   UNL A   1      40.222  34.128  34.780  1.00  0.00    -0.206 F 
ATOM     76  C   UNL A   1      38.370  33.677  37.857  1.00  0.00     0.022 A 
BRANCH  73  77
ATOM     77  S   UNL A   1      37.001  31.542  39.018  1.00  0.00     0.124 S 
ATOM     78  O   UNL A   1      35.798  32.365  38.945  1.00  0.00    -0.237 OA
ATOM     79  O   UNL A   1      36.877  30.181  38.508  1.00  0.00    -0.237 OA
ATOM     80  O   UNL A   1      37.777  31.677  40.249  1.00  0.00    -0.744 OA
ENDBRANCH  73  77
ENDBRANCH  46  70
BRANCH  58  81
ATOM     81  C   UNL A   1      44.552  27.832  34.379  1.00  0.00     0.023 A 
ATOM     82  C   UNL A   1      44.522  26.707  35.221  1.00  0.00     0.031 A 
ATOM     83  C   UNL A   1      45.730  28.598  34.336  1.00  0.00     0.131 A 
ATOM     84  C   UNL A   1      45.633  26.407  36.024  1.00  0.00     0.055 A 
ATOM     85  C   UNL A   1      46.851  28.265  35.097  1.00  0.00     0.041 A 
ATOM     86  F   UNL A   1      45.810  29.684  33.549  1.00  0.00    -0.206 F 
ATOM     87  C   UNL A   1      46.802  27.171  35.955  1.00  0.00     0.022 A 
BRANCH  84  88
ATOM     88  S   UNL A   1      45.505  25.050  37.219  1.00  0.00     0.124 S 
ATOM     89  O   UNL A   1      46.575  25.371  38.160  1.00  0.00    -0.237 OA
ATOM     90  O   UNL A   1      44.145  25.205  37.725  1.00  0.00    -0.237 OA
ATOM     91  O   UNL A   1      45.730  23.855  36.408  1.00  0.00    -0.744 OA
ENDBRANCH  84  88
ENDBRANCH  58  81
ENDBRANCH  32  33
ENDBRANCH  24  27
ENDBRANCH  22  23
ENDBRANCH  21  22
ENDBRANCH  20  21
ENDBRANCH   1  20
TORSDOF 20
ENDMDL
MODEL 3
REMARK VINA RESULT:     -10.0      5.085      7.884
REMARK SMILES CCCCC[NH2+][C@](C)(C(=O)NCCCCNC(=O)c1ccc(-c2c3nc(c(-c4cc(S(=O)(=O)[O-])ccc4F)c4ccc([nH]4)c(-c4cc(S(=O)(=O)[O-])ccc4F)c4nc(c(-c5cc(S(=O)(=O)[O-])ccc5F)c5ccc2[nH]5)C=C4)C=C3)cc1)C(F)(F)F
REMARK SMILES IDX 12 1 11 2 9 3 10 4 7 6 8 7 6 8 5 11 4 12 3 13 2 14 1 15
REMARK SMILES IDX 82 16 83 17 84 18 85 19 13 20 14 21 15 22 16 23 17 24 18 26
REMARK SMILES IDX 19 27 20 28 81 29 21 30 80 31 22 32 23 33 24 34 74 35 25 36
REMARK SMILES IDX 79 37 73 38 75 39 26 40 78 41 72 42 71 43 27 45 59 46 39 47
REMARK SMILES IDX 58 48 40 49 43 50 57 51 76 52 41 53 42 54 56 56 77 57 44 58
REMARK SMILES IDX 28 59 29 60 37 61 30 62 36 63 38 64 35 65 31 66 32 67 33 68
REMARK SMILES IDX 34 69 60 70 61 71 69 72 62 73 68 74 70 75 67 76 63 77 64 78
REMARK SMILES IDX 65 79 66 80 45 81 46 82 54 83 47 84 53 85 55 86 52 87 48 88
REMARK SMILES IDX 49 89 50 90 51 91
REMARK H PARENT 11 5 6 9 6 10 16 25 75 44 43 55
REMARK Flexibility Score: inf
ROOT
ATOM      1  C   UNL A   1      33.936  25.667  25.394  1.00  0.00     0.116 C 
ENDROOT
BRANCH   1   2
ATOM      2  N   UNL A   1      34.129  25.106  24.067  1.00  0.00    -0.350 N 
ATOM      3  C   UNL A   1      34.331  23.809  23.667  1.00  0.00     0.290 C 
ATOM      4  O   UNL A   1      34.366  23.612  22.450  1.00  0.00    -0.267 OA
ATOM      5  H   UNL A   1      34.109  25.765  23.336  1.00  0.00     0.163 HD
BRANCH   3   6
ATOM      6  C   UNL A   1      34.544  22.673  24.699  1.00  0.00     0.268 C 
ATOM      7  C   UNL A   1      33.929  23.122  26.041  1.00  0.00     0.101 C 
BRANCH   6   8
ATOM      8  N   UNL A   1      33.955  21.414  24.109  1.00  0.00    -0.326 N 
ATOM      9  H   UNL A   1      33.531  21.658  23.214  1.00  0.00     0.347 HD
ATOM     10  H   UNL A   1      34.731  20.756  24.038  1.00  0.00     0.347 HD
BRANCH   8  11
ATOM     11  C   UNL A   1      32.944  20.744  24.913  1.00  0.00     0.261 C 
BRANCH  11  12
ATOM     12  C   UNL A   1      33.295  19.264  25.099  1.00  0.00     0.061 C 
BRANCH  12  13
ATOM     13  C   UNL A   1      32.377  18.283  24.364  1.00  0.00     0.006 C 
BRANCH  13  14
ATOM     14  C   UNL A   1      32.902  17.788  23.013  1.00  0.00    -0.003 C 
ATOM     15  C   UNL A   1      34.132  16.899  23.126  1.00  0.00     0.004 C 
ENDBRANCH  13  14
ENDBRANCH  12  13
ENDBRANCH  11  12
ENDBRANCH   8  11
ENDBRANCH   6   8
BRANCH   6  16
ATOM     16  C   UNL A   1      36.078  22.546  24.917  1.00  0.00     0.453 C 
ATOM     17  F   UNL A   1      36.696  23.723  25.150  1.00  0.00    -0.164 F 
ATOM     18  F   UNL A   1      36.321  21.769  26.013  1.00  0.00    -0.164 F 
ATOM     19  F   UNL A   1      36.694  21.925  23.885  1.00  0.00    -0.164 F 
ENDBRANCH   6  16
ENDBRANCH   3   6
ENDBRANCH   1   2
BRANCH   1  20
ATOM     20  C   UNL A   1      32.964  26.841  25.397  1.00  0.00     0.023 C 
BRANCH  20  21
ATOM     21  C   UNL A   1      33.132  27.809  26.564  1.00  0.00     0.023 C 
BRANCH  21  22
ATOM     22  C   UNL A   1      34.276  28.808  26.424  1.00  0.00     0.116 C 
BRANCH  22  23
ATOM     23  N   UNL A   1      33.891  30.178  26.736  1.00  0.00    -0.352 N 
ATOM     24  C   UNL A   1      34.486  31.057  27.609  1.00  0.00     0.251 C 
ATOM     25  H   UNL A   1      33.101  30.519  26.257  1.00  0.00     0.163 HD
ATOM     26  O   UNL A   1      33.968  32.148  27.835  1.00  0.00    -0.269 OA
BRANCH  24  27
ATOM     27  C   UNL A   1      35.727  30.653  28.303  1.00  0.00     0.039 A 
ATOM     28  C   UNL A   1      35.636  29.841  29.435  1.00  0.00     0.014 A 
ATOM     29  C   UNL A   1      36.975  31.025  27.795  1.00  0.00     0.014 A 
ATOM     30  C   UNL A   1      36.801  29.327  30.008  1.00  0.00     0.010 A 
ATOM     31  C   UNL A   1      38.128  30.455  28.324  1.00  0.00     0.010 A 
ATOM     32  C   UNL A   1      38.053  29.593  29.429  1.00  0.00    -0.014 A 
BRANCH  32  33
ATOM     33  C   UNL A   1      39.297  28.973  29.953  1.00  0.00     0.031 A 
ATOM     34  C   UNL A   1      39.970  29.554  31.166  1.00  0.00     0.074 A 
ATOM     35  C   UNL A   1      39.862  27.945  29.290  1.00  0.00     0.049 A 
ATOM     36  N   UNL A   1      41.114  29.234  31.712  1.00  0.00    -0.248 NA
ATOM     37  C   UNL A   1      39.274  30.667  31.828  1.00  0.00     0.031 C 
ATOM     38  C   UNL A   1      39.325  27.321  28.078  1.00  0.00     0.029 A 
ATOM     39  N   UNL A   1      41.021  27.251  29.533  1.00  0.00    -0.354 N 
ATOM     40  C   UNL A   1      41.285  30.114  32.775  1.00  0.00     0.074 A 
ATOM     41  C   UNL A   1      40.154  31.020  32.751  1.00  0.00     0.031 C 
ATOM     42  C   UNL A   1      40.142  26.325  27.698  1.00  0.00     0.029 A 
ATOM     43  C   UNL A   1      41.281  26.266  28.608  1.00  0.00     0.049 A 
ATOM     44  H   UNL A   1      41.611  27.440  30.299  1.00  0.00     0.167 HD
ATOM     45  C   UNL A   1      42.278  30.149  33.698  1.00  0.00     0.034 A 
ATOM     46  C   UNL A   1      42.325  25.421  28.499  1.00  0.00     0.034 A 
ATOM     47  C   UNL A   1      43.391  29.232  33.712  1.00  0.00     0.049 A 
ATOM     48  C   UNL A   1      43.430  25.494  29.520  1.00  0.00     0.074 A 
ATOM     49  C   UNL A   1      44.426  29.143  34.627  1.00  0.00     0.029 A 
ATOM     50  N   UNL A   1      43.618  28.244  32.761  1.00  0.00    -0.354 N 
ATOM     51  N   UNL A   1      43.558  26.306  30.543  1.00  0.00    -0.248 NA
ATOM     52  C   UNL A   1      44.529  24.530  29.374  1.00  0.00     0.031 C 
ATOM     53  C   UNL A   1      45.307  28.142  34.199  1.00  0.00     0.029 A 
ATOM     54  C   UNL A   1      44.789  27.561  33.053  1.00  0.00     0.049 A 
ATOM     55  H   UNL A   1      43.033  28.057  31.992  1.00  0.00     0.167 HD
ATOM     56  C   UNL A   1      44.737  25.931  31.180  1.00  0.00     0.074 A 
ATOM     57  C   UNL A   1      45.276  24.815  30.431  1.00  0.00     0.031 C 
ATOM     58  C   UNL A   1      45.318  26.457  32.288  1.00  0.00     0.034 A 
BRANCH  45  59
ATOM     59  C   UNL A   1      42.204  31.233  34.747  1.00  0.00     0.023 A 
ATOM     60  C   UNL A   1      42.785  32.497  34.540  1.00  0.00     0.031 A 
ATOM     61  C   UNL A   1      41.590  30.988  35.987  1.00  0.00     0.131 A 
ATOM     62  C   UNL A   1      42.818  33.432  35.584  1.00  0.00     0.055 A 
ATOM     63  C   UNL A   1      41.551  31.956  36.993  1.00  0.00     0.041 A 
ATOM     64  F   UNL A   1      41.036  29.794  36.252  1.00  0.00    -0.206 F 
ATOM     65  C   UNL A   1      42.184  33.181  36.802  1.00  0.00     0.022 A 
BRANCH  62  66
ATOM     66  S   UNL A   1      43.842  34.917  35.380  1.00  0.00     0.124 S 
ATOM     67  O   UNL A   1      45.165  34.335  35.165  1.00  0.00    -0.237 OA
ATOM     68  O   UNL A   1      43.232  35.563  34.224  1.00  0.00    -0.237 OA
ATOM     69  O   UNL A   1      43.678  35.623  36.649  1.00  0.00    -0.744 OA
ENDBRANCH  62  66
ENDBRANCH  45  59
BRANCH  46  70
ATOM     70  C   UNL A   1      42.386  24.437  27.383  1.00  0.00     0.023 A 
ATOM     71  C   UNL A   1      41.626  23.257  27.421  1.00  0.00     0.031 A 
ATOM     72  C   UNL A   1      43.232  24.643  26.279  1.00  0.00     0.131 A 
ATOM     73  C   UNL A   1      41.757  22.307  26.397  1.00  0.00     0.055 A 
ATOM     74  C   UNL A   1      43.324  23.716  25.239  1.00  0.00     0.041 A 
ATOM     75  F   UNL A   1      43.973  25.760  26.190  1.00  0.00    -0.206 F 
ATOM     76  C   UNL A   1      42.593  22.534  25.300  1.00  0.00     0.022 A 
BRANCH  73  77
ATOM     77  S   UNL A   1      40.868  20.735  26.553  1.00  0.00     0.124 S 
ATOM     78  O   UNL A   1      41.768  19.815  25.865  1.00  0.00    -0.237 OA
ATOM     79  O   UNL A   1      40.778  20.580  28.000  1.00  0.00    -0.237 OA
ATOM     80  O   UNL A   1      39.599  20.991  25.875  1.00  0.00    -0.744 OA
ENDBRANCH  73  77
ENDBRANCH  46  70
BRANCH  58  81
ATOM     81  C   UNL A   1      46.581  25.792  32.775  1.00  0.00     0.023 A 
ATOM     82  C   UNL A   1      46.550  24.727  33.692  1.00  0.00     0.031 A 
ATOM     83  C   UNL A   1      47.834  26.242  32.321  1.00  0.00     0.131 A 
ATOM     84  C   UNL A   1      47.753  24.179  34.166  1.00  0.00     0.055 A 
ATOM     85  C   UNL A   1      49.024  25.658  32.755  1.00  0.00     0.041 A 
ATOM     86  F   UNL A   1      47.919  27.256  31.446  1.00  0.00    -0.206 F 
ATOM     87  C   UNL A   1      48.988  24.629  33.691  1.00  0.00     0.022 A 
BRANCH  84  88
ATOM     88  S   UNL A   1      47.684  22.922  35.470  1.00  0.00     0.124 S 
ATOM     89  O   UNL A   1      48.566  23.490  36.486  1.00  0.00    -0.237 OA
ATOM     90  O   UNL A   1      46.264  22.894  35.804  1.00  0.00    -0.237 OA
ATOM     91  O   UNL A   1      48.189  21.718  34.814  1.00  0.00    -0.744 OA
ENDBRANCH  84  88
ENDBRANCH  58  81
ENDBRANCH  32  33
ENDBRANCH  24  27
ENDBRANCH  22  23
ENDBRANCH  21  22
ENDBRANCH  20  21
ENDBRANCH   1  20
TORSDOF 20
ENDMDL
