MODEL 1
REMARK VINA RESULT:     -12.6      0.000      0.000
REMARK SMILES Cc1ccc(OCC(=O)NNC(=O)[C@H]2CCCC[C@@H]2C(=O)NCCCCNC(=O)c2ccc(-c3c4nc(c(-c5cc(S(=O)(=O)[O-])ccc5F)c5ccc([nH]5)c(-c5cc(S(=O)(=O)[O-])ccc5F)c5nc(c(-c6cc(S(=O)(=O)[O-])ccc6F)c6ccc3[nH]6)C=C5)C=C4)cc2)cc1
REMARK SMILES IDX 23 1 22 2 20 3 21 4 19 6 14 7 15 8 16 9 18 10 17 11 12 12
REMARK SMILES IDX 11 13 13 15 10 16 8 17 9 18 7 20 6 21 5 22 1 23 2 24 3 25
REMARK SMILES IDX 94 26 4 27 93 28 24 29 25 30 26 31 27 32 28 33 29 35 30 36
REMARK SMILES IDX 31 37 92 38 32 39 91 40 33 41 34 42 35 43 85 44 36 45 90 46
REMARK SMILES IDX 84 47 86 48 37 49 89 50 83 51 82 52 38 54 70 55 50 56 69 57
REMARK SMILES IDX 51 58 54 59 68 60 87 61 52 62 53 63 67 65 88 66 55 67 39 68
REMARK SMILES IDX 40 69 48 70 41 71 47 72 49 73 46 74 42 75 43 76 44 77 45 78
REMARK SMILES IDX 71 79 72 80 80 81 73 82 79 83 81 84 78 85 74 86 75 87 76 88
REMARK SMILES IDX 77 89 56 90 57 91 65 92 58 93 64 94 66 95 63 96 59 97 60 98
REMARK SMILES IDX 61 99 62 100
REMARK H PARENT 22 5 11 14 10 19 27 34 86 53 54 64
REMARK Flexibility Score: inf
ROOT
ATOM      1  C   UNL A   1      31.761  29.281  27.174  1.00  0.00     0.116 C 
ENDROOT
BRANCH   1   2
ATOM      2  N   UNL A   1      32.591  28.091  27.023  1.00  0.00    -0.356 N 
ATOM      3  C   UNL A   1      32.779  27.193  26.028  1.00  0.00     0.223 C 
ATOM      4  O   UNL A   1      33.675  26.359  26.245  1.00  0.00    -0.275 OA
ATOM      5  H   UNL A   1      33.135  27.899  27.821  1.00  0.00     0.163 HD
BRANCH   3   6
ATOM      6  C   UNL A   1      31.928  27.030  24.748  1.00  0.00     0.091 C 
ATOM      7  C   UNL A   1      32.622  25.988  23.817  1.00  0.00     0.092 C 
ATOM      8  C   UNL A   1      33.805  26.634  23.066  1.00  0.00     0.014 C 
ATOM      9  C   UNL A   1      33.434  27.912  22.314  1.00  0.00     0.001 C 
ATOM     10  C   UNL A   1      31.498  28.225  23.903  1.00  0.00     0.014 C 
ATOM     11  C   UNL A   1      32.669  28.893  23.188  1.00  0.00     0.001 C 
BRANCH   7  12
ATOM     12  C   UNL A   1      31.636  25.333  22.843  1.00  0.00     0.242 C 
ATOM     13  N   UNL A   1      30.757  24.385  23.296  1.00  0.00    -0.267 N 
ATOM     14  H   UNL A   1      30.060  24.082  22.670  1.00  0.00     0.191 HD
ATOM     15  O   UNL A   1      31.601  25.594  21.639  1.00  0.00    -0.273 OA
BRANCH  13  16
ATOM     16  N   UNL A   1      30.764  23.815  24.560  1.00  0.00    -0.265 N 
ATOM     17  C   UNL A   1      31.432  22.648  24.854  1.00  0.00     0.276 C 
ATOM     18  O   UNL A   1      31.495  22.246  26.019  1.00  0.00    -0.269 OA
ATOM     19  H   UNL A   1      30.268  24.265  25.280  1.00  0.00     0.191 HD
BRANCH  17  20
ATOM     20  C   UNL A   1      32.151  21.905  23.721  1.00  0.00     0.331 C 
BRANCH  20  21
ATOM     21  O   UNL A   1      33.324  22.519  23.211  1.00  0.00    -0.484 OA
BRANCH  21  22
ATOM     22  C   UNL A   1      34.492  22.334  23.901  1.00  0.00     0.120 A 
ATOM     23  C   UNL A   1      38.331  22.126  25.866  1.00  0.00     0.044 C 
ATOM     24  C   UNL A   1      36.993  22.198  25.194  1.00  0.00    -0.051 A 
ATOM     25  C   UNL A   1      36.645  23.321  24.439  1.00  0.00     0.007 A 
ATOM     26  C   UNL A   1      36.074  21.150  25.306  1.00  0.00     0.007 A 
ATOM     27  C   UNL A   1      35.405  23.385  23.797  1.00  0.00     0.047 A 
ATOM     28  C   UNL A   1      34.831  21.217  24.665  1.00  0.00     0.047 A 
ENDBRANCH  21  22
ENDBRANCH  20  21
ENDBRANCH  17  20
ENDBRANCH  13  16
ENDBRANCH   7  12
ENDBRANCH   3   6
ENDBRANCH   1   2
BRANCH   1  29
ATOM     29  C   UNL A   1      32.358  30.530  26.521  1.00  0.00     0.023 C 
BRANCH  29  30
ATOM     30  C   UNL A   1      33.161  31.439  27.449  1.00  0.00     0.023 C 
BRANCH  30  31
ATOM     31  C   UNL A   1      34.477  30.852  27.948  1.00  0.00     0.116 C 
BRANCH  31  32
ATOM     32  N   UNL A   1      35.121  31.566  29.042  1.00  0.00    -0.352 N 
ATOM     33  C   UNL A   1      36.223  31.175  29.794  1.00  0.00     0.251 C 
ATOM     34  H   UNL A   1      34.726  32.435  29.279  1.00  0.00     0.163 HD
ATOM     35  O   UNL A   1      36.609  31.828  30.750  1.00  0.00    -0.269 OA
BRANCH  33  36
ATOM     36  C   UNL A   1      37.012  29.998  29.343  1.00  0.00     0.039 A 
ATOM     37  C   UNL A   1      37.289  29.006  30.289  1.00  0.00     0.014 A 
ATOM     38  C   UNL A   1      37.660  29.990  28.110  1.00  0.00     0.014 A 
ATOM     39  C   UNL A   1      38.385  28.165  30.098  1.00  0.00     0.010 A 
ATOM     40  C   UNL A   1      38.805  29.230  27.962  1.00  0.00     0.010 A 
ATOM     41  C   UNL A   1      39.205  28.365  28.986  1.00  0.00    -0.014 A 
BRANCH  41  42
ATOM     42  C   UNL A   1      40.564  27.838  28.910  1.00  0.00     0.031 A 
ATOM     43  C   UNL A   1      40.829  26.462  28.452  1.00  0.00     0.074 A 
ATOM     44  C   UNL A   1      41.607  28.615  29.274  1.00  0.00     0.049 A 
ATOM     45  N   UNL A   1      41.791  25.725  28.901  1.00  0.00    -0.248 NA
ATOM     46  C   UNL A   1      40.000  25.792  27.459  1.00  0.00     0.031 C 
ATOM     47  C   UNL A   1      43.031  28.330  29.112  1.00  0.00     0.029 A 
ATOM     48  N   UNL A   1      41.572  29.735  30.098  1.00  0.00    -0.354 N 
ATOM     49  C   UNL A   1      41.887  24.626  28.080  1.00  0.00     0.074 A 
ATOM     50  C   UNL A   1      40.708  24.678  27.244  1.00  0.00     0.031 C 
ATOM     51  C   UNL A   1      43.722  29.070  29.994  1.00  0.00     0.029 A 
ATOM     52  C   UNL A   1      42.761  29.757  30.839  1.00  0.00     0.049 A 
ATOM     53  H   UNL A   1      40.842  30.393  30.151  1.00  0.00     0.167 HD
ATOM     54  C   UNL A   1      43.020  23.867  28.082  1.00  0.00     0.034 A 
ATOM     55  C   UNL A   1      42.735  29.714  32.202  1.00  0.00     0.034 A 
ATOM     56  C   UNL A   1      44.025  24.383  29.009  1.00  0.00     0.049 A 
ATOM     57  C   UNL A   1      43.432  28.501  32.786  1.00  0.00     0.074 A 
ATOM     58  C   UNL A   1      45.172  25.139  28.820  1.00  0.00     0.029 A 
ATOM     59  N   UNL A   1      43.783  24.377  30.378  1.00  0.00    -0.354 N 
ATOM     60  N   UNL A   1      43.774  27.442  32.104  1.00  0.00    -0.248 NA
ATOM     61  C   UNL A   1      43.764  28.380  34.201  1.00  0.00     0.031 C 
ATOM     62  C   UNL A   1      45.598  25.619  30.084  1.00  0.00     0.029 A 
ATOM     63  C   UNL A   1      44.727  25.137  31.045  1.00  0.00     0.049 A 
ATOM     64  H   UNL A   1      43.042  23.897  30.813  1.00  0.00     0.167 HD
ATOM     65  C   UNL A   1      44.316  26.501  32.949  1.00  0.00     0.074 A 
ATOM     66  C   UNL A   1      44.316  27.155  34.245  1.00  0.00     0.031 C 
ATOM     67  C   UNL A   1      44.695  25.263  32.498  1.00  0.00     0.034 A 
BRANCH  54  68
ATOM     68  C   UNL A   1      43.332  22.857  26.998  1.00  0.00     0.023 A 
ATOM     69  C   UNL A   1      42.759  21.570  27.056  1.00  0.00     0.031 A 
ATOM     70  C   UNL A   1      44.203  23.083  25.916  1.00  0.00     0.131 A 
ATOM     71  C   UNL A   1      43.146  20.553  26.165  1.00  0.00     0.055 A 
ATOM     72  C   UNL A   1      44.642  22.056  25.069  1.00  0.00     0.041 A 
ATOM     73  F   UNL A   1      44.634  24.316  25.613  1.00  0.00    -0.206 F 
ATOM     74  C   UNL A   1      44.127  20.776  25.203  1.00  0.00     0.022 A 
BRANCH  71  75
ATOM     75  S   UNL A   1      42.342  18.930  26.275  1.00  0.00     0.124 S 
ATOM     76  O   UNL A   1      42.441  18.629  27.699  1.00  0.00    -0.237 OA
ATOM     77  O   UNL A   1      41.005  19.215  25.765  1.00  0.00    -0.237 OA
ATOM     78  O   UNL A   1      43.163  18.086  25.408  1.00  0.00    -0.744 OA
ENDBRANCH  71  75
ENDBRANCH  54  68
BRANCH  55  79
ATOM     79  C   UNL A   1      41.538  30.383  32.796  1.00  0.00     0.023 A 
ATOM     80  C   UNL A   1      41.522  31.795  32.840  1.00  0.00     0.031 A 
ATOM     81  C   UNL A   1      40.321  29.711  32.966  1.00  0.00     0.131 A 
ATOM     82  C   UNL A   1      40.305  32.490  32.906  1.00  0.00     0.055 A 
ATOM     83  C   UNL A   1      39.114  30.409  33.087  1.00  0.00     0.041 A 
ATOM     84  F   UNL A   1      40.263  28.372  32.898  1.00  0.00    -0.206 F 
ATOM     85  C   UNL A   1      39.097  31.802  33.015  1.00  0.00     0.022 A 
BRANCH  82  86
ATOM     86  S   UNL A   1      40.278  34.280  32.600  1.00  0.00     0.124 S 
ATOM     87  O   UNL A   1      41.103  34.795  33.686  1.00  0.00    -0.237 OA
ATOM     88  O   UNL A   1      40.849  34.394  31.262  1.00  0.00    -0.237 OA
ATOM     89  O   UNL A   1      38.857  34.615  32.665  1.00  0.00    -0.744 OA
ENDBRANCH  82  86
ENDBRANCH  55  79
BRANCH  67  90
ATOM     90  C   UNL A   1      45.151  24.079  33.341  1.00  0.00     0.023 A 
ATOM     91  C   UNL A   1      46.440  23.941  33.877  1.00  0.00     0.031 A 
ATOM     92  C   UNL A   1      44.245  23.039  33.685  1.00  0.00     0.131 A 
ATOM     93  C   UNL A   1      46.806  22.809  34.634  1.00  0.00     0.055 A 
ATOM     94  C   UNL A   1      44.590  21.951  34.495  1.00  0.00     0.041 A 
ATOM     95  F   UNL A   1      42.975  23.034  33.259  1.00  0.00    -0.206 F 
ATOM     96  C   UNL A   1      45.885  21.821  34.964  1.00  0.00     0.022 A 
BRANCH  93  97
ATOM     97  S   UNL A   1      48.540  22.633  35.134  1.00  0.00     0.124 S 
ATOM     98  O   UNL A   1      48.883  21.327  34.575  1.00  0.00    -0.237 OA
ATOM     99  O   UNL A   1      49.170  23.781  34.492  1.00  0.00    -0.237 OA
ATOM    100  O   UNL A   1      48.488  22.688  36.593  1.00  0.00    -0.744 OA
ENDBRANCH  93  97
ENDBRANCH  67  90
ENDBRANCH  41  42
ENDBRANCH  33  36
ENDBRANCH  31  32
ENDBRANCH  30  31
ENDBRANCH  29  30
ENDBRANCH   1  29
TORSDOF 19
ENDMDL
MODEL 2
REMARK VINA RESULT:     -12.2      1.539      2.364
REMARK SMILES Cc1ccc(OCC(=O)NNC(=O)[C@H]2CCCC[C@@H]2C(=O)NCCCCNC(=O)c2ccc(-c3c4nc(c(-c5cc(S(=O)(=O)[O-])ccc5F)c5ccc([nH]5)c(-c5cc(S(=O)(=O)[O-])ccc5F)c5nc(c(-c6cc(S(=O)(=O)[O-])ccc6F)c6ccc3[nH]6)C=C5)C=C4)cc2)cc1
REMARK SMILES IDX 23 1 22 2 20 3 21 4 19 6 14 7 15 8 16 9 18 10 17 11 12 12
REMARK SMILES IDX 11 13 13 15 10 16 8 17 9 18 7 20 6 21 5 22 1 23 2 24 3 25
REMARK SMILES IDX 94 26 4 27 93 28 24 29 25 30 26 31 27 32 28 33 29 35 30 36
REMARK SMILES IDX 31 37 92 38 32 39 91 40 33 41 34 42 35 43 85 44 36 45 90 46
REMARK SMILES IDX 84 47 86 48 37 49 89 50 83 51 82 52 38 54 70 55 50 56 69 57
REMARK SMILES IDX 51 58 54 59 68 60 87 61 52 62 53 63 67 65 88 66 55 67 39 68
REMARK SMILES IDX 40 69 48 70 41 71 47 72 49 73 46 74 42 75 43 76 44 77 45 78
REMARK SMILES IDX 71 79 72 80 80 81 73 82 79 83 81 84 78 85 74 86 75 87 76 88
REMARK SMILES IDX 77 89 56 90 57 91 65 92 58 93 64 94 66 95 63 96 59 97 60 98
REMARK SMILES IDX 61 99 62 100
REMARK H PARENT 22 5 11 14 10 19 27 34 86 53 54 64
REMARK Flexibility Score: inf
ROOT
ATOM      1  C   UNL A   1      33.930  28.667  25.129  1.00  0.00     0.116 C 
ENDROOT
BRANCH   1   2
ATOM      2  N   UNL A   1      33.604  27.958  23.896  1.00  0.00    -0.356 N 
ATOM      3  C   UNL A   1      33.023  26.767  23.620  1.00  0.00     0.223 C 
ATOM      4  O   UNL A   1      32.817  26.560  22.412  1.00  0.00    -0.275 OA
ATOM      5  H   UNL A   1      33.864  28.456  23.087  1.00  0.00     0.163 HD
BRANCH   3   6
ATOM      6  C   UNL A   1      32.720  25.625  24.616  1.00  0.00     0.091 C 
ATOM      7  C   UNL A   1      31.606  24.717  24.009  1.00  0.00     0.092 C 
ATOM      8  C   UNL A   1      30.218  25.369  24.184  1.00  0.00     0.014 C 
ATOM      9  C   UNL A   1      29.904  25.772  25.624  1.00  0.00     0.001 C 
ATOM     10  C   UNL A   1      32.383  25.894  26.080  1.00  0.00     0.014 C 
ATOM     11  C   UNL A   1      31.030  26.575  26.257  1.00  0.00     0.001 C 
BRANCH   7  12
ATOM     12  C   UNL A   1      31.631  23.299  24.593  1.00  0.00     0.242 C 
ATOM     13  N   UNL A   1      32.618  22.424  24.220  1.00  0.00    -0.267 N 
ATOM     14  H   UNL A   1      32.672  21.572  24.709  1.00  0.00     0.191 HD
ATOM     15  O   UNL A   1      30.781  22.877  25.379  1.00  0.00    -0.273 OA
BRANCH  13  16
ATOM     16  N   UNL A   1      33.546  22.636  23.211  1.00  0.00    -0.265 N 
ATOM     17  C   UNL A   1      34.879  22.876  23.455  1.00  0.00     0.276 C 
ATOM     18  O   UNL A   1      35.678  22.949  22.518  1.00  0.00    -0.269 OA
ATOM     19  H   UNL A   1      33.237  22.615  22.277  1.00  0.00     0.191 HD
BRANCH  17  20
ATOM     20  C   UNL A   1      35.354  22.978  24.910  1.00  0.00     0.331 C 
BRANCH  20  21
ATOM     21  O   UNL A   1      36.464  23.828  25.151  1.00  0.00    -0.484 OA
BRANCH  21  22
ATOM     22  C   UNL A   1      37.578  23.277  25.724  1.00  0.00     0.120 A 
ATOM     23  C   UNL A   1      41.176  21.948  27.707  1.00  0.00     0.044 C 
ATOM     24  C   UNL A   1      39.921  22.401  27.024  1.00  0.00    -0.051 A 
ATOM     25  C   UNL A   1      39.396  23.670  27.287  1.00  0.00     0.007 A 
ATOM     26  C   UNL A   1      39.257  21.572  26.115  1.00  0.00     0.007 A 
ATOM     27  C   UNL A   1      38.235  24.102  26.639  1.00  0.00     0.047 A 
ATOM     28  C   UNL A   1      38.093  22.005  25.470  1.00  0.00     0.047 A 
ENDBRANCH  21  22
ENDBRANCH  20  21
ENDBRANCH  17  20
ENDBRANCH  13  16
ENDBRANCH   7  12
ENDBRANCH   3   6
ENDBRANCH   1   2
BRANCH   1  29
ATOM     29  C   UNL A   1      32.861  29.677  25.554  1.00  0.00     0.023 C 
BRANCH  29  30
ATOM     30  C   UNL A   1      33.124  30.399  26.873  1.00  0.00     0.023 C 
BRANCH  30  31
ATOM     31  C   UNL A   1      34.420  30.009  27.576  1.00  0.00     0.116 C 
BRANCH  31  32
ATOM     32  N   UNL A   1      34.897  30.932  28.595  1.00  0.00    -0.352 N 
ATOM     33  C   UNL A   1      36.069  30.861  29.340  1.00  0.00     0.251 C 
ATOM     34  H   UNL A   1      34.318  31.705  28.780  1.00  0.00     0.163 HD
ATOM     35  O   UNL A   1      36.308  31.657  30.233  1.00  0.00    -0.269 OA
BRANCH  33  36
ATOM     36  C   UNL A   1      37.101  29.863  28.951  1.00  0.00     0.039 A 
ATOM     37  C   UNL A   1      37.358  28.820  29.847  1.00  0.00     0.014 A 
ATOM     38  C   UNL A   1      37.951  30.083  27.870  1.00  0.00     0.014 A 
ATOM     39  C   UNL A   1      38.589  28.165  29.800  1.00  0.00     0.010 A 
ATOM     40  C   UNL A   1      39.209  29.510  27.882  1.00  0.00     0.010 A 
ATOM     41  C   UNL A   1      39.551  28.600  28.887  1.00  0.00    -0.014 A 
BRANCH  41  42
ATOM     42  C   UNL A   1      40.968  28.278  29.029  1.00  0.00     0.031 A 
ATOM     43  C   UNL A   1      41.560  27.106  28.360  1.00  0.00     0.074 A 
ATOM     44  C   UNL A   1      41.760  29.058  29.797  1.00  0.00     0.049 A 
ATOM     45  N   UNL A   1      42.523  26.402  28.856  1.00  0.00    -0.248 NA
ATOM     46  C   UNL A   1      41.085  26.614  27.073  1.00  0.00     0.031 C 
ATOM     47  C   UNL A   1      43.213  28.999  29.927  1.00  0.00     0.029 A 
ATOM     48  N   UNL A   1      41.358  29.920  30.813  1.00  0.00    -0.354 N 
ATOM     49  C   UNL A   1      42.978  25.567  27.863  1.00  0.00     0.074 A 
ATOM     50  C   UNL A   1      42.006  25.686  26.798  1.00  0.00     0.031 C 
ATOM     51  C   UNL A   1      43.567  29.569  31.090  1.00  0.00     0.029 A 
ATOM     52  C   UNL A   1      42.347  29.897  31.806  1.00  0.00     0.049 A 
ATOM     53  H   UNL A   1      40.529  30.450  30.830  1.00  0.00     0.167 HD
ATOM     54  C   UNL A   1      44.202  24.976  27.973  1.00  0.00     0.034 A 
ATOM     55  C   UNL A   1      42.047  29.508  33.078  1.00  0.00     0.034 A 
ATOM     56  C   UNL A   1      44.887  25.357  29.207  1.00  0.00     0.049 A 
ATOM     57  C   UNL A   1      42.812  28.280  33.534  1.00  0.00     0.074 A 
ATOM     58  C   UNL A   1      45.897  26.270  29.472  1.00  0.00     0.029 A 
ATOM     59  N   UNL A   1      44.373  24.975  30.441  1.00  0.00    -0.354 N 
ATOM     60  N   UNL A   1      43.468  27.478  32.741  1.00  0.00    -0.248 NA
ATOM     61  C   UNL A   1      42.860  27.846  34.925  1.00  0.00     0.031 C 
ATOM     62  C   UNL A   1      45.961  26.462  30.875  1.00  0.00     0.029 A 
ATOM     63  C   UNL A   1      45.010  25.650  31.466  1.00  0.00     0.049 A 
ATOM     64  H   UNL A   1      43.654  24.314  30.567  1.00  0.00     0.167 HD
ATOM     65  C   UNL A   1      43.981  26.426  33.464  1.00  0.00     0.074 A 
ATOM     66  C   UNL A   1      43.598  26.725  34.833  1.00  0.00     0.031 C 
ATOM     67  C   UNL A   1      44.657  25.399  32.859  1.00  0.00     0.034 A 
BRANCH  54  68
ATOM     68  C   UNL A   1      44.903  24.319  26.804  1.00  0.00     0.023 A 
ATOM     69  C   UNL A   1      44.559  23.003  26.430  1.00  0.00     0.031 A 
ATOM     70  C   UNL A   1      45.932  24.912  26.049  1.00  0.00     0.131 A 
ATOM     71  C   UNL A   1      45.294  22.299  25.460  1.00  0.00     0.055 A 
ATOM     72  C   UNL A   1      46.709  24.192  25.130  1.00  0.00     0.041 A 
ATOM     73  F   UNL A   1      46.202  26.222  26.143  1.00  0.00    -0.206 F 
ATOM     74  C   UNL A   1      46.403  22.870  24.844  1.00  0.00     0.022 A 
BRANCH  71  75
ATOM     75  S   UNL A   1      44.773  20.622  25.004  1.00  0.00     0.124 S 
ATOM     76  O   UNL A   1      43.575  20.436  25.815  1.00  0.00    -0.237 OA
ATOM     77  O   UNL A   1      44.566  20.745  23.564  1.00  0.00    -0.237 OA
ATOM     78  O   UNL A   1      45.914  19.795  25.392  1.00  0.00    -0.744 OA
ENDBRANCH  71  75
ENDBRANCH  54  68
BRANCH  55  79
ATOM     79  C   UNL A   1      40.655  29.854  33.495  1.00  0.00     0.023 A 
ATOM     80  C   UNL A   1      40.378  31.199  33.825  1.00  0.00     0.031 A 
ATOM     81  C   UNL A   1      39.570  29.010  33.229  1.00  0.00     0.131 A 
ATOM     82  C   UNL A   1      39.068  31.695  33.743  1.00  0.00     0.055 A 
ATOM     83  C   UNL A   1      38.257  29.497  33.201  1.00  0.00     0.041 A 
ATOM     84  F   UNL A   1      39.767  27.731  32.874  1.00  0.00    -0.206 F 
ATOM     85  C   UNL A   1      38.006  30.852  33.417  1.00  0.00     0.022 A 
BRANCH  82  86
ATOM     86  S   UNL A   1      38.782  33.488  33.816  1.00  0.00     0.124 S 
ATOM     87  O   UNL A   1      37.425  33.608  33.300  1.00  0.00    -0.237 OA
ATOM     88  O   UNL A   1      38.951  33.790  35.234  1.00  0.00    -0.237 OA
ATOM     89  O   UNL A   1      39.838  34.035  32.966  1.00  0.00    -0.744 OA
ENDBRANCH  82  86
ENDBRANCH  55  79
BRANCH  67  90
ATOM     90  C   UNL A   1      45.130  24.104  33.507  1.00  0.00     0.023 A 
ATOM     91  C   UNL A   1      46.391  23.931  34.098  1.00  0.00     0.031 A 
ATOM     92  C   UNL A   1      44.268  22.977  33.597  1.00  0.00     0.131 A 
ATOM     93  C   UNL A   1      46.777  22.699  34.664  1.00  0.00     0.055 A 
ATOM     94  C   UNL A   1      44.628  21.778  34.222  1.00  0.00     0.041 A 
ATOM     95  F   UNL A   1      43.028  22.990  33.090  1.00  0.00    -0.206 F 
ATOM     96  C   UNL A   1      45.897  21.625  34.748  1.00  0.00     0.022 A 
BRANCH  93  97
ATOM     97  S   UNL A   1      48.486  22.516  35.244  1.00  0.00     0.124 S 
ATOM     98  O   UNL A   1      48.437  21.222  35.919  1.00  0.00    -0.237 OA
ATOM     99  O   UNL A   1      49.245  22.552  34.000  1.00  0.00    -0.237 OA
ATOM    100  O   UNL A   1      48.679  23.667  36.124  1.00  0.00    -0.744 OA
ENDBRANCH  93  97
ENDBRANCH  67  90
ENDBRANCH  41  42
ENDBRANCH  33  36
ENDBRANCH  31  32
ENDBRANCH  30  31
ENDBRANCH  29  30
ENDBRANCH   1  29
TORSDOF 19
ENDMDL
MODEL 3
REMARK VINA RESULT:     -12.0      2.046      2.450
REMARK SMILES Cc1ccc(OCC(=O)NNC(=O)[C@H]2CCCC[C@@H]2C(=O)NCCCCNC(=O)c2ccc(-c3c4nc(c(-c5cc(S(=O)(=O)[O-])ccc5F)c5ccc([nH]5)c(-c5cc(S(=O)(=O)[O-])ccc5F)c5nc(c(-c6cc(S(=O)(=O)[O-])ccc6F)c6ccc3[nH]6)C=C5)C=C4)cc2)cc1
REMARK SMILES IDX 23 1 22 2 20 3 21 4 19 6 14 7 15 8 16 9 18 10 17 11 12 12
REMARK SMILES IDX 11 13 13 15 10 16 8 17 9 18 7 20 6 21 5 22 1 23 2 24 3 25
REMARK SMILES IDX 94 26 4 27 93 28 24 29 25 30 26 31 27 32 28 33 29 35 30 36
REMARK SMILES IDX 31 37 92 38 32 39 91 40 33 41 34 42 35 43 85 44 36 45 90 46
REMARK SMILES IDX 84 47 86 48 37 49 89 50 83 51 82 52 38 54 70 55 50 56 69 57
REMARK SMILES IDX 51 58 54 59 68 60 87 61 52 62 53 63 67 65 88 66 55 67 39 68
REMARK SMILES IDX 40 69 48 70 41 71 47 72 49 73 46 74 42 75 43 76 44 77 45 78
REMARK SMILES IDX 71 79 72 80 80 81 73 82 79 83 81 84 78 85 74 86 75 87 76 88
REMARK SMILES IDX 77 89 56 90 57 91 65 92 58 93 64 94 66 95 63 96 59 97 60 98
REMARK SMILES IDX 61 99 62 100
REMARK H PARENT 22 5 11 14 10 19 27 34 86 53 54 64
REMARK Flexibility Score: inf
ROOT
ATOM      1  C   UNL A   1      32.683  30.667  26.772  1.00  0.00     0.116 C 
ENDROOT
BRANCH   1   2
ATOM      2  N   UNL A   1      32.164  29.494  27.467  1.00  0.00    -0.356 N 
ATOM      3  C   UNL A   1      31.666  28.302  27.062  1.00  0.00     0.223 C 
ATOM      4  O   UNL A   1      31.422  27.503  27.982  1.00  0.00    -0.275 OA
ATOM      5  H   UNL A   1      32.178  29.592  28.447  1.00  0.00     0.163 HD
BRANCH   3   6
ATOM      6  C   UNL A   1      31.265  27.901  25.624  1.00  0.00     0.091 C 
ATOM      7  C   UNL A   1      31.878  26.502  25.307  1.00  0.00     0.092 C 
ATOM      8  C   UNL A   1      33.376  26.633  24.957  1.00  0.00     0.014 C 
ATOM      9  C   UNL A   1      33.663  27.647  23.849  1.00  0.00     0.001 C 
ATOM     10  C   UNL A   1      31.504  28.819  24.429  1.00  0.00     0.014 C 
ATOM     11  C   UNL A   1      32.985  28.984  24.102  1.00  0.00     0.001 C 
BRANCH   7  12
ATOM     12  C   UNL A   1      31.111  25.768  24.201  1.00  0.00     0.242 C 
ATOM     13  N   UNL A   1      30.138  24.862  24.531  1.00  0.00    -0.267 N 
ATOM     14  H   UNL A   1      29.585  24.508  23.798  1.00  0.00     0.191 HD
ATOM     15  O   UNL A   1      31.338  25.928  23.000  1.00  0.00    -0.273 OA
BRANCH  13  16
ATOM     16  N   UNL A   1      29.865  24.399  25.810  1.00  0.00    -0.265 N 
ATOM     17  C   UNL A   1      30.535  23.345  26.387  1.00  0.00     0.276 C 
ATOM     18  O   UNL A   1      30.326  23.047  27.565  1.00  0.00    -0.269 OA
ATOM     19  H   UNL A   1      29.159  24.846  26.330  1.00  0.00     0.191 HD
BRANCH  17  20
ATOM     20  C   UNL A   1      31.589  22.600  25.557  1.00  0.00     0.331 C 
BRANCH  20  21
ATOM     21  O   UNL A   1      32.469  21.750  26.274  1.00  0.00    -0.484 OA
BRANCH  21  22
ATOM     22  C   UNL A   1      33.814  21.931  26.101  1.00  0.00     0.120 A 
ATOM     23  C   UNL A   1      37.986  22.943  25.634  1.00  0.00     0.044 C 
ATOM     24  C   UNL A   1      36.540  22.583  25.804  1.00  0.00    -0.051 A 
ATOM     25  C   UNL A   1      35.634  23.529  26.292  1.00  0.00     0.007 A 
ATOM     26  C   UNL A   1      36.073  21.307  25.477  1.00  0.00     0.007 A 
ATOM     27  C   UNL A   1      34.282  23.203  26.437  1.00  0.00     0.047 A 
ATOM     28  C   UNL A   1      34.720  20.982  25.625  1.00  0.00     0.047 A 
ENDBRANCH  21  22
ENDBRANCH  20  21
ENDBRANCH  17  20
ENDBRANCH  13  16
ENDBRANCH   7  12
ENDBRANCH   3   6
ENDBRANCH   1   2
BRANCH   1  29
ATOM     29  C   UNL A   1      33.967  31.225  27.391  1.00  0.00     0.023 C 
BRANCH  29  30
ATOM     30  C   UNL A   1      33.805  32.513  28.195  1.00  0.00     0.023 C 
BRANCH  30  31
ATOM     31  C   UNL A   1      35.082  33.033  28.846  1.00  0.00     0.116 C 
BRANCH  31  32
ATOM     32  N   UNL A   1      35.203  32.816  30.281  1.00  0.00    -0.352 N 
ATOM     33  C   UNL A   1      35.745  31.721  30.943  1.00  0.00     0.251 C 
ATOM     34  H   UNL A   1      34.857  33.536  30.855  1.00  0.00     0.163 HD
ATOM     35  O   UNL A   1      35.701  31.623  32.158  1.00  0.00    -0.269 OA
BRANCH  33  36
ATOM     36  C   UNL A   1      36.498  30.711  30.152  1.00  0.00     0.039 A 
ATOM     37  C   UNL A   1      36.817  29.504  30.783  1.00  0.00     0.014 A 
ATOM     38  C   UNL A   1      37.077  31.036  28.928  1.00  0.00     0.014 A 
ATOM     39  C   UNL A   1      37.892  28.750  30.314  1.00  0.00     0.010 A 
ATOM     40  C   UNL A   1      38.205  30.348  28.520  1.00  0.00     0.010 A 
ATOM     41  C   UNL A   1      38.652  29.244  29.252  1.00  0.00    -0.014 A 
BRANCH  41  42
ATOM     42  C   UNL A   1      40.000  28.764  28.964  1.00  0.00     0.031 A 
ATOM     43  C   UNL A   1      40.256  27.353  28.624  1.00  0.00     0.074 A 
ATOM     44  C   UNL A   1      41.044  29.620  29.018  1.00  0.00     0.049 A 
ATOM     45  N   UNL A   1      41.331  26.715  28.950  1.00  0.00    -0.248 NA
ATOM     46  C   UNL A   1      39.291  26.533  27.902  1.00  0.00     0.031 C 
ATOM     47  C   UNL A   1      42.423  29.372  28.604  1.00  0.00     0.029 A 
ATOM     48  N   UNL A   1      41.101  30.832  29.698  1.00  0.00    -0.354 N 
ATOM     49  C   UNL A   1      41.332  25.526  28.258  1.00  0.00     0.074 A 
ATOM     50  C   UNL A   1      40.011  25.429  27.678  1.00  0.00     0.031 C 
ATOM     51  C   UNL A   1      43.226  30.241  29.238  1.00  0.00     0.029 A 
ATOM     52  C   UNL A   1      42.409  30.991  30.175  1.00  0.00     0.049 A 
ATOM     53  H   UNL A   1      40.356  31.463  29.822  1.00  0.00     0.167 HD
ATOM     54  C   UNL A   1      42.489  24.817  28.118  1.00  0.00     0.034 A 
ATOM     55  C   UNL A   1      42.654  31.118  31.511  1.00  0.00     0.034 A 
ATOM     56  C   UNL A   1      43.622  25.483  28.757  1.00  0.00     0.049 A 
ATOM     57  C   UNL A   1      43.526  30.016  32.077  1.00  0.00     0.074 A 
ATOM     58  C   UNL A   1      44.660  26.253  28.254  1.00  0.00     0.029 A 
ATOM     59  N   UNL A   1      43.654  25.639  30.138  1.00  0.00    -0.354 N 
ATOM     60  N   UNL A   1      43.793  28.894  31.466  1.00  0.00    -0.248 NA
ATOM     61  C   UNL A   1      44.136  30.085  33.400  1.00  0.00     0.031 C 
ATOM     62  C   UNL A   1      45.295  26.903  29.342  1.00  0.00     0.029 A 
ATOM     63  C   UNL A   1      44.661  26.512  30.508  1.00  0.00     0.049 A 
ATOM     64  H   UNL A   1      43.044  25.189  30.767  1.00  0.00     0.167 HD
ATOM     65  C   UNL A   1      44.548  28.086  32.286  1.00  0.00     0.074 A 
ATOM     66  C   UNL A   1      44.761  28.897  33.472  1.00  0.00     0.031 C 
ATOM     67  C   UNL A   1      44.907  26.817  31.913  1.00  0.00     0.034 A 
BRANCH  54  68
ATOM     68  C   UNL A   1      42.644  23.692  27.117  1.00  0.00     0.023 A 
ATOM     69  C   UNL A   1      42.098  22.423  27.401  1.00  0.00     0.031 A 
ATOM     70  C   UNL A   1      43.340  23.792  25.898  1.00  0.00     0.131 A 
ATOM     71  C   UNL A   1      42.357  21.312  26.578  1.00  0.00     0.055 A 
ATOM     72  C   UNL A   1      43.657  22.675  25.112  1.00  0.00     0.041 A 
ATOM     73  F   UNL A   1      43.710  24.982  25.400  1.00  0.00    -0.206 F 
ATOM     74  C   UNL A   1      43.181  21.421  25.462  1.00  0.00     0.022 A 
BRANCH  71  75
ATOM     75  S   UNL A   1      41.594  19.717  26.984  1.00  0.00     0.124 S 
ATOM     76  O   UNL A   1      40.807  19.434  25.789  1.00  0.00    -0.237 OA
ATOM     77  O   UNL A   1      42.760  18.867  27.207  1.00  0.00    -0.237 OA
ATOM     78  O   UNL A   1      40.811  20.011  28.183  1.00  0.00    -0.744 OA
ENDBRANCH  71  75
ENDBRANCH  54  68
BRANCH  55  79
ATOM     79  C   UNL A   1      41.557  31.810  32.254  1.00  0.00     0.023 A 
ATOM     80  C   UNL A   1      40.598  31.010  32.913  1.00  0.00     0.031 A 
ATOM     81  C   UNL A   1      41.646  33.159  32.619  1.00  0.00     0.131 A 
ATOM     82  C   UNL A   1      39.866  31.524  33.995  1.00  0.00     0.055 A 
ATOM     83  C   UNL A   1      40.874  33.683  33.664  1.00  0.00     0.041 A 
ATOM     84  F   UNL A   1      42.561  33.963  32.058  1.00  0.00    -0.206 F 
ATOM     85  C   UNL A   1      40.011  32.856  34.384  1.00  0.00     0.022 A 
BRANCH  82  86
ATOM     86  S   UNL A   1      38.913  30.395  35.050  1.00  0.00     0.124 S 
ATOM     87  O   UNL A   1      39.949  29.795  35.881  1.00  0.00    -0.237 OA
ATOM     88  O   UNL A   1      37.988  31.290  35.738  1.00  0.00    -0.237 OA
ATOM     89  O   UNL A   1      38.266  29.500  34.094  1.00  0.00    -0.744 OA
ENDBRANCH  82  86
ENDBRANCH  55  79
BRANCH  67  90
ATOM     90  C   UNL A   1      45.593  25.766  32.777  1.00  0.00     0.023 A 
ATOM     91  C   UNL A   1      44.915  24.777  33.505  1.00  0.00     0.031 A 
ATOM     92  C   UNL A   1      47.010  25.696  32.851  1.00  0.00     0.131 A 
ATOM     93  C   UNL A   1      45.607  23.844  34.304  1.00  0.00     0.055 A 
ATOM     94  C   UNL A   1      47.699  24.726  33.587  1.00  0.00     0.041 A 
ATOM     95  F   UNL A   1      47.799  26.564  32.201  1.00  0.00    -0.206 F 
ATOM     96  C   UNL A   1      46.997  23.798  34.335  1.00  0.00     0.022 A 
BRANCH  93  97
ATOM     97  S   UNL A   1      44.640  22.719  35.347  1.00  0.00     0.124 S 
ATOM     98  O   UNL A   1      43.275  23.012  34.920  1.00  0.00    -0.237 OA
ATOM     99  O   UNL A   1      45.157  21.411  34.959  1.00  0.00    -0.237 OA
ATOM    100  O   UNL A   1      44.969  23.139  36.707  1.00  0.00    -0.744 OA
ENDBRANCH  93  97
ENDBRANCH  67  90
ENDBRANCH  41  42
ENDBRANCH  33  36
ENDBRANCH  31  32
ENDBRANCH  30  31
ENDBRANCH  29  30
ENDBRANCH   1  29
TORSDOF 19
ENDMDL
