MODEL 1
REMARK VINA RESULT:     -11.2      0.000      0.000
REMARK SMILES C=CCN(CC(=O)NCCCCNC(=O)c1ccc(-c2c3nc(c(-c4cc(S(=O)(=O)[O-])ccc4F)c4ccc([nH]4)c(-c4cc(S(=O)(=O)[O-])ccc4F)c4nc(c(-c5cc(S(=O)(=O)[O-])ccc5F)c5ccc2[nH]5)C=C4)C=C3)cc1)C(=O)c1cn(C2C[NH2+]C2)nn1
REMARK SMILES IDX 10 1 9 2 8 3 6 4 7 5 5 7 4 8 3 9 2 10 1 11 79 12 80 13 81 14
REMARK SMILES IDX 82 15 89 16 83 17 88 18 84 19 85 20 87 21 86 22 11 25 12 26
REMARK SMILES IDX 13 27 14 28 15 30 16 31 17 32 78 33 18 34 77 35 19 36 20 37
REMARK SMILES IDX 21 38 71 39 22 40 76 41 70 42 72 43 23 44 75 45 69 46 68 47
REMARK SMILES IDX 24 49 56 50 36 51 55 52 37 53 40 54 54 55 73 56 38 57 39 58
REMARK SMILES IDX 53 60 74 61 41 62 25 63 26 64 34 65 27 66 33 67 35 68 32 69
REMARK SMILES IDX 28 70 29 71 30 72 31 73 57 74 58 75 66 76 59 77 65 78 67 79
REMARK SMILES IDX 64 80 60 81 61 82 62 83 63 84 42 85 43 86 51 87 44 88 50 89
REMARK SMILES IDX 52 90 49 91 45 92 46 93 47 94 48 95
REMARK H PARENT 8 6 86 23 86 24 13 29 72 48 40 59
REMARK Flexibility Score: inf
ROOT
ATOM      1  C   UNL A   1      31.950  27.533  26.626  1.00  0.00     0.023 C 
ENDROOT
BRANCH   1   2
ATOM      2  C   UNL A   1      31.129  26.510  25.845  1.00  0.00     0.116 C 
BRANCH   2   3
ATOM      3  N   UNL A   1      30.959  25.249  26.534  1.00  0.00    -0.355 N 
ATOM      4  C   UNL A   1      31.846  24.230  26.724  1.00  0.00     0.239 C 
ATOM      5  O   UNL A   1      31.582  23.412  27.612  1.00  0.00    -0.273 OA
ATOM      6  H   UNL A   1      30.068  25.105  26.926  1.00  0.00     0.163 HD
BRANCH   4   7
ATOM      7  C   UNL A   1      33.191  24.144  25.978  1.00  0.00     0.220 C 
BRANCH   7   8
ATOM      8  N   UNL A   1      33.134  23.676  24.585  1.00  0.00    -0.324 N 
BRANCH   8   9
ATOM      9  C   UNL A   1      34.291  23.916  23.733  1.00  0.00     0.147 C 
BRANCH   9  10
ATOM     10  C   UNL A   1      35.546  23.510  24.444  1.00  0.00    -0.014 C 
ATOM     11  C   UNL A   1      36.549  22.852  23.845  1.00  0.00     0.006 C 
ENDBRANCH   9  10
ENDBRANCH   8   9
BRANCH   8  12
ATOM     12  C   UNL A   1      32.095  22.887  24.080  1.00  0.00     0.276 C 
ATOM     13  O   UNL A   1      30.987  23.359  23.814  1.00  0.00    -0.267 OA
BRANCH  12  14
ATOM     14  C   UNL A   1      32.352  21.471  23.873  1.00  0.00     0.170 A 
ATOM     15  C   UNL A   1      32.908  20.561  24.751  1.00  0.00     0.145 A 
ATOM     16  N   UNL A   1      32.019  20.819  22.710  1.00  0.00    -0.125 NA
ATOM     17  N   UNL A   1      32.923  19.386  24.053  1.00  0.00    -0.237 N 
ATOM     18  N   UNL A   1      32.373  19.547  22.832  1.00  0.00    -0.066 NA
BRANCH  17  19
ATOM     19  C   UNL A   1      33.447  18.116  24.459  1.00  0.00     0.218 C 
ATOM     20  C   UNL A   1      32.445  17.301  25.310  1.00  0.00     0.294 C 
ATOM     21  C   UNL A   1      33.273  16.963  23.448  1.00  0.00     0.294 C 
ATOM     22  N   UNL A   1      32.851  16.088  24.565  1.00  0.00    -0.342 N 
ATOM     23  H   UNL A   1      32.082  15.457  24.337  1.00  0.00     0.346 HD
ATOM     24  H   UNL A   1      33.490  15.406  24.973  1.00  0.00     0.346 HD
ENDBRANCH  17  19
ENDBRANCH  12  14
ENDBRANCH   8  12
ENDBRANCH   7   8
ENDBRANCH   4   7
ENDBRANCH   2   3
ENDBRANCH   1   2
BRANCH   1  25
ATOM     25  C   UNL A   1      31.440  28.973  26.578  1.00  0.00     0.023 C 
BRANCH  25  26
ATOM     26  C   UNL A   1      32.390  29.998  25.972  1.00  0.00     0.116 C 
BRANCH  26  27
ATOM     27  N   UNL A   1      32.089  31.368  26.353  1.00  0.00    -0.352 N 
ATOM     28  C   UNL A   1      32.804  32.217  27.167  1.00  0.00     0.251 C 
ATOM     29  H   UNL A   1      31.260  31.742  25.975  1.00  0.00     0.163 HD
ATOM     30  O   UNL A   1      32.346  33.324  27.434  1.00  0.00    -0.269 OA
BRANCH  28  31
ATOM     31  C   UNL A   1      34.089  31.776  27.754  1.00  0.00     0.039 A 
ATOM     32  C   UNL A   1      35.090  32.729  27.968  1.00  0.00     0.014 A 
ATOM     33  C   UNL A   1      34.303  30.442  28.113  1.00  0.00     0.014 A 
ATOM     34  C   UNL A   1      36.274  32.361  28.612  1.00  0.00     0.010 A 
ATOM     35  C   UNL A   1      35.456  30.090  28.811  1.00  0.00     0.010 A 
ATOM     36  C   UNL A   1      36.449  31.048  29.073  1.00  0.00    -0.014 A 
BRANCH  36  37
ATOM     37  C   UNL A   1      37.658  30.649  29.836  1.00  0.00     0.031 A 
ATOM     38  C   UNL A   1      38.661  29.713  29.221  1.00  0.00     0.074 A 
ATOM     39  C   UNL A   1      37.809  31.061  31.109  1.00  0.00     0.049 A 
ATOM     40  N   UNL A   1      39.717  29.159  29.758  1.00  0.00    -0.248 NA
ATOM     41  C   UNL A   1      38.419  29.327  27.825  1.00  0.00     0.031 C 
ATOM     42  C   UNL A   1      36.885  31.938  31.830  1.00  0.00     0.029 A 
ATOM     43  N   UNL A   1      38.790  30.783  32.027  1.00  0.00    -0.354 N 
ATOM     44  C   UNL A   1      40.259  28.342  28.771  1.00  0.00     0.074 A 
ATOM     45  C   UNL A   1      39.375  28.435  27.625  1.00  0.00     0.031 C 
ATOM     46  C   UNL A   1      37.351  32.139  33.074  1.00  0.00     0.029 A 
ATOM     47  C   UNL A   1      38.583  31.376  33.250  1.00  0.00     0.049 A 
ATOM     48  H   UNL A   1      39.567  30.212  31.830  1.00  0.00     0.167 HD
ATOM     49  C   UNL A   1      41.395  27.602  28.807  1.00  0.00     0.034 A 
ATOM     50  C   UNL A   1      39.298  31.304  34.388  1.00  0.00     0.034 A 
ATOM     51  C   UNL A   1      42.269  27.528  29.954  1.00  0.00     0.049 A 
ATOM     52  C   UNL A   1      40.546  30.462  34.418  1.00  0.00     0.074 A 
ATOM     53  C   UNL A   1      43.472  26.855  30.085  1.00  0.00     0.029 A 
ATOM     54  N   UNL A   1      42.029  28.148  31.174  1.00  0.00    -0.354 N 
ATOM     55  N   UNL A   1      41.063  29.720  33.467  1.00  0.00    -0.248 NA
ATOM     56  C   UNL A   1      41.306  30.455  35.674  1.00  0.00     0.031 C 
ATOM     57  C   UNL A   1      43.931  27.025  31.397  1.00  0.00     0.029 A 
ATOM     58  C   UNL A   1      43.046  27.852  32.069  1.00  0.00     0.049 A 
ATOM     59  H   UNL A   1      41.250  28.715  31.375  1.00  0.00     0.167 HD
ATOM     60  C   UNL A   1      42.226  29.177  34.004  1.00  0.00     0.074 A 
ATOM     61  C   UNL A   1      42.333  29.679  35.359  1.00  0.00     0.031 C 
ATOM     62  C   UNL A   1      43.128  28.345  33.425  1.00  0.00     0.034 A 
BRANCH  49  63
ATOM     63  C   UNL A   1      41.725  26.795  27.574  1.00  0.00     0.023 A 
ATOM     64  C   UNL A   1      41.378  25.436  27.474  1.00  0.00     0.031 A 
ATOM     65  C   UNL A   1      42.455  27.367  26.519  1.00  0.00     0.131 A 
ATOM     66  C   UNL A   1      41.848  24.671  26.396  1.00  0.00     0.055 A 
ATOM     67  C   UNL A   1      42.844  26.620  25.405  1.00  0.00     0.041 A 
ATOM     68  F   UNL A   1      42.831  28.655  26.566  1.00  0.00    -0.206 F 
ATOM     69  C   UNL A   1      42.559  25.258  25.349  1.00  0.00     0.022 A 
BRANCH  66  70
ATOM     70  S   UNL A   1      41.671  22.867  26.478  1.00  0.00     0.124 S 
ATOM     71  O   UNL A   1      42.292  22.453  25.223  1.00  0.00    -0.237 OA
ATOM     72  O   UNL A   1      42.403  22.534  27.695  1.00  0.00    -0.237 OA
ATOM     73  O   UNL A   1      40.225  22.667  26.543  1.00  0.00    -0.744 OA
ENDBRANCH  66  70
ENDBRANCH  49  63
BRANCH  50  74
ATOM     74  C   UNL A   1      38.853  32.045  35.598  1.00  0.00     0.023 A 
ATOM     75  C   UNL A   1      38.212  31.378  36.651  1.00  0.00     0.031 A 
ATOM     76  C   UNL A   1      39.053  33.431  35.710  1.00  0.00     0.131 A 
ATOM     77  C   UNL A   1      37.764  32.103  37.765  1.00  0.00     0.055 A 
ATOM     78  C   UNL A   1      38.635  34.144  36.835  1.00  0.00     0.041 A 
ATOM     79  F   UNL A   1      39.673  34.109  34.732  1.00  0.00    -0.206 F 
ATOM     80  C   UNL A   1      37.979  33.480  37.868  1.00  0.00     0.022 A 
BRANCH  77  81
ATOM     81  S   UNL A   1      36.859  31.223  39.068  1.00  0.00     0.124 S 
ATOM     82  O   UNL A   1      37.818  31.254  40.167  1.00  0.00    -0.237 OA
ATOM     83  O   UNL A   1      35.672  32.058  39.229  1.00  0.00    -0.237 OA
ATOM     84  O   UNL A   1      36.617  29.906  38.484  1.00  0.00    -0.744 OA
ENDBRANCH  77  81
ENDBRANCH  50  74
BRANCH  62  85
ATOM     85  C   UNL A   1      44.328  27.966  34.252  1.00  0.00     0.023 A 
ATOM     86  C   UNL A   1      44.336  26.813  35.056  1.00  0.00     0.031 A 
ATOM     87  C   UNL A   1      45.469  28.788  34.254  1.00  0.00     0.131 A 
ATOM     88  C   UNL A   1      45.449  26.535  35.864  1.00  0.00     0.055 A 
ATOM     89  C   UNL A   1      46.590  28.482  35.025  1.00  0.00     0.041 A 
ATOM     90  F   UNL A   1      45.509  29.901  33.506  1.00  0.00    -0.206 F 
ATOM     91  C   UNL A   1      46.580  27.356  35.844  1.00  0.00     0.022 A 
BRANCH  88  92
ATOM     92  S   UNL A   1      45.373  25.122  36.998  1.00  0.00     0.124 S 
ATOM     93  O   UNL A   1      46.777  24.738  37.099  1.00  0.00    -0.237 OA
ATOM     94  O   UNL A   1      44.786  25.714  38.197  1.00  0.00    -0.237 OA
ATOM     95  O   UNL A   1      44.517  24.165  36.299  1.00  0.00    -0.744 OA
ENDBRANCH  88  92
ENDBRANCH  62  85
ENDBRANCH  36  37
ENDBRANCH  28  31
ENDBRANCH  26  27
ENDBRANCH  25  26
ENDBRANCH   1  25
TORSDOF 20
ENDMDL
MODEL 2
REMARK VINA RESULT:     -11.1      5.264     11.398
REMARK SMILES C=CCN(CC(=O)NCCCCNC(=O)c1ccc(-c2c3nc(c(-c4cc(S(=O)(=O)[O-])ccc4F)c4ccc([nH]4)c(-c4cc(S(=O)(=O)[O-])ccc4F)c4nc(c(-c5cc(S(=O)(=O)[O-])ccc5F)c5ccc2[nH]5)C=C4)C=C3)cc1)C(=O)c1cn(C2C[NH2+]C2)nn1
REMARK SMILES IDX 10 1 9 2 8 3 6 4 7 5 5 7 4 8 3 9 2 10 1 11 79 12 80 13 81 14
REMARK SMILES IDX 82 15 89 16 83 17 88 18 84 19 85 20 87 21 86 22 11 25 12 26
REMARK SMILES IDX 13 27 14 28 15 30 16 31 17 32 78 33 18 34 77 35 19 36 20 37
REMARK SMILES IDX 21 38 71 39 22 40 76 41 70 42 72 43 23 44 75 45 69 46 68 47
REMARK SMILES IDX 24 49 56 50 36 51 55 52 37 53 40 54 54 55 73 56 38 57 39 58
REMARK SMILES IDX 53 60 74 61 41 62 25 63 26 64 34 65 27 66 33 67 35 68 32 69
REMARK SMILES IDX 28 70 29 71 30 72 31 73 57 74 58 75 66 76 59 77 65 78 67 79
REMARK SMILES IDX 64 80 60 81 61 82 62 83 63 84 42 85 43 86 51 87 44 88 50 89
REMARK SMILES IDX 52 90 49 91 45 92 46 93 47 94 48 95
REMARK H PARENT 8 6 86 23 86 24 13 29 72 48 40 59
REMARK Flexibility Score: inf
ROOT
ATOM      1  C   UNL A   1      37.257  33.520  29.658  1.00  0.00     0.023 C 
ENDROOT
BRANCH   1   2
ATOM      2  C   UNL A   1      37.451  34.251  30.985  1.00  0.00     0.116 C 
BRANCH   2   3
ATOM      3  N   UNL A   1      38.832  34.335  31.409  1.00  0.00    -0.355 N 
ATOM      4  C   UNL A   1      39.358  34.384  32.666  1.00  0.00     0.239 C 
ATOM      5  O   UNL A   1      40.560  34.122  32.784  1.00  0.00    -0.273 OA
ATOM      6  H   UNL A   1      39.491  34.359  30.679  1.00  0.00     0.163 HD
BRANCH   4   7
ATOM      7  C   UNL A   1      38.499  34.618  33.922  1.00  0.00     0.220 C 
BRANCH   7   8
ATOM      8  N   UNL A   1      37.611  33.514  34.319  1.00  0.00    -0.324 N 
BRANCH   8   9
ATOM      9  C   UNL A   1      38.122  32.154  34.221  1.00  0.00     0.147 C 
BRANCH   9  10
ATOM     10  C   UNL A   1      39.041  31.866  35.369  1.00  0.00    -0.014 C 
ATOM     11  C   UNL A   1      39.874  30.816  35.397  1.00  0.00     0.006 C 
ENDBRANCH   9  10
ENDBRANCH   8   9
BRANCH   8  12
ATOM     12  C   UNL A   1      36.364  33.709  34.922  1.00  0.00     0.276 C 
ATOM     13  O   UNL A   1      36.199  33.579  36.138  1.00  0.00    -0.267 OA
BRANCH  12  14
ATOM     14  C   UNL A   1      35.243  34.072  34.071  1.00  0.00     0.170 A 
ATOM     15  C   UNL A   1      34.942  35.305  33.525  1.00  0.00     0.145 A 
ATOM     16  N   UNL A   1      34.301  33.162  33.654  1.00  0.00    -0.125 NA
ATOM     17  N   UNL A   1      33.790  35.091  32.822  1.00  0.00    -0.237 N 
ATOM     18  N   UNL A   1      33.420  33.796  32.893  1.00  0.00    -0.066 NA
BRANCH  17  19
ATOM     19  C   UNL A   1      32.998  36.041  32.099  1.00  0.00     0.218 C 
ATOM     20  C   UNL A   1      33.653  37.441  32.040  1.00  0.00     0.294 C 
ATOM     21  C   UNL A   1      33.204  36.062  30.570  1.00  0.00     0.294 C 
ATOM     22  N   UNL A   1      33.233  37.541  30.624  1.00  0.00    -0.342 N 
ATOM     23  H   UNL A   1      33.924  37.971  30.009  1.00  0.00     0.346 HD
ATOM     24  H   UNL A   1      32.422  38.096  30.351  1.00  0.00     0.346 HD
ENDBRANCH  17  19
ENDBRANCH  12  14
ENDBRANCH   8  12
ENDBRANCH   7   8
ENDBRANCH   4   7
ENDBRANCH   2   3
ENDBRANCH   1   2
BRANCH   1  25
ATOM     25  C   UNL A   1      35.823  33.465  29.131  1.00  0.00     0.023 C 
BRANCH  25  26
ATOM     26  C   UNL A   1      34.910  32.435  29.784  1.00  0.00     0.116 C 
BRANCH  26  27
ATOM     27  N   UNL A   1      34.393  31.443  28.856  1.00  0.00    -0.352 N 
ATOM     28  C   UNL A   1      35.026  30.344  28.323  1.00  0.00     0.251 C 
ATOM     29  H   UNL A   1      33.460  31.576  28.570  1.00  0.00     0.163 HD
ATOM     30  O   UNL A   1      34.442  29.658  27.488  1.00  0.00    -0.269 OA
BRANCH  28  31
ATOM     31  C   UNL A   1      36.415  30.023  28.718  1.00  0.00     0.039 A 
ATOM     32  C   UNL A   1      36.628  29.313  29.903  1.00  0.00     0.014 A 
ATOM     33  C   UNL A   1      37.501  30.395  27.920  1.00  0.00     0.014 A 
ATOM     34  C   UNL A   1      37.920  28.908  30.249  1.00  0.00     0.010 A 
ATOM     35  C   UNL A   1      38.779  29.938  28.233  1.00  0.00     0.010 A 
ATOM     36  C   UNL A   1      38.998  29.184  29.397  1.00  0.00    -0.014 A 
BRANCH  36  37
ATOM     37  C   UNL A   1      40.367  28.694  29.695  1.00  0.00     0.031 A 
ATOM     38  C   UNL A   1      41.209  29.390  30.727  1.00  0.00     0.074 A 
ATOM     39  C   UNL A   1      40.881  27.676  28.977  1.00  0.00     0.049 A 
ATOM     40  N   UNL A   1      42.459  29.190  31.052  1.00  0.00    -0.248 NA
ATOM     41  C   UNL A   1      40.559  30.481  31.466  1.00  0.00     0.031 C 
ATOM     42  C   UNL A   1      40.178  26.944  27.922  1.00  0.00     0.029 A 
ATOM     43  N   UNL A   1      42.122  27.092  29.019  1.00  0.00    -0.354 N 
ATOM     44  C   UNL A   1      42.756  30.141  32.022  1.00  0.00     0.074 A 
ATOM     45  C   UNL A   1      41.565  30.952  32.185  1.00  0.00     0.031 C 
ATOM     46  C   UNL A   1      40.993  25.998  27.427  1.00  0.00     0.029 A 
ATOM     47  C   UNL A   1      42.285  26.082  28.101  1.00  0.00     0.049 A 
ATOM     48  H   UNL A   1      42.828  27.369  29.645  1.00  0.00     0.167 HD
ATOM     49  C   UNL A   1      43.903  30.309  32.726  1.00  0.00     0.034 A 
ATOM     50  C   UNL A   1      43.358  25.317  27.825  1.00  0.00     0.034 A 
ATOM     51  C   UNL A   1      45.077  29.487  32.558  1.00  0.00     0.049 A 
ATOM     52  C   UNL A   1      44.630  25.530  28.601  1.00  0.00     0.074 A 
ATOM     53  C   UNL A   1      46.274  29.532  33.253  1.00  0.00     0.029 A 
ATOM     54  N   UNL A   1      45.204  28.468  31.621  1.00  0.00    -0.354 N 
ATOM     55  N   UNL A   1      44.886  26.413  29.539  1.00  0.00    -0.248 NA
ATOM     56  C   UNL A   1      45.753  24.639  28.285  1.00  0.00     0.031 C 
ATOM     57  C   UNL A   1      47.140  28.578  32.702  1.00  0.00     0.029 A 
ATOM     58  C   UNL A   1      46.465  27.897  31.702  1.00  0.00     0.049 A 
ATOM     59  H   UNL A   1      44.500  28.192  30.990  1.00  0.00     0.167 HD
ATOM     60  C   UNL A   1      46.194  26.166  29.941  1.00  0.00     0.074 A 
ATOM     61  C   UNL A   1      46.671  25.051  29.147  1.00  0.00     0.031 C 
ATOM     62  C   UNL A   1      46.932  26.799  30.889  1.00  0.00     0.034 A 
BRANCH  49  63
ATOM     63  C   UNL A   1      43.937  31.451  33.714  1.00  0.00     0.023 A 
ATOM     64  C   UNL A   1      43.671  31.246  35.081  1.00  0.00     0.031 A 
ATOM     65  C   UNL A   1      44.165  32.767  33.279  1.00  0.00     0.131 A 
ATOM     66  C   UNL A   1      43.539  32.346  35.941  1.00  0.00     0.055 A 
ATOM     67  C   UNL A   1      44.119  33.850  34.159  1.00  0.00     0.041 A 
ATOM     68  F   UNL A   1      44.405  33.028  31.984  1.00  0.00    -0.206 F 
ATOM     69  C   UNL A   1      43.784  33.645  35.495  1.00  0.00     0.022 A 
BRANCH  66  70
ATOM     70  S   UNL A   1      42.865  32.064  37.601  1.00  0.00     0.124 S 
ATOM     71  O   UNL A   1      43.999  32.432  38.446  1.00  0.00    -0.237 OA
ATOM     72  O   UNL A   1      41.722  32.970  37.635  1.00  0.00    -0.237 OA
ATOM     73  O   UNL A   1      42.535  30.641  37.601  1.00  0.00    -0.744 OA
ENDBRANCH  66  70
ENDBRANCH  49  63
BRANCH  50  74
ATOM     74  C   UNL A   1      43.282  24.280  26.762  1.00  0.00     0.023 A 
ATOM     75  C   UNL A   1      42.599  23.076  26.984  1.00  0.00     0.031 A 
ATOM     76  C   UNL A   1      43.902  24.475  25.516  1.00  0.00     0.131 A 
ATOM     77  C   UNL A   1      42.574  22.094  25.982  1.00  0.00     0.055 A 
ATOM     78  C   UNL A   1      43.846  23.510  24.510  1.00  0.00     0.041 A 
ATOM     79  F   UNL A   1      44.556  25.618  25.255  1.00  0.00    -0.206 F 
ATOM     80  C   UNL A   1      43.185  22.307  24.743  1.00  0.00     0.022 A 
BRANCH  77  81
ATOM     81  S   UNL A   1      41.758  20.514  26.335  1.00  0.00     0.124 S 
ATOM     82  O   UNL A   1      40.352  20.861  26.164  1.00  0.00    -0.237 OA
ATOM     83  O   UNL A   1      42.332  19.642  25.313  1.00  0.00    -0.237 OA
ATOM     84  O   UNL A   1      42.169  20.217  27.705  1.00  0.00    -0.744 OA
ENDBRANCH  77  81
ENDBRANCH  50  74
BRANCH  62  85
ATOM     85  C   UNL A   1      48.317  26.262  31.138  1.00  0.00     0.023 A 
ATOM     86  C   UNL A   1      48.561  25.264  32.097  1.00  0.00     0.031 A 
ATOM     87  C   UNL A   1      49.410  26.777  30.420  1.00  0.00     0.131 A 
ATOM     88  C   UNL A   1      49.875  24.843  32.345  1.00  0.00     0.055 A 
ATOM     89  C   UNL A   1      50.710  26.322  30.638  1.00  0.00     0.041 A 
ATOM     90  F   UNL A   1      49.230  27.734  29.495  1.00  0.00    -0.206 F 
ATOM     91  C   UNL A   1      50.950  25.356  31.613  1.00  0.00     0.022 A 
BRANCH  88  92
ATOM     92  S   UNL A   1      50.175  23.661  33.688  1.00  0.00     0.124 S 
ATOM     93  O   UNL A   1      51.259  24.305  34.422  1.00  0.00    -0.237 OA
ATOM     94  O   UNL A   1      48.881  23.622  34.364  1.00  0.00    -0.237 OA
ATOM     95  O   UNL A   1      50.544  22.432  32.989  1.00  0.00    -0.744 OA
ENDBRANCH  88  92
ENDBRANCH  62  85
ENDBRANCH  36  37
ENDBRANCH  28  31
ENDBRANCH  26  27
ENDBRANCH  25  26
ENDBRANCH   1  25
TORSDOF 20
ENDMDL
MODEL 3
REMARK VINA RESULT:     -11.0      2.910      4.393
REMARK SMILES C=CCN(CC(=O)NCCCCNC(=O)c1ccc(-c2c3nc(c(-c4cc(S(=O)(=O)[O-])ccc4F)c4ccc([nH]4)c(-c4cc(S(=O)(=O)[O-])ccc4F)c4nc(c(-c5cc(S(=O)(=O)[O-])ccc5F)c5ccc2[nH]5)C=C4)C=C3)cc1)C(=O)c1cn(C2C[NH2+]C2)nn1
REMARK SMILES IDX 10 1 9 2 8 3 6 4 7 5 5 7 4 8 3 9 2 10 1 11 79 12 80 13 81 14
REMARK SMILES IDX 82 15 89 16 83 17 88 18 84 19 85 20 87 21 86 22 11 25 12 26
REMARK SMILES IDX 13 27 14 28 15 30 16 31 17 32 78 33 18 34 77 35 19 36 20 37
REMARK SMILES IDX 21 38 71 39 22 40 76 41 70 42 72 43 23 44 75 45 69 46 68 47
REMARK SMILES IDX 24 49 56 50 36 51 55 52 37 53 40 54 54 55 73 56 38 57 39 58
REMARK SMILES IDX 53 60 74 61 41 62 25 63 26 64 34 65 27 66 33 67 35 68 32 69
REMARK SMILES IDX 28 70 29 71 30 72 31 73 57 74 58 75 66 76 59 77 65 78 67 79
REMARK SMILES IDX 64 80 60 81 61 82 62 83 63 84 42 85 43 86 51 87 44 88 50 89
REMARK SMILES IDX 52 90 49 91 45 92 46 93 47 94 48 95
REMARK H PARENT 8 6 86 23 86 24 13 29 72 48 40 59
REMARK Flexibility Score: inf
ROOT
ATOM      1  C   UNL A   1      31.498  30.997  26.023  1.00  0.00     0.023 C 
ENDROOT
BRANCH   1   2
ATOM      2  C   UNL A   1      32.395  29.926  26.641  1.00  0.00     0.116 C 
BRANCH   2   3
ATOM      3  N   UNL A   1      31.725  28.664  26.872  1.00  0.00    -0.355 N 
ATOM      4  C   UNL A   1      32.187  27.390  26.721  1.00  0.00     0.239 C 
ATOM      5  O   UNL A   1      31.553  26.491  27.286  1.00  0.00    -0.273 OA
ATOM      6  H   UNL A   1      30.795  28.737  27.186  1.00  0.00     0.163 HD
BRANCH   4   7
ATOM      7  C   UNL A   1      33.508  27.060  26.002  1.00  0.00     0.220 C 
BRANCH   7   8
ATOM      8  N   UNL A   1      33.409  26.170  24.834  1.00  0.00    -0.324 N 
BRANCH   8   9
ATOM      9  C   UNL A   1      33.617  24.744  25.040  1.00  0.00     0.147 C 
BRANCH   9  10
ATOM     10  C   UNL A   1      35.070  24.466  25.285  1.00  0.00    -0.014 C 
ATOM     11  C   UNL A   1      35.514  23.346  25.872  1.00  0.00     0.006 C 
ENDBRANCH   9  10
ENDBRANCH   8   9
BRANCH   8  12
ATOM     12  C   UNL A   1      32.982  26.601  23.574  1.00  0.00     0.276 C 
ATOM     13  O   UNL A   1      33.685  26.475  22.568  1.00  0.00    -0.267 OA
BRANCH  12  14
ATOM     14  C   UNL A   1      31.667  27.213  23.470  1.00  0.00     0.170 A 
ATOM     15  C   UNL A   1      31.350  28.518  23.145  1.00  0.00     0.145 A 
ATOM     16  N   UNL A   1      30.503  26.510  23.666  1.00  0.00    -0.125 NA
ATOM     17  N   UNL A   1      29.985  28.556  23.198  1.00  0.00    -0.237 N 
ATOM     18  N   UNL A   1      29.483  27.341  23.498  1.00  0.00    -0.066 NA
BRANCH  17  19
ATOM     19  C   UNL A   1      29.118  29.680  23.003  1.00  0.00     0.218 C 
ATOM     20  C   UNL A   1      29.193  30.250  21.568  1.00  0.00     0.294 C 
ATOM     21  C   UNL A   1      27.662  29.345  22.618  1.00  0.00     0.294 C 
ATOM     22  N   UNL A   1      27.721  30.409  21.591  1.00  0.00    -0.342 N 
ATOM     23  H   UNL A   1      27.259  30.173  20.713  1.00  0.00     0.346 HD
ATOM     24  H   UNL A   1      27.290  31.320  21.747  1.00  0.00     0.346 HD
ENDBRANCH  17  19
ENDBRANCH  12  14
ENDBRANCH   8  12
ENDBRANCH   7   8
ENDBRANCH   4   7
ENDBRANCH   2   3
ENDBRANCH   1   2
BRANCH   1  25
ATOM     25  C   UNL A   1      31.404  32.313  26.794  1.00  0.00     0.023 C 
BRANCH  25  26
ATOM     26  C   UNL A   1      32.729  32.939  27.211  1.00  0.00     0.116 C 
BRANCH  26  27
ATOM     27  N   UNL A   1      32.586  34.243  27.837  1.00  0.00    -0.352 N 
ATOM     28  C   UNL A   1      33.332  34.804  28.848  1.00  0.00     0.251 C 
ATOM     29  H   UNL A   1      31.855  34.803  27.488  1.00  0.00     0.163 HD
ATOM     30  O   UNL A   1      33.009  35.899  29.300  1.00  0.00    -0.269 OA
BRANCH  28  31
ATOM     31  C   UNL A   1      34.484  34.069  29.416  1.00  0.00     0.039 A 
ATOM     32  C   UNL A   1      35.769  34.388  28.968  1.00  0.00     0.014 A 
ATOM     33  C   UNL A   1      34.307  33.089  30.397  1.00  0.00     0.014 A 
ATOM     34  C   UNL A   1      36.882  33.783  29.559  1.00  0.00     0.010 A 
ATOM     35  C   UNL A   1      35.418  32.533  31.028  1.00  0.00     0.010 A 
ATOM     36  C   UNL A   1      36.715  32.880  30.619  1.00  0.00    -0.014 A 
BRANCH  36  37
ATOM     37  C   UNL A   1      37.880  32.287  31.322  1.00  0.00     0.031 A 
ATOM     38  C   UNL A   1      38.625  31.136  30.707  1.00  0.00     0.074 A 
ATOM     39  C   UNL A   1      38.213  32.729  32.550  1.00  0.00     0.049 A 
ATOM     40  N   UNL A   1      39.590  30.409  31.207  1.00  0.00    -0.248 NA
ATOM     41  C   UNL A   1      38.198  30.731  29.361  1.00  0.00     0.031 C 
ATOM     42  C   UNL A   1      37.543  33.814  33.270  1.00  0.00     0.029 A 
ATOM     43  N   UNL A   1      39.191  32.309  33.416  1.00  0.00    -0.354 N 
ATOM     44  C   UNL A   1      39.878  29.447  30.244  1.00  0.00     0.074 A 
ATOM     45  C   UNL A   1      38.940  29.654  29.159  1.00  0.00     0.031 C 
ATOM     46  C   UNL A   1      38.139  33.984  34.462  1.00  0.00     0.029 A 
ATOM     47  C   UNL A   1      39.206  32.998  34.605  1.00  0.00     0.049 A 
ATOM     48  H   UNL A   1      39.821  31.583  33.206  1.00  0.00     0.167 HD
ATOM     49  C   UNL A   1      40.845  28.496  30.254  1.00  0.00     0.034 A 
ATOM     50  C   UNL A   1      39.984  32.845  35.693  1.00  0.00     0.034 A 
ATOM     51  C   UNL A   1      41.777  28.309  31.340  1.00  0.00     0.049 A 
ATOM     52  C   UNL A   1      41.039  31.771  35.696  1.00  0.00     0.074 A 
ATOM     53  C   UNL A   1      42.830  27.415  31.434  1.00  0.00     0.029 A 
ATOM     54  N   UNL A   1      41.766  29.030  32.527  1.00  0.00    -0.354 N 
ATOM     55  N   UNL A   1      41.320  30.889  34.766  1.00  0.00    -0.248 NA
ATOM     56  C   UNL A   1      41.883  31.679  36.894  1.00  0.00     0.031 C 
ATOM     57  C   UNL A   1      43.420  27.560  32.696  1.00  0.00     0.029 A 
ATOM     58  C   UNL A   1      42.774  28.585  33.369  1.00  0.00     0.049 A 
ATOM     59  H   UNL A   1      41.132  29.754  32.741  1.00  0.00     0.167 HD
ATOM     60  C   UNL A   1      42.392  30.152  35.257  1.00  0.00     0.074 A 
ATOM     61  C   UNL A   1      42.707  30.695  36.563  1.00  0.00     0.031 C 
ATOM     62  C   UNL A   1      43.062  29.124  34.677  1.00  0.00     0.034 A 
BRANCH  49  63
ATOM     63  C   UNL A   1      40.906  27.572  29.061  1.00  0.00     0.023 A 
ATOM     64  C   UNL A   1      41.863  27.751  28.044  1.00  0.00     0.031 A 
ATOM     65  C   UNL A   1      39.958  26.549  28.899  1.00  0.00     0.131 A 
ATOM     66  C   UNL A   1      41.786  26.989  26.869  1.00  0.00     0.055 A 
ATOM     67  C   UNL A   1      39.942  25.734  27.765  1.00  0.00     0.041 A 
ATOM     68  F   UNL A   1      39.009  26.342  29.826  1.00  0.00    -0.206 F 
ATOM     69  C   UNL A   1      40.847  25.966  26.731  1.00  0.00     0.022 A 
BRANCH  66  70
ATOM     70  S   UNL A   1      42.813  27.479  25.456  1.00  0.00     0.124 S 
ATOM     71  O   UNL A   1      42.017  28.556  24.872  1.00  0.00    -0.237 OA
ATOM     72  O   UNL A   1      44.060  27.881  26.098  1.00  0.00    -0.237 OA
ATOM     73  O   UNL A   1      42.889  26.263  24.650  1.00  0.00    -0.744 OA
ENDBRANCH  66  70
ENDBRANCH  49  63
BRANCH  50  74
ATOM     74  C   UNL A   1      39.794  33.726  36.876  1.00  0.00     0.023 A 
ATOM     75  C   UNL A   1      39.097  33.271  38.004  1.00  0.00     0.031 A 
ATOM     76  C   UNL A   1      40.299  35.037  36.888  1.00  0.00     0.131 A 
ATOM     77  C   UNL A   1      38.894  34.132  39.092  1.00  0.00     0.055 A 
ATOM     78  C   UNL A   1      40.124  35.880  37.987  1.00  0.00     0.041 A 
ATOM     79  F   UNL A   1      40.983  35.511  35.836  1.00  0.00    -0.206 F 
ATOM     80  C   UNL A   1      39.411  35.431  39.095  1.00  0.00     0.022 A 
BRANCH  77  81
ATOM     81  S   UNL A   1      37.911  33.541  40.497  1.00  0.00     0.124 S 
ATOM     82  O   UNL A   1      36.736  32.995  39.829  1.00  0.00    -0.237 OA
ATOM     83  O   UNL A   1      38.812  32.568  41.109  1.00  0.00    -0.237 OA
ATOM     84  O   UNL A   1      37.680  34.751  41.283  1.00  0.00    -0.744 OA
ENDBRANCH  77  81
ENDBRANCH  50  74
BRANCH  62  85
ATOM     85  C   UNL A   1      44.227  28.556  35.445  1.00  0.00     0.023 A 
ATOM     86  C   UNL A   1      44.053  27.555  36.416  1.00  0.00     0.031 A 
ATOM     87  C   UNL A   1      45.525  29.044  35.215  1.00  0.00     0.131 A 
ATOM     88  C   UNL A   1      45.156  27.104  37.155  1.00  0.00     0.055 A 
ATOM     89  C   UNL A   1      46.625  28.559  35.922  1.00  0.00     0.041 A 
ATOM     90  F   UNL A   1      45.742  30.002  34.301  1.00  0.00    -0.206 F 
ATOM     91  C   UNL A   1      46.443  27.591  36.906  1.00  0.00     0.022 A 
BRANCH  88  92
ATOM     92  S   UNL A   1      44.880  25.919  38.501  1.00  0.00     0.124 S 
ATOM     93  O   UNL A   1      44.115  26.716  39.454  1.00  0.00    -0.237 OA
ATOM     94  O   UNL A   1      44.147  24.849  37.830  1.00  0.00    -0.237 OA
ATOM     95  O   UNL A   1      46.232  25.567  38.931  1.00  0.00    -0.744 OA
ENDBRANCH  88  92
ENDBRANCH  62  85
ENDBRANCH  36  37
ENDBRANCH  28  31
ENDBRANCH  26  27
ENDBRANCH  25  26
ENDBRANCH   1  25
TORSDOF 20
ENDMDL
