MODEL 1
REMARK VINA RESULT:     -12.2      0.000      0.000
REMARK SMILES CS(=O)(=O)N(Cc1ccc(Cl)cc1)c1ccc(C(=O)Nc2ccccc2C(=O)NCCCCNC(=O)c2ccc(-c3c4nc(c(-c5cc(S(=O)(=O)[O-])ccc5F)c5ccc([nH]5)c(-c5cc(S(=O)(=O)[O-])ccc5F)c5nc(c(-c6cc(S(=O)(=O)[O-])ccc6F)c6ccc3[nH]6)C=C5)C=C4)cc2)cc1
REMARK SMILES IDX 30 1 29 2 27 3 28 4 26 6 21 7 22 8 23 9 25 10 24 11 20 12
REMARK SMILES IDX 18 13 19 14 17 16 14 17 15 18 101 19 16 20 100 21 5 22 2 23
REMARK SMILES IDX 1 24 3 25 4 26 6 27 7 28 8 29 13 30 9 31 12 32 10 33 11 34
REMARK SMILES IDX 31 35 32 36 33 37 34 38 35 39 36 41 37 42 38 43 99 44 39 45
REMARK SMILES IDX 98 46 40 47 41 48 42 49 92 50 43 51 97 52 91 53 93 54 44 55
REMARK SMILES IDX 96 56 90 57 89 58 45 60 77 61 57 62 76 63 58 64 61 65 75 66
REMARK SMILES IDX 94 67 59 68 60 69 74 71 95 72 62 73 46 74 47 75 55 76 48 77
REMARK SMILES IDX 54 78 56 79 53 80 49 81 50 82 51 83 52 84 78 85 79 86 87 87
REMARK SMILES IDX 80 88 86 89 88 90 85 91 81 92 82 93 83 94 84 95 63 96 64 97
REMARK SMILES IDX 72 98 65 99 71 100 73 101 70 102 66 103 67 104 68 105 69 106
REMARK H PARENT 29 5 20 15 34 40 93 59 61 70
REMARK Flexibility Score: inf
ROOT
ATOM      1  C   UNL A   1      30.192  30.832  24.718  1.00  0.00     0.116 C 
ENDROOT
BRANCH   1   2
ATOM      2  N   UNL A   1      29.652  30.827  23.374  1.00  0.00    -0.352 N 
ATOM      3  C   UNL A   1      29.368  29.782  22.526  1.00  0.00     0.253 C 
ATOM      4  O   UNL A   1      28.899  30.058  21.420  1.00  0.00    -0.269 OA
ATOM      5  H   UNL A   1      29.454  31.718  23.007  1.00  0.00     0.163 HD
BRANCH   3   6
ATOM      6  C   UNL A   1      29.686  28.354  22.835  1.00  0.00     0.063 A 
ATOM      7  C   UNL A   1      30.843  27.630  22.489  1.00  0.00     0.054 A 
ATOM      8  C   UNL A   1      30.876  26.241  22.710  1.00  0.00     0.027 A 
ATOM      9  C   UNL A   1      29.859  25.598  23.412  1.00  0.00     0.002 A 
ATOM     10  C   UNL A   1      28.677  27.688  23.564  1.00  0.00     0.016 A 
ATOM     11  C   UNL A   1      28.773  26.330  23.871  1.00  0.00     0.001 A 
BRANCH   7  12
ATOM     12  N   UNL A   1      32.061  28.152  22.017  1.00  0.00    -0.321 N 
ATOM     13  C   UNL A   1      33.355  27.883  22.402  1.00  0.00     0.255 C 
ATOM     14  O   UNL A   1      34.263  28.610  22.004  1.00  0.00    -0.269 OA
ATOM     15  H   UNL A   1      31.975  28.814  21.294  1.00  0.00     0.170 HD
BRANCH  13  16
ATOM     16  C   UNL A   1      33.679  26.704  23.230  1.00  0.00     0.040 A 
ATOM     17  C   UNL A   1      34.264  24.388  24.744  1.00  0.00     0.052 A 
ATOM     18  C   UNL A   1      34.253  24.366  23.339  1.00  0.00     0.028 A 
ATOM     19  C   UNL A   1      33.994  25.614  25.367  1.00  0.00     0.028 A 
ATOM     20  C   UNL A   1      33.946  25.502  22.587  1.00  0.00     0.016 A 
ATOM     21  C   UNL A   1      33.678  26.755  24.623  1.00  0.00     0.016 A 
BRANCH  17  22
ATOM     22  N   UNL A   1      34.477  23.159  25.506  1.00  0.00    -0.266 N 
BRANCH  22  23
ATOM     23  S   UNL A   1      35.992  22.422  25.446  1.00  0.00     0.232 S 
ATOM     24  C   UNL A   1      37.189  23.676  25.853  1.00  0.00     0.183 C 
ATOM     25  O   UNL A   1      36.238  22.046  24.066  1.00  0.00    -0.207 OA
ATOM     26  O   UNL A   1      36.065  21.423  26.494  1.00  0.00    -0.207 OA
ENDBRANCH  22  23
BRANCH  22  27
ATOM     27  C   UNL A   1      33.298  22.419  26.016  1.00  0.00     0.170 C 
BRANCH  27  28
ATOM     28  C   UNL A   1      32.883  21.260  25.118  1.00  0.00    -0.027 A 
ATOM     29  C   UNL A   1      32.361  21.476  23.827  1.00  0.00     0.007 A 
ATOM     30  C   UNL A   1      33.116  19.940  25.535  1.00  0.00     0.007 A 
ATOM     31  C   UNL A   1      32.174  20.409  22.946  1.00  0.00     0.021 A 
ATOM     32  C   UNL A   1      32.914  18.872  24.655  1.00  0.00     0.021 A 
ATOM     33  C   UNL A   1      32.464  19.114  23.359  1.00  0.00     0.041 A 
ATOM     34  Cl  UNL A   1      32.297  17.810  22.251  1.00  0.00    -0.084 Cl
ENDBRANCH  27  28
ENDBRANCH  22  27
ENDBRANCH  17  22
ENDBRANCH  13  16
ENDBRANCH   7  12
ENDBRANCH   3   6
ENDBRANCH   1   2
BRANCH   1  35
ATOM     35  C   UNL A   1      31.498  30.058  24.875  1.00  0.00     0.023 C 
BRANCH  35  36
ATOM     36  C   UNL A   1      31.886  29.653  26.301  1.00  0.00     0.023 C 
BRANCH  36  37
ATOM     37  C   UNL A   1      33.293  30.021  26.771  1.00  0.00     0.116 C 
BRANCH  37  38
ATOM     38  N   UNL A   1      33.381  31.314  27.430  1.00  0.00    -0.352 N 
ATOM     39  C   UNL A   1      34.336  31.818  28.287  1.00  0.00     0.251 C 
ATOM     40  H   UNL A   1      32.639  31.930  27.229  1.00  0.00     0.163 HD
ATOM     41  O   UNL A   1      34.156  32.898  28.833  1.00  0.00    -0.269 OA
BRANCH  39  42
ATOM     42  C   UNL A   1      35.557  31.031  28.584  1.00  0.00     0.039 A 
ATOM     43  C   UNL A   1      36.776  31.447  28.041  1.00  0.00     0.014 A 
ATOM     44  C   UNL A   1      35.507  29.901  29.402  1.00  0.00     0.014 A 
ATOM     45  C   UNL A   1      37.957  30.797  28.412  1.00  0.00     0.010 A 
ATOM     46  C   UNL A   1      36.693  29.308  29.835  1.00  0.00     0.010 A 
ATOM     47  C   UNL A   1      37.933  29.761  29.360  1.00  0.00    -0.014 A 
BRANCH  47  48
ATOM     48  C   UNL A   1      39.190  29.160  29.886  1.00  0.00     0.031 A 
ATOM     49  C   UNL A   1      39.866  29.744  31.097  1.00  0.00     0.074 A 
ATOM     50  C   UNL A   1      39.765  28.133  29.226  1.00  0.00     0.049 A 
ATOM     51  N   UNL A   1      41.010  29.420  31.645  1.00  0.00    -0.248 NA
ATOM     52  C   UNL A   1      39.178  30.862  31.755  1.00  0.00     0.031 C 
ATOM     53  C   UNL A   1      39.235  27.502  28.015  1.00  0.00     0.029 A 
ATOM     54  N   UNL A   1      40.927  27.443  29.474  1.00  0.00    -0.354 N 
ATOM     55  C   UNL A   1      41.184  30.300  32.707  1.00  0.00     0.074 A 
ATOM     56  C   UNL A   1      40.062  31.216  32.676  1.00  0.00     0.031 C 
ATOM     57  C   UNL A   1      40.050  26.501  27.646  1.00  0.00     0.029 A 
ATOM     58  C   UNL A   1      41.186  26.446  28.560  1.00  0.00     0.049 A 
ATOM     59  H   UNL A   1      41.519  27.643  30.234  1.00  0.00     0.167 HD
ATOM     60  C   UNL A   1      42.171  30.330  33.638  1.00  0.00     0.034 A 
ATOM     61  C   UNL A   1      42.223  25.591  28.464  1.00  0.00     0.034 A 
ATOM     62  C   UNL A   1      43.282  29.407  33.661  1.00  0.00     0.049 A 
ATOM     63  C   UNL A   1      43.329  25.664  29.486  1.00  0.00     0.074 A 
ATOM     64  C   UNL A   1      44.314  29.321  34.581  1.00  0.00     0.029 A 
ATOM     65  N   UNL A   1      43.512  28.416  32.716  1.00  0.00    -0.354 N 
ATOM     66  N   UNL A   1      43.457  26.478  30.508  1.00  0.00    -0.248 NA
ATOM     67  C   UNL A   1      44.424  24.696  29.345  1.00  0.00     0.031 C 
ATOM     68  C   UNL A   1      45.198  28.320  34.159  1.00  0.00     0.029 A 
ATOM     69  C   UNL A   1      44.682  27.731  33.015  1.00  0.00     0.049 A 
ATOM     70  H   UNL A   1      42.930  28.225  31.946  1.00  0.00     0.167 HD
ATOM     71  C   UNL A   1      44.632  26.096  31.150  1.00  0.00     0.074 A 
ATOM     72  C   UNL A   1      45.167  24.974  30.406  1.00  0.00     0.031 C 
ATOM     73  C   UNL A   1      45.212  26.621  32.259  1.00  0.00     0.034 A 
BRANCH  60  74
ATOM     74  C   UNL A   1      42.093  31.411  34.691  1.00  0.00     0.023 A 
ATOM     75  C   UNL A   1      42.756  32.641  34.531  1.00  0.00     0.031 A 
ATOM     76  C   UNL A   1      41.388  31.196  35.889  1.00  0.00     0.131 A 
ATOM     77  C   UNL A   1      42.781  33.567  35.584  1.00  0.00     0.055 A 
ATOM     78  C   UNL A   1      41.344  32.160  36.898  1.00  0.00     0.041 A 
ATOM     79  F   UNL A   1      40.748  30.037  36.108  1.00  0.00    -0.206 F 
ATOM     80  C   UNL A   1      42.059  33.346  36.758  1.00  0.00     0.022 A 
BRANCH  77  81
ATOM     81  S   UNL A   1      43.904  34.986  35.459  1.00  0.00     0.124 S 
ATOM     82  O   UNL A   1      43.791  35.569  36.794  1.00  0.00    -0.237 OA
ATOM     83  O   UNL A   1      45.179  34.352  35.144  1.00  0.00    -0.237 OA
ATOM     84  O   UNL A   1      43.324  35.790  34.386  1.00  0.00    -0.744 OA
ENDBRANCH  77  81
ENDBRANCH  60  74
BRANCH  61  85
ATOM     85  C   UNL A   1      42.277  24.588  27.362  1.00  0.00     0.023 A 
ATOM     86  C   UNL A   1      41.540  23.396  27.439  1.00  0.00     0.031 A 
ATOM     87  C   UNL A   1      43.095  24.787  26.236  1.00  0.00     0.131 A 
ATOM     88  C   UNL A   1      41.671  22.426  26.432  1.00  0.00     0.055 A 
ATOM     89  C   UNL A   1      43.183  23.841  25.212  1.00  0.00     0.041 A 
ATOM     90  F   UNL A   1      43.816  25.912  26.110  1.00  0.00    -0.206 F 
ATOM     91  C   UNL A   1      42.477  22.646  25.314  1.00  0.00     0.022 A 
BRANCH  88  92
ATOM     92  S   UNL A   1      40.828  20.834  26.645  1.00  0.00     0.124 S 
ATOM     93  O   UNL A   1      40.830  20.689  28.097  1.00  0.00    -0.237 OA
ATOM     94  O   UNL A   1      39.531  21.093  26.029  1.00  0.00    -0.237 OA
ATOM     95  O   UNL A   1      41.683  19.897  25.921  1.00  0.00    -0.744 OA
ENDBRANCH  88  92
ENDBRANCH  61  85
BRANCH  73  96
ATOM     96  C   UNL A   1      46.468  25.948  32.759  1.00  0.00     0.023 A 
ATOM     97  C   UNL A   1      46.424  24.878  33.670  1.00  0.00     0.031 A 
ATOM     98  C   UNL A   1      47.728  26.397  32.325  1.00  0.00     0.131 A 
ATOM     99  C   UNL A   1      47.619  24.329  34.160  1.00  0.00     0.055 A 
ATOM    100  C   UNL A   1      48.912  25.809  32.772  1.00  0.00     0.041 A 
ATOM    101  F   UNL A   1      47.829  27.417  31.458  1.00  0.00    -0.206 F 
ATOM    102  C   UNL A   1      48.863  24.776  33.704  1.00  0.00     0.022 A 
BRANCH  99 103
ATOM    103  S   UNL A   1      47.531  23.076  35.469  1.00  0.00     0.124 S 
ATOM    104  O   UNL A   1      48.918  23.008  35.918  1.00  0.00    -0.237 OA
ATOM    105  O   UNL A   1      46.586  23.672  36.408  1.00  0.00    -0.237 OA
ATOM    106  O   UNL A   1      47.045  21.885  34.775  1.00  0.00    -0.744 OA
ENDBRANCH  99 103
ENDBRANCH  73  96
ENDBRANCH  47  48
ENDBRANCH  39  42
ENDBRANCH  37  38
ENDBRANCH  36  37
ENDBRANCH  35  36
ENDBRANCH   1  35
TORSDOF 20
ENDMDL
MODEL 2
REMARK VINA RESULT:     -12.2      2.058      7.249
REMARK SMILES CS(=O)(=O)N(Cc1ccc(Cl)cc1)c1ccc(C(=O)Nc2ccccc2C(=O)NCCCCNC(=O)c2ccc(-c3c4nc(c(-c5cc(S(=O)(=O)[O-])ccc5F)c5ccc([nH]5)c(-c5cc(S(=O)(=O)[O-])ccc5F)c5nc(c(-c6cc(S(=O)(=O)[O-])ccc6F)c6ccc3[nH]6)C=C5)C=C4)cc2)cc1
REMARK SMILES IDX 30 1 29 2 27 3 28 4 26 6 21 7 22 8 23 9 25 10 24 11 20 12
REMARK SMILES IDX 18 13 19 14 17 16 14 17 15 18 101 19 16 20 100 21 5 22 2 23
REMARK SMILES IDX 1 24 3 25 4 26 6 27 7 28 8 29 13 30 9 31 12 32 10 33 11 34
REMARK SMILES IDX 31 35 32 36 33 37 34 38 35 39 36 41 37 42 38 43 99 44 39 45
REMARK SMILES IDX 98 46 40 47 41 48 42 49 92 50 43 51 97 52 91 53 93 54 44 55
REMARK SMILES IDX 96 56 90 57 89 58 45 60 77 61 57 62 76 63 58 64 61 65 75 66
REMARK SMILES IDX 94 67 59 68 60 69 74 71 95 72 62 73 46 74 47 75 55 76 48 77
REMARK SMILES IDX 54 78 56 79 53 80 49 81 50 82 51 83 52 84 78 85 79 86 87 87
REMARK SMILES IDX 80 88 86 89 88 90 85 91 81 92 82 93 83 94 84 95 63 96 64 97
REMARK SMILES IDX 72 98 65 99 71 100 73 101 70 102 66 103 67 104 68 105 69 106
REMARK H PARENT 29 5 20 15 34 40 93 59 61 70
REMARK Flexibility Score: inf
ROOT
ATOM      1  C   UNL A   1      30.152  30.843  24.622  1.00  0.00     0.116 C 
ENDROOT
BRANCH   1   2
ATOM      2  N   UNL A   1      29.606  30.772  23.282  1.00  0.00    -0.352 N 
ATOM      3  C   UNL A   1      29.335  29.687  22.482  1.00  0.00     0.253 C 
ATOM      4  O   UNL A   1      28.857  29.906  21.367  1.00  0.00    -0.269 OA
ATOM      5  H   UNL A   1      29.394  31.643  22.876  1.00  0.00     0.163 HD
BRANCH   3   6
ATOM      6  C   UNL A   1      29.675  28.279  22.852  1.00  0.00     0.063 A 
ATOM      7  C   UNL A   1      30.831  27.549  22.513  1.00  0.00     0.054 A 
ATOM      8  C   UNL A   1      30.884  26.172  22.800  1.00  0.00     0.027 A 
ATOM      9  C   UNL A   1      29.891  25.556  23.557  1.00  0.00     0.002 A 
ATOM     10  C   UNL A   1      28.690  27.639  23.636  1.00  0.00     0.016 A 
ATOM     11  C   UNL A   1      28.809  26.299  24.006  1.00  0.00     0.001 A 
BRANCH   7  12
ATOM     12  N   UNL A   1      32.032  28.059  21.987  1.00  0.00    -0.321 N 
ATOM     13  C   UNL A   1      33.339  27.758  22.295  1.00  0.00     0.255 C 
ATOM     14  O   UNL A   1      34.238  28.477  21.864  1.00  0.00    -0.269 OA
ATOM     15  H   UNL A   1      31.920  28.739  21.283  1.00  0.00     0.170 HD
BRANCH  13  16
ATOM     16  C   UNL A   1      33.684  26.555  23.079  1.00  0.00     0.040 A 
ATOM     17  C   UNL A   1      34.388  24.309  24.647  1.00  0.00     0.052 A 
ATOM     18  C   UNL A   1      34.151  25.567  25.227  1.00  0.00     0.028 A 
ATOM     19  C   UNL A   1      34.241  24.207  23.257  1.00  0.00     0.028 A 
ATOM     20  C   UNL A   1      33.821  26.683  24.455  1.00  0.00     0.016 A 
ATOM     21  C   UNL A   1      33.920  25.320  22.475  1.00  0.00     0.016 A 
BRANCH  17  22
ATOM     22  N   UNL A   1      34.842  23.186  25.465  1.00  0.00    -0.266 N 
BRANCH  22  23
ATOM     23  S   UNL A   1      36.485  22.813  25.487  1.00  0.00     0.232 S 
ATOM     24  C   UNL A   1      36.900  22.230  23.856  1.00  0.00     0.183 C 
ATOM     25  O   UNL A   1      36.666  21.690  26.388  1.00  0.00    -0.207 OA
ATOM     26  O   UNL A   1      37.237  24.035  25.693  1.00  0.00    -0.207 OA
ENDBRANCH  22  23
BRANCH  22  27
ATOM     27  C   UNL A   1      33.841  22.212  25.963  1.00  0.00     0.170 C 
BRANCH  27  28
ATOM     28  C   UNL A   1      33.547  21.093  24.972  1.00  0.00    -0.027 A 
ATOM     29  C   UNL A   1      34.130  19.817  25.105  1.00  0.00     0.007 A 
ATOM     30  C   UNL A   1      32.596  21.293  23.958  1.00  0.00     0.007 A 
ATOM     31  C   UNL A   1      33.700  18.750  24.313  1.00  0.00     0.021 A 
ATOM     32  C   UNL A   1      32.178  20.226  23.156  1.00  0.00     0.021 A 
ATOM     33  C   UNL A   1      32.717  18.956  23.352  1.00  0.00     0.041 A 
ATOM     34  Cl  UNL A   1      32.142  17.629  22.425  1.00  0.00    -0.084 Cl
ENDBRANCH  27  28
ENDBRANCH  22  27
ENDBRANCH  17  22
ENDBRANCH  13  16
ENDBRANCH   7  12
ENDBRANCH   3   6
ENDBRANCH   1   2
BRANCH   1  35
ATOM     35  C   UNL A   1      31.502  30.152  24.791  1.00  0.00     0.023 C 
BRANCH  35  36
ATOM     36  C   UNL A   1      31.678  29.294  26.047  1.00  0.00     0.023 C 
BRANCH  36  37
ATOM     37  C   UNL A   1      32.529  29.877  27.175  1.00  0.00     0.116 C 
BRANCH  37  38
ATOM     38  N   UNL A   1      32.580  31.330  27.191  1.00  0.00    -0.352 N 
ATOM     39  C   UNL A   1      33.579  32.186  27.605  1.00  0.00     0.251 C 
ATOM     40  H   UNL A   1      31.770  31.775  26.851  1.00  0.00     0.163 HD
ATOM     41  O   UNL A   1      33.370  33.390  27.651  1.00  0.00    -0.269 OA
BRANCH  39  42
ATOM     42  C   UNL A   1      34.889  31.643  28.039  1.00  0.00     0.039 A 
ATOM     43  C   UNL A   1      35.991  32.502  28.091  1.00  0.00     0.014 A 
ATOM     44  C   UNL A   1      35.031  30.304  28.406  1.00  0.00     0.014 A 
ATOM     45  C   UNL A   1      37.202  32.043  28.619  1.00  0.00     0.010 A 
ATOM     46  C   UNL A   1      36.213  29.873  29.007  1.00  0.00     0.010 A 
ATOM     47  C   UNL A   1      37.306  30.743  29.139  1.00  0.00    -0.014 A 
BRANCH  47  48
ATOM     48  C   UNL A   1      38.534  30.284  29.845  1.00  0.00     0.031 A 
ATOM     49  C   UNL A   1      39.427  29.245  29.223  1.00  0.00     0.074 A 
ATOM     50  C   UNL A   1      38.805  30.748  31.082  1.00  0.00     0.049 A 
ATOM     51  N   UNL A   1      40.483  28.653  29.723  1.00  0.00    -0.248 NA
ATOM     52  C   UNL A   1      39.062  28.787  27.876  1.00  0.00     0.031 C 
ATOM     53  C   UNL A   1      37.997  31.726  31.815  1.00  0.00     0.029 A 
ATOM     54  N   UNL A   1      39.830  30.455  31.948  1.00  0.00    -0.354 N 
ATOM     55  C   UNL A   1      40.902  27.747  28.755  1.00  0.00     0.074 A 
ATOM     56  C   UNL A   1      39.942  27.818  27.673  1.00  0.00     0.031 C 
ATOM     57  C   UNL A   1      38.573  31.974  33.002  1.00  0.00     0.029 A 
ATOM     58  C   UNL A   1      39.763  31.140  33.141  1.00  0.00     0.049 A 
ATOM     59  H   UNL A   1      40.546  29.814  31.737  1.00  0.00     0.167 HD
ATOM     60  C   UNL A   1      42.000  26.947  28.753  1.00  0.00     0.034 A 
ATOM     61  C   UNL A   1      40.561  31.097  34.225  1.00  0.00     0.034 A 
ATOM     62  C   UNL A   1      42.954  26.888  29.836  1.00  0.00     0.049 A 
ATOM     63  C   UNL A   1      41.754  30.175  34.219  1.00  0.00     0.074 A 
ATOM     64  C   UNL A   1      44.120  26.147  29.921  1.00  0.00     0.029 A 
ATOM     65  N   UNL A   1      42.847  27.593  31.029  1.00  0.00    -0.354 N 
ATOM     66  N   UNL A   1      42.158  29.353  33.278  1.00  0.00    -0.248 NA
ATOM     67  C   UNL A   1      42.601  30.182  35.418  1.00  0.00     0.031 C 
ATOM     68  C   UNL A   1      44.685  26.355  31.184  1.00  0.00     0.029 A 
ATOM     69  C   UNL A   1      43.912  27.284  31.864  1.00  0.00     0.049 A 
ATOM     70  H   UNL A   1      42.124  28.223  31.249  1.00  0.00     0.167 HD
ATOM     71  C   UNL A   1      43.327  28.771  33.762  1.00  0.00     0.074 A 
ATOM     72  C   UNL A   1      43.567  29.343  35.071  1.00  0.00     0.031 C 
ATOM     73  C   UNL A   1      44.134  27.852  33.172  1.00  0.00     0.034 A 
BRANCH  60  74
ATOM     74  C   UNL A   1      42.204  26.061  27.546  1.00  0.00     0.023 A 
ATOM     75  C   UNL A   1      41.675  24.759  27.493  1.00  0.00     0.031 A 
ATOM     76  C   UNL A   1      42.975  26.502  26.455  1.00  0.00     0.131 A 
ATOM     77  C   UNL A   1      42.000  23.913  26.423  1.00  0.00     0.055 A 
ATOM     78  C   UNL A   1      43.221  25.683  25.351  1.00  0.00     0.041 A 
ATOM     79  F   UNL A   1      43.520  27.728  26.454  1.00  0.00    -0.206 F 
ATOM     80  C   UNL A   1      42.749  24.373  25.339  1.00  0.00     0.022 A 
BRANCH  77  81
ATOM     81  S   UNL A   1      41.567  22.156  26.550  1.00  0.00     0.124 S 
ATOM     82  O   UNL A   1      40.139  22.181  26.242  1.00  0.00    -0.237 OA
ATOM     83  O   UNL A   1      42.427  21.546  25.543  1.00  0.00    -0.237 OA
ATOM     84  O   UNL A   1      41.891  21.821  27.935  1.00  0.00    -0.744 OA
ENDBRANCH  77  81
ENDBRANCH  60  74
BRANCH  61  85
ATOM     85  C   UNL A   1      40.269  31.948  35.414  1.00  0.00     0.023 A 
ATOM     86  C   UNL A   1      39.235  31.611  36.301  1.00  0.00     0.031 A 
ATOM     87  C   UNL A   1      40.991  33.129  35.660  1.00  0.00     0.131 A 
ATOM     88  C   UNL A   1      38.919  32.469  37.367  1.00  0.00     0.055 A 
ATOM     89  C   UNL A   1      40.707  33.953  36.750  1.00  0.00     0.041 A 
ATOM     90  F   UNL A   1      41.993  33.494  34.846  1.00  0.00    -0.206 F 
ATOM     91  C   UNL A   1      39.656  33.631  37.604  1.00  0.00     0.022 A 
BRANCH  88  92
ATOM     92  S   UNL A   1      37.476  32.082  38.395  1.00  0.00     0.124 S 
ATOM     93  O   UNL A   1      37.286  30.662  38.119  1.00  0.00    -0.237 OA
ATOM     94  O   UNL A   1      37.958  32.417  39.731  1.00  0.00    -0.237 OA
ATOM     95  O   UNL A   1      36.438  32.966  37.871  1.00  0.00    -0.744 OA
ENDBRANCH  88  92
ENDBRANCH  61  85
BRANCH  73  96
ATOM     96  C   UNL A   1      45.379  27.450  33.927  1.00  0.00     0.023 A 
ATOM     97  C   UNL A   1      45.392  26.350  34.803  1.00  0.00     0.031 A 
ATOM     98  C   UNL A   1      46.564  28.191  33.776  1.00  0.00     0.131 A 
ATOM     99  C   UNL A   1      46.553  26.055  35.535  1.00  0.00     0.055 A 
ATOM    100  C   UNL A   1      47.732  27.858  34.464  1.00  0.00     0.041 A 
ATOM    101  F   UNL A   1      46.606  29.253  32.956  1.00  0.00    -0.206 F 
ATOM    102  C   UNL A   1      47.727  26.792  35.359  1.00  0.00     0.022 A 
BRANCH  99 103
ATOM    103  S   UNL A   1      46.483  24.747  36.790  1.00  0.00     0.124 S 
ATOM    104  O   UNL A   1      45.046  24.610  37.007  1.00  0.00    -0.237 OA
ATOM    105  O   UNL A   1      47.135  23.630  36.113  1.00  0.00    -0.237 OA
ATOM    106  O   UNL A   1      47.229  25.308  37.915  1.00  0.00    -0.744 OA
ENDBRANCH  99 103
ENDBRANCH  73  96
ENDBRANCH  47  48
ENDBRANCH  39  42
ENDBRANCH  37  38
ENDBRANCH  36  37
ENDBRANCH  35  36
ENDBRANCH   1  35
TORSDOF 20
ENDMDL
MODEL 3
REMARK VINA RESULT:     -12.0      3.157      7.810
REMARK SMILES CS(=O)(=O)N(Cc1ccc(Cl)cc1)c1ccc(C(=O)Nc2ccccc2C(=O)NCCCCNC(=O)c2ccc(-c3c4nc(c(-c5cc(S(=O)(=O)[O-])ccc5F)c5ccc([nH]5)c(-c5cc(S(=O)(=O)[O-])ccc5F)c5nc(c(-c6cc(S(=O)(=O)[O-])ccc6F)c6ccc3[nH]6)C=C5)C=C4)cc2)cc1
REMARK SMILES IDX 30 1 29 2 27 3 28 4 26 6 21 7 22 8 23 9 25 10 24 11 20 12
REMARK SMILES IDX 18 13 19 14 17 16 14 17 15 18 101 19 16 20 100 21 5 22 2 23
REMARK SMILES IDX 1 24 3 25 4 26 6 27 7 28 8 29 13 30 9 31 12 32 10 33 11 34
REMARK SMILES IDX 31 35 32 36 33 37 34 38 35 39 36 41 37 42 38 43 99 44 39 45
REMARK SMILES IDX 98 46 40 47 41 48 42 49 92 50 43 51 97 52 91 53 93 54 44 55
REMARK SMILES IDX 96 56 90 57 89 58 45 60 77 61 57 62 76 63 58 64 61 65 75 66
REMARK SMILES IDX 94 67 59 68 60 69 74 71 95 72 62 73 46 74 47 75 55 76 48 77
REMARK SMILES IDX 54 78 56 79 53 80 49 81 50 82 51 83 52 84 78 85 79 86 87 87
REMARK SMILES IDX 80 88 86 89 88 90 85 91 81 92 82 93 83 94 84 95 63 96 64 97
REMARK SMILES IDX 72 98 65 99 71 100 73 101 70 102 66 103 67 104 68 105 69 106
REMARK H PARENT 29 5 20 15 34 40 93 59 61 70
REMARK Flexibility Score: inf
ROOT
ATOM      1  C   UNL A   1      34.065  28.895  26.669  1.00  0.00     0.116 C 
ENDROOT
BRANCH   1   2
ATOM      2  N   UNL A   1      34.039  29.265  25.269  1.00  0.00    -0.352 N 
ATOM      3  C   UNL A   1      33.179  28.897  24.261  1.00  0.00     0.253 C 
ATOM      4  O   UNL A   1      33.379  29.369  23.141  1.00  0.00    -0.269 OA
ATOM      5  H   UNL A   1      34.755  29.881  24.992  1.00  0.00     0.163 HD
BRANCH   3   6
ATOM      6  C   UNL A   1      32.086  27.891  24.431  1.00  0.00     0.063 A 
ATOM      7  C   UNL A   1      31.460  27.115  23.436  1.00  0.00     0.054 A 
ATOM      8  C   UNL A   1      30.322  26.358  23.769  1.00  0.00     0.027 A 
ATOM      9  C   UNL A   1      29.903  26.230  25.091  1.00  0.00     0.002 A 
ATOM     10  C   UNL A   1      31.657  27.730  25.767  1.00  0.00     0.016 A 
ATOM     11  C   UNL A   1      30.593  26.890  26.097  1.00  0.00     0.001 A 
BRANCH   7  12
ATOM     12  N   UNL A   1      31.900  26.915  22.115  1.00  0.00    -0.321 N 
ATOM     13  C   UNL A   1      32.878  26.085  21.617  1.00  0.00     0.255 C 
ATOM     14  O   UNL A   1      33.247  26.223  20.452  1.00  0.00    -0.269 OA
ATOM     15  H   UNL A   1      31.432  27.454  21.437  1.00  0.00     0.170 HD
BRANCH  13  16
ATOM     16  C   UNL A   1      33.445  24.993  22.433  1.00  0.00     0.040 A 
ATOM     17  C   UNL A   1      34.602  22.962  24.026  1.00  0.00     0.052 A 
ATOM     18  C   UNL A   1      34.719  24.321  24.366  1.00  0.00     0.028 A 
ATOM     19  C   UNL A   1      33.867  22.651  22.874  1.00  0.00     0.028 A 
ATOM     20  C   UNL A   1      34.166  25.328  23.572  1.00  0.00     0.016 A 
ATOM     21  C   UNL A   1      33.317  23.652  22.069  1.00  0.00     0.016 A 
BRANCH  17  22
ATOM     22  N   UNL A   1      35.286  21.937  24.812  1.00  0.00    -0.266 N 
BRANCH  22  23
ATOM     23  S   UNL A   1      36.932  21.682  24.551  1.00  0.00     0.232 S 
ATOM     24  C   UNL A   1      37.801  22.702  25.725  1.00  0.00     0.183 C 
ATOM     25  O   UNL A   1      37.250  22.202  23.234  1.00  0.00    -0.207 OA
ATOM     26  O   UNL A   1      37.248  20.307  24.883  1.00  0.00    -0.207 OA
ENDBRANCH  22  23
BRANCH  22  27
ATOM     27  C   UNL A   1      34.475  20.936  25.545  1.00  0.00     0.170 C 
BRANCH  27  28
ATOM     28  C   UNL A   1      33.153  21.494  26.060  1.00  0.00    -0.027 A 
ATOM     29  C   UNL A   1      33.094  22.315  27.204  1.00  0.00     0.007 A 
ATOM     30  C   UNL A   1      31.975  21.278  25.328  1.00  0.00     0.007 A 
ATOM     31  C   UNL A   1      31.914  22.979  27.545  1.00  0.00     0.021 A 
ATOM     32  C   UNL A   1      30.790  21.932  25.681  1.00  0.00     0.021 A 
ATOM     33  C   UNL A   1      30.771  22.795  26.774  1.00  0.00     0.041 A 
ATOM     34  Cl  UNL A   1      29.339  23.664  27.156  1.00  0.00    -0.084 Cl
ENDBRANCH  27  28
ENDBRANCH  22  27
ENDBRANCH  17  22
ENDBRANCH  13  16
ENDBRANCH   7  12
ENDBRANCH   3   6
ENDBRANCH   1   2
BRANCH   1  35
ATOM     35  C   UNL A   1      34.387  30.046  27.619  1.00  0.00     0.023 C 
BRANCH  35  36
ATOM     36  C   UNL A   1      33.349  31.168  27.711  1.00  0.00     0.023 C 
BRANCH  36  37
ATOM     37  C   UNL A   1      33.736  32.524  27.122  1.00  0.00     0.116 C 
BRANCH  37  38
ATOM     38  N   UNL A   1      33.096  33.659  27.767  1.00  0.00    -0.352 N 
ATOM     39  C   UNL A   1      33.381  34.287  28.961  1.00  0.00     0.251 C 
ATOM     40  H   UNL A   1      32.336  34.041  27.270  1.00  0.00     0.163 HD
ATOM     41  O   UNL A   1      32.633  35.157  29.386  1.00  0.00    -0.269 OA
BRANCH  39  42
ATOM     42  C   UNL A   1      34.566  33.877  29.752  1.00  0.00     0.039 A 
ATOM     43  C   UNL A   1      34.384  33.037  30.855  1.00  0.00     0.014 A 
ATOM     44  C   UNL A   1      35.850  34.302  29.405  1.00  0.00     0.014 A 
ATOM     45  C   UNL A   1      35.497  32.535  31.536  1.00  0.00     0.010 A 
ATOM     46  C   UNL A   1      36.959  33.736  30.032  1.00  0.00     0.010 A 
ATOM     47  C   UNL A   1      36.796  32.831  31.092  1.00  0.00    -0.014 A 
BRANCH  47  48
ATOM     48  C   UNL A   1      37.991  32.186  31.702  1.00  0.00     0.031 A 
ATOM     49  C   UNL A   1      38.683  31.047  31.002  1.00  0.00     0.074 A 
ATOM     50  C   UNL A   1      38.409  32.574  32.925  1.00  0.00     0.049 A 
ATOM     51  N   UNL A   1      39.676  30.300  31.416  1.00  0.00    -0.248 NA
ATOM     52  C   UNL A   1      38.167  30.681  29.677  1.00  0.00     0.031 C 
ATOM     53  C   UNL A   1      37.799  33.637  33.728  1.00  0.00     0.029 A 
ATOM     54  N   UNL A   1      39.437  32.117  33.711  1.00  0.00    -0.354 N 
ATOM     55  C   UNL A   1      39.896  29.369  30.407  1.00  0.00     0.074 A 
ATOM     56  C   UNL A   1      38.884  29.604  29.397  1.00  0.00     0.031 C 
ATOM     57  C   UNL A   1      38.483  33.770  34.876  1.00  0.00     0.029 A 
ATOM     58  C   UNL A   1      39.549  32.774  34.916  1.00  0.00     0.049 A 
ATOM     59  H   UNL A   1      40.039  31.388  33.439  1.00  0.00     0.167 HD
ATOM     60  C   UNL A   1      40.865  28.423  30.315  1.00  0.00     0.034 A 
ATOM     61  C   UNL A   1      40.405  32.591  35.941  1.00  0.00     0.034 A 
ATOM     62  C   UNL A   1      41.872  28.203  31.326  1.00  0.00     0.049 A 
ATOM     63  C   UNL A   1      41.451  31.510  35.836  1.00  0.00     0.074 A 
ATOM     64  C   UNL A   1      42.924  27.303  31.316  1.00  0.00     0.029 A 
ATOM     65  N   UNL A   1      41.948  28.885  32.535  1.00  0.00    -0.354 N 
ATOM     66  N   UNL A   1      41.669  30.664  34.856  1.00  0.00    -0.248 NA
ATOM     67  C   UNL A   1      42.370  31.367  36.972  1.00  0.00     0.031 C 
ATOM     68  C   UNL A   1      43.597  27.397  32.540  1.00  0.00     0.029 A 
ATOM     69  C   UNL A   1      43.012  28.407  33.287  1.00  0.00     0.049 A 
ATOM     70  H   UNL A   1      41.338  29.604  32.816  1.00  0.00     0.167 HD
ATOM     71  C   UNL A   1      42.774  29.912  35.246  1.00  0.00     0.074 A 
ATOM     72  C   UNL A   1      43.180  30.410  36.544  1.00  0.00     0.031 C 
ATOM     73  C   UNL A   1      43.400  28.904  34.586  1.00  0.00     0.034 A 
BRANCH  60  74
ATOM     74  C   UNL A   1      40.859  27.550  29.082  1.00  0.00     0.023 A 
ATOM     75  C   UNL A   1      41.792  27.734  28.047  1.00  0.00     0.031 A 
ATOM     76  C   UNL A   1      39.883  26.551  28.915  1.00  0.00     0.131 A 
ATOM     77  C   UNL A   1      41.673  27.003  26.855  1.00  0.00     0.055 A 
ATOM     78  C   UNL A   1      39.824  25.766  27.762  1.00  0.00     0.041 A 
ATOM     79  F   UNL A   1      38.954  26.337  29.861  1.00  0.00    -0.206 F 
ATOM     80  C   UNL A   1      40.711  26.002  26.715  1.00  0.00     0.022 A 
BRANCH  77  81
ATOM     81  S   UNL A   1      42.689  27.495  25.435  1.00  0.00     0.124 S 
ATOM     82  O   UNL A   1      43.960  27.820  26.081  1.00  0.00    -0.237 OA
ATOM     83  O   UNL A   1      42.680  26.294  24.610  1.00  0.00    -0.237 OA
ATOM     84  O   UNL A   1      41.972  28.641  24.880  1.00  0.00    -0.744 OA
ENDBRANCH  77  81
ENDBRANCH  60  74
BRANCH  61  85
ATOM     85  C   UNL A   1      40.318  33.443  37.161  1.00  0.00     0.023 A 
ATOM     86  C   UNL A   1      39.716  32.959  38.333  1.00  0.00     0.031 A 
ATOM     87  C   UNL A   1      40.797  34.764  37.163  1.00  0.00     0.131 A 
ATOM     88  C   UNL A   1      39.566  33.804  39.444  1.00  0.00     0.055 A 
ATOM     89  C   UNL A   1      40.692  35.585  38.288  1.00  0.00     0.041 A 
ATOM     90  F   UNL A   1      41.386  35.275  36.070  1.00  0.00    -0.206 F 
ATOM     91  C   UNL A   1      40.061  35.110  39.433  1.00  0.00     0.022 A 
BRANCH  88  92
ATOM     92  S   UNL A   1      38.643  33.194  40.882  1.00  0.00     0.124 S 
ATOM     93  O   UNL A   1      39.421  33.740  41.988  1.00  0.00    -0.237 OA
ATOM     94  O   UNL A   1      37.326  33.787  40.669  1.00  0.00    -0.237 OA
ATOM     95  O   UNL A   1      38.700  31.742  40.732  1.00  0.00    -0.744 OA
ENDBRANCH  88  92
ENDBRANCH  61  85
BRANCH  73  96
ATOM     96  C   UNL A   1      44.624  28.311  35.245  1.00  0.00     0.023 A 
ATOM     97  C   UNL A   1      44.553  27.143  36.024  1.00  0.00     0.031 A 
ATOM     98  C   UNL A   1      45.874  28.937  35.099  1.00  0.00     0.131 A 
ATOM     99  C   UNL A   1      45.703  26.667  36.673  1.00  0.00     0.055 A 
ATOM    100  C   UNL A   1      47.026  28.426  35.701  1.00  0.00     0.041 A 
ATOM    101  F   UNL A   1      45.998  30.056  34.369  1.00  0.00    -0.206 F 
ATOM    102  C   UNL A   1      46.942  27.292  36.503  1.00  0.00     0.022 A 
BRANCH  99 103
ATOM    103  S   UNL A   1      45.544  25.268  37.817  1.00  0.00     0.124 S 
ATOM    104  O   UNL A   1      44.109  25.258  38.087  1.00  0.00    -0.237 OA
ATOM    105  O   UNL A   1      46.049  24.155  37.021  1.00  0.00    -0.237 OA
ATOM    106  O   UNL A   1      46.384  25.651  38.949  1.00  0.00    -0.744 OA
ENDBRANCH  99 103
ENDBRANCH  73  96
ENDBRANCH  47  48
ENDBRANCH  39  42
ENDBRANCH  37  38
ENDBRANCH  36  37
ENDBRANCH  35  36
ENDBRANCH   1  35
TORSDOF 20
ENDMDL
