MODEL 1
REMARK VINA RESULT:     -11.9      0.000      0.000
REMARK SMILES O=C(NCCCCNC(=O)[C@@H]1CCCN1C(=O)OCc1ccc(/N=N/c2ccccc2)cc1)c1ccc(-c2c3nc(c(-c4cc(S(=O)(=O)[O-])ccc4F)c4ccc([nH]4)c(-c4cc(S(=O)(=O)[O-])ccc4F)c4nc(c(-c5cc(S(=O)(=O)[O-])ccc5F)c5ccc2[nH]5)C=C4)C=C3)cc1
REMARK SMILES IDX 7 1 6 2 5 3 4 4 3 5 1 6 2 7 34 9 35 10 96 11 36 12 95 13
REMARK SMILES IDX 37 14 38 15 39 16 89 17 40 18 94 19 88 20 90 21 41 22 93 23
REMARK SMILES IDX 87 24 86 25 42 27 74 28 54 29 73 30 55 31 58 32 72 33 91 34
REMARK SMILES IDX 56 35 57 36 71 38 92 39 59 40 43 41 44 42 52 43 45 44 51 45
REMARK SMILES IDX 53 46 50 47 46 48 47 49 48 50 49 51 75 52 76 53 84 54 77 55
REMARK SMILES IDX 83 56 85 57 82 58 78 59 79 60 80 61 81 62 60 63 61 64 69 65
REMARK SMILES IDX 62 66 68 67 70 68 67 69 63 70 64 71 65 72 66 73 8 74 9 75
REMARK SMILES IDX 10 77 11 78 12 79 15 80 13 81 14 82 16 83 17 84 18 85 19 86
REMARK SMILES IDX 20 87 21 88 33 89 22 90 32 91 23 92 24 93 25 94 26 95 27 96
REMARK SMILES IDX 31 97 28 98 30 99 29 100
REMARK H PARENT 3 8 90 26 58 37 8 76
REMARK Flexibility Score: inf
ROOT
ATOM      1  C   UNL A   1      34.110  25.411  25.764  1.00  0.00     0.116 C 
ENDROOT
BRANCH   1   2
ATOM      2  C   UNL A   1      34.618  24.042  25.321  1.00  0.00     0.023 C 
BRANCH   2   3
ATOM      3  C   UNL A   1      35.803  23.530  26.137  1.00  0.00     0.023 C 
BRANCH   3   4
ATOM      4  C   UNL A   1      37.119  23.492  25.374  1.00  0.00     0.116 C 
BRANCH   4   5
ATOM      5  N   UNL A   1      38.026  22.471  25.877  1.00  0.00    -0.352 N 
ATOM      6  O   UNL A   1      39.973  21.697  26.721  1.00  0.00    -0.269 OA
ATOM      7  C   UNL A   1      39.235  22.652  26.505  1.00  0.00     0.251 C 
ATOM      8  H   UNL A   1      37.738  21.538  25.754  1.00  0.00     0.163 HD
BRANCH   7   9
ATOM      9  C   UNL A   1      39.630  24.020  26.897  1.00  0.00     0.039 A 
ATOM     10  C   UNL A   1      39.415  24.455  28.208  1.00  0.00     0.014 A 
ATOM     11  C   UNL A   1      40.190  24.877  25.947  1.00  0.00     0.014 A 
ATOM     12  C   UNL A   1      39.651  25.781  28.541  1.00  0.00     0.010 A 
ATOM     13  C   UNL A   1      40.516  26.185  26.311  1.00  0.00     0.010 A 
ATOM     14  C   UNL A   1      40.246  26.646  27.609  1.00  0.00    -0.014 A 
BRANCH  14  15
ATOM     15  C   UNL A   1      40.712  27.980  28.065  1.00  0.00     0.031 A 
ATOM     16  C   UNL A   1      42.169  28.341  28.081  1.00  0.00     0.074 A 
ATOM     17  C   UNL A   1      39.777  28.860  28.477  1.00  0.00     0.049 A 
ATOM     18  N   UNL A   1      42.731  29.446  28.496  1.00  0.00    -0.248 NA
ATOM     19  C   UNL A   1      43.117  27.338  27.573  1.00  0.00     0.031 C 
ATOM     20  C   UNL A   1      38.332  28.600  28.501  1.00  0.00     0.029 A 
ATOM     21  N   UNL A   1      39.886  30.140  28.955  1.00  0.00    -0.354 N 
ATOM     22  C   UNL A   1      44.100  29.269  28.325  1.00  0.00     0.074 A 
ATOM     23  C   UNL A   1      44.283  27.942  27.774  1.00  0.00     0.031 C 
ATOM     24  C   UNL A   1      37.693  29.690  28.942  1.00  0.00     0.029 A 
ATOM     25  C   UNL A   1      38.679  30.691  29.322  1.00  0.00     0.049 A 
ATOM     26  H   UNL A   1      40.742  30.618  29.029  1.00  0.00     0.167 HD
ATOM     27  C   UNL A   1      45.099  30.138  28.611  1.00  0.00     0.034 A 
ATOM     28  C   UNL A   1      38.397  31.850  29.947  1.00  0.00     0.034 A 
ATOM     29  C   UNL A   1      44.882  31.459  29.152  1.00  0.00     0.049 A 
ATOM     30  C   UNL A   1      39.539  32.762  30.308  1.00  0.00     0.074 A 
ATOM     31  C   UNL A   1      45.818  32.448  29.403  1.00  0.00     0.029 A 
ATOM     32  N   UNL A   1      43.654  31.968  29.554  1.00  0.00    -0.354 N 
ATOM     33  N   UNL A   1      40.822  32.605  30.075  1.00  0.00    -0.248 NA
ATOM     34  C   UNL A   1      39.201  34.000  31.019  1.00  0.00     0.031 C 
ATOM     35  C   UNL A   1      45.174  33.511  30.042  1.00  0.00     0.029 A 
ATOM     36  C   UNL A   1      43.819  33.228  30.109  1.00  0.00     0.049 A 
ATOM     37  H   UNL A   1      42.791  31.503  29.459  1.00  0.00     0.167 HD
ATOM     38  C   UNL A   1      41.440  33.735  30.600  1.00  0.00     0.074 A 
ATOM     39  C   UNL A   1      40.387  34.578  31.127  1.00  0.00     0.031 C 
ATOM     40  C   UNL A   1      42.759  34.046  30.648  1.00  0.00     0.034 A 
BRANCH  27  41
ATOM     41  C   UNL A   1      46.524  29.688  28.404  1.00  0.00     0.023 A 
ATOM     42  C   UNL A   1      47.253  29.018  29.399  1.00  0.00     0.031 A 
ATOM     43  C   UNL A   1      47.140  29.883  27.153  1.00  0.00     0.131 A 
ATOM     44  C   UNL A   1      48.566  28.594  29.137  1.00  0.00     0.055 A 
ATOM     45  C   UNL A   1      48.421  29.401  26.878  1.00  0.00     0.041 A 
ATOM     46  F   UNL A   1      46.499  30.535  26.171  1.00  0.00    -0.206 F 
ATOM     47  C   UNL A   1      49.144  28.756  27.875  1.00  0.00     0.022 A 
BRANCH  44  48
ATOM     48  S   UNL A   1      49.546  27.898  30.496  1.00  0.00     0.124 S 
ATOM     49  O   UNL A   1      48.952  26.572  30.640  1.00  0.00    -0.237 OA
ATOM     50  O   UNL A   1      50.902  27.936  29.962  1.00  0.00    -0.237 OA
ATOM     51  O   UNL A   1      49.288  28.812  31.608  1.00  0.00    -0.744 OA
ENDBRANCH  44  48
ENDBRANCH  27  41
BRANCH  28  52
ATOM     52  C   UNL A   1      36.997  32.178  30.344  1.00  0.00     0.023 A 
ATOM     53  C   UNL A   1      36.113  32.786  29.443  1.00  0.00     0.031 A 
ATOM     54  C   UNL A   1      36.545  31.952  31.659  1.00  0.00     0.131 A 
ATOM     55  C   UNL A   1      34.850  33.212  29.884  1.00  0.00     0.055 A 
ATOM     56  C   UNL A   1      35.260  32.306  32.070  1.00  0.00     0.041 A 
ATOM     57  F   UNL A   1      37.349  31.377  32.567  1.00  0.00    -0.206 F 
ATOM     58  C   UNL A   1      34.411  32.960  31.185  1.00  0.00     0.022 A 
BRANCH  55  59
ATOM     59  S   UNL A   1      33.848  34.231  28.769  1.00  0.00     0.124 S 
ATOM     60  O   UNL A   1      33.464  33.262  27.748  1.00  0.00    -0.237 OA
ATOM     61  O   UNL A   1      32.783  34.688  29.654  1.00  0.00    -0.237 OA
ATOM     62  O   UNL A   1      34.780  35.267  28.328  1.00  0.00    -0.744 OA
ENDBRANCH  55  59
ENDBRANCH  28  52
BRANCH  40  63
ATOM     63  C   UNL A   1      43.124  35.366  31.278  1.00  0.00     0.023 A 
ATOM     64  C   UNL A   1      43.403  36.500  30.495  1.00  0.00     0.031 A 
ATOM     65  C   UNL A   1      43.199  35.491  32.676  1.00  0.00     0.131 A 
ATOM     66  C   UNL A   1      43.792  37.697  31.113  1.00  0.00     0.055 A 
ATOM     67  C   UNL A   1      43.523  36.702  33.288  1.00  0.00     0.041 A 
ATOM     68  F   UNL A   1      42.951  34.438  33.471  1.00  0.00    -0.206 F 
ATOM     69  C   UNL A   1      43.832  37.810  32.505  1.00  0.00     0.022 A 
BRANCH  66  70
ATOM     70  S   UNL A   1      44.324  39.080  30.070  1.00  0.00     0.124 S 
ATOM     71  O   UNL A   1      44.951  38.390  28.947  1.00  0.00    -0.237 OA
ATOM     72  O   UNL A   1      43.065  39.758  29.780  1.00  0.00    -0.237 OA
ATOM     73  O   UNL A   1      45.242  39.824  30.931  1.00  0.00    -0.744 OA
ENDBRANCH  66  70
ENDBRANCH  40  63
ENDBRANCH  14  15
ENDBRANCH   7   9
ENDBRANCH   4   5
ENDBRANCH   3   4
ENDBRANCH   2   3
ENDBRANCH   1   2
BRANCH   1  74
ATOM     74  N   UNL A   1      32.684  25.380  26.044  1.00  0.00    -0.354 N 
ATOM     75  C   UNL A   1      31.814  26.412  26.281  1.00  0.00     0.242 C 
ATOM     76  H   UNL A   1      32.282  24.483  26.066  1.00  0.00     0.163 HD
ATOM     77  O   UNL A   1      30.633  26.151  26.509  1.00  0.00    -0.273 OA
BRANCH  75  78
ATOM     78  C   UNL A   1      32.338  27.850  26.190  1.00  0.00     0.177 C 
ATOM     79  C   UNL A   1      31.779  28.678  27.352  1.00  0.00     0.037 C 
ATOM     80  N   UNL A   1      31.950  28.642  25.026  1.00  0.00    -0.296 N 
ATOM     81  C   UNL A   1      32.009  30.107  26.879  1.00  0.00     0.024 C 
ATOM     82  C   UNL A   1      31.768  30.036  25.376  1.00  0.00     0.124 C 
BRANCH  80  83
ATOM     83  C   UNL A   1      31.936  28.231  23.716  1.00  0.00     0.410 C 
ATOM     84  O   UNL A   1      32.787  28.558  22.895  1.00  0.00    -0.224 OA
BRANCH  83  85
ATOM     85  O   UNL A   1      30.803  27.552  23.409  1.00  0.00    -0.445 OA
BRANCH  85  86
ATOM     86  C   UNL A   1      30.858  26.693  22.257  1.00  0.00     0.270 C 
BRANCH  86  87
ATOM     87  C   UNL A   1      31.412  25.300  22.515  1.00  0.00    -0.010 A 
ATOM     88  C   UNL A   1      30.683  24.406  23.316  1.00  0.00     0.009 A 
ATOM     89  C   UNL A   1      32.638  24.864  21.999  1.00  0.00     0.009 A 
ATOM     90  C   UNL A   1      31.197  23.138  23.631  1.00  0.00     0.031 A 
ATOM     91  C   UNL A   1      33.155  23.609  22.332  1.00  0.00     0.031 A 
ATOM     92  C   UNL A   1      32.453  22.732  23.167  1.00  0.00     0.086 A 
BRANCH  92  93
ATOM     93  N   UNL A   1      32.923  21.441  23.504  1.00  0.00    -0.151 NA
ATOM     94  N   UNL A   1      32.169  20.544  23.070  1.00  0.00    -0.151 NA
BRANCH  94  95
ATOM     95  C   UNL A   1      32.510  19.246  23.506  1.00  0.00     0.086 A 
ATOM     96  C   UNL A   1      32.527  19.016  24.888  1.00  0.00     0.030 A 
ATOM     97  C   UNL A   1      32.896  18.200  22.657  1.00  0.00     0.030 A 
ATOM     98  C   UNL A   1      32.905  17.776  25.411  1.00  0.00     0.002 A 
ATOM     99  C   UNL A   1      33.272  16.956  23.175  1.00  0.00     0.002 A 
ATOM    100  C   UNL A   1      33.276  16.745  24.551  1.00  0.00     0.000 A 
ENDBRANCH  94  95
ENDBRANCH  92  93
ENDBRANCH  86  87
ENDBRANCH  85  86
ENDBRANCH  83  85
ENDBRANCH  80  83
ENDBRANCH  75  78
ENDBRANCH   1  74
TORSDOF 20
ENDMDL
MODEL 2
REMARK VINA RESULT:     -11.7      2.150      7.465
REMARK SMILES O=C(NCCCCNC(=O)[C@@H]1CCCN1C(=O)OCc1ccc(/N=N/c2ccccc2)cc1)c1ccc(-c2c3nc(c(-c4cc(S(=O)(=O)[O-])ccc4F)c4ccc([nH]4)c(-c4cc(S(=O)(=O)[O-])ccc4F)c4nc(c(-c5cc(S(=O)(=O)[O-])ccc5F)c5ccc2[nH]5)C=C4)C=C3)cc1
REMARK SMILES IDX 7 1 6 2 5 3 4 4 3 5 1 6 2 7 34 9 35 10 96 11 36 12 95 13
REMARK SMILES IDX 37 14 38 15 39 16 89 17 40 18 94 19 88 20 90 21 41 22 93 23
REMARK SMILES IDX 87 24 86 25 42 27 74 28 54 29 73 30 55 31 58 32 72 33 91 34
REMARK SMILES IDX 56 35 57 36 71 38 92 39 59 40 43 41 44 42 52 43 45 44 51 45
REMARK SMILES IDX 53 46 50 47 46 48 47 49 48 50 49 51 75 52 76 53 84 54 77 55
REMARK SMILES IDX 83 56 85 57 82 58 78 59 79 60 80 61 81 62 60 63 61 64 69 65
REMARK SMILES IDX 62 66 68 67 70 68 67 69 63 70 64 71 65 72 66 73 8 74 9 75
REMARK SMILES IDX 10 77 11 78 12 79 15 80 13 81 14 82 16 83 17 84 18 85 19 86
REMARK SMILES IDX 20 87 21 88 33 89 22 90 32 91 23 92 24 93 25 94 26 95 27 96
REMARK SMILES IDX 31 97 28 98 30 99 29 100
REMARK H PARENT 3 8 90 26 58 37 8 76
REMARK Flexibility Score: inf
ROOT
ATOM      1  C   UNL A   1      33.690  24.364  25.938  1.00  0.00     0.116 C 
ENDROOT
BRANCH   1   2
ATOM      2  C   UNL A   1      33.963  22.971  26.499  1.00  0.00     0.023 C 
BRANCH   2   3
ATOM      3  C   UNL A   1      35.055  22.209  25.752  1.00  0.00     0.023 C 
BRANCH   3   4
ATOM      4  C   UNL A   1      36.465  22.721  26.012  1.00  0.00     0.116 C 
BRANCH   4   5
ATOM      5  N   UNL A   1      37.462  21.663  25.952  1.00  0.00    -0.352 N 
ATOM      6  O   UNL A   1      39.559  20.827  25.884  1.00  0.00    -0.269 OA
ATOM      7  C   UNL A   1      38.820  21.773  26.132  1.00  0.00     0.251 C 
ATOM      8  H   UNL A   1      37.123  20.759  25.760  1.00  0.00     0.163 HD
BRANCH   7   9
ATOM      9  C   UNL A   1      39.367  23.057  26.617  1.00  0.00     0.039 A 
ATOM     10  C   UNL A   1      40.312  23.063  27.647  1.00  0.00     0.014 A 
ATOM     11  C   UNL A   1      38.914  24.255  26.060  1.00  0.00     0.014 A 
ATOM     12  C   UNL A   1      40.718  24.268  28.200  1.00  0.00     0.010 A 
ATOM     13  C   UNL A   1      39.398  25.467  26.555  1.00  0.00     0.010 A 
ATOM     14  C   UNL A   1      40.301  25.482  27.631  1.00  0.00    -0.014 A 
BRANCH  14  15
ATOM     15  C   UNL A   1      40.940  26.743  28.081  1.00  0.00     0.031 A 
ATOM     16  C   UNL A   1      40.142  27.851  28.704  1.00  0.00     0.074 A 
ATOM     17  C   UNL A   1      42.271  26.867  27.900  1.00  0.00     0.049 A 
ATOM     18  N   UNL A   1      40.551  29.028  29.102  1.00  0.00    -0.248 NA
ATOM     19  C   UNL A   1      38.704  27.615  28.904  1.00  0.00     0.031 C 
ATOM     20  C   UNL A   1      43.135  25.843  27.299  1.00  0.00     0.029 A 
ATOM     21  N   UNL A   1      43.134  27.890  28.194  1.00  0.00    -0.354 N 
ATOM     22  C   UNL A   1      39.422  29.686  29.577  1.00  0.00     0.074 A 
ATOM     23  C   UNL A   1      38.308  28.778  29.410  1.00  0.00     0.031 C 
ATOM     24  C   UNL A   1      44.401  26.279  27.295  1.00  0.00     0.029 A 
ATOM     25  C   UNL A   1      44.430  27.644  27.800  1.00  0.00     0.049 A 
ATOM     26  H   UNL A   1      42.855  28.720  28.643  1.00  0.00     0.167 HD
ATOM     27  C   UNL A   1      39.338  30.935  30.096  1.00  0.00     0.034 A 
ATOM     28  C   UNL A   1      45.512  28.444  27.793  1.00  0.00     0.034 A 
ATOM     29  C   UNL A   1      40.472  31.814  30.258  1.00  0.00     0.049 A 
ATOM     30  C   UNL A   1      45.366  29.848  28.317  1.00  0.00     0.074 A 
ATOM     31  C   UNL A   1      40.509  33.067  30.846  1.00  0.00     0.029 A 
ATOM     32  N   UNL A   1      41.760  31.552  29.808  1.00  0.00    -0.354 N 
ATOM     33  N   UNL A   1      44.304  30.428  28.826  1.00  0.00    -0.248 NA
ATOM     34  C   UNL A   1      46.555  30.705  28.263  1.00  0.00     0.031 C 
ATOM     35  C   UNL A   1      41.789  33.600  30.666  1.00  0.00     0.029 A 
ATOM     36  C   UNL A   1      42.580  32.644  30.047  1.00  0.00     0.049 A 
ATOM     37  H   UNL A   1      42.048  30.713  29.381  1.00  0.00     0.167 HD
ATOM     38  C   UNL A   1      44.705  31.716  29.165  1.00  0.00     0.074 A 
ATOM     39  C   UNL A   1      46.112  31.812  28.837  1.00  0.00     0.031 C 
ATOM     40  C   UNL A   1      43.976  32.730  29.694  1.00  0.00     0.034 A 
BRANCH  27  41
ATOM     41  C   UNL A   1      37.978  31.463  30.481  1.00  0.00     0.023 A 
ATOM     42  C   UNL A   1      37.056  31.928  29.530  1.00  0.00     0.031 A 
ATOM     43  C   UNL A   1      37.579  31.440  31.831  1.00  0.00     0.131 A 
ATOM     44  C   UNL A   1      35.791  32.377  29.944  1.00  0.00     0.055 A 
ATOM     45  C   UNL A   1      36.299  31.827  32.229  1.00  0.00     0.041 A 
ATOM     46  F   UNL A   1      38.427  31.026  32.785  1.00  0.00    -0.206 F 
ATOM     47  C   UNL A   1      35.397  32.304  31.283  1.00  0.00     0.022 A 
BRANCH  44  48
ATOM     48  S   UNL A   1      34.691  33.141  28.720  1.00  0.00     0.124 S 
ATOM     49  O   UNL A   1      33.782  32.040  28.412  1.00  0.00    -0.237 OA
ATOM     50  O   UNL A   1      34.116  34.256  29.462  1.00  0.00    -0.237 OA
ATOM     51  O   UNL A   1      35.595  33.514  27.633  1.00  0.00    -0.744 OA
ENDBRANCH  44  48
ENDBRANCH  27  41
BRANCH  28  52
ATOM     52  C   UNL A   1      46.799  27.975  27.201  1.00  0.00     0.023 A 
ATOM     53  C   UNL A   1      47.025  28.037  25.820  1.00  0.00     0.031 A 
ATOM     54  C   UNL A   1      47.795  27.389  28.006  1.00  0.00     0.131 A 
ATOM     55  C   UNL A   1      48.184  27.460  25.276  1.00  0.00     0.055 A 
ATOM     56  C   UNL A   1      48.981  26.888  27.469  1.00  0.00     0.041 A 
ATOM     57  F   UNL A   1      47.632  27.299  29.336  1.00  0.00    -0.206 F 
ATOM     58  C   UNL A   1      49.170  26.902  26.092  1.00  0.00     0.022 A 
BRANCH  55  59
ATOM     59  S   UNL A   1      48.309  27.319  23.473  1.00  0.00     0.124 S 
ATOM     60  O   UNL A   1      48.202  25.876  23.282  1.00  0.00    -0.237 OA
ATOM     61  O   UNL A   1      47.169  28.112  23.028  1.00  0.00    -0.237 OA
ATOM     62  O   UNL A   1      49.620  27.893  23.179  1.00  0.00    -0.744 OA
ENDBRANCH  55  59
ENDBRANCH  28  52
BRANCH  40  63
ATOM     63  C   UNL A   1      44.705  34.022  29.965  1.00  0.00     0.023 A 
ATOM     64  C   UNL A   1      44.750  35.052  29.010  1.00  0.00     0.031 A 
ATOM     65  C   UNL A   1      45.366  34.223  31.190  1.00  0.00     0.131 A 
ATOM     66  C   UNL A   1      45.482  36.218  29.274  1.00  0.00     0.055 A 
ATOM     67  C   UNL A   1      46.038  35.412  31.473  1.00  0.00     0.041 A 
ATOM     68  F   UNL A   1      45.361  33.269  32.134  1.00  0.00    -0.206 F 
ATOM     69  C   UNL A   1      46.108  36.413  30.509  1.00  0.00     0.022 A 
BRANCH  66  70
ATOM     70  S   UNL A   1      45.675  37.442  27.952  1.00  0.00     0.124 S 
ATOM     71  O   UNL A   1      44.329  37.498  27.392  1.00  0.00    -0.237 OA
ATOM     72  O   UNL A   1      46.111  38.627  28.683  1.00  0.00    -0.237 OA
ATOM     73  O   UNL A   1      46.685  36.847  27.080  1.00  0.00    -0.744 OA
ENDBRANCH  66  70
ENDBRANCH  40  63
ENDBRANCH  14  15
ENDBRANCH   7   9
ENDBRANCH   4   5
ENDBRANCH   3   4
ENDBRANCH   2   3
ENDBRANCH   1   2
BRANCH   1  74
ATOM     74  N   UNL A   1      32.422  24.889  26.419  1.00  0.00    -0.354 N 
ATOM     75  C   UNL A   1      31.956  26.177  26.436  1.00  0.00     0.242 C 
ATOM     76  H   UNL A   1      31.805  24.217  26.787  1.00  0.00     0.163 HD
ATOM     77  O   UNL A   1      30.839  26.396  26.906  1.00  0.00    -0.273 OA
BRANCH  75  78
ATOM     78  C   UNL A   1      32.820  27.279  25.811  1.00  0.00     0.177 C 
ATOM     79  C   UNL A   1      33.571  28.033  26.913  1.00  0.00     0.037 C 
ATOM     80  N   UNL A   1      32.136  28.359  25.104  1.00  0.00    -0.296 N 
ATOM     81  C   UNL A   1      33.994  29.313  26.207  1.00  0.00     0.024 C 
ATOM     82  C   UNL A   1      32.825  29.620  25.279  1.00  0.00     0.124 C 
BRANCH  80  83
ATOM     83  C   UNL A   1      31.096  28.235  24.215  1.00  0.00     0.410 C 
ATOM     84  O   UNL A   1      30.360  29.164  23.902  1.00  0.00    -0.224 OA
BRANCH  83  85
ATOM     85  O   UNL A   1      30.895  26.946  23.847  1.00  0.00    -0.445 OA
BRANCH  85  86
ATOM     86  C   UNL A   1      31.745  26.433  22.806  1.00  0.00     0.270 C 
BRANCH  86  87
ATOM     87  C   UNL A   1      31.900  24.920  22.783  1.00  0.00    -0.010 A 
ATOM     88  C   UNL A   1      30.900  24.117  23.355  1.00  0.00     0.009 A 
ATOM     89  C   UNL A   1      33.013  24.280  22.227  1.00  0.00     0.009 A 
ATOM     90  C   UNL A   1      31.042  22.722  23.413  1.00  0.00     0.031 A 
ATOM     91  C   UNL A   1      33.161  22.892  22.306  1.00  0.00     0.031 A 
ATOM     92  C   UNL A   1      32.187  22.091  22.915  1.00  0.00     0.086 A 
BRANCH  92  93
ATOM     93  N   UNL A   1      32.281  20.682  22.988  1.00  0.00    -0.151 NA
ATOM     94  N   UNL A   1      32.545  20.292  24.146  1.00  0.00    -0.151 NA
BRANCH  94  95
ATOM     95  C   UNL A   1      32.798  18.908  24.244  1.00  0.00     0.086 A 
ATOM     96  C   UNL A   1      32.671  18.319  25.509  1.00  0.00     0.030 A 
ATOM     97  C   UNL A   1      33.230  18.103  23.180  1.00  0.00     0.030 A 
ATOM     98  C   UNL A   1      32.954  16.965  25.709  1.00  0.00     0.002 A 
ATOM     99  C   UNL A   1      33.513  16.747  23.375  1.00  0.00     0.002 A 
ATOM    100  C   UNL A   1      33.374  16.179  24.639  1.00  0.00     0.000 A 
ENDBRANCH  94  95
ENDBRANCH  92  93
ENDBRANCH  86  87
ENDBRANCH  85  86
ENDBRANCH  83  85
ENDBRANCH  80  83
ENDBRANCH  75  78
ENDBRANCH   1  74
TORSDOF 20
ENDMDL
MODEL 3
REMARK VINA RESULT:     -11.5      4.109      8.905
REMARK SMILES O=C(NCCCCNC(=O)[C@@H]1CCCN1C(=O)OCc1ccc(/N=N/c2ccccc2)cc1)c1ccc(-c2c3nc(c(-c4cc(S(=O)(=O)[O-])ccc4F)c4ccc([nH]4)c(-c4cc(S(=O)(=O)[O-])ccc4F)c4nc(c(-c5cc(S(=O)(=O)[O-])ccc5F)c5ccc2[nH]5)C=C4)C=C3)cc1
REMARK SMILES IDX 7 1 6 2 5 3 4 4 3 5 1 6 2 7 34 9 35 10 96 11 36 12 95 13
REMARK SMILES IDX 37 14 38 15 39 16 89 17 40 18 94 19 88 20 90 21 41 22 93 23
REMARK SMILES IDX 87 24 86 25 42 27 74 28 54 29 73 30 55 31 58 32 72 33 91 34
REMARK SMILES IDX 56 35 57 36 71 38 92 39 59 40 43 41 44 42 52 43 45 44 51 45
REMARK SMILES IDX 53 46 50 47 46 48 47 49 48 50 49 51 75 52 76 53 84 54 77 55
REMARK SMILES IDX 83 56 85 57 82 58 78 59 79 60 80 61 81 62 60 63 61 64 69 65
REMARK SMILES IDX 62 66 68 67 70 68 67 69 63 70 64 71 65 72 66 73 8 74 9 75
REMARK SMILES IDX 10 77 11 78 12 79 15 80 13 81 14 82 16 83 17 84 18 85 19 86
REMARK SMILES IDX 20 87 21 88 33 89 22 90 32 91 23 92 24 93 25 94 26 95 27 96
REMARK SMILES IDX 31 97 28 98 30 99 29 100
REMARK H PARENT 3 8 90 26 58 37 8 76
REMARK Flexibility Score: inf
ROOT
ATOM      1  C   UNL A   1      31.850  28.781  23.375  1.00  0.00     0.116 C 
ENDROOT
BRANCH   1   2
ATOM      2  C   UNL A   1      32.789  27.904  24.200  1.00  0.00     0.023 C 
BRANCH   2   3
ATOM      3  C   UNL A   1      34.037  28.632  24.693  1.00  0.00     0.023 C 
BRANCH   3   4
ATOM      4  C   UNL A   1      34.091  28.830  26.201  1.00  0.00     0.116 C 
BRANCH   4   5
ATOM      5  N   UNL A   1      33.904  30.221  26.588  1.00  0.00    -0.352 N 
ATOM      6  O   UNL A   1      34.253  32.059  27.854  1.00  0.00    -0.269 OA
ATOM      7  C   UNL A   1      34.630  30.946  27.502  1.00  0.00     0.251 C 
ATOM      8  H   UNL A   1      33.169  30.699  26.141  1.00  0.00     0.163 HD
BRANCH   7   9
ATOM      9  C   UNL A   1      35.863  30.352  28.058  1.00  0.00     0.039 A 
ATOM     10  C   UNL A   1      37.049  30.398  27.320  1.00  0.00     0.014 A 
ATOM     11  C   UNL A   1      35.825  29.725  29.305  1.00  0.00     0.014 A 
ATOM     12  C   UNL A   1      38.168  29.716  27.774  1.00  0.00     0.010 A 
ATOM     13  C   UNL A   1      36.981  29.121  29.805  1.00  0.00     0.010 A 
ATOM     14  C   UNL A   1      38.160  29.110  29.041  1.00  0.00    -0.014 A 
BRANCH  14  15
ATOM     15  C   UNL A   1      39.437  28.606  29.604  1.00  0.00     0.031 A 
ATOM     16  C   UNL A   1      40.131  29.309  30.734  1.00  0.00     0.074 A 
ATOM     17  C   UNL A   1      39.964  27.493  29.055  1.00  0.00     0.049 A 
ATOM     18  N   UNL A   1      41.273  29.017  31.298  1.00  0.00    -0.248 NA
ATOM     19  C   UNL A   1      39.464  30.491  31.302  1.00  0.00     0.031 C 
ATOM     20  C   UNL A   1      39.364  26.738  27.948  1.00  0.00     0.029 A 
ATOM     21  N   UNL A   1      41.111  26.799  29.338  1.00  0.00    -0.354 N 
ATOM     22  C   UNL A   1      41.480  29.988  32.272  1.00  0.00     0.074 A 
ATOM     23  C   UNL A   1      40.345  30.885  32.215  1.00  0.00     0.031 C 
ATOM     24  C   UNL A   1      40.131  25.677  27.667  1.00  0.00     0.029 A 
ATOM     25  C   UNL A   1      41.323  25.725  28.503  1.00  0.00     0.049 A 
ATOM     26  H   UNL A   1      41.724  27.043  30.068  1.00  0.00     0.167 HD
ATOM     27  C   UNL A   1      42.528  30.111  33.122  1.00  0.00     0.034 A 
ATOM     28  C   UNL A   1      42.381  24.903  28.380  1.00  0.00     0.034 A 
ATOM     29  C   UNL A   1      43.642  29.193  33.159  1.00  0.00     0.049 A 
ATOM     30  C   UNL A   1      43.555  25.110  29.299  1.00  0.00     0.074 A 
ATOM     31  C   UNL A   1      44.715  29.181  34.035  1.00  0.00     0.029 A 
ATOM     32  N   UNL A   1      43.847  28.145  32.271  1.00  0.00    -0.354 N 
ATOM     33  N   UNL A   1      43.701  25.993  30.260  1.00  0.00    -0.248 NA
ATOM     34  C   UNL A   1      44.706  24.219  29.118  1.00  0.00     0.031 C 
ATOM     35  C   UNL A   1      45.611  28.192  33.619  1.00  0.00     0.029 A 
ATOM     36  C   UNL A   1      45.058  27.524  32.538  1.00  0.00     0.049 A 
ATOM     37  H   UNL A   1      43.224  27.882  31.556  1.00  0.00     0.167 HD
ATOM     38  C   UNL A   1      44.958  25.751  30.805  1.00  0.00     0.074 A 
ATOM     39  C   UNL A   1      45.510  24.619  30.091  1.00  0.00     0.031 C 
ATOM     40  C   UNL A   1      45.601  26.408  31.802  1.00  0.00     0.034 A 
BRANCH  27  41
ATOM     41  C   UNL A   1      42.565  31.300  34.050  1.00  0.00     0.023 A 
ATOM     42  C   UNL A   1      41.800  31.362  35.225  1.00  0.00     0.031 A 
ATOM     43  C   UNL A   1      43.439  32.370  33.775  1.00  0.00     0.131 A 
ATOM     44  C   UNL A   1      41.901  32.482  36.067  1.00  0.00     0.055 A 
ATOM     45  C   UNL A   1      43.583  33.449  34.648  1.00  0.00     0.041 A 
ATOM     46  F   UNL A   1      44.180  32.374  32.655  1.00  0.00    -0.206 F 
ATOM     47  C   UNL A   1      42.807  33.512  35.800  1.00  0.00     0.022 A 
BRANCH  44  48
ATOM     48  S   UNL A   1      40.768  32.618  37.478  1.00  0.00     0.124 S 
ATOM     49  O   UNL A   1      40.377  34.024  37.407  1.00  0.00    -0.237 OA
ATOM     50  O   UNL A   1      39.732  31.649  37.147  1.00  0.00    -0.237 OA
ATOM     51  O   UNL A   1      41.605  32.270  38.625  1.00  0.00    -0.744 OA
ENDBRANCH  44  48
ENDBRANCH  27  41
BRANCH  28  52
ATOM     52  C   UNL A   1      42.419  23.869  27.306  1.00  0.00     0.023 A 
ATOM     53  C   UNL A   1      41.834  22.610  27.492  1.00  0.00     0.031 A 
ATOM     54  C   UNL A   1      43.110  24.102  26.100  1.00  0.00     0.131 A 
ATOM     55  C   UNL A   1      42.007  21.609  26.523  1.00  0.00     0.055 A 
ATOM     56  C   UNL A   1      43.211  23.129  25.106  1.00  0.00     0.041 A 
ATOM     57  F   UNL A   1      43.694  25.288  25.868  1.00  0.00    -0.206 F 
ATOM     58  C   UNL A   1      42.676  21.866  25.324  1.00  0.00     0.022 A 
BRANCH  55  59
ATOM     59  S   UNL A   1      41.470  19.924  26.921  1.00  0.00     0.124 S 
ATOM     60  O   UNL A   1      40.555  19.638  25.821  1.00  0.00    -0.237 OA
ATOM     61  O   UNL A   1      42.733  19.195  26.910  1.00  0.00    -0.237 OA
ATOM     62  O   UNL A   1      40.845  20.069  28.233  1.00  0.00    -0.744 OA
ENDBRANCH  55  59
ENDBRANCH  28  52
BRANCH  40  63
ATOM     63  C   UNL A   1      46.967  25.896  32.183  1.00  0.00     0.023 A 
ATOM     64  C   UNL A   1      48.103  26.198  31.413  1.00  0.00     0.031 A 
ATOM     65  C   UNL A   1      47.133  25.095  33.326  1.00  0.00     0.131 A 
ATOM     66  C   UNL A   1      49.349  25.660  31.767  1.00  0.00     0.055 A 
ATOM     67  C   UNL A   1      48.386  24.616  33.710  1.00  0.00     0.041 A 
ATOM     68  F   UNL A   1      46.080  24.770  34.093  1.00  0.00    -0.206 F 
ATOM     69  C   UNL A   1      49.501  24.890  32.923  1.00  0.00     0.022 A 
BRANCH  66  70
ATOM     70  S   UNL A   1      50.754  25.914  30.651  1.00  0.00     0.124 S 
ATOM     71  O   UNL A   1      51.876  25.464  31.468  1.00  0.00    -0.237 OA
ATOM     72  O   UNL A   1      50.411  25.064  29.516  1.00  0.00    -0.237 OA
ATOM     73  O   UNL A   1      50.722  27.349  30.379  1.00  0.00    -0.744 OA
ENDBRANCH  66  70
ENDBRANCH  40  63
ENDBRANCH  14  15
ENDBRANCH   7   9
ENDBRANCH   4   5
ENDBRANCH   3   4
ENDBRANCH   2   3
ENDBRANCH   1   2
BRANCH   1  74
ATOM     74  N   UNL A   1      31.163  29.751  24.211  1.00  0.00    -0.354 N 
ATOM     75  C   UNL A   1      30.126  30.594  23.906  1.00  0.00     0.242 C 
ATOM     76  H   UNL A   1      31.492  29.813  25.136  1.00  0.00     0.163 HD
ATOM     77  O   UNL A   1      29.702  31.351  24.779  1.00  0.00    -0.273 OA
BRANCH  75  78
ATOM     78  C   UNL A   1      29.500  30.512  22.509  1.00  0.00     0.177 C 
ATOM     79  C   UNL A   1      29.245  31.925  21.973  1.00  0.00     0.037 C 
ATOM     80  N   UNL A   1      28.184  29.891  22.390  1.00  0.00    -0.296 N 
ATOM     81  C   UNL A   1      28.255  31.677  20.844  1.00  0.00     0.024 C 
ATOM     82  C   UNL A   1      27.389  30.535  21.364  1.00  0.00     0.124 C 
BRANCH  80  83
ATOM     83  C   UNL A   1      27.762  28.730  22.990  1.00  0.00     0.410 C 
ATOM     84  O   UNL A   1      26.645  28.588  23.477  1.00  0.00    -0.224 OA
BRANCH  83  85
ATOM     85  O   UNL A   1      28.766  27.826  23.109  1.00  0.00    -0.445 OA
BRANCH  85  86
ATOM     86  C   UNL A   1      28.515  26.692  23.958  1.00  0.00     0.270 C 
BRANCH  86  87
ATOM     87  C   UNL A   1      29.748  25.892  24.348  1.00  0.00    -0.010 A 
ATOM     88  C   UNL A   1      30.440  25.168  23.364  1.00  0.00     0.009 A 
ATOM     89  C   UNL A   1      30.225  25.827  25.662  1.00  0.00     0.009 A 
ATOM     90  C   UNL A   1      31.540  24.363  23.700  1.00  0.00     0.031 A 
ATOM     91  C   UNL A   1      31.307  25.008  25.997  1.00  0.00     0.031 A 
ATOM     92  C   UNL A   1      31.972  24.249  25.026  1.00  0.00     0.086 A 
BRANCH  92  93
ATOM     93  N   UNL A   1      33.091  23.434  25.314  1.00  0.00    -0.151 NA
ATOM     94  N   UNL A   1      34.165  24.067  25.219  1.00  0.00    -0.151 NA
BRANCH  94  95
ATOM     95  C   UNL A   1      35.318  23.265  25.348  1.00  0.00     0.086 A 
ATOM     96  C   UNL A   1      36.505  23.903  25.734  1.00  0.00     0.030 A 
ATOM     97  C   UNL A   1      35.371  21.896  25.051  1.00  0.00     0.030 A 
ATOM     98  C   UNL A   1      37.707  23.198  25.834  1.00  0.00     0.002 A 
ATOM     99  C   UNL A   1      36.570  21.184  25.152  1.00  0.00     0.002 A 
ATOM    100  C   UNL A   1      37.738  21.835  25.544  1.00  0.00     0.000 A 
ENDBRANCH  94  95
ENDBRANCH  92  93
ENDBRANCH  86  87
ENDBRANCH  85  86
ENDBRANCH  83  85
ENDBRANCH  80  83
ENDBRANCH  75  78
ENDBRANCH   1  74
TORSDOF 20
ENDMDL
