MODEL 1
REMARK VINA RESULT:     -10.6      0.000      0.000
REMARK SMILES CC1(C(=O)N[C@H](C(=O)NCCCCNC(=O)c2ccc(-c3c4nc(c(-c5cc(S(=O)(=O)[O-])ccc5F)c5ccc([nH]5)c(-c5cc(S(=O)(=O)[O-])ccc5F)c5nc(c(-c6cc(S(=O)(=O)[O-])ccc6F)c6ccc3[nH]6)C=C5)C=C4)cc2)C2CC2)CCCC1
REMARK SMILES IDX 12 1 11 2 10 3 9 4 7 5 8 6 6 8 5 9 3 10 4 11 2 13 1 14 83 15
REMARK SMILES IDX 86 16 84 17 85 18 80 19 81 20 82 21 13 22 14 23 15 24 16 26
REMARK SMILES IDX 17 27 18 28 79 29 19 30 78 31 20 32 21 33 22 34 72 35 23 36
REMARK SMILES IDX 77 37 71 38 73 39 24 40 76 41 70 42 69 43 25 45 57 46 37 47
REMARK SMILES IDX 56 48 38 49 41 50 55 51 74 52 39 53 40 54 54 56 75 57 42 58
REMARK SMILES IDX 26 59 27 60 35 61 28 62 34 63 36 64 33 65 29 66 30 67 31 68
REMARK SMILES IDX 32 69 58 70 59 71 67 72 60 73 66 74 68 75 65 76 61 77 62 78
REMARK SMILES IDX 63 79 64 80 43 81 44 82 52 83 45 84 51 85 53 86 50 87 46 88
REMARK SMILES IDX 47 89 48 90 49 91
REMARK H PARENT 9 7 5 12 14 25 73 44 41 55
REMARK Flexibility Score: inf
ROOT
ATOM      1  C   UNL A   1      33.045  27.760  24.535  1.00  0.00     0.023 C 
ENDROOT
BRANCH   1   2
ATOM      2  C   UNL A   1      31.838  27.391  25.405  1.00  0.00     0.023 C 
BRANCH   2   3
ATOM      3  C   UNL A   1      32.170  26.535  26.624  1.00  0.00     0.116 C 
BRANCH   3   4
ATOM      4  N   UNL A   1      31.135  25.560  26.898  1.00  0.00    -0.354 N 
ATOM      5  C   UNL A   1      30.995  24.278  26.454  1.00  0.00     0.242 C 
ATOM      6  O   UNL A   1      30.118  23.590  26.988  1.00  0.00    -0.273 OA
ATOM      7  H   UNL A   1      30.421  25.870  27.500  1.00  0.00     0.163 HD
BRANCH   5   8
ATOM      8  C   UNL A   1      32.008  23.635  25.468  1.00  0.00     0.174 C 
BRANCH   8   9
ATOM      9  N   UNL A   1      32.573  22.376  25.942  1.00  0.00    -0.344 N 
ATOM     10  C   UNL A   1      33.840  21.892  25.965  1.00  0.00     0.226 C 
ATOM     11  O   UNL A   1      33.976  20.770  26.462  1.00  0.00    -0.274 OA
ATOM     12  H   UNL A   1      31.905  21.758  26.319  1.00  0.00     0.164 HD
BRANCH  10  13
ATOM     13  C   UNL A   1      35.031  22.639  25.346  1.00  0.00     0.046 C 
ATOM     14  C   UNL A   1      34.963  24.127  25.715  1.00  0.00     0.022 C 
ATOM     15  C   UNL A   1      34.994  22.478  23.807  1.00  0.00     0.016 C 
ATOM     16  C   UNL A   1      36.394  22.012  25.664  1.00  0.00     0.016 C 
ATOM     17  C   UNL A   1      36.410  22.776  23.339  1.00  0.00     0.001 C 
ATOM     18  C   UNL A   1      37.311  22.327  24.481  1.00  0.00     0.001 C 
ENDBRANCH  10  13
ENDBRANCH   8   9
BRANCH   8  19
ATOM     19  C   UNL A   1      31.364  23.465  24.099  1.00  0.00     0.021 C 
ATOM     20  C   UNL A   1      30.558  24.602  23.509  1.00  0.00     0.006 C 
ATOM     21  C   UNL A   1      31.821  24.164  22.833  1.00  0.00     0.006 C 
ENDBRANCH   8  19
ENDBRANCH   5   8
ENDBRANCH   3   4
ENDBRANCH   2   3
ENDBRANCH   1   2
BRANCH   1  22
ATOM     22  C   UNL A   1      33.786  29.031  24.939  1.00  0.00     0.116 C 
BRANCH  22  23
ATOM     23  N   UNL A   1      32.900  30.090  25.392  1.00  0.00    -0.352 N 
ATOM     24  C   UNL A   1      32.995  30.863  26.525  1.00  0.00     0.251 C 
ATOM     25  H   UNL A   1      32.128  30.279  24.810  1.00  0.00     0.163 HD
ATOM     26  O   UNL A   1      32.092  31.644  26.809  1.00  0.00    -0.269 OA
BRANCH  24  27
ATOM     27  C   UNL A   1      34.168  30.714  27.414  1.00  0.00     0.039 A 
ATOM     28  C   UNL A   1      34.371  29.490  28.057  1.00  0.00     0.014 A 
ATOM     29  C   UNL A   1      35.076  31.762  27.589  1.00  0.00     0.014 A 
ATOM     30  C   UNL A   1      35.524  29.294  28.822  1.00  0.00     0.010 A 
ATOM     31  C   UNL A   1      36.255  31.543  28.298  1.00  0.00     0.010 A 
ATOM     32  C   UNL A   1      36.493  30.306  28.917  1.00  0.00    -0.014 A 
BRANCH  32  33
ATOM     33  C   UNL A   1      37.765  30.086  29.655  1.00  0.00     0.031 A 
ATOM     34  C   UNL A   1      38.816  29.172  29.088  1.00  0.00     0.074 A 
ATOM     35  C   UNL A   1      37.944  30.657  30.863  1.00  0.00     0.049 A 
ATOM     36  N   UNL A   1      39.950  28.786  29.615  1.00  0.00    -0.248 NA
ATOM     37  C   UNL A   1      38.539  28.591  27.766  1.00  0.00     0.031 C 
ATOM     38  C   UNL A   1      36.979  31.531  31.535  1.00  0.00     0.029 A 
ATOM     39  N   UNL A   1      38.990  30.580  31.747  1.00  0.00    -0.354 N 
ATOM     40  C   UNL A   1      40.516  27.907  28.696  1.00  0.00     0.074 A 
ATOM     41  C   UNL A   1      39.570  27.775  27.609  1.00  0.00     0.031 C 
ATOM     42  C   UNL A   1      37.487  31.923  32.714  1.00  0.00     0.029 A 
ATOM     43  C   UNL A   1      38.790  31.296  32.905  1.00  0.00     0.049 A 
ATOM     44  H   UNL A   1      39.807  30.060  31.570  1.00  0.00     0.167 HD
ATOM     45  C   UNL A   1      41.722  27.288  28.747  1.00  0.00     0.034 A 
ATOM     46  C   UNL A   1      39.564  31.424  34.002  1.00  0.00     0.034 A 
ATOM     47  C   UNL A   1      42.659  27.442  29.833  1.00  0.00     0.049 A 
ATOM     48  C   UNL A   1      40.893  30.710  34.043  1.00  0.00     0.074 A 
ATOM     49  C   UNL A   1      43.928  26.906  29.959  1.00  0.00     0.029 A 
ATOM     50  N   UNL A   1      42.427  28.182  30.985  1.00  0.00    -0.354 N 
ATOM     51  N   UNL A   1      41.435  29.922  33.142  1.00  0.00    -0.248 NA
ATOM     52  C   UNL A   1      41.717  30.913  35.241  1.00  0.00     0.031 C 
ATOM     53  C   UNL A   1      44.437  27.268  31.212  1.00  0.00     0.029 A 
ATOM     54  C   UNL A   1      43.517  28.092  31.838  1.00  0.00     0.049 A 
ATOM     55  H   UNL A   1      41.607  28.697  31.169  1.00  0.00     0.167 HD
ATOM     56  C   UNL A   1      42.679  29.562  33.655  1.00  0.00     0.074 A 
ATOM     57  C   UNL A   1      42.809  30.229  34.934  1.00  0.00     0.031 C 
ATOM     58  C   UNL A   1      43.629  28.757  33.116  1.00  0.00     0.034 A 
BRANCH  45  59
ATOM     59  C   UNL A   1      42.077  26.368  27.602  1.00  0.00     0.023 A 
ATOM     60  C   UNL A   1      41.801  24.991  27.648  1.00  0.00     0.031 A 
ATOM     61  C   UNL A   1      42.725  26.871  26.459  1.00  0.00     0.131 A 
ATOM     62  C   UNL A   1      42.239  24.153  26.611  1.00  0.00     0.055 A 
ATOM     63  C   UNL A   1      43.084  26.043  25.393  1.00  0.00     0.041 A 
ATOM     64  F   UNL A   1      43.034  28.174  26.365  1.00  0.00    -0.206 F 
ATOM     65  C   UNL A   1      42.856  24.673  25.472  1.00  0.00     0.022 A 
BRANCH  62  66
ATOM     66  S   UNL A   1      42.119  22.357  26.841  1.00  0.00     0.124 S 
ATOM     67  O   UNL A   1      43.475  21.927  26.507  1.00  0.00    -0.237 OA
ATOM     68  O   UNL A   1      41.741  22.243  28.245  1.00  0.00    -0.237 OA
ATOM     69  O   UNL A   1      41.092  21.957  25.883  1.00  0.00    -0.744 OA
ENDBRANCH  62  66
ENDBRANCH  45  59
BRANCH  46  70
ATOM     70  C   UNL A   1      39.109  32.246  35.159  1.00  0.00     0.023 A 
ATOM     71  C   UNL A   1      38.549  31.644  36.297  1.00  0.00     0.031 A 
ATOM     72  C   UNL A   1      39.186  33.649  35.125  1.00  0.00     0.131 A 
ATOM     73  C   UNL A   1      38.041  32.443  37.334  1.00  0.00     0.055 A 
ATOM     74  C   UNL A   1      38.727  34.439  36.182  1.00  0.00     0.041 A 
ATOM     75  F   UNL A   1      39.718  34.275  34.064  1.00  0.00    -0.206 F 
ATOM     76  C   UNL A   1      38.138  33.835  37.289  1.00  0.00     0.022 A 
BRANCH  73  77
ATOM     77  S   UNL A   1      37.171  31.636  38.705  1.00  0.00     0.124 S 
ATOM     78  O   UNL A   1      37.040  30.270  38.212  1.00  0.00    -0.237 OA
ATOM     79  O   UNL A   1      38.103  31.832  39.810  1.00  0.00    -0.237 OA
ATOM     80  O   UNL A   1      35.922  32.387  38.805  1.00  0.00    -0.744 OA
ENDBRANCH  73  77
ENDBRANCH  46  70
BRANCH  58  81
ATOM     81  C   UNL A   1      44.912  28.597  33.894  1.00  0.00     0.023 A 
ATOM     82  C   UNL A   1      45.079  27.576  34.846  1.00  0.00     0.031 A 
ATOM     83  C   UNL A   1      45.978  29.489  33.685  1.00  0.00     0.131 A 
ATOM     84  C   UNL A   1      46.265  27.506  35.594  1.00  0.00     0.055 A 
ATOM     85  C   UNL A   1      47.178  29.379  34.390  1.00  0.00     0.041 A 
ATOM     86  F   UNL A   1      45.872  30.484  32.789  1.00  0.00    -0.206 F 
ATOM     87  C   UNL A   1      47.321  28.391  35.360  1.00  0.00     0.022 A 
BRANCH  84  88
ATOM     88  S   UNL A   1      46.375  26.296  36.941  1.00  0.00     0.124 S 
ATOM     89  O   UNL A   1      47.672  25.678  36.688  1.00  0.00    -0.237 OA
ATOM     90  O   UNL A   1      46.292  27.142  38.127  1.00  0.00    -0.237 OA
ATOM     91  O   UNL A   1      45.221  25.428  36.718  1.00  0.00    -0.744 OA
ENDBRANCH  84  88
ENDBRANCH  58  81
ENDBRANCH  32  33
ENDBRANCH  24  27
ENDBRANCH  22  23
ENDBRANCH   1  22
TORSDOF 17
ENDMDL
MODEL 2
REMARK VINA RESULT:     -10.6      5.148      7.430
REMARK SMILES CC1(C(=O)N[C@H](C(=O)NCCCCNC(=O)c2ccc(-c3c4nc(c(-c5cc(S(=O)(=O)[O-])ccc5F)c5ccc([nH]5)c(-c5cc(S(=O)(=O)[O-])ccc5F)c5nc(c(-c6cc(S(=O)(=O)[O-])ccc6F)c6ccc3[nH]6)C=C5)C=C4)cc2)C2CC2)CCCC1
REMARK SMILES IDX 12 1 11 2 10 3 9 4 7 5 8 6 6 8 5 9 3 10 4 11 2 13 1 14 83 15
REMARK SMILES IDX 86 16 84 17 85 18 80 19 81 20 82 21 13 22 14 23 15 24 16 26
REMARK SMILES IDX 17 27 18 28 79 29 19 30 78 31 20 32 21 33 22 34 72 35 23 36
REMARK SMILES IDX 77 37 71 38 73 39 24 40 76 41 70 42 69 43 25 45 57 46 37 47
REMARK SMILES IDX 56 48 38 49 41 50 55 51 74 52 39 53 40 54 54 56 75 57 42 58
REMARK SMILES IDX 26 59 27 60 35 61 28 62 34 63 36 64 33 65 29 66 30 67 31 68
REMARK SMILES IDX 32 69 58 70 59 71 67 72 60 73 66 74 68 75 65 76 61 77 62 78
REMARK SMILES IDX 63 79 64 80 43 81 44 82 52 83 45 84 51 85 53 86 50 87 46 88
REMARK SMILES IDX 47 89 48 90 49 91
REMARK H PARENT 9 7 5 12 14 25 73 44 41 55
REMARK Flexibility Score: inf
ROOT
ATOM      1  C   UNL A   1      35.789  21.737  25.672  1.00  0.00     0.023 C 
ENDROOT
BRANCH   1   2
ATOM      2  C   UNL A   1      34.722  22.341  24.751  1.00  0.00     0.023 C 
BRANCH   2   3
ATOM      3  C   UNL A   1      34.761  23.863  24.644  1.00  0.00     0.116 C 
BRANCH   3   4
ATOM      4  N   UNL A   1      34.536  24.315  23.287  1.00  0.00    -0.354 N 
ATOM      5  C   UNL A   1      33.514  25.050  22.763  1.00  0.00     0.242 C 
ATOM      6  O   UNL A   1      33.652  25.466  21.608  1.00  0.00    -0.273 OA
ATOM      7  H   UNL A   1      35.231  24.053  22.641  1.00  0.00     0.163 HD
BRANCH   5   8
ATOM      8  C   UNL A   1      32.312  25.519  23.629  1.00  0.00     0.174 C 
BRANCH   8   9
ATOM      9  N   UNL A   1      31.821  26.849  23.284  1.00  0.00    -0.344 N 
ATOM     10  C   UNL A   1      31.726  28.001  23.992  1.00  0.00     0.226 C 
ATOM     11  O   UNL A   1      31.269  28.971  23.379  1.00  0.00    -0.274 OA
ATOM     12  H   UNL A   1      31.498  26.925  22.357  1.00  0.00     0.164 HD
BRANCH  10  13
ATOM     13  C   UNL A   1      32.080  28.098  25.483  1.00  0.00     0.046 C 
ATOM     14  C   UNL A   1      31.231  27.103  26.287  1.00  0.00     0.022 C 
ATOM     15  C   UNL A   1      31.813  29.538  25.983  1.00  0.00     0.016 C 
ATOM     16  C   UNL A   1      33.580  27.969  25.778  1.00  0.00     0.016 C 
ATOM     17  C   UNL A   1      32.640  29.682  27.251  1.00  0.00     0.001 C 
ATOM     18  C   UNL A   1      33.853  28.786  27.042  1.00  0.00     0.001 C 
ENDBRANCH  10  13
ENDBRANCH   8   9
BRANCH   8  19
ATOM     19  C   UNL A   1      31.193  24.489  23.565  1.00  0.00     0.021 C 
ATOM     20  C   UNL A   1      31.507  23.074  23.132  1.00  0.00     0.006 C 
ATOM     21  C   UNL A   1      31.026  23.329  24.528  1.00  0.00     0.006 C 
ENDBRANCH   8  19
ENDBRANCH   5   8
ENDBRANCH   3   4
ENDBRANCH   2   3
ENDBRANCH   1   2
BRANCH   1  22
ATOM     22  C   UNL A   1      37.217  22.216  25.429  1.00  0.00     0.116 C 
BRANCH  22  23
ATOM     23  N   UNL A   1      38.222  21.239  25.815  1.00  0.00    -0.352 N 
ATOM     24  C   UNL A   1      39.435  21.451  26.427  1.00  0.00     0.251 C 
ATOM     25  H   UNL A   1      38.006  20.300  25.609  1.00  0.00     0.163 HD
ATOM     26  O   UNL A   1      40.212  20.515  26.582  1.00  0.00    -0.269 OA
BRANCH  24  27
ATOM     27  C   UNL A   1      39.808  22.817  26.855  1.00  0.00     0.039 A 
ATOM     28  C   UNL A   1      40.712  22.966  27.909  1.00  0.00     0.014 A 
ATOM     29  C   UNL A   1      39.294  23.941  26.202  1.00  0.00     0.014 A 
ATOM     30  C   UNL A   1      41.155  24.242  28.265  1.00  0.00     0.010 A 
ATOM     31  C   UNL A   1      39.786  25.206  26.515  1.00  0.00     0.010 A 
ATOM     32  C   UNL A   1      40.724  25.369  27.546  1.00  0.00    -0.014 A 
BRANCH  32  33
ATOM     33  C   UNL A   1      41.250  26.726  27.854  1.00  0.00     0.031 A 
ATOM     34  C   UNL A   1      42.665  27.085  27.493  1.00  0.00     0.074 A 
ATOM     35  C   UNL A   1      40.475  27.607  28.517  1.00  0.00     0.049 A 
ATOM     36  N   UNL A   1      43.333  28.180  27.750  1.00  0.00    -0.248 NA
ATOM     37  C   UNL A   1      43.439  26.064  26.773  1.00  0.00     0.031 C 
ATOM     38  C   UNL A   1      39.099  27.360  28.956  1.00  0.00     0.029 A 
ATOM     39  N   UNL A   1      40.733  28.885  28.948  1.00  0.00    -0.354 N 
ATOM     40  C   UNL A   1      44.610  27.976  27.236  1.00  0.00     0.074 A 
ATOM     41  C   UNL A   1      44.635  26.629  26.706  1.00  0.00     0.031 C 
ATOM     42  C   UNL A   1      38.631  28.455  29.576  1.00  0.00     0.029 A 
ATOM     43  C   UNL A   1      39.682  29.466  29.619  1.00  0.00     0.049 A 
ATOM     44  H   UNL A   1      41.591  29.342  28.792  1.00  0.00     0.167 HD
ATOM     45  C   UNL A   1      45.655  28.840  27.192  1.00  0.00     0.034 A 
ATOM     46  C   UNL A   1      39.581  30.672  30.213  1.00  0.00     0.034 A 
ATOM     47  C   UNL A   1      45.607  30.184  27.713  1.00  0.00     0.049 A 
ATOM     48  C   UNL A   1      40.763  31.608  30.167  1.00  0.00     0.074 A 
ATOM     49  C   UNL A   1      46.588  31.160  27.671  1.00  0.00     0.029 A 
ATOM     50  N   UNL A   1      44.524  30.742  28.379  1.00  0.00    -0.354 N 
ATOM     51  N   UNL A   1      41.947  31.417  29.633  1.00  0.00    -0.248 NA
ATOM     52  C   UNL A   1      40.589  32.925  30.793  1.00  0.00     0.031 C 
ATOM     53  C   UNL A   1      46.122  32.283  28.365  1.00  0.00     0.029 A 
ATOM     54  C   UNL A   1      44.822  32.037  28.777  1.00  0.00     0.049 A 
ATOM     55  H   UNL A   1      43.667  30.284  28.544  1.00  0.00     0.167 HD
ATOM     56  C   UNL A   1      42.648  32.604  29.831  1.00  0.00     0.074 A 
ATOM     57  C   UNL A   1      41.749  33.506  30.521  1.00  0.00     0.031 C 
ATOM     58  C   UNL A   1      43.917  32.922  29.473  1.00  0.00     0.034 A 
BRANCH  45  59
ATOM     59  C   UNL A   1      46.942  28.339  26.578  1.00  0.00     0.023 A 
ATOM     60  C   UNL A   1      47.133  28.310  25.186  1.00  0.00     0.031 A 
ATOM     61  C   UNL A   1      47.982  27.860  27.395  1.00  0.00     0.131 A 
ATOM     62  C   UNL A   1      48.299  27.742  24.651  1.00  0.00     0.055 A 
ATOM     63  C   UNL A   1      49.174  27.373  26.858  1.00  0.00     0.041 A 
ATOM     64  F   UNL A   1      47.850  27.844  28.731  1.00  0.00    -0.206 F 
ATOM     65  C   UNL A   1      49.332  27.296  25.477  1.00  0.00     0.022 A 
BRANCH  62  66
ATOM     66  S   UNL A   1      48.382  27.461  22.860  1.00  0.00     0.124 S 
ATOM     67  O   UNL A   1      47.213  28.203  22.392  1.00  0.00    -0.237 OA
ATOM     68  O   UNL A   1      49.679  28.028  22.511  1.00  0.00    -0.237 OA
ATOM     69  O   UNL A   1      48.280  26.009  22.736  1.00  0.00    -0.744 OA
ENDBRANCH  62  66
ENDBRANCH  45  59
BRANCH  46  70
ATOM     70  C   UNL A   1      38.327  31.068  30.915  1.00  0.00     0.023 A 
ATOM     71  C   UNL A   1      37.291  31.723  30.230  1.00  0.00     0.031 A 
ATOM     72  C   UNL A   1      38.164  30.836  32.292  1.00  0.00     0.131 A 
ATOM     73  C   UNL A   1      36.160  32.169  30.932  1.00  0.00     0.055 A 
ATOM     74  C   UNL A   1      37.013  31.236  32.976  1.00  0.00     0.041 A 
ATOM     75  F   UNL A   1      39.120  30.208  32.994  1.00  0.00    -0.206 F 
ATOM     76  C   UNL A   1      36.009  31.919  32.297  1.00  0.00     0.022 A 
BRANCH  73  77
ATOM     77  S   UNL A   1      34.926  33.161  30.048  1.00  0.00     0.124 S 
ATOM     78  O   UNL A   1      35.755  34.198  29.444  1.00  0.00    -0.237 OA
ATOM     79  O   UNL A   1      34.354  32.182  29.129  1.00  0.00    -0.237 OA
ATOM     80  O   UNL A   1      34.031  33.616  31.109  1.00  0.00    -0.744 OA
ENDBRANCH  73  77
ENDBRANCH  46  70
BRANCH  58  81
ATOM     81  C   UNL A   1      44.386  34.323  29.781  1.00  0.00     0.023 A 
ATOM     82  C   UNL A   1      44.160  35.391  28.897  1.00  0.00     0.031 A 
ATOM     83  C   UNL A   1      45.081  34.586  30.975  1.00  0.00     0.131 A 
ATOM     84  C   UNL A   1      44.673  36.664  29.193  1.00  0.00     0.055 A 
ATOM     85  C   UNL A   1      45.537  35.866  31.293  1.00  0.00     0.041 A 
ATOM     86  F   UNL A   1      45.325  33.602  31.856  1.00  0.00    -0.206 F 
ATOM     87  C   UNL A   1      45.346  36.911  30.393  1.00  0.00     0.022 A 
BRANCH  84  88
ATOM     88  S   UNL A   1      44.527  37.974  27.947  1.00  0.00     0.124 S 
ATOM     89  O   UNL A   1      45.924  38.285  27.667  1.00  0.00    -0.237 OA
ATOM     90  O   UNL A   1      43.795  37.306  26.877  1.00  0.00    -0.237 OA
ATOM     91  O   UNL A   1      43.785  39.025  28.641  1.00  0.00    -0.744 OA
ENDBRANCH  84  88
ENDBRANCH  58  81
ENDBRANCH  32  33
ENDBRANCH  24  27
ENDBRANCH  22  23
ENDBRANCH   1  22
TORSDOF 17
ENDMDL
MODEL 3
REMARK VINA RESULT:     -10.6      4.433      7.343
REMARK SMILES CC1(C(=O)N[C@H](C(=O)NCCCCNC(=O)c2ccc(-c3c4nc(c(-c5cc(S(=O)(=O)[O-])ccc5F)c5ccc([nH]5)c(-c5cc(S(=O)(=O)[O-])ccc5F)c5nc(c(-c6cc(S(=O)(=O)[O-])ccc6F)c6ccc3[nH]6)C=C5)C=C4)cc2)C2CC2)CCCC1
REMARK SMILES IDX 12 1 11 2 10 3 9 4 7 5 8 6 6 8 5 9 3 10 4 11 2 13 1 14 83 15
REMARK SMILES IDX 86 16 84 17 85 18 80 19 81 20 82 21 13 22 14 23 15 24 16 26
REMARK SMILES IDX 17 27 18 28 79 29 19 30 78 31 20 32 21 33 22 34 72 35 23 36
REMARK SMILES IDX 77 37 71 38 73 39 24 40 76 41 70 42 69 43 25 45 57 46 37 47
REMARK SMILES IDX 56 48 38 49 41 50 55 51 74 52 39 53 40 54 54 56 75 57 42 58
REMARK SMILES IDX 26 59 27 60 35 61 28 62 34 63 36 64 33 65 29 66 30 67 31 68
REMARK SMILES IDX 32 69 58 70 59 71 67 72 60 73 66 74 68 75 65 76 61 77 62 78
REMARK SMILES IDX 63 79 64 80 43 81 44 82 52 83 45 84 51 85 53 86 50 87 46 88
REMARK SMILES IDX 47 89 48 90 49 91
REMARK H PARENT 9 7 5 12 14 25 73 44 41 55
REMARK Flexibility Score: inf
ROOT
ATOM      1  C   UNL A   1      36.002  23.432  26.102  1.00  0.00     0.023 C 
ENDROOT
BRANCH   1   2
ATOM      2  C   UNL A   1      34.669  23.871  25.483  1.00  0.00     0.023 C 
BRANCH   2   3
ATOM      3  C   UNL A   1      34.746  25.139  24.639  1.00  0.00     0.116 C 
BRANCH   3   4
ATOM      4  N   UNL A   1      33.796  25.121  23.547  1.00  0.00    -0.354 N 
ATOM      5  C   UNL A   1      32.506  25.560  23.496  1.00  0.00     0.242 C 
ATOM      6  O   UNL A   1      31.968  25.603  22.384  1.00  0.00    -0.273 OA
ATOM      7  H   UNL A   1      34.134  24.731  22.709  1.00  0.00     0.163 HD
BRANCH   5   8
ATOM      8  C   UNL A   1      31.796  26.170  24.736  1.00  0.00     0.174 C 
BRANCH   8   9
ATOM      9  N   UNL A   1      31.264  27.510  24.510  1.00  0.00    -0.344 N 
ATOM     10  C   UNL A   1      31.464  28.693  25.142  1.00  0.00     0.226 C 
ATOM     11  O   UNL A   1      30.856  29.660  24.674  1.00  0.00    -0.274 OA
ATOM     12  H   UNL A   1      30.639  27.566  23.751  1.00  0.00     0.164 HD
BRANCH  10  13
ATOM     13  C   UNL A   1      32.322  28.829  26.409  1.00  0.00     0.046 C 
ATOM     14  C   UNL A   1      31.589  28.208  27.606  1.00  0.00     0.022 C 
ATOM     15  C   UNL A   1      32.598  30.327  26.683  1.00  0.00     0.016 C 
ATOM     16  C   UNL A   1      33.753  28.300  26.253  1.00  0.00     0.016 C 
ATOM     17  C   UNL A   1      33.820  30.350  27.589  1.00  0.00     0.001 C 
ATOM     18  C   UNL A   1      34.633  29.124  27.195  1.00  0.00     0.001 C 
ENDBRANCH  10  13
ENDBRANCH   8   9
BRANCH   8  19
ATOM     19  C   UNL A   1      30.710  25.226  25.229  1.00  0.00     0.021 C 
ATOM     20  C   UNL A   1      30.938  23.731  25.167  1.00  0.00     0.006 C 
ATOM     21  C   UNL A   1      30.790  24.399  26.499  1.00  0.00     0.006 C 
ENDBRANCH   8  19
ENDBRANCH   5   8
ENDBRANCH   3   4
ENDBRANCH   2   3
ENDBRANCH   1   2
BRANCH   1  22
ATOM     22  C   UNL A   1      37.100  23.066  25.109  1.00  0.00     0.116 C 
BRANCH  22  23
ATOM     23  N   UNL A   1      38.096  22.164  25.663  1.00  0.00    -0.352 N 
ATOM     24  C   UNL A   1      39.224  22.472  26.389  1.00  0.00     0.251 C 
ATOM     25  H   UNL A   1      37.945  21.206  25.497  1.00  0.00     0.163 HD
ATOM     26  O   UNL A   1      40.018  21.586  26.687  1.00  0.00    -0.269 OA
BRANCH  24  27
ATOM     27  C   UNL A   1      39.489  23.878  26.765  1.00  0.00     0.039 A 
ATOM     28  C   UNL A   1      39.220  24.284  28.074  1.00  0.00     0.014 A 
ATOM     29  C   UNL A   1      40.027  24.780  25.844  1.00  0.00     0.014 A 
ATOM     30  C   UNL A   1      39.555  25.578  28.479  1.00  0.00     0.010 A 
ATOM     31  C   UNL A   1      40.420  26.047  26.267  1.00  0.00     0.010 A 
ATOM     32  C   UNL A   1      40.193  26.458  27.590  1.00  0.00    -0.014 A 
BRANCH  32  33
ATOM     33  C   UNL A   1      40.634  27.809  28.027  1.00  0.00     0.031 A 
ATOM     34  C   UNL A   1      42.099  28.146  28.066  1.00  0.00     0.074 A 
ATOM     35  C   UNL A   1      39.721  28.705  28.449  1.00  0.00     0.049 A 
ATOM     36  N   UNL A   1      42.688  29.233  28.494  1.00  0.00    -0.248 NA
ATOM     37  C   UNL A   1      43.026  27.109  27.589  1.00  0.00     0.031 C 
ATOM     38  C   UNL A   1      38.274  28.480  28.495  1.00  0.00     0.029 A 
ATOM     39  N   UNL A   1      39.871  29.982  28.932  1.00  0.00    -0.354 N 
ATOM     40  C   UNL A   1      44.054  29.008  28.351  1.00  0.00     0.074 A 
ATOM     41  C   UNL A   1      44.202  27.657  27.851  1.00  0.00     0.031 C 
ATOM     42  C   UNL A   1      37.671  29.586  28.961  1.00  0.00     0.029 A 
ATOM     43  C   UNL A   1      38.685  30.582  29.288  1.00  0.00     0.049 A 
ATOM     44  H   UNL A   1      40.745  30.425  29.016  1.00  0.00     0.167 HD
ATOM     45  C   UNL A   1      45.084  29.856  28.592  1.00  0.00     0.034 A 
ATOM     46  C   UNL A   1      38.443  31.793  29.829  1.00  0.00     0.034 A 
ATOM     47  C   UNL A   1      44.916  31.205  29.078  1.00  0.00     0.049 A 
ATOM     48  C   UNL A   1      39.607  32.712  30.106  1.00  0.00     0.074 A 
ATOM     49  C   UNL A   1      45.885  32.166  29.303  1.00  0.00     0.029 A 
ATOM     50  N   UNL A   1      43.700  31.782  29.419  1.00  0.00    -0.354 N 
ATOM     51  N   UNL A   1      40.889  32.501  29.917  1.00  0.00    -0.248 NA
ATOM     52  C   UNL A   1      39.288  34.035  30.657  1.00  0.00     0.031 C 
ATOM     53  C   UNL A   1      45.264  33.300  29.840  1.00  0.00     0.029 A 
ATOM     54  C   UNL A   1      43.898  33.075  29.881  1.00  0.00     0.049 A 
ATOM     55  H   UNL A   1      42.824  31.337  29.344  1.00  0.00     0.167 HD
ATOM     56  C   UNL A   1      41.526  33.680  30.298  1.00  0.00     0.074 A 
ATOM     57  C   UNL A   1      40.487  34.598  30.713  1.00  0.00     0.031 C 
ATOM     58  C   UNL A   1      42.850  33.977  30.300  1.00  0.00     0.034 A 
BRANCH  45  59
ATOM     59  C   UNL A   1      46.482  29.334  28.356  1.00  0.00     0.023 A 
ATOM     60  C   UNL A   1      47.205  28.677  29.368  1.00  0.00     0.031 A 
ATOM     61  C   UNL A   1      47.111  29.519  27.112  1.00  0.00     0.131 A 
ATOM     62  C   UNL A   1      48.537  28.299  29.143  1.00  0.00     0.055 A 
ATOM     63  C   UNL A   1      48.409  29.065  26.870  1.00  0.00     0.041 A 
ATOM     64  F   UNL A   1      46.480  30.157  26.114  1.00  0.00    -0.206 F 
ATOM     65  C   UNL A   1      49.136  28.466  27.893  1.00  0.00     0.022 A 
BRANCH  62  66
ATOM     66  S   UNL A   1      49.521  27.720  30.554  1.00  0.00     0.124 S 
ATOM     67  O   UNL A   1      48.738  28.218  31.682  1.00  0.00    -0.237 OA
ATOM     68  O   UNL A   1      49.522  26.274  30.366  1.00  0.00    -0.237 OA
ATOM     69  O   UNL A   1      50.813  28.376  30.363  1.00  0.00    -0.744 OA
ENDBRANCH  62  66
ENDBRANCH  45  59
BRANCH  46  70
ATOM     70  C   UNL A   1      37.050  32.211  30.159  1.00  0.00     0.023 A 
ATOM     71  C   UNL A   1      36.250  32.869  29.212  1.00  0.00     0.031 A 
ATOM     72  C   UNL A   1      36.516  31.998  31.441  1.00  0.00     0.131 A 
ATOM     73  C   UNL A   1      34.977  33.336  29.575  1.00  0.00     0.055 A 
ATOM     74  C   UNL A   1      35.228  32.418  31.782  1.00  0.00     0.041 A 
ATOM     75  F   UNL A   1      37.236  31.368  32.383  1.00  0.00    -0.206 F 
ATOM     76  C   UNL A   1      34.456  33.104  30.849  1.00  0.00     0.022 A 
BRANCH  73  77
ATOM     77  S   UNL A   1      34.044  34.332  28.380  1.00  0.00     0.124 S 
ATOM     78  O   UNL A   1      33.847  35.574  29.118  1.00  0.00    -0.237 OA
ATOM     79  O   UNL A   1      34.969  34.395  27.253  1.00  0.00    -0.237 OA
ATOM     80  O   UNL A   1      32.836  33.543  28.149  1.00  0.00    -0.744 OA
ENDBRANCH  73  77
ENDBRANCH  46  70
BRANCH  58  81
ATOM     81  C   UNL A   1      43.238  35.373  30.722  1.00  0.00     0.023 A 
ATOM     82  C   UNL A   1      43.385  35.725  32.074  1.00  0.00     0.031 A 
ATOM     83  C   UNL A   1      43.449  36.369  29.752  1.00  0.00     0.131 A 
ATOM     84  C   UNL A   1      43.680  37.052  32.423  1.00  0.00     0.055 A 
ATOM     85  C   UNL A   1      43.800  37.674  30.102  1.00  0.00     0.041 A 
ATOM     86  F   UNL A   1      43.319  36.089  28.444  1.00  0.00    -0.206 F 
ATOM     87  C   UNL A   1      43.905  38.024  31.445  1.00  0.00     0.022 A 
BRANCH  84  88
ATOM     88  S   UNL A   1      43.680  37.513  34.178  1.00  0.00     0.124 S 
ATOM     89  O   UNL A   1      45.088  37.816  34.412  1.00  0.00    -0.237 OA
ATOM     90  O   UNL A   1      42.770  38.653  34.200  1.00  0.00    -0.237 OA
ATOM     91  O   UNL A   1      43.185  36.312  34.848  1.00  0.00    -0.744 OA
ENDBRANCH  84  88
ENDBRANCH  58  81
ENDBRANCH  32  33
ENDBRANCH  24  27
ENDBRANCH  22  23
ENDBRANCH   1  22
TORSDOF 17
ENDMDL
