MODEL 1
REMARK VINA RESULT:     -12.4      0.000      0.000
REMARK SMILES CSCC[C@H](NC(=O)Nc1cccc(-c2nc3ccccc3o2)c1)C(=O)NCCCCNC(=O)c1ccc(-c2c3nc(c(-c4cc(S(=O)(=O)[O-])ccc4F)c4ccc([nH]4)c(-c4cc(S(=O)(=O)[O-])ccc4F)c4nc(c(-c5cc(S(=O)(=O)[O-])ccc5F)c5ccc2[nH]5)C=C4)C=C3)cc1
REMARK SMILES IDX 29 1 28 2 27 3 25 4 26 5 5 7 4 8 3 9 2 10 1 11 6 12 7 13
REMARK SMILES IDX 8 15 9 16 10 18 11 19 24 20 12 21 14 22 13 23 15 24 16 25
REMARK SMILES IDX 23 26 17 27 22 28 18 29 21 30 19 31 20 32 30 33 31 34 32 35
REMARK SMILES IDX 33 36 34 38 35 39 36 40 97 41 37 42 96 43 38 44 39 45 40 46
REMARK SMILES IDX 90 47 41 48 95 49 89 50 91 51 42 52 94 53 88 54 87 55 43 57
REMARK SMILES IDX 75 58 55 59 74 60 56 61 59 62 73 63 92 64 57 65 58 66 72 68
REMARK SMILES IDX 93 69 60 70 44 71 45 72 53 73 46 74 52 75 54 76 51 77 47 78
REMARK SMILES IDX 48 79 49 80 50 81 76 82 77 83 85 84 78 85 84 86 86 87 83 88
REMARK SMILES IDX 79 89 80 90 81 91 82 92 61 93 62 94 70 95 63 96 69 97 71 98
REMARK SMILES IDX 68 99 64 100 65 101 66 102 67 103
REMARK H PARENT 27 6 6 14 9 17 32 37 91 56 59 67
REMARK Flexibility Score: inf
ROOT
ATOM      1  C   UNL A   1      31.772  28.942  26.822  1.00  0.00     0.023 C 
ENDROOT
BRANCH   1   2
ATOM      2  C   UNL A   1      31.756  29.396  25.353  1.00  0.00     0.116 C 
BRANCH   2   3
ATOM      3  N   UNL A   1      31.135  28.427  24.473  1.00  0.00    -0.354 N 
ATOM      4  C   UNL A   1      31.886  27.994  23.409  1.00  0.00     0.242 C 
ATOM      5  O   UNL A   1      31.861  28.672  22.383  1.00  0.00    -0.273 OA
ATOM      6  H   UNL A   1      30.222  28.095  24.631  1.00  0.00     0.163 HD
BRANCH   4   7
ATOM      7  C   UNL A   1      32.643  26.646  23.513  1.00  0.00     0.174 C 
BRANCH   7   8
ATOM      8  C   UNL A   1      33.861  26.653  24.475  1.00  0.00     0.046 C 
BRANCH   8   9
ATOM      9  C   UNL A   1      34.143  25.445  25.392  1.00  0.00     0.072 C 
BRANCH   9  10
ATOM     10  S   UNL A   1      35.449  24.237  24.969  1.00  0.00    -0.165 SA
ATOM     11  C   UNL A   1      35.455  23.129  26.399  1.00  0.00     0.085 C 
ENDBRANCH   9  10
ENDBRANCH   8   9
ENDBRANCH   7   8
BRANCH   7  12
ATOM     12  N   UNL A   1      33.007  26.189  22.165  1.00  0.00    -0.326 N 
ATOM     13  C   UNL A   1      32.784  25.128  21.386  1.00  0.00     0.319 C 
ATOM     14  H   UNL A   1      33.575  26.850  21.709  1.00  0.00     0.166 HD
ATOM     15  O   UNL A   1      33.131  25.258  20.204  1.00  0.00    -0.248 OA
ATOM     16  N   UNL A   1      32.314  23.931  21.768  1.00  0.00    -0.308 N 
ATOM     17  H   UNL A   1      32.122  23.312  21.027  1.00  0.00     0.171 HD
BRANCH  16  18
ATOM     18  C   UNL A   1      32.051  23.420  23.033  1.00  0.00     0.043 A 
ATOM     19  C   UNL A   1      31.072  24.020  23.817  1.00  0.00     0.026 A 
ATOM     20  C   UNL A   1      32.791  22.367  23.545  1.00  0.00     0.040 A 
ATOM     21  C   UNL A   1      30.736  23.454  25.047  1.00  0.00     0.003 A 
ATOM     22  C   UNL A   1      32.404  21.725  24.726  1.00  0.00     0.039 A 
ATOM     23  C   UNL A   1      31.368  22.282  25.482  1.00  0.00     0.014 A 
BRANCH  22  24
ATOM     24  C   UNL A   1      33.009  20.429  25.006  1.00  0.00     0.227 A 
ATOM     25  N   UNL A   1      34.179  19.976  24.591  1.00  0.00    -0.209 NA
ATOM     26  O   UNL A   1      32.144  19.455  25.447  1.00  0.00    -0.436 OA
ATOM     27  C   UNL A   1      34.054  18.617  24.672  1.00  0.00     0.110 A 
ATOM     28  C   UNL A   1      32.813  18.291  25.194  1.00  0.00     0.155 A 
ATOM     29  C   UNL A   1      34.918  17.594  24.267  1.00  0.00     0.032 A 
ATOM     30  C   UNL A   1      32.345  16.993  25.356  1.00  0.00     0.049 A 
ATOM     31  C   UNL A   1      34.475  16.269  24.394  1.00  0.00     0.003 A 
ATOM     32  C   UNL A   1      33.213  15.978  24.930  1.00  0.00     0.004 A 
ENDBRANCH  22  24
ENDBRANCH  16  18
ENDBRANCH   7  12
ENDBRANCH   4   7
ENDBRANCH   2   3
ENDBRANCH   1   2
BRANCH   1  33
ATOM     33  C   UNL A   1      33.160  28.567  27.326  1.00  0.00     0.023 C 
BRANCH  33  34
ATOM     34  C   UNL A   1      34.230  29.565  26.924  1.00  0.00     0.116 C 
BRANCH  34  35
ATOM     35  N   UNL A   1      33.941  30.912  27.405  1.00  0.00    -0.352 N 
ATOM     36  C   UNL A   1      34.609  31.663  28.328  1.00  0.00     0.251 C 
ATOM     37  H   UNL A   1      33.149  31.340  27.006  1.00  0.00     0.163 HD
ATOM     38  O   UNL A   1      34.129  32.726  28.717  1.00  0.00    -0.269 OA
BRANCH  36  39
ATOM     39  C   UNL A   1      35.880  31.160  28.864  1.00  0.00     0.039 A 
ATOM     40  C   UNL A   1      35.857  30.029  29.677  1.00  0.00     0.014 A 
ATOM     41  C   UNL A   1      37.087  31.777  28.521  1.00  0.00     0.014 A 
ATOM     42  C   UNL A   1      37.060  29.490  30.116  1.00  0.00     0.010 A 
ATOM     43  C   UNL A   1      38.285  31.174  28.867  1.00  0.00     0.010 A 
ATOM     44  C   UNL A   1      38.281  30.040  29.689  1.00  0.00    -0.014 A 
BRANCH  44  45
ATOM     45  C   UNL A   1      39.561  29.443  30.131  1.00  0.00     0.031 A 
ATOM     46  C   UNL A   1      40.235  29.958  31.372  1.00  0.00     0.074 A 
ATOM     47  C   UNL A   1      40.105  28.449  29.404  1.00  0.00     0.049 A 
ATOM     48  N   UNL A   1      41.332  29.538  31.948  1.00  0.00    -0.248 NA
ATOM     49  C   UNL A   1      39.617  31.117  32.034  1.00  0.00     0.031 C 
ATOM     50  C   UNL A   1      39.560  27.926  28.149  1.00  0.00     0.029 A 
ATOM     51  N   UNL A   1      41.222  27.689  29.624  1.00  0.00    -0.354 N 
ATOM     52  C   UNL A   1      41.533  30.383  33.034  1.00  0.00     0.074 A 
ATOM     53  C   UNL A   1      40.498  31.389  32.983  1.00  0.00     0.031 C 
ATOM     54  C   UNL A   1      40.312  26.891  27.742  1.00  0.00     0.029 A 
ATOM     55  C   UNL A   1      41.410  26.703  28.683  1.00  0.00     0.049 A 
ATOM     56  H   UNL A   1      41.832  27.832  30.383  1.00  0.00     0.167 HD
ATOM     57  C   UNL A   1      42.475  30.300  34.007  1.00  0.00     0.034 A 
ATOM     58  C   UNL A   1      42.358  25.751  28.598  1.00  0.00     0.034 A 
ATOM     59  C   UNL A   1      43.490  29.276  34.035  1.00  0.00     0.049 A 
ATOM     60  C   UNL A   1      43.391  25.675  29.693  1.00  0.00     0.074 A 
ATOM     61  C   UNL A   1      44.474  29.063  34.984  1.00  0.00     0.029 A 
ATOM     62  N   UNL A   1      43.654  28.292  33.066  1.00  0.00    -0.354 N 
ATOM     63  N   UNL A   1      43.535  26.442  30.752  1.00  0.00    -0.248 NA
ATOM     64  C   UNL A   1      44.373  24.591  29.596  1.00  0.00     0.031 C 
ATOM     65  C   UNL A   1      45.274  27.999  34.554  1.00  0.00     0.029 A 
ATOM     66  C   UNL A   1      44.738  27.488  33.380  1.00  0.00     0.049 A 
ATOM     67  H   UNL A   1      43.083  28.184  32.271  1.00  0.00     0.167 HD
ATOM     68  C   UNL A   1      44.606  25.909  31.463  1.00  0.00     0.074 A 
ATOM     69  C   UNL A   1      45.048  24.742  30.723  1.00  0.00     0.031 C 
ATOM     70  C   UNL A   1      45.173  26.338  32.621  1.00  0.00     0.034 A 
BRANCH  57  71
ATOM     71  C   UNL A   1      42.451  31.356  35.086  1.00  0.00     0.023 A 
ATOM     72  C   UNL A   1      41.405  31.432  36.026  1.00  0.00     0.031 A 
ATOM     73  C   UNL A   1      43.462  32.330  35.154  1.00  0.00     0.131 A 
ATOM     74  C   UNL A   1      41.349  32.503  36.931  1.00  0.00     0.055 A 
ATOM     75  C   UNL A   1      43.449  33.341  36.119  1.00  0.00     0.041 A 
ATOM     76  F   UNL A   1      44.472  32.331  34.270  1.00  0.00    -0.206 F 
ATOM     77  C   UNL A   1      42.380  33.442  37.003  1.00  0.00     0.022 A 
BRANCH  74  78
ATOM     78  S   UNL A   1      39.833  32.742  37.898  1.00  0.00     0.124 S 
ATOM     79  O   UNL A   1      40.314  32.516  39.259  1.00  0.00    -0.237 OA
ATOM     80  O   UNL A   1      39.461  34.113  37.570  1.00  0.00    -0.237 OA
ATOM     81  O   UNL A   1      38.934  31.710  37.385  1.00  0.00    -0.744 OA
ENDBRANCH  74  78
ENDBRANCH  57  71
BRANCH  58  82
ATOM     82  C   UNL A   1      42.364  24.786  27.462  1.00  0.00     0.023 A 
ATOM     83  C   UNL A   1      41.556  23.638  27.479  1.00  0.00     0.031 A 
ATOM     84  C   UNL A   1      43.209  24.980  26.354  1.00  0.00     0.131 A 
ATOM     85  C   UNL A   1      41.647  22.702  26.438  1.00  0.00     0.055 A 
ATOM     86  C   UNL A   1      43.254  24.075  25.293  1.00  0.00     0.041 A 
ATOM     87  F   UNL A   1      43.996  26.065  26.283  1.00  0.00    -0.206 F 
ATOM     88  C   UNL A   1      42.480  22.920  25.338  1.00  0.00     0.022 A 
BRANCH  85  89
ATOM     89  S   UNL A   1      40.728  21.145  26.585  1.00  0.00     0.124 S 
ATOM     90  O   UNL A   1      40.754  20.920  28.025  1.00  0.00    -0.237 OA
ATOM     91  O   UNL A   1      39.434  21.503  26.014  1.00  0.00    -0.237 OA
ATOM     92  O   UNL A   1      41.518  20.207  25.791  1.00  0.00    -0.744 OA
ENDBRANCH  85  89
ENDBRANCH  58  82
BRANCH  70  93
ATOM     93  C   UNL A   1      46.305  25.505  33.170  1.00  0.00     0.023 A 
ATOM     94  C   UNL A   1      46.079  24.448  34.069  1.00  0.00     0.031 A 
ATOM     95  C   UNL A   1      47.636  25.802  32.824  1.00  0.00     0.131 A 
ATOM     96  C   UNL A   1      47.166  23.786  34.659  1.00  0.00     0.055 A 
ATOM     97  C   UNL A   1      48.710  25.087  33.352  1.00  0.00     0.041 A 
ATOM     98  F   UNL A   1      47.914  26.800  31.970  1.00  0.00    -0.206 F 
ATOM     99  C   UNL A   1      48.480  24.086  34.292  1.00  0.00     0.022 A 
BRANCH  96 100
ATOM    100  S   UNL A   1      46.842  22.628  36.017  1.00  0.00     0.124 S 
ATOM    101  O   UNL A   1      45.486  22.182  35.716  1.00  0.00    -0.237 OA
ATOM    102  O   UNL A   1      47.895  21.635  35.837  1.00  0.00    -0.237 OA
ATOM    103  O   UNL A   1      46.970  23.460  37.213  1.00  0.00    -0.744 OA
ENDBRANCH  96 100
ENDBRANCH  70  93
ENDBRANCH  44  45
ENDBRANCH  36  39
ENDBRANCH  34  35
ENDBRANCH  33  34
ENDBRANCH   1  33
TORSDOF 20
ENDMDL
MODEL 2
REMARK VINA RESULT:     -12.4      4.862      9.321
REMARK SMILES CSCC[C@H](NC(=O)Nc1cccc(-c2nc3ccccc3o2)c1)C(=O)NCCCCNC(=O)c1ccc(-c2c3nc(c(-c4cc(S(=O)(=O)[O-])ccc4F)c4ccc([nH]4)c(-c4cc(S(=O)(=O)[O-])ccc4F)c4nc(c(-c5cc(S(=O)(=O)[O-])ccc5F)c5ccc2[nH]5)C=C4)C=C3)cc1
REMARK SMILES IDX 29 1 28 2 27 3 25 4 26 5 5 7 4 8 3 9 2 10 1 11 6 12 7 13
REMARK SMILES IDX 8 15 9 16 10 18 11 19 24 20 12 21 14 22 13 23 15 24 16 25
REMARK SMILES IDX 23 26 17 27 22 28 18 29 21 30 19 31 20 32 30 33 31 34 32 35
REMARK SMILES IDX 33 36 34 38 35 39 36 40 97 41 37 42 96 43 38 44 39 45 40 46
REMARK SMILES IDX 90 47 41 48 95 49 89 50 91 51 42 52 94 53 88 54 87 55 43 57
REMARK SMILES IDX 75 58 55 59 74 60 56 61 59 62 73 63 92 64 57 65 58 66 72 68
REMARK SMILES IDX 93 69 60 70 44 71 45 72 53 73 46 74 52 75 54 76 51 77 47 78
REMARK SMILES IDX 48 79 49 80 50 81 76 82 77 83 85 84 78 85 84 86 86 87 83 88
REMARK SMILES IDX 79 89 80 90 81 91 82 92 61 93 62 94 70 95 63 96 69 97 71 98
REMARK SMILES IDX 68 99 64 100 65 101 66 102 67 103
REMARK H PARENT 27 6 6 14 9 17 32 37 91 56 59 67
REMARK Flexibility Score: inf
ROOT
ATOM      1  C   UNL A   1      34.641  22.440  26.457  1.00  0.00     0.023 C 
ENDROOT
BRANCH   1   2
ATOM      2  C   UNL A   1      33.352  22.914  27.148  1.00  0.00     0.116 C 
BRANCH   2   3
ATOM      3  N   UNL A   1      32.311  23.273  26.207  1.00  0.00    -0.354 N 
ATOM      4  C   UNL A   1      31.567  24.386  26.509  1.00  0.00     0.242 C 
ATOM      5  O   UNL A   1      30.595  24.236  27.249  1.00  0.00    -0.273 OA
ATOM      6  H   UNL A   1      32.145  22.747  25.392  1.00  0.00     0.163 HD
BRANCH   4   7
ATOM      7  C   UNL A   1      31.921  25.739  25.842  1.00  0.00     0.174 C 
BRANCH   7   8
ATOM      8  C   UNL A   1      32.597  26.774  26.782  1.00  0.00     0.046 C 
BRANCH   8   9
ATOM      9  C   UNL A   1      31.766  27.892  27.443  1.00  0.00     0.072 C 
BRANCH   9  10
ATOM     10  S   UNL A   1      31.912  29.624  26.875  1.00  0.00    -0.165 SA
ATOM     11  C   UNL A   1      32.945  29.479  25.396  1.00  0.00     0.085 C 
ENDBRANCH   9  10
ENDBRANCH   8   9
ENDBRANCH   7   8
BRANCH   7  12
ATOM     12  N   UNL A   1      30.723  26.286  25.190  1.00  0.00    -0.326 N 
ATOM     13  C   UNL A   1      29.863  25.925  24.235  1.00  0.00     0.319 C 
ATOM     14  H   UNL A   1      30.489  27.167  25.561  1.00  0.00     0.166 HD
ATOM     15  O   UNL A   1      28.847  26.626  24.145  1.00  0.00    -0.248 OA
ATOM     16  N   UNL A   1      30.030  24.952  23.326  1.00  0.00    -0.308 N 
ATOM     17  H   UNL A   1      29.238  24.771  22.771  1.00  0.00     0.171 HD
BRANCH  16  18
ATOM     18  C   UNL A   1      31.134  24.157  23.038  1.00  0.00     0.043 A 
ATOM     19  C   UNL A   1      32.288  24.753  22.543  1.00  0.00     0.026 A 
ATOM     20  C   UNL A   1      31.076  22.780  23.177  1.00  0.00     0.040 A 
ATOM     21  C   UNL A   1      33.430  23.976  22.345  1.00  0.00     0.003 A 
ATOM     22  C   UNL A   1      32.234  22.001  23.081  1.00  0.00     0.039 A 
ATOM     23  C   UNL A   1      33.418  22.611  22.656  1.00  0.00     0.014 A 
BRANCH  22  24
ATOM     24  C   UNL A   1      32.157  20.634  23.582  1.00  0.00     0.227 A 
ATOM     25  N   UNL A   1      32.165  20.234  24.841  1.00  0.00    -0.209 NA
ATOM     26  O   UNL A   1      32.455  19.652  22.668  1.00  0.00    -0.436 OA
ATOM     27  C   UNL A   1      32.582  18.933  24.770  1.00  0.00     0.110 A 
ATOM     28  C   UNL A   1      32.762  18.570  23.446  1.00  0.00     0.155 A 
ATOM     29  C   UNL A   1      32.893  18.016  25.780  1.00  0.00     0.032 A 
ATOM     30  C   UNL A   1      33.235  17.333  23.027  1.00  0.00     0.049 A 
ATOM     31  C   UNL A   1      33.394  16.762  25.400  1.00  0.00     0.003 A 
ATOM     32  C   UNL A   1      33.558  16.430  24.048  1.00  0.00     0.004 A 
ENDBRANCH  22  24
ENDBRANCH  16  18
ENDBRANCH   7  12
ENDBRANCH   4   7
ENDBRANCH   2   3
ENDBRANCH   1   2
BRANCH   1  33
ATOM     33  C   UNL A   1      35.602  23.575  26.122  1.00  0.00     0.023 C 
BRANCH  33  34
ATOM     34  C   UNL A   1      36.672  23.174  25.123  1.00  0.00     0.116 C 
BRANCH  34  35
ATOM     35  N   UNL A   1      37.382  21.965  25.525  1.00  0.00    -0.352 N 
ATOM     36  C   UNL A   1      38.617  21.835  26.091  1.00  0.00     0.251 C 
ATOM     37  H   UNL A   1      36.901  21.122  25.365  1.00  0.00     0.163 HD
ATOM     38  O   UNL A   1      39.117  20.719  26.225  1.00  0.00    -0.269 OA
BRANCH  36  39
ATOM     39  C   UNL A   1      39.341  23.046  26.497  1.00  0.00     0.039 A 
ATOM     40  C   UNL A   1      39.149  24.213  25.761  1.00  0.00     0.014 A 
ATOM     41  C   UNL A   1      40.164  23.034  27.627  1.00  0.00     0.014 A 
ATOM     42  C   UNL A   1      39.756  25.387  26.189  1.00  0.00     0.010 A 
ATOM     43  C   UNL A   1      40.676  24.225  28.113  1.00  0.00     0.010 A 
ATOM     44  C   UNL A   1      40.497  25.408  27.383  1.00  0.00    -0.014 A 
BRANCH  44  45
ATOM     45  C   UNL A   1      41.116  26.667  27.854  1.00  0.00     0.031 A 
ATOM     46  C   UNL A   1      42.551  26.964  27.521  1.00  0.00     0.074 A 
ATOM     47  C   UNL A   1      40.379  27.526  28.583  1.00  0.00     0.049 A 
ATOM     48  N   UNL A   1      43.258  28.029  27.799  1.00  0.00    -0.248 NA
ATOM     49  C   UNL A   1      43.301  25.916  26.812  1.00  0.00     0.031 C 
ATOM     50  C   UNL A   1      38.997  27.295  29.015  1.00  0.00     0.029 A 
ATOM     51  N   UNL A   1      40.677  28.768  29.073  1.00  0.00    -0.354 N 
ATOM     52  C   UNL A   1      44.532  27.774  27.302  1.00  0.00     0.074 A 
ATOM     53  C   UNL A   1      44.522  26.424  26.789  1.00  0.00     0.031 C 
ATOM     54  C   UNL A   1      38.550  28.388  29.653  1.00  0.00     0.029 A 
ATOM     55  C   UNL A   1      39.621  29.376  29.712  1.00  0.00     0.049 A 
ATOM     56  H   UNL A   1      41.562  29.188  28.978  1.00  0.00     0.167 HD
ATOM     57  C   UNL A   1      45.600  28.609  27.247  1.00  0.00     0.034 A 
ATOM     58  C   UNL A   1      39.528  30.598  30.270  1.00  0.00     0.034 A 
ATOM     59  C   UNL A   1      45.575  29.956  27.761  1.00  0.00     0.049 A 
ATOM     60  C   UNL A   1      40.726  31.509  30.192  1.00  0.00     0.074 A 
ATOM     61  C   UNL A   1      46.576  30.910  27.730  1.00  0.00     0.029 A 
ATOM     62  N   UNL A   1      44.489  30.542  28.403  1.00  0.00    -0.354 N 
ATOM     63  N   UNL A   1      41.909  31.280  29.663  1.00  0.00    -0.248 NA
ATOM     64  C   UNL A   1      40.569  32.850  30.762  1.00  0.00     0.031 C 
ATOM     65  C   UNL A   1      46.123  32.043  28.414  1.00  0.00     0.029 A 
ATOM     66  C   UNL A   1      44.806  31.833  28.796  1.00  0.00     0.049 A 
ATOM     67  H   UNL A   1      43.622  30.102  28.556  1.00  0.00     0.167 HD
ATOM     68  C   UNL A   1      42.624  32.465  29.810  1.00  0.00     0.074 A 
ATOM     69  C   UNL A   1      41.728  33.408  30.451  1.00  0.00     0.031 C 
ATOM     70  C   UNL A   1      43.902  32.752  29.449  1.00  0.00     0.034 A 
BRANCH  57  71
ATOM     71  C   UNL A   1      46.871  28.068  26.635  1.00  0.00     0.023 A 
ATOM     72  C   UNL A   1      47.140  28.188  25.259  1.00  0.00     0.031 A 
ATOM     73  C   UNL A   1      47.808  27.382  27.426  1.00  0.00     0.131 A 
ATOM     74  C   UNL A   1      48.266  27.562  24.705  1.00  0.00     0.055 A 
ATOM     75  C   UNL A   1      48.976  26.840  26.884  1.00  0.00     0.041 A 
ATOM     76  F   UNL A   1      47.598  27.208  28.741  1.00  0.00    -0.206 F 
ATOM     77  C   UNL A   1      49.202  26.912  25.513  1.00  0.00     0.022 A 
BRANCH  74  78
ATOM     78  S   UNL A   1      48.404  27.466  22.898  1.00  0.00     0.124 S 
ATOM     79  O   UNL A   1      48.380  26.021  22.677  1.00  0.00    -0.237 OA
ATOM     80  O   UNL A   1      47.228  28.202  22.452  1.00  0.00    -0.237 OA
ATOM     81  O   UNL A   1      49.687  28.108  22.619  1.00  0.00    -0.744 OA
ENDBRANCH  74  78
ENDBRANCH  57  71
BRANCH  58  82
ATOM     82  C   UNL A   1      38.264  31.038  30.925  1.00  0.00     0.023 A 
ATOM     83  C   UNL A   1      37.253  31.683  30.194  1.00  0.00     0.031 A 
ATOM     84  C   UNL A   1      38.061  30.852  32.304  1.00  0.00     0.131 A 
ATOM     85  C   UNL A   1      36.113  32.167  30.852  1.00  0.00     0.055 A 
ATOM     86  C   UNL A   1      36.898  31.283  32.945  1.00  0.00     0.041 A 
ATOM     87  F   UNL A   1      38.991  30.233  33.049  1.00  0.00    -0.206 F 
ATOM     88  C   UNL A   1      35.922  31.958  32.220  1.00  0.00     0.022 A 
BRANCH  85  89
ATOM     89  S   UNL A   1      34.919  33.157  29.910  1.00  0.00     0.124 S 
ATOM     90  O   UNL A   1      34.370  32.166  28.994  1.00  0.00    -0.237 OA
ATOM     91  O   UNL A   1      34.021  33.627  30.961  1.00  0.00    -0.237 OA
ATOM     92  O   UNL A   1      35.747  34.190  29.293  1.00  0.00    -0.744 OA
ENDBRANCH  85  89
ENDBRANCH  58  82
BRANCH  70  93
ATOM     93  C   UNL A   1      44.378  34.162  29.703  1.00  0.00     0.023 A 
ATOM     94  C   UNL A   1      44.208  35.185  28.754  1.00  0.00     0.031 A 
ATOM     95  C   UNL A   1      45.053  34.476  30.897  1.00  0.00     0.131 A 
ATOM     96  C   UNL A   1      44.782  36.445  28.973  1.00  0.00     0.055 A 
ATOM     97  C   UNL A   1      45.551  35.755  31.145  1.00  0.00     0.041 A 
ATOM     98  F   UNL A   1      45.245  33.541  31.841  1.00  0.00    -0.206 F 
ATOM     99  C   UNL A   1      45.436  36.743  30.171  1.00  0.00     0.022 A 
BRANCH  96 100
ATOM    100  S   UNL A   1      44.785  37.644  27.612  1.00  0.00     0.124 S 
ATOM    101  O   UNL A   1      44.926  38.910  28.325  1.00  0.00    -0.237 OA
ATOM    102  O   UNL A   1      45.941  37.222  26.829  1.00  0.00    -0.237 OA
ATOM    103  O   UNL A   1      43.489  37.435  26.969  1.00  0.00    -0.744 OA
ENDBRANCH  96 100
ENDBRANCH  70  93
ENDBRANCH  44  45
ENDBRANCH  36  39
ENDBRANCH  34  35
ENDBRANCH  33  34
ENDBRANCH   1  33
TORSDOF 20
ENDMDL
MODEL 3
REMARK VINA RESULT:     -12.3      1.332      2.101
REMARK SMILES CSCC[C@H](NC(=O)Nc1cccc(-c2nc3ccccc3o2)c1)C(=O)NCCCCNC(=O)c1ccc(-c2c3nc(c(-c4cc(S(=O)(=O)[O-])ccc4F)c4ccc([nH]4)c(-c4cc(S(=O)(=O)[O-])ccc4F)c4nc(c(-c5cc(S(=O)(=O)[O-])ccc5F)c5ccc2[nH]5)C=C4)C=C3)cc1
REMARK SMILES IDX 29 1 28 2 27 3 25 4 26 5 5 7 4 8 3 9 2 10 1 11 6 12 7 13
REMARK SMILES IDX 8 15 9 16 10 18 11 19 24 20 12 21 14 22 13 23 15 24 16 25
REMARK SMILES IDX 23 26 17 27 22 28 18 29 21 30 19 31 20 32 30 33 31 34 32 35
REMARK SMILES IDX 33 36 34 38 35 39 36 40 97 41 37 42 96 43 38 44 39 45 40 46
REMARK SMILES IDX 90 47 41 48 95 49 89 50 91 51 42 52 94 53 88 54 87 55 43 57
REMARK SMILES IDX 75 58 55 59 74 60 56 61 59 62 73 63 92 64 57 65 58 66 72 68
REMARK SMILES IDX 93 69 60 70 44 71 45 72 53 73 46 74 52 75 54 76 51 77 47 78
REMARK SMILES IDX 48 79 49 80 50 81 76 82 77 83 85 84 78 85 84 86 86 87 83 88
REMARK SMILES IDX 79 89 80 90 81 91 82 92 61 93 62 94 70 95 63 96 69 97 71 98
REMARK SMILES IDX 68 99 64 100 65 101 66 102 67 103
REMARK H PARENT 27 6 6 14 9 17 32 37 91 56 59 67
REMARK Flexibility Score: inf
ROOT
ATOM      1  C   UNL A   1      33.287  29.056  24.277  1.00  0.00     0.023 C 
ENDROOT
BRANCH   1   2
ATOM      2  C   UNL A   1      31.929  28.993  23.560  1.00  0.00     0.116 C 
BRANCH   2   3
ATOM      3  N   UNL A   1      30.876  28.457  24.399  1.00  0.00    -0.354 N 
ATOM      4  C   UNL A   1      30.178  27.387  23.899  1.00  0.00     0.242 C 
ATOM      5  O   UNL A   1      29.221  27.626  23.164  1.00  0.00    -0.273 OA
ATOM      6  H   UNL A   1      30.673  28.841  25.282  1.00  0.00     0.163 HD
BRANCH   4   7
ATOM      7  C   UNL A   1      30.559  25.954  24.352  1.00  0.00     0.174 C 
BRANCH   7   8
ATOM      8  C   UNL A   1      30.704  24.922  23.201  1.00  0.00     0.046 C 
BRANCH   8   9
ATOM      9  C   UNL A   1      32.075  24.670  22.542  1.00  0.00     0.072 C 
BRANCH   9  10
ATOM     10  S   UNL A   1      32.873  25.963  21.524  1.00  0.00    -0.165 SA
ATOM     11  C   UNL A   1      32.532  25.415  19.833  1.00  0.00     0.085 C 
ENDBRANCH   9  10
ENDBRANCH   8   9
ENDBRANCH   7   8
BRANCH   7  12
ATOM     12  N   UNL A   1      29.613  25.503  25.381  1.00  0.00    -0.326 N 
ATOM     13  C   UNL A   1      29.643  24.789  26.509  1.00  0.00     0.319 C 
ATOM     14  H   UNL A   1      28.700  25.815  25.184  1.00  0.00     0.166 HD
ATOM     15  O   UNL A   1      28.610  24.830  27.189  1.00  0.00    -0.248 OA
ATOM     16  N   UNL A   1      30.628  23.977  26.923  1.00  0.00    -0.308 N 
ATOM     17  H   UNL A   1      30.508  23.619  27.831  1.00  0.00     0.171 HD
BRANCH  16  18
ATOM     18  C   UNL A   1      31.790  23.560  26.285  1.00  0.00     0.043 A 
ATOM     19  C   UNL A   1      32.899  24.399  26.277  1.00  0.00     0.026 A 
ATOM     20  C   UNL A   1      31.838  22.354  25.606  1.00  0.00     0.040 A 
ATOM     21  C   UNL A   1      34.098  23.948  25.724  1.00  0.00     0.003 A 
ATOM     22  C   UNL A   1      33.051  21.842  25.136  1.00  0.00     0.039 A 
ATOM     23  C   UNL A   1      34.188  22.654  25.195  1.00  0.00     0.014 A 
BRANCH  22  24
ATOM     24  C   UNL A   1      33.077  20.435  24.758  1.00  0.00     0.227 A 
ATOM     25  N   UNL A   1      32.139  19.526  24.961  1.00  0.00    -0.209 NA
ATOM     26  O   UNL A   1      34.320  19.919  24.478  1.00  0.00    -0.436 OA
ATOM     27  C   UNL A   1      32.814  18.338  24.907  1.00  0.00     0.110 A 
ATOM     28  C   UNL A   1      34.147  18.570  24.612  1.00  0.00     0.155 A 
ATOM     29  C   UNL A   1      32.384  17.030  25.157  1.00  0.00     0.032 A 
ATOM     30  C   UNL A   1      35.120  17.580  24.539  1.00  0.00     0.049 A 
ATOM     31  C   UNL A   1      33.339  16.004  25.114  1.00  0.00     0.003 A 
ATOM     32  C   UNL A   1      34.680  16.277  24.808  1.00  0.00     0.004 A 
ENDBRANCH  22  24
ENDBRANCH  16  18
ENDBRANCH   7  12
ENDBRANCH   4   7
ENDBRANCH   2   3
ENDBRANCH   1   2
BRANCH   1  33
ATOM     33  C   UNL A   1      33.233  28.580  25.723  1.00  0.00     0.023 C 
BRANCH  33  34
ATOM     34  C   UNL A   1      34.326  29.180  26.589  1.00  0.00     0.116 C 
BRANCH  34  35
ATOM     35  N   UNL A   1      33.974  30.503  27.090  1.00  0.00    -0.352 N 
ATOM     36  C   UNL A   1      34.597  31.265  28.036  1.00  0.00     0.251 C 
ATOM     37  H   UNL A   1      33.171  30.905  26.686  1.00  0.00     0.163 HD
ATOM     38  O   UNL A   1      34.067  32.299  28.437  1.00  0.00    -0.269 OA
BRANCH  36  39
ATOM     39  C   UNL A   1      35.879  30.805  28.582  1.00  0.00     0.039 A 
ATOM     40  C   UNL A   1      35.875  29.748  29.488  1.00  0.00     0.014 A 
ATOM     41  C   UNL A   1      37.078  31.387  28.159  1.00  0.00     0.014 A 
ATOM     42  C   UNL A   1      37.088  29.245  29.942  1.00  0.00     0.010 A 
ATOM     43  C   UNL A   1      38.284  30.813  28.526  1.00  0.00     0.010 A 
ATOM     44  C   UNL A   1      38.299  29.752  29.441  1.00  0.00    -0.014 A 
BRANCH  44  45
ATOM     45  C   UNL A   1      39.589  29.192  29.901  1.00  0.00     0.031 A 
ATOM     46  C   UNL A   1      40.252  29.754  31.127  1.00  0.00     0.074 A 
ATOM     47  C   UNL A   1      40.152  28.188  29.204  1.00  0.00     0.049 A 
ATOM     48  N   UNL A   1      41.356  29.371  31.716  1.00  0.00    -0.248 NA
ATOM     49  C   UNL A   1      39.612  30.920  31.755  1.00  0.00     0.031 C 
ATOM     50  C   UNL A   1      39.619  27.620  27.963  1.00  0.00     0.029 A 
ATOM     51  N   UNL A   1      41.282  27.454  29.446  1.00  0.00    -0.354 N 
ATOM     52  C   UNL A   1      41.539  30.250  32.778  1.00  0.00     0.074 A 
ATOM     53  C   UNL A   1      40.486  31.235  32.697  1.00  0.00     0.031 C 
ATOM     54  C   UNL A   1      40.389  26.587  27.587  1.00  0.00     0.029 A 
ATOM     55  C   UNL A   1      41.490  26.446  28.533  1.00  0.00     0.049 A 
ATOM     56  H   UNL A   1      41.889  27.630  30.201  1.00  0.00     0.167 HD
ATOM     57  C   UNL A   1      42.481  30.211  33.753  1.00  0.00     0.034 A 
ATOM     58  C   UNL A   1      42.454  25.509  28.477  1.00  0.00     0.034 A 
ATOM     59  C   UNL A   1      43.515  29.208  33.812  1.00  0.00     0.049 A 
ATOM     60  C   UNL A   1      43.487  25.483  29.575  1.00  0.00     0.074 A 
ATOM     61  C   UNL A   1      44.501  29.040  34.767  1.00  0.00     0.029 A 
ATOM     62  N   UNL A   1      43.698  28.200  32.871  1.00  0.00    -0.354 N 
ATOM     63  N   UNL A   1      43.615  26.282  30.611  1.00  0.00    -0.248 NA
ATOM     64  C   UNL A   1      44.488  24.414  29.509  1.00  0.00     0.031 C 
ATOM     65  C   UNL A   1      45.321  27.978  34.369  1.00  0.00     0.029 A 
ATOM     66  C   UNL A   1      44.796  27.424  33.209  1.00  0.00     0.049 A 
ATOM     67  H   UNL A   1      43.130  28.059  32.080  1.00  0.00     0.167 HD
ATOM     68  C   UNL A   1      44.695  25.789  31.338  1.00  0.00     0.074 A 
ATOM     69  C   UNL A   1      45.159  24.610  30.632  1.00  0.00     0.031 C 
ATOM     70  C   UNL A   1      45.253  26.261  32.483  1.00  0.00     0.034 A 
BRANCH  57  71
ATOM     71  C   UNL A   1      42.436  31.298  34.802  1.00  0.00     0.023 A 
ATOM     72  C   UNL A   1      41.408  31.360  35.761  1.00  0.00     0.031 A 
ATOM     73  C   UNL A   1      43.409  32.312  34.821  1.00  0.00     0.131 A 
ATOM     74  C   UNL A   1      41.327  32.454  36.636  1.00  0.00     0.055 A 
ATOM     75  C   UNL A   1      43.375  33.350  35.756  1.00  0.00     0.041 A 
ATOM     76  F   UNL A   1      44.401  32.327  33.916  1.00  0.00    -0.206 F 
ATOM     77  C   UNL A   1      42.320  33.435  36.659  1.00  0.00     0.022 A 
BRANCH  74  78
ATOM     78  S   UNL A   1      39.822  32.661  37.628  1.00  0.00     0.124 S 
ATOM     79  O   UNL A   1      38.973  31.595  37.100  1.00  0.00    -0.237 OA
ATOM     80  O   UNL A   1      40.312  32.475  38.988  1.00  0.00    -0.237 OA
ATOM     81  O   UNL A   1      39.381  34.015  37.301  1.00  0.00    -0.744 OA
ENDBRANCH  74  78
ENDBRANCH  57  71
BRANCH  58  82
ATOM     82  C   UNL A   1      42.480  24.512  27.369  1.00  0.00     0.023 A 
ATOM     83  C   UNL A   1      41.677  23.361  27.408  1.00  0.00     0.031 A 
ATOM     84  C   UNL A   1      43.337  24.679  26.266  1.00  0.00     0.131 A 
ATOM     85  C   UNL A   1      41.786  22.396  26.395  1.00  0.00     0.055 A 
ATOM     86  C   UNL A   1      43.400  23.744  25.232  1.00  0.00     0.041 A 
ATOM     87  F   UNL A   1      44.120  25.766  26.175  1.00  0.00    -0.206 F 
ATOM     88  C   UNL A   1      42.632  22.588  25.300  1.00  0.00     0.022 A 
BRANCH  85  89
ATOM     89  S   UNL A   1      40.872  20.839  26.575  1.00  0.00     0.124 S 
ATOM     90  O   UNL A   1      39.583  21.183  25.990  1.00  0.00    -0.237 OA
ATOM     91  O   UNL A   1      41.700  19.913  25.808  1.00  0.00    -0.237 OA
ATOM     92  O   UNL A   1      40.865  20.615  28.019  1.00  0.00    -0.744 OA
ENDBRANCH  85  89
ENDBRANCH  58  82
BRANCH  70  93
ATOM     93  C   UNL A   1      46.399  25.465  33.058  1.00  0.00     0.023 A 
ATOM     94  C   UNL A   1      46.187  24.395  33.945  1.00  0.00     0.031 A 
ATOM     95  C   UNL A   1      47.727  25.811  32.748  1.00  0.00     0.131 A 
ATOM     96  C   UNL A   1      47.281  23.768  34.559  1.00  0.00     0.055 A 
ATOM     97  C   UNL A   1      48.812  25.130  33.299  1.00  0.00     0.041 A 
ATOM     98  F   UNL A   1      47.992  26.823  31.907  1.00  0.00    -0.206 F 
ATOM     99  C   UNL A   1      48.593  24.115  34.228  1.00  0.00     0.022 A 
BRANCH  96 100
ATOM    100  S   UNL A   1      46.963  22.591  35.902  1.00  0.00     0.124 S 
ATOM    101  O   UNL A   1      47.020  21.312  35.202  1.00  0.00    -0.237 OA
ATOM    102  O   UNL A   1      48.062  22.864  36.821  1.00  0.00    -0.237 OA
ATOM    103  O   UNL A   1      45.638  22.975  36.386  1.00  0.00    -0.744 OA
ENDBRANCH  96 100
ENDBRANCH  70  93
ENDBRANCH  44  45
ENDBRANCH  36  39
ENDBRANCH  34  35
ENDBRANCH  33  34
ENDBRANCH   1  33
TORSDOF 20
ENDMDL
