MODEL 1
REMARK VINA RESULT:     -12.8      0.000      0.000
REMARK SMILES COc1cc([C@H]2c3c(-c4ccccc4)n[nH]c3C(=O)N2c2ccc(C(=O)NCCCCNC(=O)c3ccc(-c4c5nc(c(-c6cc(S(=O)(=O)[O-])ccc6F)c6ccc([nH]6)c(-c6cc(S(=O)(=O)[O-])ccc6F)c6nc(c(-c7cc(S(=O)(=O)[O-])ccc7F)c7ccc4[nH]7)C=C6)C=C5)cc3)cc2)ccc1O
REMARK SMILES IDX 29 1 28 2 27 3 25 4 26 5 24 7 21 8 22 9 99 10 23 11 98 12
REMARK SMILES IDX 20 13 6 14 7 15 8 16 17 17 18 18 15 19 16 20 19 21 5 23 3 24
REMARK SMILES IDX 4 25 102 26 101 27 100 28 2 29 1 30 103 31 9 33 10 34 14 35
REMARK SMILES IDX 11 36 13 37 12 38 30 39 31 40 32 41 33 42 34 44 35 45 36 46
REMARK SMILES IDX 97 47 37 48 96 49 38 50 39 51 40 52 90 53 41 54 95 55 89 56
REMARK SMILES IDX 91 57 42 58 94 59 88 60 87 61 43 63 75 64 55 65 74 66 56 67
REMARK SMILES IDX 59 68 73 69 92 70 57 71 58 72 72 74 93 75 60 76 44 77 45 78
REMARK SMILES IDX 53 79 46 80 52 81 54 82 51 83 47 84 48 85 49 86 50 87 76 88
REMARK SMILES IDX 77 89 85 90 78 91 84 92 86 93 83 94 79 95 80 96 81 97 82 98
REMARK SMILES IDX 61 99 62 100 70 101 63 102 69 103 71 104 68 105 64 106
REMARK SMILES IDX 65 107 66 108 67 109
REMARK H PARENT 27 6 16 22 103 32 32 43 91 62 59 73
REMARK Flexibility Score: inf
ROOT
ATOM      1  C   UNL A   1      46.878  39.968  28.234  1.00  0.00     0.023 C 
ENDROOT
BRANCH   1   2
ATOM      2  C   UNL A   1      46.086  40.982  27.400  1.00  0.00     0.116 C 
BRANCH   2   3
ATOM      3  N   UNL A   1      46.584  42.329  27.601  1.00  0.00    -0.352 N 
ATOM      4  C   UNL A   1      46.657  43.440  26.801  1.00  0.00     0.251 C 
ATOM      5  O   UNL A   1      47.164  44.449  27.296  1.00  0.00    -0.269 OA
ATOM      6  H   UNL A   1      46.948  42.477  28.504  1.00  0.00     0.163 HD
BRANCH   4   7
ATOM      7  C   UNL A   1      46.139  43.513  25.400  1.00  0.00     0.039 A 
ATOM      8  C   UNL A   1      44.976  43.741  22.841  1.00  0.00     0.045 A 
ATOM      9  C   UNL A   1      44.511  44.533  23.886  1.00  0.00     0.027 A 
ATOM     10  C   UNL A   1      46.045  42.873  23.056  1.00  0.00     0.027 A 
ATOM     11  C   UNL A   1      45.068  44.394  25.163  1.00  0.00     0.016 A 
ATOM     12  C   UNL A   1      46.653  42.803  24.314  1.00  0.00     0.016 A 
BRANCH   8  13
ATOM     13  N   UNL A   1      44.404  43.832  21.566  1.00  0.00    -0.295 N 
ATOM     14  C   UNL A   1      44.520  45.063  20.732  1.00  0.00     0.156 C 
ATOM     15  C   UNL A   1      43.609  44.692  19.619  1.00  0.00     0.038 A 
ATOM     16  C   UNL A   1      43.026  45.134  18.419  1.00  0.00     0.099 A 
ATOM     17  C   UNL A   1      43.095  43.446  19.831  1.00  0.00     0.129 A 
ATOM     18  C   UNL A   1      43.582  42.830  21.015  1.00  0.00     0.277 C 
ATOM     19  N   UNL A   1      42.138  44.213  17.972  1.00  0.00    -0.174 NA
ATOM     20  N   UNL A   1      42.222  43.183  18.849  1.00  0.00    -0.272 N 
ATOM     21  O   UNL A   1      43.291  41.737  21.438  1.00  0.00    -0.267 OA
ATOM     22  H   UNL A   1      41.707  42.348  18.775  1.00  0.00     0.190 HD
BRANCH  14  23
ATOM     23  C   UNL A   1      45.907  45.261  20.156  1.00  0.00    -0.016 A 
ATOM     24  C   UNL A   1      47.880  46.723  19.888  1.00  0.00     0.160 A 
ATOM     25  C   UNL A   1      46.604  46.454  20.422  1.00  0.00     0.056 A 
ATOM     26  C   UNL A   1      48.463  45.762  19.061  1.00  0.00     0.157 A 
ATOM     27  C   UNL A   1      47.798  44.558  18.807  1.00  0.00     0.050 A 
ATOM     28  C   UNL A   1      46.542  44.301  19.356  1.00  0.00     0.010 A 
BRANCH  24  29
ATOM     29  O   UNL A   1      48.327  47.957  20.260  1.00  0.00    -0.493 OA
ATOM     30  C   UNL A   1      48.423  48.324  21.625  1.00  0.00     0.278 C 
ENDBRANCH  24  29
BRANCH  26  31
ATOM     31  O   UNL A   1      49.653  45.879  18.404  1.00  0.00    -0.504 OA
ATOM     32  H   UNL A   1      49.931  45.207  17.815  1.00  0.00     0.293 HD
ENDBRANCH  26  31
ENDBRANCH  14  23
BRANCH  16  33
ATOM     33  C   UNL A   1      43.261  46.366  17.679  1.00  0.00     0.002 A 
ATOM     34  C   UNL A   1      44.565  46.764  17.359  1.00  0.00     0.010 A 
ATOM     35  C   UNL A   1      42.190  47.192  17.322  1.00  0.00     0.010 A 
ATOM     36  C   UNL A   1      44.787  47.960  16.671  1.00  0.00     0.001 A 
ATOM     37  C   UNL A   1      42.412  48.385  16.631  1.00  0.00     0.001 A 
ATOM     38  C   UNL A   1      43.711  48.767  16.306  1.00  0.00     0.000 A 
ENDBRANCH  16  33
ENDBRANCH   8  13
ENDBRANCH   4   7
ENDBRANCH   2   3
ENDBRANCH   1   2
BRANCH   1  39
ATOM     39  C   UNL A   1      46.312  38.538  28.220  1.00  0.00     0.023 C 
BRANCH  39  40
ATOM     40  C   UNL A   1      45.028  38.364  27.415  1.00  0.00     0.116 C 
BRANCH  40  41
ATOM     41  N   UNL A   1      45.092  37.239  26.483  1.00  0.00    -0.352 N 
ATOM     42  C   UNL A   1      44.766  35.917  26.720  1.00  0.00     0.251 C 
ATOM     43  H   UNL A   1      45.408  37.449  25.574  1.00  0.00     0.163 HD
ATOM     44  O   UNL A   1      45.248  35.024  26.031  1.00  0.00    -0.269 OA
BRANCH  42  45
ATOM     45  C   UNL A   1      43.818  35.605  27.805  1.00  0.00     0.039 A 
ATOM     46  C   UNL A   1      42.504  36.078  27.793  1.00  0.00     0.014 A 
ATOM     47  C   UNL A   1      44.270  34.781  28.834  1.00  0.00     0.014 A 
ATOM     48  C   UNL A   1      41.624  35.638  28.781  1.00  0.00     0.010 A 
ATOM     49  C   UNL A   1      43.372  34.240  29.719  1.00  0.00     0.010 A 
ATOM     50  C   UNL A   1      42.058  34.697  29.731  1.00  0.00    -0.014 A 
BRANCH  50  51
ATOM     51  C   UNL A   1      41.109  34.052  30.641  1.00  0.00     0.031 A 
ATOM     52  C   UNL A   1      41.579  34.010  32.052  1.00  0.00     0.074 A 
ATOM     53  C   UNL A   1      39.831  33.766  30.302  1.00  0.00     0.049 A 
ATOM     54  N   UNL A   1      42.008  32.990  32.718  1.00  0.00    -0.248 NA
ATOM     55  C   UNL A   1      41.795  35.294  32.747  1.00  0.00     0.031 C 
ATOM     56  C   UNL A   1      39.159  34.078  29.033  1.00  0.00     0.029 A 
ATOM     57  N   UNL A   1      38.816  33.247  31.052  1.00  0.00    -0.354 N 
ATOM     58  C   UNL A   1      42.248  33.460  34.008  1.00  0.00     0.074 A 
ATOM     59  C   UNL A   1      42.370  34.884  33.878  1.00  0.00     0.031 C 
ATOM     60  C   UNL A   1      37.822  33.973  29.184  1.00  0.00     0.029 A 
ATOM     61  C   UNL A   1      37.547  33.409  30.493  1.00  0.00     0.049 A 
ATOM     62  H   UNL A   1      38.966  32.797  31.915  1.00  0.00     0.167 HD
ATOM     63  C   UNL A   1      41.974  32.676  35.090  1.00  0.00     0.034 A 
ATOM     64  C   UNL A   1      36.345  33.111  31.054  1.00  0.00     0.034 A 
ATOM     65  C   UNL A   1      41.767  31.306  34.664  1.00  0.00     0.049 A 
ATOM     66  C   UNL A   1      36.614  32.093  32.095  1.00  0.00     0.074 A 
ATOM     67  C   UNL A   1      42.530  30.315  34.086  1.00  0.00     0.029 A 
ATOM     68  N   UNL A   1      40.451  30.956  34.471  1.00  0.00    -0.354 N 
ATOM     69  N   UNL A   1      37.102  30.911  31.826  1.00  0.00    -0.248 NA
ATOM     70  C   UNL A   1      36.741  32.509  33.484  1.00  0.00     0.031 C 
ATOM     71  C   UNL A   1      41.628  29.564  33.271  1.00  0.00     0.029 A 
ATOM     72  C   UNL A   1      40.336  30.068  33.436  1.00  0.00     0.049 A 
ATOM     73  H   UNL A   1      39.696  31.297  35.003  1.00  0.00     0.167 HD
ATOM     74  C   UNL A   1      37.972  30.642  32.869  1.00  0.00     0.074 A 
ATOM     75  C   UNL A   1      37.578  31.566  33.928  1.00  0.00     0.031 C 
ATOM     76  C   UNL A   1      39.113  29.919  32.659  1.00  0.00     0.034 A 
BRANCH  63  77
ATOM     77  C   UNL A   1      41.372  33.173  36.407  1.00  0.00     0.023 A 
ATOM     78  C   UNL A   1      42.112  32.901  37.580  1.00  0.00     0.031 A 
ATOM     79  C   UNL A   1      40.041  33.592  36.624  1.00  0.00     0.131 A 
ATOM     80  C   UNL A   1      41.501  32.893  38.846  1.00  0.00     0.055 A 
ATOM     81  C   UNL A   1      39.449  33.629  37.892  1.00  0.00     0.041 A 
ATOM     82  F   UNL A   1      39.207  33.928  35.637  1.00  0.00    -0.206 F 
ATOM     83  C   UNL A   1      40.165  33.240  39.008  1.00  0.00     0.022 A 
BRANCH  80  84
ATOM     84  S   UNL A   1      42.437  32.241  40.252  1.00  0.00     0.124 S 
ATOM     85  O   UNL A   1      43.359  31.327  39.588  1.00  0.00    -0.237 OA
ATOM     86  O   UNL A   1      43.020  33.457  40.811  1.00  0.00    -0.237 OA
ATOM     87  O   UNL A   1      41.411  31.605  41.076  1.00  0.00    -0.744 OA
ENDBRANCH  80  84
ENDBRANCH  63  77
BRANCH  64  88
ATOM     88  C   UNL A   1      35.080  33.897  30.956  1.00  0.00     0.023 A 
ATOM     89  C   UNL A   1      34.675  34.856  31.912  1.00  0.00     0.031 A 
ATOM     90  C   UNL A   1      34.355  33.874  29.742  1.00  0.00     0.131 A 
ATOM     91  C   UNL A   1      33.598  35.736  31.630  1.00  0.00     0.055 A 
ATOM     92  C   UNL A   1      33.298  34.745  29.468  1.00  0.00     0.041 A 
ATOM     93  F   UNL A   1      34.706  33.049  28.741  1.00  0.00    -0.206 F 
ATOM     94  C   UNL A   1      32.921  35.688  30.409  1.00  0.00     0.022 A 
BRANCH  91  95
ATOM     95  S   UNL A   1      33.095  37.017  32.830  1.00  0.00     0.124 S 
ATOM     96  O   UNL A   1      33.972  36.746  33.963  1.00  0.00    -0.237 OA
ATOM     97  O   UNL A   1      33.344  38.250  32.094  1.00  0.00    -0.237 OA
ATOM     98  O   UNL A   1      31.681  36.724  33.071  1.00  0.00    -0.744 OA
ENDBRANCH  91  95
ENDBRANCH  64  88
BRANCH  76  99
ATOM     99  C   UNL A   1      39.155  28.991  31.464  1.00  0.00     0.023 A 
ATOM    100  C   UNL A   1      39.752  29.271  30.214  1.00  0.00     0.031 A 
ATOM    101  C   UNL A   1      38.601  27.711  31.649  1.00  0.00     0.131 A 
ATOM    102  C   UNL A   1      39.770  28.282  29.208  1.00  0.00     0.055 A 
ATOM    103  C   UNL A   1      38.642  26.729  30.663  1.00  0.00     0.041 A 
ATOM    104  F   UNL A   1      38.029  27.380  32.820  1.00  0.00    -0.206 F 
ATOM    105  C   UNL A   1      39.224  27.014  29.435  1.00  0.00     0.022 A 
BRANCH 102 106
ATOM    106  S   UNL A   1      40.481  28.629  27.565  1.00  0.00     0.124 S 
ATOM    107  O   UNL A   1      40.835  27.309  27.057  1.00  0.00    -0.237 OA
ATOM    108  O   UNL A   1      39.382  29.304  26.881  1.00  0.00    -0.237 OA
ATOM    109  O   UNL A   1      41.626  29.491  27.865  1.00  0.00    -0.744 OA
ENDBRANCH 102 106
ENDBRANCH  76  99
ENDBRANCH  50  51
ENDBRANCH  42  45
ENDBRANCH  40  41
ENDBRANCH  39  40
ENDBRANCH   1  39
TORSDOF 19
ENDMDL
MODEL 2
REMARK VINA RESULT:     -12.6     11.721     24.029
REMARK SMILES COc1cc([C@H]2c3c(-c4ccccc4)n[nH]c3C(=O)N2c2ccc(C(=O)NCCCCNC(=O)c3ccc(-c4c5nc(c(-c6cc(S(=O)(=O)[O-])ccc6F)c6ccc([nH]6)c(-c6cc(S(=O)(=O)[O-])ccc6F)c6nc(c(-c7cc(S(=O)(=O)[O-])ccc7F)c7ccc4[nH]7)C=C6)C=C5)cc3)cc2)ccc1O
REMARK SMILES IDX 29 1 28 2 27 3 25 4 26 5 24 7 21 8 22 9 99 10 23 11 98 12
REMARK SMILES IDX 20 13 6 14 7 15 8 16 17 17 18 18 15 19 16 20 19 21 5 23 3 24
REMARK SMILES IDX 4 25 102 26 101 27 100 28 2 29 1 30 103 31 9 33 10 34 14 35
REMARK SMILES IDX 11 36 13 37 12 38 30 39 31 40 32 41 33 42 34 44 35 45 36 46
REMARK SMILES IDX 97 47 37 48 96 49 38 50 39 51 40 52 90 53 41 54 95 55 89 56
REMARK SMILES IDX 91 57 42 58 94 59 88 60 87 61 43 63 75 64 55 65 74 66 56 67
REMARK SMILES IDX 59 68 73 69 92 70 57 71 58 72 72 74 93 75 60 76 44 77 45 78
REMARK SMILES IDX 53 79 46 80 52 81 54 82 51 83 47 84 48 85 49 86 50 87 76 88
REMARK SMILES IDX 77 89 85 90 78 91 84 92 86 93 83 94 79 95 80 96 81 97 82 98
REMARK SMILES IDX 61 99 62 100 70 101 63 102 69 103 71 104 68 105 64 106
REMARK SMILES IDX 65 107 66 108 67 109
REMARK H PARENT 27 6 16 22 103 32 32 43 91 62 59 73
REMARK Flexibility Score: inf
ROOT
ATOM      1  C   UNL A   1      47.834  21.900  38.196  1.00  0.00     0.023 C 
ENDROOT
BRANCH   1   2
ATOM      2  C   UNL A   1      48.704  20.672  37.904  1.00  0.00     0.116 C 
BRANCH   2   3
ATOM      3  N   UNL A   1      49.701  20.478  38.940  1.00  0.00    -0.352 N 
ATOM      4  C   UNL A   1      49.712  19.787  40.125  1.00  0.00     0.251 C 
ATOM      5  O   UNL A   1      50.749  19.842  40.789  1.00  0.00    -0.269 OA
ATOM      6  H   UNL A   1      50.549  20.941  38.754  1.00  0.00     0.163 HD
BRANCH   4   7
ATOM      7  C   UNL A   1      48.578  18.958  40.635  1.00  0.00     0.039 A 
ATOM      8  C   UNL A   1      46.365  17.574  41.704  1.00  0.00     0.045 A 
ATOM      9  C   UNL A   1      46.342  18.963  41.628  1.00  0.00     0.027 A 
ATOM     10  C   UNL A   1      47.463  16.874  41.209  1.00  0.00     0.027 A 
ATOM     11  C   UNL A   1      47.456  19.649  41.127  1.00  0.00     0.016 A 
ATOM     12  C   UNL A   1      48.535  17.562  40.631  1.00  0.00     0.016 A 
BRANCH   8  13
ATOM     13  N   UNL A   1      45.281  16.871  42.242  1.00  0.00    -0.295 N 
ATOM     14  C   UNL A   1      45.458  15.585  42.978  1.00  0.00     0.156 C 
ATOM     15  C   UNL A   1      44.034  15.201  43.148  1.00  0.00     0.038 A 
ATOM     16  C   UNL A   1      43.163  14.212  43.639  1.00  0.00     0.099 A 
ATOM     17  C   UNL A   1      43.224  16.148  42.591  1.00  0.00     0.129 A 
ATOM     18  C   UNL A   1      43.938  17.245  42.039  1.00  0.00     0.277 C 
ATOM     19  N   UNL A   1      41.884  14.525  43.318  1.00  0.00    -0.174 NA
ATOM     20  N   UNL A   1      41.956  15.727  42.697  1.00  0.00    -0.272 N 
ATOM     21  O   UNL A   1      43.472  18.213  41.488  1.00  0.00    -0.267 OA
ATOM     22  H   UNL A   1      41.177  16.227  42.364  1.00  0.00     0.190 HD
BRANCH  14  23
ATOM     23  C   UNL A   1      46.062  15.768  44.355  1.00  0.00    -0.016 A 
ATOM     24  C   UNL A   1      46.214  17.116  46.419  1.00  0.00     0.160 A 
ATOM     25  C   UNL A   1      45.666  16.862  45.145  1.00  0.00     0.056 A 
ATOM     26  C   UNL A   1      47.190  16.244  46.901  1.00  0.00     0.157 A 
ATOM     27  C   UNL A   1      47.577  15.135  46.142  1.00  0.00     0.050 A 
ATOM     28  C   UNL A   1      47.014  14.889  44.891  1.00  0.00     0.010 A 
BRANCH  24  29
ATOM     29  O   UNL A   1      45.695  18.253  46.967  1.00  0.00    -0.493 OA
ATOM     30  C   UNL A   1      44.946  19.168  46.189  1.00  0.00     0.278 C 
ENDBRANCH  24  29
BRANCH  26  31
ATOM     31  O   UNL A   1      47.876  16.371  48.074  1.00  0.00    -0.504 OA
ATOM     32  H   UNL A   1      47.979  15.632  48.639  1.00  0.00     0.293 HD
ENDBRANCH  26  31
ENDBRANCH  14  23
BRANCH  16  33
ATOM     33  C   UNL A   1      43.472  13.002  44.388  1.00  0.00     0.002 A 
ATOM     34  C   UNL A   1      43.842  13.077  45.736  1.00  0.00     0.010 A 
ATOM     35  C   UNL A   1      43.450  11.754  43.755  1.00  0.00     0.010 A 
ATOM     36  C   UNL A   1      44.163  11.915  46.444  1.00  0.00     0.001 A 
ATOM     37  C   UNL A   1      43.767  10.593  44.464  1.00  0.00     0.001 A 
ATOM     38  C   UNL A   1      44.122  10.675  45.808  1.00  0.00     0.000 A 
ENDBRANCH  16  33
ENDBRANCH   8  13
ENDBRANCH   4   7
ENDBRANCH   2   3
ENDBRANCH   1   2
BRANCH   1  39
ATOM     39  C   UNL A   1      46.892  22.310  37.052  1.00  0.00     0.023 C 
BRANCH  39  40
ATOM     40  C   UNL A   1      46.430  23.764  37.090  1.00  0.00     0.116 C 
BRANCH  40  41
ATOM     41  N   UNL A   1      44.980  23.893  37.233  1.00  0.00    -0.352 N 
ATOM     42  C   UNL A   1      44.090  24.504  36.367  1.00  0.00     0.251 C 
ATOM     43  H   UNL A   1      44.589  23.499  38.045  1.00  0.00     0.163 HD
ATOM     44  O   UNL A   1      43.010  24.916  36.776  1.00  0.00    -0.269 OA
BRANCH  42  45
ATOM     45  C   UNL A   1      44.460  24.633  34.947  1.00  0.00     0.039 A 
ATOM     46  C   UNL A   1      44.640  23.516  34.128  1.00  0.00     0.014 A 
ATOM     47  C   UNL A   1      44.586  25.921  34.432  1.00  0.00     0.014 A 
ATOM     48  C   UNL A   1      44.859  23.711  32.765  1.00  0.00     0.010 A 
ATOM     49  C   UNL A   1      44.661  26.110  33.075  1.00  0.00     0.010 A 
ATOM     50  C   UNL A   1      44.845  25.014  32.238  1.00  0.00    -0.014 A 
BRANCH  50  51
ATOM     51  C   UNL A   1      44.852  25.242  30.791  1.00  0.00     0.031 A 
ATOM     52  C   UNL A   1      46.020  26.037  30.325  1.00  0.00     0.074 A 
ATOM     53  C   UNL A   1      44.044  24.582  29.930  1.00  0.00     0.049 A 
ATOM     54  N   UNL A   1      46.038  27.266  29.926  1.00  0.00    -0.248 NA
ATOM     55  C   UNL A   1      47.366  25.466  30.518  1.00  0.00     0.031 C 
ATOM     56  C   UNL A   1      43.081  23.520  30.255  1.00  0.00     0.029 A 
ATOM     57  N   UNL A   1      43.987  24.623  28.568  1.00  0.00    -0.354 N 
ATOM     58  C   UNL A   1      47.351  27.509  29.526  1.00  0.00     0.074 A 
ATOM     59  C   UNL A   1      48.139  26.495  30.167  1.00  0.00     0.031 C 
ATOM     60  C   UNL A   1      42.727  22.862  29.131  1.00  0.00     0.029 A 
ATOM     61  C   UNL A   1      43.284  23.565  27.989  1.00  0.00     0.049 A 
ATOM     62  H   UNL A   1      44.406  25.339  28.037  1.00  0.00     0.167 HD
ATOM     63  C   UNL A   1      47.608  28.295  28.441  1.00  0.00     0.034 A 
ATOM     64  C   UNL A   1      43.161  23.270  26.667  1.00  0.00     0.034 A 
ATOM     65  C   UNL A   1      46.412  29.027  28.072  1.00  0.00     0.049 A 
ATOM     66  C   UNL A   1      43.411  24.532  25.936  1.00  0.00     0.074 A 
ATOM     67  C   UNL A   1      45.622  30.001  28.643  1.00  0.00     0.029 A 
ATOM     68  N   UNL A   1      45.663  28.442  27.077  1.00  0.00    -0.354 N 
ATOM     69  N   UNL A   1      42.655  25.590  26.061  1.00  0.00    -0.248 NA
ATOM     70  C   UNL A   1      44.732  24.783  25.377  1.00  0.00     0.031 C 
ATOM     71  C   UNL A   1      44.296  29.737  28.182  1.00  0.00     0.029 A 
ATOM     72  C   UNL A   1      44.329  28.666  27.286  1.00  0.00     0.049 A 
ATOM     73  H   UNL A   1      46.034  27.933  26.321  1.00  0.00     0.167 HD
ATOM     74  C   UNL A   1      43.534  26.660  26.028  1.00  0.00     0.074 A 
ATOM     75  C   UNL A   1      44.754  26.118  25.436  1.00  0.00     0.031 C 
ATOM     76  C   UNL A   1      43.292  27.787  26.763  1.00  0.00     0.034 A 
BRANCH  63  77
ATOM     77  C   UNL A   1      48.702  28.033  27.404  1.00  0.00     0.023 A 
ATOM     78  C   UNL A   1      48.273  27.819  26.075  1.00  0.00     0.031 A 
ATOM     79  C   UNL A   1      50.045  27.677  27.663  1.00  0.00     0.131 A 
ATOM     80  C   UNL A   1      49.084  27.149  25.142  1.00  0.00     0.055 A 
ATOM     81  C   UNL A   1      50.865  27.053  26.716  1.00  0.00     0.041 A 
ATOM     82  F   UNL A   1      50.633  27.843  28.850  1.00  0.00    -0.206 F 
ATOM     83  C   UNL A   1      50.376  26.748  25.460  1.00  0.00     0.022 A 
BRANCH  80  84
ATOM     84  S   UNL A   1      48.351  26.648  23.564  1.00  0.00     0.124 S 
ATOM     85  O   UNL A   1      47.976  25.266  23.844  1.00  0.00    -0.237 OA
ATOM     86  O   UNL A   1      47.255  27.602  23.428  1.00  0.00    -0.237 OA
ATOM     87  O   UNL A   1      49.447  26.818  22.613  1.00  0.00    -0.744 OA
ENDBRANCH  80  84
ENDBRANCH  63  77
BRANCH  64  88
ATOM     88  C   UNL A   1      43.174  21.917  26.037  1.00  0.00     0.023 A 
ATOM     89  C   UNL A   1      44.338  21.300  25.528  1.00  0.00     0.031 A 
ATOM     90  C   UNL A   1      42.028  21.097  26.158  1.00  0.00     0.131 A 
ATOM     91  C   UNL A   1      44.322  19.925  25.174  1.00  0.00     0.055 A 
ATOM     92  C   UNL A   1      42.019  19.744  25.812  1.00  0.00     0.041 A 
ATOM     93  F   UNL A   1      40.892  21.570  26.698  1.00  0.00    -0.206 F 
ATOM     94  C   UNL A   1      43.171  19.149  25.328  1.00  0.00     0.022 A 
BRANCH  91  95
ATOM     95  S   UNL A   1      45.831  19.095  24.565  1.00  0.00     0.124 S 
ATOM     96  O   UNL A   1      46.858  20.105  24.797  1.00  0.00    -0.237 OA
ATOM     97  O   UNL A   1      45.890  17.902  25.400  1.00  0.00    -0.237 OA
ATOM     98  O   UNL A   1      45.535  18.840  23.154  1.00  0.00    -0.744 OA
ENDBRANCH  91  95
ENDBRANCH  64  88
BRANCH  76  99
ATOM     99  C   UNL A   1      41.862  28.077  27.167  1.00  0.00     0.023 A 
ATOM    100  C   UNL A   1      41.270  27.763  28.411  1.00  0.00     0.031 A 
ATOM    101  C   UNL A   1      41.081  28.781  26.231  1.00  0.00     0.131 A 
ATOM    102  C   UNL A   1      39.939  28.152  28.671  1.00  0.00     0.055 A 
ATOM    103  C   UNL A   1      39.776  29.184  26.502  1.00  0.00     0.041 A 
ATOM    104  F   UNL A   1      41.592  29.118  25.034  1.00  0.00    -0.206 F 
ATOM    105  C   UNL A   1      39.198  28.866  27.722  1.00  0.00     0.022 A 
BRANCH 102 106
ATOM    106  S   UNL A   1      39.125  27.713  30.243  1.00  0.00     0.124 S 
ATOM    107  O   UNL A   1      40.128  28.034  31.251  1.00  0.00    -0.237 OA
ATOM    108  O   UNL A   1      37.936  28.560  30.231  1.00  0.00    -0.237 OA
ATOM    109  O   UNL A   1      38.850  26.282  30.095  1.00  0.00    -0.744 OA
ENDBRANCH 102 106
ENDBRANCH  76  99
ENDBRANCH  50  51
ENDBRANCH  42  45
ENDBRANCH  40  41
ENDBRANCH  39  40
ENDBRANCH   1  39
TORSDOF 19
ENDMDL
MODEL 3
REMARK VINA RESULT:     -12.5      6.984     15.555
REMARK SMILES COc1cc([C@H]2c3c(-c4ccccc4)n[nH]c3C(=O)N2c2ccc(C(=O)NCCCCNC(=O)c3ccc(-c4c5nc(c(-c6cc(S(=O)(=O)[O-])ccc6F)c6ccc([nH]6)c(-c6cc(S(=O)(=O)[O-])ccc6F)c6nc(c(-c7cc(S(=O)(=O)[O-])ccc7F)c7ccc4[nH]7)C=C6)C=C5)cc3)cc2)ccc1O
REMARK SMILES IDX 29 1 28 2 27 3 25 4 26 5 24 7 21 8 22 9 99 10 23 11 98 12
REMARK SMILES IDX 20 13 6 14 7 15 8 16 17 17 18 18 15 19 16 20 19 21 5 23 3 24
REMARK SMILES IDX 4 25 102 26 101 27 100 28 2 29 1 30 103 31 9 33 10 34 14 35
REMARK SMILES IDX 11 36 13 37 12 38 30 39 31 40 32 41 33 42 34 44 35 45 36 46
REMARK SMILES IDX 97 47 37 48 96 49 38 50 39 51 40 52 90 53 41 54 95 55 89 56
REMARK SMILES IDX 91 57 42 58 94 59 88 60 87 61 43 63 75 64 55 65 74 66 56 67
REMARK SMILES IDX 59 68 73 69 92 70 57 71 58 72 72 74 93 75 60 76 44 77 45 78
REMARK SMILES IDX 53 79 46 80 52 81 54 82 51 83 47 84 48 85 49 86 50 87 76 88
REMARK SMILES IDX 77 89 85 90 78 91 84 92 86 93 83 94 79 95 80 96 81 97 82 98
REMARK SMILES IDX 61 99 62 100 70 101 63 102 69 103 71 104 68 105 64 106
REMARK SMILES IDX 65 107 66 108 67 109
REMARK H PARENT 27 6 16 22 103 32 32 43 91 62 59 73
REMARK Flexibility Score: inf
ROOT
ATOM      1  C   UNL A   1      41.077  21.976  26.813  1.00  0.00     0.023 C 
ENDROOT
BRANCH   1   2
ATOM      2  C   UNL A   1      39.579  21.968  26.486  1.00  0.00     0.116 C 
BRANCH   2   3
ATOM      3  N   UNL A   1      39.214  20.785  25.729  1.00  0.00    -0.352 N 
ATOM      4  C   UNL A   1      38.036  20.329  25.196  1.00  0.00     0.251 C 
ATOM      5  O   UNL A   1      38.076  19.248  24.604  1.00  0.00    -0.269 OA
ATOM      6  H   UNL A   1      39.974  20.182  25.563  1.00  0.00     0.163 HD
BRANCH   4   7
ATOM      7  C   UNL A   1      36.736  21.064  25.257  1.00  0.00     0.039 A 
ATOM      8  C   UNL A   1      34.383  22.600  25.506  1.00  0.00     0.045 A 
ATOM      9  C   UNL A   1      35.619  23.179  25.772  1.00  0.00     0.027 A 
ATOM     10  C   UNL A   1      34.320  21.277  25.074  1.00  0.00     0.027 A 
ATOM     11  C   UNL A   1      36.782  22.406  25.680  1.00  0.00     0.016 A 
ATOM     12  C   UNL A   1      35.494  20.535  24.901  1.00  0.00     0.016 A 
BRANCH   8  13
ATOM     13  N   UNL A   1      33.203  23.342  25.635  1.00  0.00    -0.295 N 
ATOM     14  C   UNL A   1      33.134  24.788  25.271  1.00  0.00     0.156 C 
ATOM     15  C   UNL A   1      31.769  25.100  25.767  1.00  0.00     0.038 A 
ATOM     16  C   UNL A   1      30.815  26.119  25.936  1.00  0.00     0.099 A 
ATOM     17  C   UNL A   1      31.200  23.983  26.305  1.00  0.00     0.129 A 
ATOM     18  C   UNL A   1      32.028  22.832  26.220  1.00  0.00     0.277 C 
ATOM     19  N   UNL A   1      29.746  25.641  26.618  1.00  0.00    -0.174 NA
ATOM     20  N   UNL A   1      30.006  24.324  26.809  1.00  0.00    -0.272 N 
ATOM     21  O   UNL A   1      31.772  21.721  26.618  1.00  0.00    -0.267 OA
ATOM     22  H   UNL A   1      29.396  23.698  27.260  1.00  0.00     0.190 HD
BRANCH  14  23
ATOM     23  C   UNL A   1      33.155  25.025  23.776  1.00  0.00    -0.016 A 
ATOM     24  C   UNL A   1      33.511  26.596  21.903  1.00  0.00     0.160 A 
ATOM     25  C   UNL A   1      33.508  26.293  23.280  1.00  0.00     0.056 A 
ATOM     26  C   UNL A   1      33.143  25.592  21.007  1.00  0.00     0.157 A 
ATOM     27  C   UNL A   1      32.815  24.317  21.479  1.00  0.00     0.050 A 
ATOM     28  C   UNL A   1      32.833  24.029  22.843  1.00  0.00     0.010 A 
BRANCH  24  29
ATOM     29  O   UNL A   1      33.851  27.899  21.681  1.00  0.00    -0.493 OA
ATOM     30  C   UNL A   1      34.213  28.757  22.747  1.00  0.00     0.278 C 
ENDBRANCH  24  29
BRANCH  26  31
ATOM     31  O   UNL A   1      33.022  25.724  19.655  1.00  0.00    -0.504 OA
ATOM     32  H   UNL A   1      32.900  26.571  19.275  1.00  0.00     0.293 HD
ENDBRANCH  26  31
ENDBRANCH  14  23
BRANCH  16  33
ATOM     33  C   UNL A   1      30.859  27.504  25.490  1.00  0.00     0.002 A 
ATOM     34  C   UNL A   1      30.290  27.874  24.265  1.00  0.00     0.010 A 
ATOM     35  C   UNL A   1      31.513  28.474  26.257  1.00  0.00     0.010 A 
ATOM     36  C   UNL A   1      30.357  29.201  23.829  1.00  0.00     0.001 A 
ATOM     37  C   UNL A   1      31.576  29.800  25.823  1.00  0.00     0.001 A 
ATOM     38  C   UNL A   1      30.997  30.162  24.610  1.00  0.00     0.000 A 
ENDBRANCH  16  33
ENDBRANCH   8  13
ENDBRANCH   4   7
ENDBRANCH   2   3
ENDBRANCH   1   2
BRANCH   1  39
ATOM     39  C   UNL A   1      41.438  22.603  28.169  1.00  0.00     0.023 C 
BRANCH  39  40
ATOM     40  C   UNL A   1      42.934  22.691  28.459  1.00  0.00     0.116 C 
BRANCH  40  41
ATOM     41  N   UNL A   1      43.711  23.115  27.294  1.00  0.00    -0.352 N 
ATOM     42  C   UNL A   1      43.717  24.353  26.680  1.00  0.00     0.251 C 
ATOM     43  H   UNL A   1      44.303  22.435  26.900  1.00  0.00     0.163 HD
ATOM     44  O   UNL A   1      44.060  24.464  25.508  1.00  0.00    -0.269 OA
BRANCH  42  45
ATOM     45  C   UNL A   1      43.318  25.535  27.465  1.00  0.00     0.039 A 
ATOM     46  C   UNL A   1      44.057  25.970  28.567  1.00  0.00     0.014 A 
ATOM     47  C   UNL A   1      42.190  26.235  27.041  1.00  0.00     0.014 A 
ATOM     48  C   UNL A   1      43.699  27.169  29.183  1.00  0.00     0.010 A 
ATOM     49  C   UNL A   1      41.925  27.479  27.556  1.00  0.00     0.010 A 
ATOM     50  C   UNL A   1      42.644  27.934  28.657  1.00  0.00    -0.014 A 
BRANCH  50  51
ATOM     51  C   UNL A   1      42.384  29.292  29.140  1.00  0.00     0.031 A 
ATOM     52  C   UNL A   1      43.313  30.308  28.575  1.00  0.00     0.074 A 
ATOM     53  C   UNL A   1      41.263  29.641  29.811  1.00  0.00     0.049 A 
ATOM     54  N   UNL A   1      44.287  30.914  29.169  1.00  0.00    -0.248 NA
ATOM     55  C   UNL A   1      43.292  30.527  27.116  1.00  0.00     0.031 C 
ATOM     56  C   UNL A   1      40.115  28.779  30.127  1.00  0.00     0.029 A 
ATOM     57  N   UNL A   1      40.843  30.862  30.250  1.00  0.00    -0.354 N 
ATOM     58  C   UNL A   1      44.791  31.816  28.235  1.00  0.00     0.074 A 
ATOM     59  C   UNL A   1      44.342  31.335  26.959  1.00  0.00     0.031 C 
ATOM     60  C   UNL A   1      39.054  29.538  30.475  1.00  0.00     0.029 A 
ATOM     61  C   UNL A   1      39.490  30.918  30.590  1.00  0.00     0.049 A 
ATOM     62  H   UNL A   1      41.444  31.640  30.322  1.00  0.00     0.167 HD
ATOM     63  C   UNL A   1      45.224  33.049  28.629  1.00  0.00     0.034 A 
ATOM     64  C   UNL A   1      38.762  32.013  30.938  1.00  0.00     0.034 A 
ATOM     65  C   UNL A   1      45.380  33.076  30.070  1.00  0.00     0.049 A 
ATOM     66  C   UNL A   1      39.732  33.014  31.435  1.00  0.00     0.074 A 
ATOM     67  C   UNL A   1      46.183  32.450  30.999  1.00  0.00     0.029 A 
ATOM     68  N   UNL A   1      44.301  33.582  30.756  1.00  0.00    -0.354 N 
ATOM     69  N   UNL A   1      40.477  32.822  32.491  1.00  0.00    -0.248 NA
ATOM     70  C   UNL A   1      40.194  34.065  30.540  1.00  0.00     0.031 C 
ATOM     71  C   UNL A   1      45.379  32.319  32.172  1.00  0.00     0.029 A 
ATOM     72  C   UNL A   1      44.146  32.935  31.952  1.00  0.00     0.049 A 
ATOM     73  H   UNL A   1      43.721  34.308  30.432  1.00  0.00     0.167 HD
ATOM     74  C   UNL A   1      41.699  33.388  32.171  1.00  0.00     0.074 A 
ATOM     75  C   UNL A   1      41.411  34.278  31.050  1.00  0.00     0.031 C 
ATOM     76  C   UNL A   1      42.865  32.850  32.640  1.00  0.00     0.034 A 
BRANCH  63  77
ATOM     77  C   UNL A   1      45.003  34.349  27.852  1.00  0.00     0.023 A 
ATOM     78  C   UNL A   1      46.164  35.038  27.435  1.00  0.00     0.031 A 
ATOM     79  C   UNL A   1      43.805  35.092  27.771  1.00  0.00     0.131 A 
ATOM     80  C   UNL A   1      46.130  36.409  27.125  1.00  0.00     0.055 A 
ATOM     81  C   UNL A   1      43.769  36.446  27.416  1.00  0.00     0.041 A 
ATOM     82  F   UNL A   1      42.608  34.593  28.088  1.00  0.00    -0.206 F 
ATOM     83  C   UNL A   1      44.939  37.124  27.129  1.00  0.00     0.022 A 
BRANCH  80  84
ATOM     84  S   UNL A   1      47.701  37.281  26.896  1.00  0.00     0.124 S 
ATOM     85  O   UNL A   1      47.366  38.203  25.816  1.00  0.00    -0.237 OA
ATOM     86  O   UNL A   1      47.908  37.873  28.214  1.00  0.00    -0.237 OA
ATOM     87  O   UNL A   1      48.632  36.212  26.540  1.00  0.00    -0.744 OA
ENDBRANCH  80  84
ENDBRANCH  63  77
BRANCH  64  88
ATOM     88  C   UNL A   1      37.356  32.327  30.548  1.00  0.00     0.023 A 
ATOM     89  C   UNL A   1      36.441  33.003  31.384  1.00  0.00     0.031 A 
ATOM     90  C   UNL A   1      36.971  32.163  29.196  1.00  0.00     0.131 A 
ATOM     91  C   UNL A   1      35.213  33.485  30.860  1.00  0.00     0.055 A 
ATOM     92  C   UNL A   1      35.763  32.642  28.685  1.00  0.00     0.041 A 
ATOM     93  F   UNL A   1      37.800  31.597  28.303  1.00  0.00    -0.206 F 
ATOM     94  C   UNL A   1      34.882  33.315  29.513  1.00  0.00     0.022 A 
BRANCH  91  95
ATOM     95  S   UNL A   1      34.041  34.409  31.913  1.00  0.00     0.124 S 
ATOM     96  O   UNL A   1      34.902  35.405  32.538  1.00  0.00    -0.237 OA
ATOM     97  O   UNL A   1      33.072  34.902  30.942  1.00  0.00    -0.237 OA
ATOM     98  O   UNL A   1      33.525  33.388  32.827  1.00  0.00    -0.744 OA
ENDBRANCH  91  95
ENDBRANCH  64  88
BRANCH  76  99
ATOM     99  C   UNL A   1      42.801  32.003  33.893  1.00  0.00     0.023 A 
ATOM    100  C   UNL A   1      42.390  30.652  33.963  1.00  0.00     0.031 A 
ATOM    101  C   UNL A   1      43.255  32.609  35.079  1.00  0.00     0.131 A 
ATOM    102  C   UNL A   1      42.442  29.967  35.196  1.00  0.00     0.055 A 
ATOM    103  C   UNL A   1      43.327  31.922  36.288  1.00  0.00     0.041 A 
ATOM    104  F   UNL A   1      43.669  33.888  35.074  1.00  0.00    -0.206 F 
ATOM    105  C   UNL A   1      42.915  30.599  36.352  1.00  0.00     0.022 A 
BRANCH 102 106
ATOM    106  S   UNL A   1      41.866  28.243  35.335  1.00  0.00     0.124 S 
ATOM    107  O   UNL A   1      40.974  28.085  34.192  1.00  0.00    -0.237 OA
ATOM    108  O   UNL A   1      43.113  27.487  35.281  1.00  0.00    -0.237 OA
ATOM    109  O   UNL A   1      41.195  28.212  36.636  1.00  0.00    -0.744 OA
ENDBRANCH 102 106
ENDBRANCH  76  99
ENDBRANCH  50  51
ENDBRANCH  42  45
ENDBRANCH  40  41
ENDBRANCH  39  40
ENDBRANCH   1  39
TORSDOF 19
ENDMDL
