MODEL 1
REMARK VINA RESULT:     -12.6      0.000      0.000
REMARK SMILES O=C(NCCCCNC(=O)c1ccc(-c2ccc(Cl)cc2)cc1F)c1ccc(-c2c3nc(c(-c4cc(S(=O)(=O)[O-])ccc4F)c4ccc([nH]4)c(-c4cc(S(=O)(=O)[O-])ccc4F)c4nc(c(-c5cc(S(=O)(=O)[O-])ccc5F)c5ccc2[nH]5)C=C4)C=C3)cc1
REMARK SMILES IDX 4 1 3 2 1 3 2 4 25 6 26 7 87 8 27 9 86 10 28 11 29 12 30 13
REMARK SMILES IDX 80 14 31 15 85 16 79 17 81 18 32 19 84 20 78 21 77 22 33 24
REMARK SMILES IDX 65 25 45 26 64 27 46 28 49 29 63 30 82 31 47 32 48 33 62 35
REMARK SMILES IDX 83 36 50 37 34 38 35 39 43 40 36 41 42 42 44 43 41 44 37 45
REMARK SMILES IDX 38 46 39 47 40 48 66 49 67 50 75 51 68 52 74 53 76 54 73 55
REMARK SMILES IDX 69 56 70 57 71 58 72 59 51 60 52 61 60 62 53 63 59 64 61 65
REMARK SMILES IDX 58 66 54 67 55 68 56 69 57 70 5 71 6 72 7 73 8 74 9 75 10 77
REMARK SMILES IDX 11 78 12 79 23 80 13 81 22 82 24 83 14 84 15 85 16 86 21 87
REMARK SMILES IDX 17 88 20 89 18 90 19 91
REMARK H PARENT 3 5 81 23 49 34 8 76
REMARK Flexibility Score: inf
ROOT
ATOM      1  C   UNL A   1      32.842  29.421  25.613  1.00  0.00     0.116 C 
ENDROOT
BRANCH   1   2
ATOM      2  N   UNL A   1      32.471  30.770  26.016  1.00  0.00    -0.352 N 
ATOM      3  O   UNL A   1      32.527  32.658  27.249  1.00  0.00    -0.269 OA
ATOM      4  C   UNL A   1      33.057  31.590  26.953  1.00  0.00     0.251 C 
ATOM      5  H   UNL A   1      31.691  31.150  25.552  1.00  0.00     0.163 HD
BRANCH   4   6
ATOM      6  C   UNL A   1      34.308  31.168  27.624  1.00  0.00     0.039 A 
ATOM      7  C   UNL A   1      34.507  29.836  27.990  1.00  0.00     0.014 A 
ATOM      8  C   UNL A   1      35.287  32.126  27.906  1.00  0.00     0.014 A 
ATOM      9  C   UNL A   1      35.606  29.491  28.770  1.00  0.00     0.010 A 
ATOM     10  C   UNL A   1      36.431  31.760  28.622  1.00  0.00     0.010 A 
ATOM     11  C   UNL A   1      36.583  30.447  29.093  1.00  0.00    -0.014 A 
BRANCH  11  12
ATOM     12  C   UNL A   1      37.762  30.039  29.900  1.00  0.00     0.031 A 
ATOM     13  C   UNL A   1      38.842  29.171  29.307  1.00  0.00     0.074 A 
ATOM     14  C   UNL A   1      37.881  30.500  31.161  1.00  0.00     0.049 A 
ATOM     15  N   UNL A   1      39.934  28.721  29.871  1.00  0.00    -0.248 NA
ATOM     16  C   UNL A   1      38.676  28.752  27.906  1.00  0.00     0.031 C 
ATOM     17  C   UNL A   1      36.903  31.359  31.836  1.00  0.00     0.029 A 
ATOM     18  N   UNL A   1      38.877  30.340  32.090  1.00  0.00    -0.354 N 
ATOM     19  C   UNL A   1      40.576  27.954  28.905  1.00  0.00     0.074 A 
ATOM     20  C   UNL A   1      39.742  27.985  27.722  1.00  0.00     0.031 C 
ATOM     21  C   UNL A   1      37.372  31.690  33.048  1.00  0.00     0.029 A 
ATOM     22  C   UNL A   1      38.647  31.015  33.266  1.00  0.00     0.049 A 
ATOM     23  H   UNL A   1      39.679  29.793  31.930  1.00  0.00     0.167 HD
ATOM     24  C   UNL A   1      41.756  27.294  28.997  1.00  0.00     0.034 A 
ATOM     25  C   UNL A   1      39.368  31.070  34.402  1.00  0.00     0.034 A 
ATOM     26  C   UNL A   1      42.593  27.293  30.170  1.00  0.00     0.049 A 
ATOM     27  C   UNL A   1      40.652  30.294  34.488  1.00  0.00     0.074 A 
ATOM     28  C   UNL A   1      43.822  26.679  30.348  1.00  0.00     0.029 A 
ATOM     29  N   UNL A   1      42.292  27.932  31.364  1.00  0.00    -0.354 N 
ATOM     30  N   UNL A   1      41.227  29.554  33.570  1.00  0.00    -0.248 NA
ATOM     31  C   UNL A   1      41.376  30.346  35.765  1.00  0.00     0.031 C 
ATOM     32  C   UNL A   1      44.239  26.904  31.663  1.00  0.00     0.029 A 
ATOM     33  C   UNL A   1      43.297  27.705  32.290  1.00  0.00     0.049 A 
ATOM     34  H   UNL A   1      41.482  28.468  31.529  1.00  0.00     0.167 HD
ATOM     35  C   UNL A   1      42.382  29.054  34.159  1.00  0.00     0.074 A 
ATOM     36  C   UNL A   1      42.433  29.589  35.505  1.00  0.00     0.031 C 
ATOM     37  C   UNL A   1      43.317  28.225  33.633  1.00  0.00     0.034 A 
BRANCH  24  38
ATOM     38  C   UNL A   1      42.209  26.487  27.810  1.00  0.00     0.023 A 
ATOM     39  C   UNL A   1      41.874  25.130  27.670  1.00  0.00     0.031 A 
ATOM     40  C   UNL A   1      42.937  27.104  26.778  1.00  0.00     0.131 A 
ATOM     41  C   UNL A   1      42.287  24.427  26.528  1.00  0.00     0.055 A 
ATOM     42  C   UNL A   1      43.302  26.412  25.622  1.00  0.00     0.041 A 
ATOM     43  F   UNL A   1      43.292  28.395  26.872  1.00  0.00    -0.206 F 
ATOM     44  C   UNL A   1      42.978  25.064  25.493  1.00  0.00     0.022 A 
BRANCH  41  45
ATOM     45  S   UNL A   1      41.944  22.649  26.422  1.00  0.00     0.124 S 
ATOM     46  O   UNL A   1      42.631  22.146  27.610  1.00  0.00    -0.237 OA
ATOM     47  O   UNL A   1      40.487  22.601  26.460  1.00  0.00    -0.237 OA
ATOM     48  O   UNL A   1      42.546  22.260  25.148  1.00  0.00    -0.744 OA
ENDBRANCH  41  45
ENDBRANCH  24  38
BRANCH  25  49
ATOM     49  C   UNL A   1      38.864  31.850  35.565  1.00  0.00     0.023 A 
ATOM     50  C   UNL A   1      38.228  31.217  36.643  1.00  0.00     0.031 A 
ATOM     51  C   UNL A   1      39.010  33.248  35.607  1.00  0.00     0.131 A 
ATOM     52  C   UNL A   1      37.742  31.986  37.712  1.00  0.00     0.055 A 
ATOM     53  C   UNL A   1      38.562  34.003  36.691  1.00  0.00     0.041 A 
ATOM     54  F   UNL A   1      39.617  33.898  34.601  1.00  0.00    -0.206 F 
ATOM     55  C   UNL A   1      37.916  33.372  37.749  1.00  0.00     0.022 A 
BRANCH  52  56
ATOM     56  S   UNL A   1      36.838  31.151  39.044  1.00  0.00     0.124 S 
ATOM     57  O   UNL A   1      35.627  31.959  39.133  1.00  0.00    -0.237 OA
ATOM     58  O   UNL A   1      36.674  29.805  38.504  1.00  0.00    -0.237 OA
ATOM     59  O   UNL A   1      37.744  31.254  40.186  1.00  0.00    -0.744 OA
ENDBRANCH  52  56
ENDBRANCH  25  49
BRANCH  37  60
ATOM     60  C   UNL A   1      44.476  27.854  34.515  1.00  0.00     0.023 A 
ATOM     61  C   UNL A   1      44.426  26.723  35.346  1.00  0.00     0.031 A 
ATOM     62  C   UNL A   1      45.653  28.623  34.500  1.00  0.00     0.131 A 
ATOM     63  C   UNL A   1      45.526  26.406  36.154  1.00  0.00     0.055 A 
ATOM     64  C   UNL A   1      46.759  28.279  35.276  1.00  0.00     0.041 A 
ATOM     65  F   UNL A   1      45.747  29.711  33.719  1.00  0.00    -0.206 F 
ATOM     66  C   UNL A   1      46.698  27.168  36.113  1.00  0.00     0.022 A 
BRANCH  63  67
ATOM     67  S   UNL A   1      45.402  24.992  37.283  1.00  0.00     0.124 S 
ATOM     68  O   UNL A   1      46.804  24.622  37.457  1.00  0.00    -0.237 OA
ATOM     69  O   UNL A   1      44.748  25.574  38.450  1.00  0.00    -0.237 OA
ATOM     70  O   UNL A   1      44.593  24.029  36.539  1.00  0.00    -0.744 OA
ENDBRANCH  63  67
ENDBRANCH  37  60
ENDBRANCH  11  12
ENDBRANCH   4   6
ENDBRANCH   1   2
BRANCH   1  71
ATOM     71  C   UNL A   1      31.638  28.516  25.376  1.00  0.00     0.023 C 
BRANCH  71  72
ATOM     72  C   UNL A   1      30.732  28.915  24.213  1.00  0.00     0.023 C 
BRANCH  72  73
ATOM     73  C   UNL A   1      30.987  28.176  22.902  1.00  0.00     0.116 C 
BRANCH  73  74
ATOM     74  N   UNL A   1      32.249  28.546  22.282  1.00  0.00    -0.352 N 
ATOM     75  C   UNL A   1      33.377  27.786  22.100  1.00  0.00     0.254 C 
ATOM     76  H   UNL A   1      32.302  29.471  21.947  1.00  0.00     0.163 HD
ATOM     77  O   UNL A   1      34.396  28.270  21.617  1.00  0.00    -0.269 OA
BRANCH  75  78
ATOM     78  C   UNL A   1      33.395  26.389  22.549  1.00  0.00     0.075 A 
ATOM     79  C   UNL A   1      33.840  26.105  23.842  1.00  0.00     0.017 A 
ATOM     80  C   UNL A   1      32.974  25.357  21.718  1.00  0.00     0.136 A 
ATOM     81  C   UNL A   1      33.784  24.792  24.317  1.00  0.00     0.010 A 
ATOM     82  C   UNL A   1      32.912  24.050  22.193  1.00  0.00     0.048 A 
ATOM     83  F   UNL A   1      32.573  25.602  20.462  1.00  0.00    -0.206 F 
ATOM     84  C   UNL A   1      33.296  23.747  23.510  1.00  0.00    -0.015 A 
BRANCH  84  85
ATOM     85  C   UNL A   1      33.159  22.380  24.035  1.00  0.00    -0.018 A 
ATOM     86  C   UNL A   1      32.521  21.373  23.291  1.00  0.00     0.010 A 
ATOM     87  C   UNL A   1      33.639  22.051  25.316  1.00  0.00     0.010 A 
ATOM     88  C   UNL A   1      32.364  20.083  23.808  1.00  0.00     0.021 A 
ATOM     89  C   UNL A   1      33.485  20.762  25.837  1.00  0.00     0.021 A 
ATOM     90  C   UNL A   1      32.847  19.785  25.080  1.00  0.00     0.041 A 
ATOM     91  Cl  UNL A   1      32.649  18.200  25.719  1.00  0.00    -0.084 Cl
ENDBRANCH  84  85
ENDBRANCH  75  78
ENDBRANCH  73  74
ENDBRANCH  72  73
ENDBRANCH  71  72
ENDBRANCH   1  71
TORSDOF 15
ENDMDL
MODEL 2
REMARK VINA RESULT:     -12.5      5.504      8.179
REMARK SMILES O=C(NCCCCNC(=O)c1ccc(-c2ccc(Cl)cc2)cc1F)c1ccc(-c2c3nc(c(-c4cc(S(=O)(=O)[O-])ccc4F)c4ccc([nH]4)c(-c4cc(S(=O)(=O)[O-])ccc4F)c4nc(c(-c5cc(S(=O)(=O)[O-])ccc5F)c5ccc2[nH]5)C=C4)C=C3)cc1
REMARK SMILES IDX 4 1 3 2 1 3 2 4 25 6 26 7 87 8 27 9 86 10 28 11 29 12 30 13
REMARK SMILES IDX 80 14 31 15 85 16 79 17 81 18 32 19 84 20 78 21 77 22 33 24
REMARK SMILES IDX 65 25 45 26 64 27 46 28 49 29 63 30 82 31 47 32 48 33 62 35
REMARK SMILES IDX 83 36 50 37 34 38 35 39 43 40 36 41 42 42 44 43 41 44 37 45
REMARK SMILES IDX 38 46 39 47 40 48 66 49 67 50 75 51 68 52 74 53 76 54 73 55
REMARK SMILES IDX 69 56 70 57 71 58 72 59 51 60 52 61 60 62 53 63 59 64 61 65
REMARK SMILES IDX 58 66 54 67 55 68 56 69 57 70 5 71 6 72 7 73 8 74 9 75 10 77
REMARK SMILES IDX 11 78 12 79 23 80 13 81 22 82 24 83 14 84 15 85 16 86 21 87
REMARK SMILES IDX 17 88 20 89 18 90 19 91
REMARK H PARENT 3 5 81 23 49 34 8 76
REMARK Flexibility Score: inf
ROOT
ATOM      1  C   UNL A   1      37.081  21.498  25.002  1.00  0.00     0.116 C 
ENDROOT
BRANCH   1   2
ATOM      2  N   UNL A   1      38.006  20.438  25.376  1.00  0.00    -0.352 N 
ATOM      3  O   UNL A   1      39.942  19.528  26.093  1.00  0.00    -0.269 OA
ATOM      4  C   UNL A   1      39.246  20.533  25.964  1.00  0.00     0.251 C 
ATOM      5  H   UNL A   1      37.701  19.523  25.180  1.00  0.00     0.163 HD
BRANCH   4   6
ATOM      6  C   UNL A   1      39.752  21.850  26.412  1.00  0.00     0.039 A 
ATOM      7  C   UNL A   1      39.178  23.033  25.941  1.00  0.00     0.014 A 
ATOM      8  C   UNL A   1      40.828  21.901  27.304  1.00  0.00     0.014 A 
ATOM      9  C   UNL A   1      39.773  24.254  26.236  1.00  0.00     0.010 A 
ATOM     10  C   UNL A   1      41.376  23.137  27.663  1.00  0.00     0.010 A 
ATOM     11  C   UNL A   1      40.877  24.323  27.102  1.00  0.00    -0.014 A 
BRANCH  11  12
ATOM     12  C   UNL A   1      41.470  25.647  27.424  1.00  0.00     0.031 A 
ATOM     13  C   UNL A   1      42.815  26.046  26.874  1.00  0.00     0.074 A 
ATOM     14  C   UNL A   1      40.763  26.513  28.176  1.00  0.00     0.049 A 
ATOM     15  N   UNL A   1      43.479  27.159  27.058  1.00  0.00    -0.248 NA
ATOM     16  C   UNL A   1      43.505  25.073  26.012  1.00  0.00     0.031 C 
ATOM     17  C   UNL A   1      39.443  26.241  28.752  1.00  0.00     0.029 A 
ATOM     18  N   UNL A   1      41.034  27.800  28.564  1.00  0.00    -0.354 N 
ATOM     19  C   UNL A   1      44.668  27.017  26.352  1.00  0.00     0.074 A 
ATOM     20  C   UNL A   1      44.644  25.701  25.749  1.00  0.00     0.031 C 
ATOM     21  C   UNL A   1      38.999  27.343  29.374  1.00  0.00     0.029 A 
ATOM     22  C   UNL A   1      40.026  28.376  29.303  1.00  0.00     0.049 A 
ATOM     23  H   UNL A   1      41.869  28.266  28.337  1.00  0.00     0.167 HD
ATOM     24  C   UNL A   1      45.681  27.907  26.215  1.00  0.00     0.034 A 
ATOM     25  C   UNL A   1      39.943  29.590  29.878  1.00  0.00     0.034 A 
ATOM     26  C   UNL A   1      45.683  29.226  26.795  1.00  0.00     0.049 A 
ATOM     27  C   UNL A   1      41.100  30.541  29.743  1.00  0.00     0.074 A 
ATOM     28  C   UNL A   1      46.650  30.212  26.685  1.00  0.00     0.029 A 
ATOM     29  N   UNL A   1      44.675  29.746  27.594  1.00  0.00    -0.354 N 
ATOM     30  N   UNL A   1      42.227  30.375  29.092  1.00  0.00    -0.248 NA
ATOM     31  C   UNL A   1      40.983  31.833  30.430  1.00  0.00     0.031 C 
ATOM     32  C   UNL A   1      46.250  31.306  27.458  1.00  0.00     0.029 A 
ATOM     33  C   UNL A   1      45.009  31.026  28.005  1.00  0.00     0.049 A 
ATOM     34  H   UNL A   1      43.844  29.274  27.834  1.00  0.00     0.167 HD
ATOM     35  C   UNL A   1      42.952  31.543  29.291  1.00  0.00     0.074 A 
ATOM     36  C   UNL A   1      42.130  32.414  30.107  1.00  0.00     0.031 C 
ATOM     37  C   UNL A   1      44.189  31.867  28.839  1.00  0.00     0.034 A 
BRANCH  24  38
ATOM     38  C   UNL A   1      46.894  27.483  25.431  1.00  0.00     0.023 A 
ATOM     39  C   UNL A   1      47.047  27.812  24.074  1.00  0.00     0.031 A 
ATOM     40  C   UNL A   1      47.937  26.791  26.071  1.00  0.00     0.131 A 
ATOM     41  C   UNL A   1      48.213  27.427  23.393  1.00  0.00     0.055 A 
ATOM     42  C   UNL A   1      49.115  26.455  25.402  1.00  0.00     0.041 A 
ATOM     43  F   UNL A   1      47.831  26.443  27.364  1.00  0.00    -0.206 F 
ATOM     44  C   UNL A   1      49.256  26.771  24.054  1.00  0.00     0.022 A 
BRANCH  41  45
ATOM     45  S   UNL A   1      48.339  27.759  21.615  1.00  0.00     0.124 S 
ATOM     46  O   UNL A   1      46.999  28.258  21.314  1.00  0.00    -0.237 OA
ATOM     47  O   UNL A   1      49.415  28.740  21.547  1.00  0.00    -0.237 OA
ATOM     48  O   UNL A   1      48.654  26.450  21.044  1.00  0.00    -0.744 OA
ENDBRANCH  41  45
ENDBRANCH  24  38
BRANCH  25  49
ATOM     49  C   UNL A   1      38.741  29.954  30.677  1.00  0.00     0.023 A 
ATOM     50  C   UNL A   1      37.738  30.777  30.145  1.00  0.00     0.031 A 
ATOM     51  C   UNL A   1      38.586  29.483  31.993  1.00  0.00     0.131 A 
ATOM     52  C   UNL A   1      36.630  31.121  30.935  1.00  0.00     0.055 A 
ATOM     53  C   UNL A   1      37.463  29.794  32.759  1.00  0.00     0.041 A 
ATOM     54  F   UNL A   1      39.518  28.688  32.543  1.00  0.00    -0.206 F 
ATOM     55  C   UNL A   1      36.480  30.626  32.233  1.00  0.00     0.022 A 
BRANCH  52  56
ATOM     56  S   UNL A   1      35.399  32.265  30.255  1.00  0.00     0.124 S 
ATOM     57  O   UNL A   1      34.942  31.542  29.072  1.00  0.00    -0.237 OA
ATOM     58  O   UNL A   1      34.442  32.372  31.351  1.00  0.00    -0.237 OA
ATOM     59  O   UNL A   1      36.172  33.477  29.986  1.00  0.00    -0.744 OA
ENDBRANCH  52  56
ENDBRANCH  25  49
BRANCH  37  60
ATOM     60  C   UNL A   1      44.721  33.222  29.212  1.00  0.00     0.023 A 
ATOM     61  C   UNL A   1      44.498  34.341  28.394  1.00  0.00     0.031 A 
ATOM     62  C   UNL A   1      45.431  33.400  30.412  1.00  0.00     0.131 A 
ATOM     63  C   UNL A   1      45.008  35.591  28.772  1.00  0.00     0.055 A 
ATOM     64  C   UNL A   1      45.900  34.652  30.803  1.00  0.00     0.041 A 
ATOM     65  F   UNL A   1      45.664  32.359  31.227  1.00  0.00    -0.206 F 
ATOM     66  C   UNL A   1      45.694  35.757  29.980  1.00  0.00     0.022 A 
BRANCH  63  67
ATOM     67  S   UNL A   1      44.783  37.001  27.655  1.00  0.00     0.124 S 
ATOM     68  O   UNL A   1      44.831  38.129  28.581  1.00  0.00    -0.237 OA
ATOM     69  O   UNL A   1      45.920  36.874  26.750  1.00  0.00    -0.237 OA
ATOM     70  O   UNL A   1      43.478  36.752  27.047  1.00  0.00    -0.744 OA
ENDBRANCH  63  67
ENDBRANCH  37  60
ENDBRANCH  11  12
ENDBRANCH   4   6
ENDBRANCH   1   2
BRANCH   1  71
ATOM     71  C   UNL A   1      35.697  21.327  25.619  1.00  0.00     0.023 C 
BRANCH  71  72
ATOM     72  C   UNL A   1      34.578  20.978  24.640  1.00  0.00     0.023 C 
BRANCH  72  73
ATOM     73  C   UNL A   1      33.162  21.088  25.198  1.00  0.00     0.116 C 
BRANCH  73  74
ATOM     74  N   UNL A   1      33.137  21.351  26.627  1.00  0.00    -0.352 N 
ATOM     75  C   UNL A   1      32.740  22.485  27.290  1.00  0.00     0.254 C 
ATOM     76  H   UNL A   1      33.450  20.613  27.200  1.00  0.00     0.163 HD
ATOM     77  O   UNL A   1      32.847  22.577  28.509  1.00  0.00    -0.269 OA
BRANCH  75  78
ATOM     78  C   UNL A   1      32.241  23.637  26.530  1.00  0.00     0.075 A 
ATOM     79  C   UNL A   1      30.863  23.776  26.352  1.00  0.00     0.017 A 
ATOM     80  C   UNL A   1      33.108  24.583  25.997  1.00  0.00     0.136 A 
ATOM     81  C   UNL A   1      30.362  24.909  25.705  1.00  0.00     0.010 A 
ATOM     82  C   UNL A   1      32.611  25.715  25.359  1.00  0.00     0.048 A 
ATOM     83  F   UNL A   1      34.436  24.453  26.128  1.00  0.00    -0.206 F 
ATOM     84  C   UNL A   1      31.227  25.911  25.221  1.00  0.00    -0.015 A 
BRANCH  84  85
ATOM     85  C   UNL A   1      30.699  27.142  24.614  1.00  0.00    -0.018 A 
ATOM     86  C   UNL A   1      29.598  27.112  23.741  1.00  0.00     0.010 A 
ATOM     87  C   UNL A   1      31.306  28.386  24.869  1.00  0.00     0.010 A 
ATOM     88  C   UNL A   1      29.121  28.281  23.141  1.00  0.00     0.021 A 
ATOM     89  C   UNL A   1      30.831  29.558  24.272  1.00  0.00     0.021 A 
ATOM     90  C   UNL A   1      29.741  29.499  23.409  1.00  0.00     0.041 A 
ATOM     91  Cl  UNL A   1      29.158  30.936  22.667  1.00  0.00    -0.084 Cl
ENDBRANCH  84  85
ENDBRANCH  75  78
ENDBRANCH  73  74
ENDBRANCH  72  73
ENDBRANCH  71  72
ENDBRANCH   1  71
TORSDOF 15
ENDMDL
MODEL 3
REMARK VINA RESULT:     -12.4      5.577     10.518
REMARK SMILES O=C(NCCCCNC(=O)c1ccc(-c2ccc(Cl)cc2)cc1F)c1ccc(-c2c3nc(c(-c4cc(S(=O)(=O)[O-])ccc4F)c4ccc([nH]4)c(-c4cc(S(=O)(=O)[O-])ccc4F)c4nc(c(-c5cc(S(=O)(=O)[O-])ccc5F)c5ccc2[nH]5)C=C4)C=C3)cc1
REMARK SMILES IDX 4 1 3 2 1 3 2 4 25 6 26 7 87 8 27 9 86 10 28 11 29 12 30 13
REMARK SMILES IDX 80 14 31 15 85 16 79 17 81 18 32 19 84 20 78 21 77 22 33 24
REMARK SMILES IDX 65 25 45 26 64 27 46 28 49 29 63 30 82 31 47 32 48 33 62 35
REMARK SMILES IDX 83 36 50 37 34 38 35 39 43 40 36 41 42 42 44 43 41 44 37 45
REMARK SMILES IDX 38 46 39 47 40 48 66 49 67 50 75 51 68 52 74 53 76 54 73 55
REMARK SMILES IDX 69 56 70 57 71 58 72 59 51 60 52 61 60 62 53 63 59 64 61 65
REMARK SMILES IDX 58 66 54 67 55 68 56 69 57 70 5 71 6 72 7 73 8 74 9 75 10 77
REMARK SMILES IDX 11 78 12 79 23 80 13 81 22 82 24 83 14 84 15 85 16 86 21 87
REMARK SMILES IDX 17 88 20 89 18 90 19 91
REMARK H PARENT 3 5 81 23 49 34 8 76
REMARK Flexibility Score: inf
ROOT
ATOM      1  C   UNL A   1      36.284  22.213  25.239  1.00  0.00     0.116 C 
ENDROOT
BRANCH   1   2
ATOM      2  N   UNL A   1      37.201  21.093  25.397  1.00  0.00    -0.352 N 
ATOM      3  O   UNL A   1      39.171  20.058  25.761  1.00  0.00    -0.269 OA
ATOM      4  C   UNL A   1      38.514  21.095  25.806  1.00  0.00     0.251 C 
ATOM      5  H   UNL A   1      36.827  20.208  25.182  1.00  0.00     0.163 HD
BRANCH   4   6
ATOM      6  C   UNL A   1      39.141  22.353  26.270  1.00  0.00     0.039 A 
ATOM      7  C   UNL A   1      38.613  23.592  25.901  1.00  0.00     0.014 A 
ATOM      8  C   UNL A   1      40.285  22.290  27.072  1.00  0.00     0.014 A 
ATOM      9  C   UNL A   1      39.312  24.756  26.201  1.00  0.00     0.010 A 
ATOM     10  C   UNL A   1      40.941  23.469  27.441  1.00  0.00     0.010 A 
ATOM     11  C   UNL A   1      40.482  24.711  26.976  1.00  0.00    -0.014 A 
BRANCH  11  12
ATOM     12  C   UNL A   1      41.187  25.977  27.308  1.00  0.00     0.031 A 
ATOM     13  C   UNL A   1      40.549  27.004  28.206  1.00  0.00     0.074 A 
ATOM     14  C   UNL A   1      42.432  26.173  26.833  1.00  0.00     0.049 A 
ATOM     15  N   UNL A   1      41.022  28.161  28.593  1.00  0.00    -0.248 NA
ATOM     16  C   UNL A   1      39.211  26.698  28.735  1.00  0.00     0.031 C 
ATOM     17  C   UNL A   1      43.156  25.240  25.964  1.00  0.00     0.029 A 
ATOM     18  N   UNL A   1      43.321  27.198  27.030  1.00  0.00    -0.354 N 
ATOM     19  C   UNL A   1      40.038  28.729  29.395  1.00  0.00     0.074 A 
ATOM     20  C   UNL A   1      38.932  27.796  29.426  1.00  0.00     0.031 C 
ATOM     21  C   UNL A   1      44.393  25.711  25.746  1.00  0.00     0.029 A 
ATOM     22  C   UNL A   1      44.530  27.009  26.400  1.00  0.00     0.049 A 
ATOM     23  H   UNL A   1      43.114  27.994  27.570  1.00  0.00     0.167 HD
ATOM     24  C   UNL A   1      40.062  29.915  30.050  1.00  0.00     0.034 A 
ATOM     25  C   UNL A   1      45.619  27.797  26.335  1.00  0.00     0.034 A 
ATOM     26  C   UNL A   1      41.180  30.824  30.037  1.00  0.00     0.049 A 
ATOM     27  C   UNL A   1      45.601  29.125  27.038  1.00  0.00     0.074 A 
ATOM     28  C   UNL A   1      41.310  32.036  30.696  1.00  0.00     0.029 A 
ATOM     29  N   UNL A   1      42.358  30.628  29.330  1.00  0.00    -0.354 N 
ATOM     30  N   UNL A   1      44.647  29.653  27.770  1.00  0.00    -0.248 NA
ATOM     31  C   UNL A   1      46.793  29.970  26.896  1.00  0.00     0.031 C 
ATOM     32  C   UNL A   1      42.544  32.594  30.348  1.00  0.00     0.029 A 
ATOM     33  C   UNL A   1      43.207  31.707  29.516  1.00  0.00     0.049 A 
ATOM     34  H   UNL A   1      42.560  29.838  28.778  1.00  0.00     0.167 HD
ATOM     35  C   UNL A   1      45.128  30.892  28.176  1.00  0.00     0.074 A 
ATOM     36  C   UNL A   1      46.461  31.027  27.624  1.00  0.00     0.031 C 
ATOM     37  C   UNL A   1      44.520  31.835  28.937  1.00  0.00     0.034 A 
BRANCH  24  38
ATOM     38  C   UNL A   1      38.834  30.324  30.818  1.00  0.00     0.023 A 
ATOM     39  C   UNL A   1      37.799  31.061  30.217  1.00  0.00     0.031 A 
ATOM     40  C   UNL A   1      38.672  29.917  32.154  1.00  0.00     0.131 A 
ATOM     41  C   UNL A   1      36.656  31.387  30.962  1.00  0.00     0.055 A 
ATOM     42  C   UNL A   1      37.511  30.202  32.874  1.00  0.00     0.041 A 
ATOM     43  F   UNL A   1      39.639  29.223  32.776  1.00  0.00    -0.206 F 
ATOM     44  C   UNL A   1      36.495  30.944  32.277  1.00  0.00     0.022 A 
BRANCH  41  45
ATOM     45  S   UNL A   1      35.387  32.437  30.202  1.00  0.00     0.124 S 
ATOM     46  O   UNL A   1      36.134  33.669  29.955  1.00  0.00    -0.237 OA
ATOM     47  O   UNL A   1      35.005  31.675  29.019  1.00  0.00    -0.237 OA
ATOM     48  O   UNL A   1      34.359  32.534  31.237  1.00  0.00    -0.744 OA
ENDBRANCH  41  45
ENDBRANCH  24  38
BRANCH  25  49
ATOM     49  C   UNL A   1      46.799  27.371  25.533  1.00  0.00     0.023 A 
ATOM     50  C   UNL A   1      46.958  27.782  24.201  1.00  0.00     0.031 A 
ATOM     51  C   UNL A   1      47.783  26.538  26.094  1.00  0.00     0.131 A 
ATOM     52  C   UNL A   1      48.069  27.340  23.466  1.00  0.00     0.055 A 
ATOM     53  C   UNL A   1      48.906  26.136  25.372  1.00  0.00     0.041 A 
ATOM     54  F   UNL A   1      47.676  26.124  27.367  1.00  0.00    -0.206 F 
ATOM     55  C   UNL A   1      49.050  26.531  24.046  1.00  0.00     0.022 A 
BRANCH  52  56
ATOM     56  S   UNL A   1      48.196  27.806  21.719  1.00  0.00     0.124 S 
ATOM     57  O   UNL A   1      46.919  28.476  21.496  1.00  0.00    -0.237 OA
ATOM     58  O   UNL A   1      49.379  28.661  21.716  1.00  0.00    -0.237 OA
ATOM     59  O   UNL A   1      48.356  26.524  21.035  1.00  0.00    -0.744 OA
ENDBRANCH  52  56
ENDBRANCH  25  49
BRANCH  37  60
ATOM     60  C   UNL A   1      45.296  33.089  29.223  1.00  0.00     0.023 A 
ATOM     61  C   UNL A   1      45.202  34.210  28.382  1.00  0.00     0.031 A 
ATOM     62  C   UNL A   1      46.114  33.174  30.363  1.00  0.00     0.131 A 
ATOM     63  C   UNL A   1      45.939  35.365  28.678  1.00  0.00     0.055 A 
ATOM     64  C   UNL A   1      46.813  34.339  30.674  1.00  0.00     0.041 A 
ATOM     65  F   UNL A   1      46.232  32.128  31.196  1.00  0.00    -0.206 F 
ATOM     66  C   UNL A   1      46.732  35.442  29.828  1.00  0.00     0.022 A 
BRANCH  63  67
ATOM     67  S   UNL A   1      45.868  36.766  27.530  1.00  0.00     0.124 S 
ATOM     68  O   UNL A   1      44.441  36.838  27.230  1.00  0.00    -0.237 OA
ATOM     69  O   UNL A   1      46.406  37.860  28.330  1.00  0.00    -0.237 OA
ATOM     70  O   UNL A   1      46.715  36.340  26.418  1.00  0.00    -0.744 OA
ENDBRANCH  63  67
ENDBRANCH  37  60
ENDBRANCH  11  12
ENDBRANCH   4   6
ENDBRANCH   1   2
BRANCH   1  71
ATOM     71  C   UNL A   1      35.153  21.925  24.258  1.00  0.00     0.023 C 
BRANCH  71  72
ATOM     72  C   UNL A   1      34.267  20.732  24.606  1.00  0.00     0.023 C 
BRANCH  72  73
ATOM     73  C   UNL A   1      32.926  21.078  25.247  1.00  0.00     0.116 C 
BRANCH  73  74
ATOM     74  N   UNL A   1      33.015  21.239  26.689  1.00  0.00    -0.352 N 
ATOM     75  C   UNL A   1      32.702  22.333  27.456  1.00  0.00     0.254 C 
ATOM     76  H   UNL A   1      33.346  20.455  27.185  1.00  0.00     0.163 HD
ATOM     77  O   UNL A   1      32.901  22.336  28.667  1.00  0.00    -0.269 OA
BRANCH  75  78
ATOM     78  C   UNL A   1      32.184  23.548  26.817  1.00  0.00     0.075 A 
ATOM     79  C   UNL A   1      33.092  24.477  26.305  1.00  0.00     0.017 A 
ATOM     80  C   UNL A   1      30.818  23.781  26.708  1.00  0.00     0.136 A 
ATOM     81  C   UNL A   1      32.619  25.597  25.618  1.00  0.00     0.010 A 
ATOM     82  C   UNL A   1      30.345  24.893  26.018  1.00  0.00     0.048 A 
ATOM     83  F   UNL A   1      29.927  22.919  27.220  1.00  0.00    -0.206 F 
ATOM     84  C   UNL A   1      31.238  25.811  25.440  1.00  0.00    -0.015 A 
BRANCH  84  85
ATOM     85  C   UNL A   1      30.740  26.945  24.647  1.00  0.00    -0.018 A 
ATOM     86  C   UNL A   1      29.595  26.823  23.839  1.00  0.00     0.010 A 
ATOM     87  C   UNL A   1      31.416  28.179  24.651  1.00  0.00     0.010 A 
ATOM     88  C   UNL A   1      29.145  27.894  23.061  1.00  0.00     0.021 A 
ATOM     89  C   UNL A   1      30.968  29.252  23.875  1.00  0.00     0.021 A 
ATOM     90  C   UNL A   1      29.834  29.104  23.083  1.00  0.00     0.041 A 
ATOM     91  Cl  UNL A   1      29.283  30.419  22.122  1.00  0.00    -0.084 Cl
ENDBRANCH  84  85
ENDBRANCH  75  78
ENDBRANCH  73  74
ENDBRANCH  72  73
ENDBRANCH  71  72
ENDBRANCH   1  71
TORSDOF 15
ENDMDL
