MODEL 1
REMARK VINA RESULT:     -10.5      0.000      0.000
REMARK SMILES CC1=C(CC(=O)NCCCCNC(=O)c2ccc(-c3c4nc(c(-c5cc(S(=O)(=O)[O-])ccc5F)c5ccc([nH]5)c(-c5cc(S(=O)(=O)[O-])ccc5F)c5nc(c(-c6cc(S(=O)(=O)[O-])ccc6F)c6ccc3[nH]6)C=C5)C=C4)cc2)c2cc(F)ccc2/C1=C\c1cccc(OCc2ccccc2)c1
REMARK SMILES IDX 8 1 7 2 5 3 6 4 4 6 3 7 1 8 2 9 85 10 78 11 84 12 86 13
REMARK SMILES IDX 79 14 83 15 80 16 82 17 81 18 87 19 88 20 100 21 89 22 91 23
REMARK SMILES IDX 90 24 92 25 93 26 94 27 95 28 99 29 96 30 98 31 97 32 9 33
REMARK SMILES IDX 10 34 11 35 12 36 13 37 14 39 15 40 16 41 77 42 17 43 76 44
REMARK SMILES IDX 18 45 19 46 20 47 70 48 21 49 75 50 69 51 71 52 22 53 74 54
REMARK SMILES IDX 68 55 67 56 23 58 55 59 35 60 54 61 36 62 39 63 53 64 72 65
REMARK SMILES IDX 37 66 38 67 52 69 73 70 40 71 24 72 25 73 33 74 26 75 32 76
REMARK SMILES IDX 34 77 31 78 27 79 28 80 29 81 30 82 56 83 57 84 65 85 58 86
REMARK SMILES IDX 64 87 66 88 63 89 59 90 60 91 61 92 62 93 41 94 42 95 50 96
REMARK SMILES IDX 43 97 49 98 51 99 48 100 44 101 45 102 46 103 47 104
REMARK H PARENT 7 5 12 38 71 57 39 68
REMARK Flexibility Score: inf
ROOT
ATOM      1  C   UNL A   1      43.829  22.376  25.542  1.00  0.00     0.116 C 
ENDROOT
BRANCH   1   2
ATOM      2  N   UNL A   1      43.023  21.184  25.362  1.00  0.00    -0.356 N 
ATOM      3  C   UNL A   1      42.234  20.538  26.269  1.00  0.00     0.224 C 
ATOM      4  O   UNL A   1      41.632  19.524  25.907  1.00  0.00    -0.275 OA
ATOM      5  H   UNL A   1      43.050  20.786  24.461  1.00  0.00     0.163 HD
BRANCH   3   6
ATOM      6  C   UNL A   1      42.070  21.085  27.685  1.00  0.00     0.136 C 
BRANCH   6   7
ATOM      7  C   UNL A   1      41.520  22.474  27.718  1.00  0.00    -0.027 C 
ATOM      8  C   UNL A   1      43.363  23.746  28.962  1.00  0.00     0.045 C 
ATOM      9  C   UNL A   1      42.045  23.589  28.279  1.00  0.00    -0.039 C 
ATOM     10  C   UNL A   1      41.087  24.699  28.150  1.00  0.00    -0.014 C 
ATOM     11  C   UNL A   1      40.227  22.842  27.111  1.00  0.00    -0.011 A 
ATOM     12  C   UNL A   1      39.957  24.204  27.346  1.00  0.00    -0.010 A 
ATOM     13  C   UNL A   1      41.249  25.899  28.732  1.00  0.00     0.017 C 
ATOM     14  C   UNL A   1      39.333  22.059  26.394  1.00  0.00     0.048 A 
ATOM     15  C   UNL A   1      38.802  24.796  26.853  1.00  0.00     0.012 A 
ATOM     16  C   UNL A   1      38.169  22.657  25.918  1.00  0.00     0.123 A 
ATOM     17  C   UNL A   1      37.899  24.009  26.137  1.00  0.00     0.040 A 
ATOM     18  F   UNL A   1      37.289  21.922  25.225  1.00  0.00    -0.207 F 
BRANCH  13  19
ATOM     19  C   UNL A   1      40.357  27.049  28.615  1.00  0.00    -0.021 A 
ATOM     20  C   UNL A   1      40.411  27.923  27.527  1.00  0.00     0.008 A 
ATOM     21  C   UNL A   1      39.432  27.266  29.641  1.00  0.00     0.054 A 
ATOM     22  C   UNL A   1      39.553  29.022  27.485  1.00  0.00     0.004 A 
ATOM     23  C   UNL A   1      38.544  28.337  29.586  1.00  0.00     0.120 A 
ATOM     24  C   UNL A   1      38.625  29.226  28.512  1.00  0.00     0.046 A 
BRANCH  23  25
ATOM     25  O   UNL A   1      37.572  28.615  30.508  1.00  0.00    -0.489 OA
BRANCH  25  26
ATOM     26  C   UNL A   1      37.968  29.207  31.752  1.00  0.00     0.265 C 
BRANCH  26  27
ATOM     27  C   UNL A   1      37.663  30.687  31.823  1.00  0.00    -0.011 A 
ATOM     28  C   UNL A   1      36.416  31.128  32.288  1.00  0.00     0.007 A 
ATOM     29  C   UNL A   1      38.619  31.641  31.443  1.00  0.00     0.007 A 
ATOM     30  C   UNL A   1      36.139  32.492  32.390  1.00  0.00     0.000 A 
ATOM     31  C   UNL A   1      38.346  33.005  31.560  1.00  0.00     0.000 A 
ATOM     32  C   UNL A   1      37.106  33.429  32.033  1.00  0.00     0.000 A 
ENDBRANCH  26  27
ENDBRANCH  25  26
ENDBRANCH  23  25
ENDBRANCH  13  19
ENDBRANCH   6   7
ENDBRANCH   3   6
ENDBRANCH   1   2
BRANCH   1  33
ATOM     33  C   UNL A   1      45.309  22.054  25.754  1.00  0.00     0.023 C 
BRANCH  33  34
ATOM     34  C   UNL A   1      46.281  22.890  24.925  1.00  0.00     0.023 C 
BRANCH  34  35
ATOM     35  C   UNL A   1      46.777  24.163  25.595  1.00  0.00     0.116 C 
BRANCH  35  36
ATOM     36  N   UNL A   1      47.053  25.248  24.665  1.00  0.00    -0.352 N 
ATOM     37  C   UNL A   1      46.733  26.582  24.796  1.00  0.00     0.251 C 
ATOM     38  H   UNL A   1      47.526  24.998  23.839  1.00  0.00     0.163 HD
ATOM     39  O   UNL A   1      46.956  27.363  23.876  1.00  0.00    -0.269 OA
BRANCH  37  40
ATOM     40  C   UNL A   1      46.067  27.043  26.034  1.00  0.00     0.039 A 
ATOM     41  C   UNL A   1      44.677  26.981  26.154  1.00  0.00     0.014 A 
ATOM     42  C   UNL A   1      46.837  27.612  27.051  1.00  0.00     0.014 A 
ATOM     43  C   UNL A   1      44.049  27.649  27.199  1.00  0.00     0.010 A 
ATOM     44  C   UNL A   1      46.205  28.208  28.148  1.00  0.00     0.010 A 
ATOM     45  C   UNL A   1      44.804  28.280  28.201  1.00  0.00    -0.014 A 
BRANCH  45  46
ATOM     46  C   UNL A   1      44.098  29.007  29.289  1.00  0.00     0.031 A 
ATOM     47  C   UNL A   1      43.797  28.336  30.602  1.00  0.00     0.074 A 
ATOM     48  C   UNL A   1      43.794  30.306  29.111  1.00  0.00     0.049 A 
ATOM     49  N   UNL A   1      43.247  28.841  31.675  1.00  0.00    -0.248 NA
ATOM     50  C   UNL A   1      44.155  26.914  30.728  1.00  0.00     0.031 C 
ATOM     51  C   UNL A   1      44.045  31.058  27.881  1.00  0.00     0.029 A 
ATOM     52  N   UNL A   1      43.243  31.232  29.962  1.00  0.00    -0.354 N 
ATOM     53  C   UNL A   1      43.188  27.806  32.601  1.00  0.00     0.074 A 
ATOM     54  C   UNL A   1      43.719  26.629  31.947  1.00  0.00     0.031 C 
ATOM     55  C   UNL A   1      43.708  32.340  28.076  1.00  0.00     0.029 A 
ATOM     56  C   UNL A   1      43.154  32.492  29.419  1.00  0.00     0.049 A 
ATOM     57  H   UNL A   1      42.942  31.014  30.874  1.00  0.00     0.167 HD
ATOM     58  C   UNL A   1      42.750  27.839  33.883  1.00  0.00     0.034 A 
ATOM     59  C   UNL A   1      42.676  33.643  29.935  1.00  0.00     0.034 A 
ATOM     60  C   UNL A   1      42.230  29.019  34.524  1.00  0.00     0.049 A 
ATOM     61  C   UNL A   1      42.170  33.649  31.352  1.00  0.00     0.074 A 
ATOM     62  C   UNL A   1      41.758  29.152  35.818  1.00  0.00     0.029 A 
ATOM     63  N   UNL A   1      42.119  30.269  33.930  1.00  0.00    -0.354 N 
ATOM     64  N   UNL A   1      42.145  32.664  32.221  1.00  0.00    -0.248 NA
ATOM     65  C   UNL A   1      41.633  34.915  31.867  1.00  0.00     0.031 C 
ATOM     66  C   UNL A   1      41.319  30.467  35.992  1.00  0.00     0.029 A 
ATOM     67  C   UNL A   1      41.572  31.174  34.827  1.00  0.00     0.049 A 
ATOM     68  H   UNL A   1      42.390  30.483  33.008  1.00  0.00     0.167 HD
ATOM     69  C   UNL A   1      41.595  33.192  33.384  1.00  0.00     0.074 A 
ATOM     70  C   UNL A   1      41.335  34.593  33.120  1.00  0.00     0.031 C 
ATOM     71  C   UNL A   1      41.320  32.570  34.558  1.00  0.00     0.034 A 
BRANCH  58  72
ATOM     72  C   UNL A   1      42.824  26.571  34.699  1.00  0.00     0.023 A 
ATOM     73  C   UNL A   1      44.072  26.042  35.078  1.00  0.00     0.031 A 
ATOM     74  C   UNL A   1      41.667  25.831  35.003  1.00  0.00     0.131 A 
ATOM     75  C   UNL A   1      44.135  24.796  35.716  1.00  0.00     0.055 A 
ATOM     76  C   UNL A   1      41.734  24.606  35.671  1.00  0.00     0.041 A 
ATOM     77  F   UNL A   1      40.453  26.294  34.665  1.00  0.00    -0.206 F 
ATOM     78  C   UNL A   1      42.973  24.079  36.020  1.00  0.00     0.022 A 
BRANCH  75  79
ATOM     79  S   UNL A   1      45.726  24.030  36.128  1.00  0.00     0.124 S 
ATOM     80  O   UNL A   1      45.309  22.715  36.611  1.00  0.00    -0.237 OA
ATOM     81  O   UNL A   1      46.410  24.031  34.838  1.00  0.00    -0.237 OA
ATOM     82  O   UNL A   1      46.291  24.914  37.142  1.00  0.00    -0.744 OA
ENDBRANCH  75  79
ENDBRANCH  58  72
BRANCH  59  83
ATOM     83  C   UNL A   1      42.715  34.876  29.097  1.00  0.00     0.023 A 
ATOM     84  C   UNL A   1      43.918  35.583  28.912  1.00  0.00     0.031 A 
ATOM     85  C   UNL A   1      41.532  35.437  28.588  1.00  0.00     0.131 A 
ATOM     86  C   UNL A   1      43.896  36.850  28.317  1.00  0.00     0.055 A 
ATOM     87  C   UNL A   1      41.528  36.666  27.925  1.00  0.00     0.041 A 
ATOM     88  F   UNL A   1      40.359  34.806  28.750  1.00  0.00    -0.206 F 
ATOM     89  C   UNL A   1      42.711  37.389  27.807  1.00  0.00     0.022 A 
BRANCH  86  90
ATOM     90  S   UNL A   1      45.373  37.905  28.330  1.00  0.00     0.124 S 
ATOM     91  O   UNL A   1      45.864  37.757  26.964  1.00  0.00    -0.237 OA
ATOM     92  O   UNL A   1      44.803  39.210  28.658  1.00  0.00    -0.237 OA
ATOM     93  O   UNL A   1      46.209  37.315  29.370  1.00  0.00    -0.744 OA
ENDBRANCH  86  90
ENDBRANCH  59  83
BRANCH  71  94
ATOM     94  C   UNL A   1      40.687  33.376  35.666  1.00  0.00     0.023 A 
ATOM     95  C   UNL A   1      41.494  34.015  36.626  1.00  0.00     0.031 A 
ATOM     96  C   UNL A   1      39.293  33.390  35.851  1.00  0.00     0.131 A 
ATOM     97  C   UNL A   1      40.902  34.610  37.747  1.00  0.00     0.055 A 
ATOM     98  C   UNL A   1      38.706  34.022  36.948  1.00  0.00     0.041 A 
ATOM     99  F   UNL A   1      38.483  32.785  34.967  1.00  0.00    -0.206 F 
ATOM    100  C   UNL A   1      39.512  34.623  37.909  1.00  0.00     0.022 A 
BRANCH  97 101
ATOM    101  S   UNL A   1      41.914  35.317  39.078  1.00  0.00     0.124 S 
ATOM    102  O   UNL A   1      43.265  34.968  38.645  1.00  0.00    -0.237 OA
ATOM    103  O   UNL A   1      41.580  36.736  38.997  1.00  0.00    -0.237 OA
ATOM    104  O   UNL A   1      41.449  34.631  40.278  1.00  0.00    -0.744 OA
ENDBRANCH  97 101
ENDBRANCH  71  94
ENDBRANCH  45  46
ENDBRANCH  37  40
ENDBRANCH  35  36
ENDBRANCH  34  35
ENDBRANCH  33  34
ENDBRANCH   1  33
TORSDOF 19
ENDMDL
MODEL 2
REMARK VINA RESULT:      -9.5      3.612      9.605
REMARK SMILES CC1=C(CC(=O)NCCCCNC(=O)c2ccc(-c3c4nc(c(-c5cc(S(=O)(=O)[O-])ccc5F)c5ccc([nH]5)c(-c5cc(S(=O)(=O)[O-])ccc5F)c5nc(c(-c6cc(S(=O)(=O)[O-])ccc6F)c6ccc3[nH]6)C=C5)C=C4)cc2)c2cc(F)ccc2/C1=C\c1cccc(OCc2ccccc2)c1
REMARK SMILES IDX 8 1 7 2 5 3 6 4 4 6 3 7 1 8 2 9 85 10 78 11 84 12 86 13
REMARK SMILES IDX 79 14 83 15 80 16 82 17 81 18 87 19 88 20 100 21 89 22 91 23
REMARK SMILES IDX 90 24 92 25 93 26 94 27 95 28 99 29 96 30 98 31 97 32 9 33
REMARK SMILES IDX 10 34 11 35 12 36 13 37 14 39 15 40 16 41 77 42 17 43 76 44
REMARK SMILES IDX 18 45 19 46 20 47 70 48 21 49 75 50 69 51 71 52 22 53 74 54
REMARK SMILES IDX 68 55 67 56 23 58 55 59 35 60 54 61 36 62 39 63 53 64 72 65
REMARK SMILES IDX 37 66 38 67 52 69 73 70 40 71 24 72 25 73 33 74 26 75 32 76
REMARK SMILES IDX 34 77 31 78 27 79 28 80 29 81 30 82 56 83 57 84 65 85 58 86
REMARK SMILES IDX 64 87 66 88 63 89 59 90 60 91 61 92 62 93 41 94 42 95 50 96
REMARK SMILES IDX 43 97 49 98 51 99 48 100 44 101 45 102 46 103 47 104
REMARK H PARENT 7 5 12 38 71 57 39 68
REMARK Flexibility Score: inf
ROOT
ATOM      1  C   UNL A   1      52.318  28.333  25.838  1.00  0.00     0.116 C 
ENDROOT
BRANCH   1   2
ATOM      2  N   UNL A   1      52.228  27.667  27.122  1.00  0.00    -0.356 N 
ATOM      3  C   UNL A   1      51.116  27.269  27.806  1.00  0.00     0.224 C 
ATOM      4  O   UNL A   1      51.263  26.719  28.900  1.00  0.00    -0.275 OA
ATOM      5  H   UNL A   1      53.089  27.477  27.562  1.00  0.00     0.163 HD
BRANCH   3   6
ATOM      6  C   UNL A   1      49.725  27.463  27.207  1.00  0.00     0.136 C 
BRANCH   6   7
ATOM      7  C   UNL A   1      48.675  27.732  28.236  1.00  0.00    -0.027 C 
ATOM      8  C   UNL A   1      49.295  30.091  29.021  1.00  0.00     0.045 C 
ATOM      9  C   UNL A   1      48.508  28.822  29.022  1.00  0.00    -0.039 C 
ATOM     10  C   UNL A   1      47.399  28.584  29.960  1.00  0.00    -0.014 C 
ATOM     11  C   UNL A   1      47.610  26.769  28.571  1.00  0.00    -0.011 A 
ATOM     12  C   UNL A   1      46.807  27.283  29.607  1.00  0.00    -0.010 A 
ATOM     13  C   UNL A   1      47.078  29.414  30.966  1.00  0.00     0.017 C 
ATOM     14  C   UNL A   1      47.337  25.525  28.018  1.00  0.00     0.048 A 
ATOM     15  C   UNL A   1      45.717  26.567  30.086  1.00  0.00     0.012 A 
ATOM     16  C   UNL A   1      46.254  24.806  28.516  1.00  0.00     0.123 A 
ATOM     17  C   UNL A   1      45.446  25.313  29.537  1.00  0.00     0.040 A 
ATOM     18  F   UNL A   1      45.972  23.602  28.001  1.00  0.00    -0.207 F 
BRANCH  13  19
ATOM     19  C   UNL A   1      45.972  29.254  31.906  1.00  0.00    -0.021 A 
ATOM     20  C   UNL A   1      44.721  29.836  31.688  1.00  0.00     0.008 A 
ATOM     21  C   UNL A   1      46.198  28.495  33.059  1.00  0.00     0.054 A 
ATOM     22  C   UNL A   1      43.712  29.672  32.636  1.00  0.00     0.004 A 
ATOM     23  C   UNL A   1      45.184  28.292  33.990  1.00  0.00     0.120 A 
ATOM     24  C   UNL A   1      43.946  28.903  33.782  1.00  0.00     0.046 A 
BRANCH  23  25
ATOM     25  O   UNL A   1      45.283  27.532  35.123  1.00  0.00    -0.489 OA
BRANCH  25  26
ATOM     26  C   UNL A   1      44.124  26.806  35.554  1.00  0.00     0.265 C 
BRANCH  26  27
ATOM     27  C   UNL A   1      43.976  25.469  34.860  1.00  0.00    -0.011 A 
ATOM     28  C   UNL A   1      43.078  24.514  35.357  1.00  0.00     0.007 A 
ATOM     29  C   UNL A   1      44.714  25.169  33.705  1.00  0.00     0.007 A 
ATOM     30  C   UNL A   1      42.909  23.292  34.703  1.00  0.00     0.000 A 
ATOM     31  C   UNL A   1      44.533  23.953  33.044  1.00  0.00     0.000 A 
ATOM     32  C   UNL A   1      43.631  23.016  33.543  1.00  0.00     0.000 A 
ENDBRANCH  26  27
ENDBRANCH  25  26
ENDBRANCH  23  25
ENDBRANCH  13  19
ENDBRANCH   6   7
ENDBRANCH   3   6
ENDBRANCH   1   2
BRANCH   1  33
ATOM     33  C   UNL A   1      52.869  27.418  24.743  1.00  0.00     0.023 C 
BRANCH  33  34
ATOM     34  C   UNL A   1      51.814  26.733  23.877  1.00  0.00     0.023 C 
BRANCH  34  35
ATOM     35  C   UNL A   1      51.294  27.560  22.711  1.00  0.00     0.116 C 
BRANCH  35  36
ATOM     36  N   UNL A   1      50.544  26.788  21.731  1.00  0.00    -0.352 N 
ATOM     37  C   UNL A   1      49.216  26.423  21.772  1.00  0.00     0.251 C 
ATOM     38  H   UNL A   1      51.049  26.489  20.940  1.00  0.00     0.163 HD
ATOM     39  O   UNL A   1      48.752  25.689  20.904  1.00  0.00    -0.269 OA
BRANCH  37  40
ATOM     40  C   UNL A   1      48.379  26.878  22.903  1.00  0.00     0.039 A 
ATOM     41  C   UNL A   1      48.250  26.091  24.049  1.00  0.00     0.014 A 
ATOM     42  C   UNL A   1      47.659  28.069  22.783  1.00  0.00     0.014 A 
ATOM     43  C   UNL A   1      47.270  26.398  24.985  1.00  0.00     0.010 A 
ATOM     44  C   UNL A   1      46.734  28.423  23.771  1.00  0.00     0.010 A 
ATOM     45  C   UNL A   1      46.492  27.560  24.852  1.00  0.00    -0.014 A 
BRANCH  45  46
ATOM     46  C   UNL A   1      45.434  27.842  25.857  1.00  0.00     0.031 A 
ATOM     47  C   UNL A   1      45.371  29.169  26.564  1.00  0.00     0.074 A 
ATOM     48  C   UNL A   1      44.483  26.915  26.078  1.00  0.00     0.049 A 
ATOM     49  N   UNL A   1      44.481  29.603  27.419  1.00  0.00    -0.248 NA
ATOM     50  C   UNL A   1      46.443  30.136  26.277  1.00  0.00     0.031 C 
ATOM     51  C   UNL A   1      44.445  25.597  25.445  1.00  0.00     0.029 A 
ATOM     52  N   UNL A   1      43.355  26.944  26.860  1.00  0.00    -0.354 N 
ATOM     53  C   UNL A   1      44.884  30.884  27.777  1.00  0.00     0.074 A 
ATOM     54  C   UNL A   1      46.124  31.143  27.078  1.00  0.00     0.031 C 
ATOM     55  C   UNL A   1      43.321  24.967  25.813  1.00  0.00     0.029 A 
ATOM     56  C   UNL A   1      42.591  25.805  26.761  1.00  0.00     0.049 A 
ATOM     57  H   UNL A   1      43.117  27.707  27.435  1.00  0.00     0.167 HD
ATOM     58  C   UNL A   1      44.266  31.770  28.596  1.00  0.00     0.034 A 
ATOM     59  C   UNL A   1      41.434  25.464  27.367  1.00  0.00     0.034 A 
ATOM     60  C   UNL A   1      43.028  31.501  29.281  1.00  0.00     0.049 A 
ATOM     61  C   UNL A   1      40.781  26.454  28.293  1.00  0.00     0.074 A 
ATOM     62  C   UNL A   1      42.325  32.332  30.135  1.00  0.00     0.029 A 
ATOM     63  N   UNL A   1      42.301  30.322  29.186  1.00  0.00    -0.354 N 
ATOM     64  N   UNL A   1      41.164  27.672  28.600  1.00  0.00    -0.248 NA
ATOM     65  C   UNL A   1      39.538  26.034  28.954  1.00  0.00     0.031 C 
ATOM     66  C   UNL A   1      41.201  31.641  30.594  1.00  0.00     0.029 A 
ATOM     67  C   UNL A   1      41.166  30.399  29.980  1.00  0.00     0.049 A 
ATOM     68  H   UNL A   1      42.553  29.545  28.637  1.00  0.00     0.167 HD
ATOM     69  C   UNL A   1      40.211  28.164  29.484  1.00  0.00     0.074 A 
ATOM     70  C   UNL A   1      39.210  27.125  29.635  1.00  0.00     0.031 C 
ATOM     71  C   UNL A   1      40.173  29.361  30.121  1.00  0.00     0.034 A 
BRANCH  58  72
ATOM     72  C   UNL A   1      44.899  33.125  28.795  1.00  0.00     0.023 A 
ATOM     73  C   UNL A   1      44.499  34.218  28.005  1.00  0.00     0.031 A 
ATOM     74  C   UNL A   1      45.972  33.306  29.686  1.00  0.00     0.131 A 
ATOM     75  C   UNL A   1      45.186  35.436  28.102  1.00  0.00     0.055 A 
ATOM     76  C   UNL A   1      46.630  34.531  29.805  1.00  0.00     0.041 A 
ATOM     77  F   UNL A   1      46.390  32.293  30.464  1.00  0.00    -0.206 F 
ATOM     78  C   UNL A   1      46.244  35.600  29.002  1.00  0.00     0.022 A 
BRANCH  75  79
ATOM     79  S   UNL A   1      44.771  36.838  27.029  1.00  0.00     0.124 S 
ATOM     80  O   UNL A   1      44.767  37.950  27.979  1.00  0.00    -0.237 OA
ATOM     81  O   UNL A   1      45.880  36.836  26.079  1.00  0.00    -0.237 OA
ATOM     82  O   UNL A   1      43.467  36.487  26.478  1.00  0.00    -0.744 OA
ENDBRANCH  75  79
ENDBRANCH  58  72
BRANCH  59  83
ATOM     83  C   UNL A   1      40.824  24.140  27.054  1.00  0.00     0.023 A 
ATOM     84  C   UNL A   1      41.584  22.958  27.143  1.00  0.00     0.031 A 
ATOM     85  C   UNL A   1      39.523  24.054  26.531  1.00  0.00     0.131 A 
ATOM     86  C   UNL A   1      41.069  21.760  26.633  1.00  0.00     0.055 A 
ATOM     87  C   UNL A   1      38.986  22.840  26.096  1.00  0.00     0.041 A 
ATOM     88  F   UNL A   1      38.766  25.155  26.415  1.00  0.00    -0.206 F 
ATOM     89  C   UNL A   1      39.769  21.690  26.126  1.00  0.00     0.022 A 
BRANCH  86  90
ATOM     90  S   UNL A   1      42.127  20.295  26.467  1.00  0.00     0.124 S 
ATOM     91  O   UNL A   1      41.451  19.549  25.411  1.00  0.00    -0.237 OA
ATOM     92  O   UNL A   1      43.408  20.894  26.095  1.00  0.00    -0.237 OA
ATOM     93  O   UNL A   1      42.088  19.689  27.793  1.00  0.00    -0.744 OA
ENDBRANCH  86  90
ENDBRANCH  59  83
BRANCH  71  94
ATOM     94  C   UNL A   1      39.026  29.637  31.064  1.00  0.00     0.023 A 
ATOM     95  C   UNL A   1      37.983  30.500  30.676  1.00  0.00     0.031 A 
ATOM     96  C   UNL A   1      39.041  29.162  32.387  1.00  0.00     0.131 A 
ATOM     97  C   UNL A   1      37.019  30.890  31.614  1.00  0.00     0.055 A 
ATOM     98  C   UNL A   1      38.054  29.521  33.305  1.00  0.00     0.041 A 
ATOM     99  F   UNL A   1      40.022  28.345  32.806  1.00  0.00    -0.206 F 
ATOM    100  C   UNL A   1      37.044  30.399  32.924  1.00  0.00     0.022 A 
BRANCH  97 101
ATOM    101  S   UNL A   1      35.743  32.111  31.194  1.00  0.00     0.124 S 
ATOM    102  O   UNL A   1      35.250  31.603  29.916  1.00  0.00    -0.237 OA
ATOM    103  O   UNL A   1      34.816  31.985  32.315  1.00  0.00    -0.237 OA
ATOM    104  O   UNL A   1      36.472  33.372  31.122  1.00  0.00    -0.744 OA
ENDBRANCH  97 101
ENDBRANCH  71  94
ENDBRANCH  45  46
ENDBRANCH  37  40
ENDBRANCH  35  36
ENDBRANCH  34  35
ENDBRANCH  33  34
ENDBRANCH   1  33
TORSDOF 19
ENDMDL
MODEL 3
REMARK VINA RESULT:      -9.5      3.402      9.236
REMARK SMILES CC1=C(CC(=O)NCCCCNC(=O)c2ccc(-c3c4nc(c(-c5cc(S(=O)(=O)[O-])ccc5F)c5ccc([nH]5)c(-c5cc(S(=O)(=O)[O-])ccc5F)c5nc(c(-c6cc(S(=O)(=O)[O-])ccc6F)c6ccc3[nH]6)C=C5)C=C4)cc2)c2cc(F)ccc2/C1=C\c1cccc(OCc2ccccc2)c1
REMARK SMILES IDX 8 1 7 2 5 3 6 4 4 6 3 7 1 8 2 9 85 10 78 11 84 12 86 13
REMARK SMILES IDX 79 14 83 15 80 16 82 17 81 18 87 19 88 20 100 21 89 22 91 23
REMARK SMILES IDX 90 24 92 25 93 26 94 27 95 28 99 29 96 30 98 31 97 32 9 33
REMARK SMILES IDX 10 34 11 35 12 36 13 37 14 39 15 40 16 41 77 42 17 43 76 44
REMARK SMILES IDX 18 45 19 46 20 47 70 48 21 49 75 50 69 51 71 52 22 53 74 54
REMARK SMILES IDX 68 55 67 56 23 58 55 59 35 60 54 61 36 62 39 63 53 64 72 65
REMARK SMILES IDX 37 66 38 67 52 69 73 70 40 71 24 72 25 73 33 74 26 75 32 76
REMARK SMILES IDX 34 77 31 78 27 79 28 80 29 81 30 82 56 83 57 84 65 85 58 86
REMARK SMILES IDX 64 87 66 88 63 89 59 90 60 91 61 92 62 93 41 94 42 95 50 96
REMARK SMILES IDX 43 97 49 98 51 99 48 100 44 101 45 102 46 103 47 104
REMARK H PARENT 7 5 12 38 71 57 39 68
REMARK Flexibility Score: inf
ROOT
ATOM      1  C   UNL A   1      50.615  27.391  25.967  1.00  0.00     0.116 C 
ENDROOT
BRANCH   1   2
ATOM      2  N   UNL A   1      49.969  27.248  24.677  1.00  0.00    -0.356 N 
ATOM      3  C   UNL A   1      48.898  26.474  24.335  1.00  0.00     0.224 C 
ATOM      4  O   UNL A   1      48.507  26.493  23.166  1.00  0.00    -0.275 OA
ATOM      5  H   UNL A   1      50.357  27.783  23.947  1.00  0.00     0.163 HD
BRANCH   3   6
ATOM      6  C   UNL A   1      48.176  25.637  25.390  1.00  0.00     0.136 C 
BRANCH   6   7
ATOM      7  C   UNL A   1      46.768  26.078  25.625  1.00  0.00    -0.027 C 
ATOM      8  C   UNL A   1      47.101  28.444  26.552  1.00  0.00     0.045 C 
ATOM      9  C   UNL A   1      46.312  27.244  26.141  1.00  0.00    -0.039 C 
ATOM     10  C   UNL A   1      44.848  27.177  26.283  1.00  0.00    -0.014 C 
ATOM     11  C   UNL A   1      45.598  25.234  25.319  1.00  0.00    -0.011 A 
ATOM     12  C   UNL A   1      44.415  25.900  25.694  1.00  0.00    -0.010 A 
ATOM     13  C   UNL A   1      44.112  28.118  26.899  1.00  0.00     0.017 C 
ATOM     14  C   UNL A   1      45.545  23.971  24.747  1.00  0.00     0.048 A 
ATOM     15  C   UNL A   1      43.172  25.316  25.485  1.00  0.00     0.012 A 
ATOM     16  C   UNL A   1      44.297  23.385  24.558  1.00  0.00     0.123 A 
ATOM     17  C   UNL A   1      43.118  24.043  24.917  1.00  0.00     0.040 A 
ATOM     18  F   UNL A   1      44.219  22.164  24.010  1.00  0.00    -0.207 F 
BRANCH  13  19
ATOM     19  C   UNL A   1      42.658  28.129  27.041  1.00  0.00    -0.021 A 
ATOM     20  C   UNL A   1      41.859  29.091  26.421  1.00  0.00     0.008 A 
ATOM     21  C   UNL A   1      42.073  27.137  27.835  1.00  0.00     0.054 A 
ATOM     22  C   UNL A   1      40.478  29.067  26.618  1.00  0.00     0.004 A 
ATOM     23  C   UNL A   1      40.692  27.083  28.004  1.00  0.00     0.120 A 
ATOM     24  C   UNL A   1      39.900  28.066  27.407  1.00  0.00     0.046 A 
BRANCH  23  25
ATOM     25  O   UNL A   1      40.013  26.133  28.718  1.00  0.00    -0.489 OA
BRANCH  25  26
ATOM     26  C   UNL A   1      39.330  25.102  27.993  1.00  0.00     0.265 C 
BRANCH  26  27
ATOM     27  C   UNL A   1      40.194  23.884  27.747  1.00  0.00    -0.011 A 
ATOM     28  C   UNL A   1      39.800  22.919  26.810  1.00  0.00     0.007 A 
ATOM     29  C   UNL A   1      41.405  23.707  28.433  1.00  0.00     0.007 A 
ATOM     30  C   UNL A   1      40.608  21.811  26.551  1.00  0.00     0.000 A 
ATOM     31  C   UNL A   1      42.219  22.606  28.162  1.00  0.00     0.000 A 
ATOM     32  C   UNL A   1      41.820  21.659  27.221  1.00  0.00     0.000 A 
ENDBRANCH  26  27
ENDBRANCH  25  26
ENDBRANCH  23  25
ENDBRANCH  13  19
ENDBRANCH   6   7
ENDBRANCH   3   6
ENDBRANCH   1   2
BRANCH   1  33
ATOM     33  C   UNL A   1      51.764  26.401  26.158  1.00  0.00     0.023 C 
BRANCH  33  34
ATOM     34  C   UNL A   1      52.664  26.674  27.361  1.00  0.00     0.023 C 
BRANCH  34  35
ATOM     35  C   UNL A   1      52.258  27.862  28.220  1.00  0.00     0.116 C 
BRANCH  35  36
ATOM     36  N   UNL A   1      53.137  29.014  28.084  1.00  0.00    -0.352 N 
ATOM     37  C   UNL A   1      52.809  30.350  28.171  1.00  0.00     0.251 C 
ATOM     38  H   UNL A   1      54.085  28.814  27.909  1.00  0.00     0.163 HD
ATOM     39  O   UNL A   1      53.655  31.208  27.942  1.00  0.00    -0.269 OA
BRANCH  37  40
ATOM     40  C   UNL A   1      51.414  30.728  28.484  1.00  0.00     0.039 A 
ATOM     41  C   UNL A   1      51.026  30.968  29.804  1.00  0.00     0.014 A 
ATOM     42  C   UNL A   1      50.470  30.768  27.456  1.00  0.00     0.014 A 
ATOM     43  C   UNL A   1      49.675  31.065  30.115  1.00  0.00     0.010 A 
ATOM     44  C   UNL A   1      49.118  30.954  27.762  1.00  0.00     0.010 A 
ATOM     45  C   UNL A   1      48.704  31.047  29.100  1.00  0.00    -0.014 A 
BRANCH  45  46
ATOM     46  C   UNL A   1      47.267  31.126  29.472  1.00  0.00     0.031 A 
ATOM     47  C   UNL A   1      46.478  32.389  29.254  1.00  0.00     0.074 A 
ATOM     48  C   UNL A   1      46.655  30.023  29.942  1.00  0.00     0.049 A 
ATOM     49  N   UNL A   1      45.206  32.609  29.463  1.00  0.00    -0.248 NA
ATOM     50  C   UNL A   1      47.209  33.558  28.739  1.00  0.00     0.031 C 
ATOM     51  C   UNL A   1      47.323  28.744  30.187  1.00  0.00     0.029 A 
ATOM     52  N   UNL A   1      45.344  29.783  30.265  1.00  0.00    -0.354 N 
ATOM     53  C   UNL A   1      44.982  33.935  29.111  1.00  0.00     0.074 A 
ATOM     54  C   UNL A   1      46.261  34.485  28.716  1.00  0.00     0.031 C 
ATOM     55  C   UNL A   1      46.408  27.838  30.562  1.00  0.00     0.029 A 
ATOM     56  C   UNL A   1      45.102  28.485  30.651  1.00  0.00     0.049 A 
ATOM     57  H   UNL A   1      44.643  30.474  30.224  1.00  0.00     0.167 HD
ATOM     58  C   UNL A   1      43.815  34.624  29.100  1.00  0.00     0.034 A 
ATOM     59  C   UNL A   1      43.961  27.879  31.040  1.00  0.00     0.034 A 
ATOM     60  C   UNL A   1      42.547  34.063  29.490  1.00  0.00     0.049 A 
ATOM     61  C   UNL A   1      42.682  28.672  31.044  1.00  0.00     0.074 A 
ATOM     62  C   UNL A   1      41.310  34.681  29.516  1.00  0.00     0.029 A 
ATOM     63  N   UNL A   1      42.347  32.755  29.911  1.00  0.00    -0.354 N 
ATOM     64  N   UNL A   1      42.486  29.919  30.685  1.00  0.00    -0.248 NA
ATOM     65  C   UNL A   1      41.468  27.982  31.500  1.00  0.00     0.031 C 
ATOM     66  C   UNL A   1      40.371  33.765  29.997  1.00  0.00     0.029 A 
ATOM     67  C   UNL A   1      41.009  32.553  30.214  1.00  0.00     0.049 A 
ATOM     68  H   UNL A   1      43.051  32.070  29.983  1.00  0.00     0.167 HD
ATOM     69  C   UNL A   1      41.129  30.163  30.867  1.00  0.00     0.074 A 
ATOM     70  C   UNL A   1      40.544  28.921  31.333  1.00  0.00     0.031 C 
ATOM     71  C   UNL A   1      40.434  31.312  30.675  1.00  0.00     0.034 A 
BRANCH  58  72
ATOM     72  C   UNL A   1      43.835  36.061  28.638  1.00  0.00     0.023 A 
ATOM     73  C   UNL A   1      44.022  37.103  29.565  1.00  0.00     0.031 A 
ATOM     74  C   UNL A   1      43.557  36.401  27.301  1.00  0.00     0.131 A 
ATOM     75  C   UNL A   1      43.902  38.435  29.148  1.00  0.00     0.055 A 
ATOM     76  C   UNL A   1      43.473  37.730  26.884  1.00  0.00     0.041 A 
ATOM     77  F   UNL A   1      43.373  35.442  26.379  1.00  0.00    -0.206 F 
ATOM     78  C   UNL A   1      43.636  38.754  27.812  1.00  0.00     0.022 A 
BRANCH  75  79
ATOM     79  S   UNL A   1      44.033  39.806  30.328  1.00  0.00     0.124 S 
ATOM     80  O   UNL A   1      45.416  40.237  30.134  1.00  0.00    -0.237 OA
ATOM     81  O   UNL A   1      43.016  40.732  29.837  1.00  0.00    -0.237 OA
ATOM     82  O   UNL A   1      43.751  39.187  31.619  1.00  0.00    -0.744 OA
ENDBRANCH  75  79
ENDBRANCH  58  72
BRANCH  59  83
ATOM     83  C   UNL A   1      44.005  26.433  31.400  1.00  0.00     0.023 A 
ATOM     84  C   UNL A   1      44.056  26.028  32.748  1.00  0.00     0.031 A 
ATOM     85  C   UNL A   1      44.136  25.448  30.408  1.00  0.00     0.131 A 
ATOM     86  C   UNL A   1      44.324  24.690  33.064  1.00  0.00     0.055 A 
ATOM     87  C   UNL A   1      44.324  24.102  30.729  1.00  0.00     0.041 A 
ATOM     88  F   UNL A   1      44.106  25.787  29.110  1.00  0.00    -0.206 F 
ATOM     89  C   UNL A   1      44.441  23.721  32.063  1.00  0.00     0.022 A 
BRANCH  86  90
ATOM     90  S   UNL A   1      44.685  24.196  34.772  1.00  0.00     0.124 S 
ATOM     91  O   UNL A   1      45.833  23.314  34.598  1.00  0.00    -0.237 OA
ATOM     92  O   UNL A   1      44.968  25.485  35.400  1.00  0.00    -0.237 OA
ATOM     93  O   UNL A   1      43.452  23.551  35.212  1.00  0.00    -0.744 OA
ENDBRANCH  86  90
ENDBRANCH  59  83
BRANCH  71  94
ATOM     94  C   UNL A   1      38.955  31.316  30.979  1.00  0.00     0.023 A 
ATOM     95  C   UNL A   1      38.017  31.343  29.930  1.00  0.00     0.031 A 
ATOM     96  C   UNL A   1      38.484  31.436  32.298  1.00  0.00     0.131 A 
ATOM     97  C   UNL A   1      36.658  31.525  30.217  1.00  0.00     0.055 A 
ATOM     98  C   UNL A   1      37.125  31.574  32.580  1.00  0.00     0.041 A 
ATOM     99  F   UNL A   1      39.342  31.426  33.332  1.00  0.00    -0.206 F 
ATOM    100  C   UNL A   1      36.206  31.633  31.536  1.00  0.00     0.022 A 
BRANCH  97 101
ATOM    101  S   UNL A   1      35.436  31.710  28.888  1.00  0.00     0.124 S 
ATOM    102  O   UNL A   1      36.152  32.558  27.937  1.00  0.00    -0.237 OA
ATOM    103  O   UNL A   1      35.233  30.328  28.462  1.00  0.00    -0.237 OA
ATOM    104  O   UNL A   1      34.295  32.338  29.543  1.00  0.00    -0.744 OA
ENDBRANCH  97 101
ENDBRANCH  71  94
ENDBRANCH  45  46
ENDBRANCH  37  40
ENDBRANCH  35  36
ENDBRANCH  34  35
ENDBRANCH  33  34
ENDBRANCH   1  33
TORSDOF 19
ENDMDL
