MODEL 1
REMARK VINA RESULT:     -13.4      0.000      0.000
REMARK SMILES O=C(NCCCCNC(=O)[C@H]1CCCCN1c1cc(-c2ccccc2)nc(-c2cccc(Cl)c2)n1)c1ccc(-c2c3nc(c(-c4cc(S(=O)(=O)[O-])ccc4F)c4ccc([nH]4)c(-c4cc(S(=O)(=O)[O-])ccc4F)c4nc(c(-c5cc(S(=O)(=O)[O-])ccc5F)c5ccc2[nH]5)C=C4)C=C3)cc1
REMARK SMILES IDX 5 1 4 2 3 3 1 4 2 5 36 7 37 8 98 9 38 10 97 11 39 12 40 13
REMARK SMILES IDX 41 14 91 15 42 16 96 17 90 18 92 19 43 20 95 21 89 22 88 23
REMARK SMILES IDX 44 25 76 26 56 27 75 28 57 29 60 30 74 31 93 32 58 33 59 34
REMARK SMILES IDX 73 36 94 37 61 38 45 39 46 40 54 41 47 42 53 43 55 44 52 45
REMARK SMILES IDX 48 46 49 47 50 48 51 49 77 50 78 51 86 52 79 53 85 54 87 55
REMARK SMILES IDX 84 56 80 57 81 58 82 59 83 60 62 61 63 62 71 63 64 64 70 65
REMARK SMILES IDX 72 66 69 67 65 68 66 69 67 70 68 71 6 72 7 73 8 74 9 75
REMARK SMILES IDX 10 77 11 78 12 79 16 80 13 81 15 82 14 83 17 84 18 85 35 86
REMARK SMILES IDX 19 87 27 88 26 89 20 90 21 91 25 92 22 93 24 94 23 95 28 96
REMARK SMILES IDX 29 97 34 98 30 99 32 100 31 101 33 102
REMARK H PARENT 3 6 92 24 60 35 8 76
REMARK Flexibility Score: inf
ROOT
ATOM      1  C   UNL A   1      33.563  28.858  23.564  1.00  0.00     0.023 C 
ENDROOT
BRANCH   1   2
ATOM      2  C   UNL A   1      33.604  28.916  25.084  1.00  0.00     0.116 C 
BRANCH   2   3
ATOM      3  N   UNL A   1      32.886  30.058  25.637  1.00  0.00    -0.352 N 
ATOM      4  O   UNL A   1      32.432  31.693  27.123  1.00  0.00    -0.269 OA
ATOM      5  C   UNL A   1      33.205  30.837  26.728  1.00  0.00     0.251 C 
ATOM      6  H   UNL A   1      32.058  30.307  25.165  1.00  0.00     0.163 HD
BRANCH   5   7
ATOM      7  C   UNL A   1      34.488  30.596  27.420  1.00  0.00     0.039 A 
ATOM      8  C   UNL A   1      34.800  29.317  27.885  1.00  0.00     0.014 A 
ATOM      9  C   UNL A   1      35.357  31.667  27.642  1.00  0.00     0.014 A 
ATOM     10  C   UNL A   1      35.910  29.137  28.698  1.00  0.00     0.010 A 
ATOM     11  C   UNL A   1      36.521  31.463  28.388  1.00  0.00     0.010 A 
ATOM     12  C   UNL A   1      36.791  30.203  28.943  1.00  0.00    -0.014 A 
BRANCH  12  13
ATOM     13  C   UNL A   1      38.037  29.944  29.707  1.00  0.00     0.031 A 
ATOM     14  C   UNL A   1      38.211  30.443  31.113  1.00  0.00     0.074 A 
ATOM     15  C   UNL A   1      39.005  29.223  29.106  1.00  0.00     0.049 A 
ATOM     16  N   UNL A   1      39.240  30.305  31.910  1.00  0.00    -0.248 NA
ATOM     17  C   UNL A   1      37.094  31.198  31.702  1.00  0.00     0.031 C 
ATOM     18  C   UNL A   1      38.932  28.699  27.738  1.00  0.00     0.029 A 
ATOM     19  N   UNL A   1      40.224  28.794  29.559  1.00  0.00    -0.354 N 
ATOM     20  C   UNL A   1      38.909  30.973  33.084  1.00  0.00     0.074 A 
ATOM     21  C   UNL A   1      37.585  31.529  32.890  1.00  0.00     0.031 C 
ATOM     22  C   UNL A   1      40.038  27.989  27.478  1.00  0.00     0.029 A 
ATOM     23  C   UNL A   1      40.931  28.071  28.626  1.00  0.00     0.049 A 
ATOM     24  H   UNL A   1      40.562  28.984  30.463  1.00  0.00     0.167 HD
ATOM     25  C   UNL A   1      39.648  31.107  34.213  1.00  0.00     0.034 A 
ATOM     26  C   UNL A   1      42.176  27.562  28.673  1.00  0.00     0.034 A 
ATOM     27  C   UNL A   1      40.959  30.528  34.388  1.00  0.00     0.049 A 
ATOM     28  C   UNL A   1      42.979  27.753  29.929  1.00  0.00     0.074 A 
ATOM     29  C   UNL A   1      41.766  30.545  35.513  1.00  0.00     0.029 A 
ATOM     30  N   UNL A   1      41.664  29.840  33.407  1.00  0.00    -0.354 N 
ATOM     31  N   UNL A   1      42.634  28.358  31.043  1.00  0.00    -0.248 NA
ATOM     32  C   UNL A   1      44.337  27.199  29.936  1.00  0.00     0.031 C 
ATOM     33  C   UNL A   1      42.981  29.930  35.193  1.00  0.00     0.029 A 
ATOM     34  C   UNL A   1      42.910  29.467  33.889  1.00  0.00     0.049 A 
ATOM     35  H   UNL A   1      41.328  29.646  32.502  1.00  0.00     0.167 HD
ATOM     36  C   UNL A   1      43.733  28.252  31.886  1.00  0.00     0.074 A 
ATOM     37  C   UNL A   1      44.737  27.494  31.163  1.00  0.00     0.031 C 
ATOM     38  C   UNL A   1      43.906  28.739  33.140  1.00  0.00     0.034 A 
BRANCH  25  39
ATOM     39  C   UNL A   1      39.087  31.948  35.333  1.00  0.00     0.023 A 
ATOM     40  C   UNL A   1      38.448  31.380  36.447  1.00  0.00     0.031 A 
ATOM     41  C   UNL A   1      39.231  33.348  35.296  1.00  0.00     0.131 A 
ATOM     42  C   UNL A   1      37.945  32.210  37.463  1.00  0.00     0.055 A 
ATOM     43  C   UNL A   1      38.781  34.164  36.335  1.00  0.00     0.041 A 
ATOM     44  F   UNL A   1      39.818  33.945  34.247  1.00  0.00    -0.206 F 
ATOM     45  C   UNL A   1      38.127  33.596  37.425  1.00  0.00     0.022 A 
BRANCH  42  46
ATOM     46  S   UNL A   1      36.974  31.464  38.802  1.00  0.00     0.124 S 
ATOM     47  O   UNL A   1      35.772  32.293  38.794  1.00  0.00    -0.237 OA
ATOM     48  O   UNL A   1      36.806  30.090  38.341  1.00  0.00    -0.237 OA
ATOM     49  O   UNL A   1      37.828  31.626  39.977  1.00  0.00    -0.744 OA
ENDBRANCH  42  46
ENDBRANCH  25  39
BRANCH  26  50
ATOM     50  C   UNL A   1      42.756  26.881  27.482  1.00  0.00     0.023 A 
ATOM     51  C   UNL A   1      42.740  25.484  27.363  1.00  0.00     0.031 A 
ATOM     52  C   UNL A   1      43.370  27.625  26.456  1.00  0.00     0.131 A 
ATOM     53  C   UNL A   1      43.366  24.870  26.266  1.00  0.00     0.055 A 
ATOM     54  C   UNL A   1      43.939  27.013  25.340  1.00  0.00     0.041 A 
ATOM     55  F   UNL A   1      43.412  28.965  26.520  1.00  0.00    -0.206 F 
ATOM     56  C   UNL A   1      43.951  25.625  25.247  1.00  0.00     0.022 A 
BRANCH  53  57
ATOM     57  S   UNL A   1      43.492  23.062  26.242  1.00  0.00     0.124 S 
ATOM     58  O   UNL A   1      44.934  22.860  26.323  1.00  0.00    -0.237 OA
ATOM     59  O   UNL A   1      42.724  22.691  27.426  1.00  0.00    -0.237 OA
ATOM     60  O   UNL A   1      42.881  22.697  24.965  1.00  0.00    -0.744 OA
ENDBRANCH  53  57
ENDBRANCH  26  50
BRANCH  38  61
ATOM     61  C   UNL A   1      45.229  28.445  33.796  1.00  0.00     0.023 A 
ATOM     62  C   UNL A   1      45.454  27.232  34.473  1.00  0.00     0.031 A 
ATOM     63  C   UNL A   1      46.259  29.400  33.782  1.00  0.00     0.131 A 
ATOM     64  C   UNL A   1      46.658  27.032  35.162  1.00  0.00     0.055 A 
ATOM     65  C   UNL A   1      47.478  29.171  34.421  1.00  0.00     0.041 A 
ATOM     66  F   UNL A   1      46.093  30.575  33.154  1.00  0.00    -0.206 F 
ATOM     67  C   UNL A   1      47.678  27.988  35.128  1.00  0.00     0.022 A 
BRANCH  64  68
ATOM     68  S   UNL A   1      46.836  25.545  36.184  1.00  0.00     0.124 S 
ATOM     69  O   UNL A   1      48.109  25.006  35.714  1.00  0.00    -0.237 OA
ATOM     70  O   UNL A   1      46.838  26.093  37.537  1.00  0.00    -0.237 OA
ATOM     71  O   UNL A   1      45.660  24.750  35.840  1.00  0.00    -0.744 OA
ENDBRANCH  64  68
ENDBRANCH  38  61
ENDBRANCH  12  13
ENDBRANCH   5   7
ENDBRANCH   2   3
ENDBRANCH   1   2
BRANCH   1  72
ATOM     72  C   UNL A   1      32.171  28.937  22.944  1.00  0.00     0.023 C 
BRANCH  72  73
ATOM     73  C   UNL A   1      31.463  27.601  22.746  1.00  0.00     0.116 C 
BRANCH  73  74
ATOM     74  N   UNL A   1      32.253  26.649  22.001  1.00  0.00    -0.354 N 
ATOM     75  C   UNL A   1      32.895  25.502  22.334  1.00  0.00     0.242 C 
ATOM     76  H   UNL A   1      32.345  26.882  21.049  1.00  0.00     0.163 HD
ATOM     77  O   UNL A   1      33.402  24.911  21.365  1.00  0.00    -0.273 OA
BRANCH  75  78
ATOM     78  C   UNL A   1      33.072  24.915  23.775  1.00  0.00     0.173 C 
ATOM     79  C   UNL A   1      32.465  25.568  25.018  1.00  0.00     0.035 C 
ATOM     80  N   UNL A   1      32.608  23.506  23.745  1.00  0.00    -0.344 N 
ATOM     81  C   UNL A   1      30.947  25.401  25.098  1.00  0.00     0.004 C 
ATOM     82  C   UNL A   1      31.167  23.283  23.741  1.00  0.00     0.119 C 
ATOM     83  C   UNL A   1      30.551  23.928  24.984  1.00  0.00     0.022 C 
BRANCH  80  84
ATOM     84  C   UNL A   1      33.444  22.539  24.268  1.00  0.00     0.133 A 
ATOM     85  C   UNL A   1      33.049  21.218  24.270  1.00  0.00     0.076 A 
ATOM     86  N   UNL A   1      34.653  22.904  24.720  1.00  0.00    -0.211 NA
ATOM     87  C   UNL A   1      33.959  20.282  24.722  1.00  0.00     0.076 A 
ATOM     88  C   UNL A   1      35.466  21.934  25.162  1.00  0.00     0.162 A 
ATOM     89  N   UNL A   1      35.176  20.625  25.188  1.00  0.00    -0.228 NA
BRANCH  87  90
ATOM     90  C   UNL A   1      33.673  18.841  24.687  1.00  0.00     0.000 A 
ATOM     91  C   UNL A   1      32.817  18.253  25.633  1.00  0.00     0.010 A 
ATOM     92  C   UNL A   1      34.257  18.008  23.717  1.00  0.00     0.010 A 
ATOM     93  C   UNL A   1      32.543  16.883  25.602  1.00  0.00     0.001 A 
ATOM     94  C   UNL A   1      33.990  16.637  23.690  1.00  0.00     0.001 A 
ATOM     95  C   UNL A   1      33.131  16.077  24.630  1.00  0.00     0.000 A 
ENDBRANCH  87  90
BRANCH  88  96
ATOM     96  C   UNL A   1      36.795  22.343  25.618  1.00  0.00     0.021 A 
ATOM     97  C   UNL A   1      37.067  23.684  25.949  1.00  0.00     0.012 A 
ATOM     98  C   UNL A   1      37.841  21.409  25.710  1.00  0.00     0.032 A 
ATOM     99  C   UNL A   1      38.339  24.078  26.371  1.00  0.00     0.002 A 
ATOM    100  C   UNL A   1      39.114  21.810  26.113  1.00  0.00     0.041 A 
ATOM    101  C   UNL A   1      39.367  23.139  26.447  1.00  0.00     0.020 A 
ATOM    102  Cl  UNL A   1      40.390  20.658  26.185  1.00  0.00    -0.084 Cl
ENDBRANCH  88  96
ENDBRANCH  80  84
ENDBRANCH  75  78
ENDBRANCH  73  74
ENDBRANCH  72  73
ENDBRANCH   1  72
TORSDOF 17
ENDMDL
MODEL 2
REMARK VINA RESULT:     -13.4      5.011     10.679
REMARK SMILES O=C(NCCCCNC(=O)[C@H]1CCCCN1c1cc(-c2ccccc2)nc(-c2cccc(Cl)c2)n1)c1ccc(-c2c3nc(c(-c4cc(S(=O)(=O)[O-])ccc4F)c4ccc([nH]4)c(-c4cc(S(=O)(=O)[O-])ccc4F)c4nc(c(-c5cc(S(=O)(=O)[O-])ccc5F)c5ccc2[nH]5)C=C4)C=C3)cc1
REMARK SMILES IDX 5 1 4 2 3 3 1 4 2 5 36 7 37 8 98 9 38 10 97 11 39 12 40 13
REMARK SMILES IDX 41 14 91 15 42 16 96 17 90 18 92 19 43 20 95 21 89 22 88 23
REMARK SMILES IDX 44 25 76 26 56 27 75 28 57 29 60 30 74 31 93 32 58 33 59 34
REMARK SMILES IDX 73 36 94 37 61 38 45 39 46 40 54 41 47 42 53 43 55 44 52 45
REMARK SMILES IDX 48 46 49 47 50 48 51 49 77 50 78 51 86 52 79 53 85 54 87 55
REMARK SMILES IDX 84 56 80 57 81 58 82 59 83 60 62 61 63 62 71 63 64 64 70 65
REMARK SMILES IDX 72 66 69 67 65 68 66 69 67 70 68 71 6 72 7 73 8 74 9 75
REMARK SMILES IDX 10 77 11 78 12 79 16 80 13 81 15 82 14 83 17 84 18 85 35 86
REMARK SMILES IDX 19 87 27 88 26 89 20 90 21 91 25 92 22 93 24 94 23 95 28 96
REMARK SMILES IDX 29 97 34 98 30 99 32 100 31 101 33 102
REMARK H PARENT 3 6 92 24 60 35 8 76
REMARK Flexibility Score: inf
ROOT
ATOM      1  C   UNL A   1      34.936  22.084  25.351  1.00  0.00     0.023 C 
ENDROOT
BRANCH   1   2
ATOM      2  C   UNL A   1      36.225  22.295  26.133  1.00  0.00     0.116 C 
BRANCH   2   3
ATOM      3  N   UNL A   1      37.189  21.217  25.958  1.00  0.00    -0.352 N 
ATOM      4  O   UNL A   1      39.231  20.282  25.749  1.00  0.00    -0.269 OA
ATOM      5  C   UNL A   1      38.564  21.262  26.032  1.00  0.00     0.251 C 
ATOM      6  H   UNL A   1      36.804  20.332  25.758  1.00  0.00     0.163 HD
BRANCH   5   7
ATOM      7  C   UNL A   1      39.210  22.528  26.436  1.00  0.00     0.039 A 
ATOM      8  C   UNL A   1      38.772  23.738  25.894  1.00  0.00     0.014 A 
ATOM      9  C   UNL A   1      40.286  22.493  27.326  1.00  0.00     0.014 A 
ATOM     10  C   UNL A   1      39.503  24.895  26.127  1.00  0.00     0.010 A 
ATOM     11  C   UNL A   1      40.966  23.676  27.627  1.00  0.00     0.010 A 
ATOM     12  C   UNL A   1      40.595  24.881  27.009  1.00  0.00    -0.014 A 
BRANCH  12  13
ATOM     13  C   UNL A   1      41.271  26.160  27.337  1.00  0.00     0.031 A 
ATOM     14  C   UNL A   1      42.641  26.479  26.812  1.00  0.00     0.074 A 
ATOM     15  C   UNL A   1      40.605  27.044  28.106  1.00  0.00     0.049 A 
ATOM     16  N   UNL A   1      43.368  27.548  27.012  1.00  0.00    -0.248 NA
ATOM     17  C   UNL A   1      43.286  25.469  25.957  1.00  0.00     0.031 C 
ATOM     18  C   UNL A   1      39.269  26.824  28.671  1.00  0.00     0.029 A 
ATOM     19  N   UNL A   1      40.941  28.300  28.536  1.00  0.00    -0.354 N 
ATOM     20  C   UNL A   1      44.563  27.336  26.332  1.00  0.00     0.074 A 
ATOM     21  C   UNL A   1      44.468  26.026  25.722  1.00  0.00     0.031 C 
ATOM     22  C   UNL A   1      38.886  27.920  29.340  1.00  0.00     0.029 A 
ATOM     23  C   UNL A   1      39.974  28.888  29.319  1.00  0.00     0.049 A 
ATOM     24  H   UNL A   1      41.792  28.740  28.309  1.00  0.00     0.167 HD
ATOM     25  C   UNL A   1      45.633  28.161  26.233  1.00  0.00     0.034 A 
ATOM     26  C   UNL A   1      39.975  30.061  29.979  1.00  0.00     0.034 A 
ATOM     27  C   UNL A   1      45.696  29.472  26.838  1.00  0.00     0.049 A 
ATOM     28  C   UNL A   1      41.190  30.940  29.871  1.00  0.00     0.074 A 
ATOM     29  C   UNL A   1      46.703  30.416  26.744  1.00  0.00     0.029 A 
ATOM     30  N   UNL A   1      44.717  30.017  27.660  1.00  0.00    -0.354 N 
ATOM     31  N   UNL A   1      42.296  30.736  29.193  1.00  0.00    -0.248 NA
ATOM     32  C   UNL A   1      41.161  32.202  30.617  1.00  0.00     0.031 C 
ATOM     33  C   UNL A   1      46.366  31.501  27.561  1.00  0.00     0.029 A 
ATOM     34  C   UNL A   1      45.117  31.266  28.113  1.00  0.00     0.049 A 
ATOM     35  H   UNL A   1      43.864  29.582  27.888  1.00  0.00     0.167 HD
ATOM     36  C   UNL A   1      43.093  31.849  29.428  1.00  0.00     0.074 A 
ATOM     37  C   UNL A   1      42.325  32.735  30.282  1.00  0.00     0.031 C 
ATOM     38  C   UNL A   1      44.348  32.118  28.987  1.00  0.00     0.034 A 
BRANCH  25  39
ATOM     39  C   UNL A   1      46.847  27.664  25.488  1.00  0.00     0.023 A 
ATOM     40  C   UNL A   1      47.053  27.939  24.126  1.00  0.00     0.031 A 
ATOM     41  C   UNL A   1      47.834  26.929  26.171  1.00  0.00     0.131 A 
ATOM     42  C   UNL A   1      48.203  27.451  23.481  1.00  0.00     0.055 A 
ATOM     43  C   UNL A   1      49.002  26.497  25.540  1.00  0.00     0.041 A 
ATOM     44  F   UNL A   1      47.680  26.622  27.469  1.00  0.00    -0.206 F 
ATOM     45  C   UNL A   1      49.189  26.752  24.184  1.00  0.00     0.022 A 
BRANCH  42  46
ATOM     46  S   UNL A   1      48.359  27.674  21.688  1.00  0.00     0.124 S 
ATOM     47  O   UNL A   1      49.459  28.631  21.603  1.00  0.00    -0.237 OA
ATOM     48  O   UNL A   1      48.651  26.322  21.226  1.00  0.00    -0.237 OA
ATOM     49  O   UNL A   1      47.053  28.198  21.291  1.00  0.00    -0.744 OA
ENDBRANCH  42  46
ENDBRANCH  25  39
BRANCH  26  50
ATOM     50  C   UNL A   1      38.821  30.441  30.841  1.00  0.00     0.023 A 
ATOM     51  C   UNL A   1      37.915  31.436  30.446  1.00  0.00     0.031 A 
ATOM     52  C   UNL A   1      38.630  29.833  32.096  1.00  0.00     0.131 A 
ATOM     53  C   UNL A   1      36.886  31.826  31.318  1.00  0.00     0.055 A 
ATOM     54  C   UNL A   1      37.570  30.183  32.932  1.00  0.00     0.041 A 
ATOM     55  F   UNL A   1      39.468  28.873  32.521  1.00  0.00    -0.206 F 
ATOM     56  C   UNL A   1      36.698  31.196  32.550  1.00  0.00     0.022 A 
BRANCH  53  57
ATOM     57  S   UNL A   1      35.851  33.242  30.856  1.00  0.00     0.124 S 
ATOM     58  O   UNL A   1      36.148  34.190  31.924  1.00  0.00    -0.237 OA
ATOM     59  O   UNL A   1      36.374  33.578  29.536  1.00  0.00    -0.237 OA
ATOM     60  O   UNL A   1      34.498  32.691  30.868  1.00  0.00    -0.744 OA
ENDBRANCH  53  57
ENDBRANCH  26  50
BRANCH  38  61
ATOM     61  C   UNL A   1      44.943  33.431  29.422  1.00  0.00     0.023 A 
ATOM     62  C   UNL A   1      44.717  34.611  28.690  1.00  0.00     0.031 A 
ATOM     63  C   UNL A   1      45.777  33.498  30.550  1.00  0.00     0.131 A 
ATOM     64  C   UNL A   1      45.369  35.795  29.059  1.00  0.00     0.055 A 
ATOM     65  C   UNL A   1      46.377  34.692  30.947  1.00  0.00     0.041 A 
ATOM     66  F   UNL A   1      46.028  32.398  31.279  1.00  0.00    -0.206 F 
ATOM     67  C   UNL A   1      46.186  35.847  30.193  1.00  0.00     0.022 A 
BRANCH  64  68
ATOM     68  S   UNL A   1      45.211  37.246  27.983  1.00  0.00     0.124 S 
ATOM     69  O   UNL A   1      44.163  36.824  27.059  1.00  0.00    -0.237 OA
ATOM     70  O   UNL A   1      44.842  38.297  28.927  1.00  0.00    -0.237 OA
ATOM     71  O   UNL A   1      46.541  37.382  27.394  1.00  0.00    -0.744 OA
ENDBRANCH  64  68
ENDBRANCH  38  61
ENDBRANCH  12  13
ENDBRANCH   5   7
ENDBRANCH   2   3
ENDBRANCH   1   2
BRANCH   1  72
ATOM     72  C   UNL A   1      33.890  21.211  26.038  1.00  0.00     0.023 C 
BRANCH  72  73
ATOM     73  C   UNL A   1      32.459  21.389  25.544  1.00  0.00     0.116 C 
BRANCH  73  74
ATOM     74  N   UNL A   1      31.673  22.256  26.390  1.00  0.00    -0.354 N 
ATOM     75  C   UNL A   1      31.412  23.586  26.381  1.00  0.00     0.242 C 
ATOM     76  H   UNL A   1      31.233  21.780  27.132  1.00  0.00     0.163 HD
ATOM     77  O   UNL A   1      30.598  23.945  27.250  1.00  0.00    -0.273 OA
BRANCH  75  78
ATOM     78  C   UNL A   1      32.053  24.658  25.436  1.00  0.00     0.173 C 
ATOM     79  C   UNL A   1      32.950  24.291  24.252  1.00  0.00     0.035 C 
ATOM     80  N   UNL A   1      30.955  25.508  24.912  1.00  0.00    -0.344 N 
ATOM     81  C   UNL A   1      32.175  23.675  23.087  1.00  0.00     0.004 C 
ATOM     82  C   UNL A   1      30.130  24.945  23.851  1.00  0.00     0.119 C 
ATOM     83  C   UNL A   1      31.017  24.579  22.659  1.00  0.00     0.022 C 
BRANCH  80  84
ATOM     84  C   UNL A   1      31.098  26.879  25.008  1.00  0.00     0.133 A 
ATOM     85  C   UNL A   1      32.087  27.412  25.806  1.00  0.00     0.076 A 
ATOM     86  N   UNL A   1      30.297  27.665  24.274  1.00  0.00    -0.211 NA
ATOM     87  C   UNL A   1      32.244  28.785  25.796  1.00  0.00     0.076 A 
ATOM     88  C   UNL A   1      30.503  28.989  24.339  1.00  0.00     0.162 A 
ATOM     89  N   UNL A   1      31.446  29.596  25.074  1.00  0.00    -0.228 NA
BRANCH  87  90
ATOM     90  C   UNL A   1      33.320  29.450  26.544  1.00  0.00     0.000 A 
ATOM     91  C   UNL A   1      34.484  28.752  26.905  1.00  0.00     0.010 A 
ATOM     92  C   UNL A   1      33.210  30.797  26.931  1.00  0.00     0.010 A 
ATOM     93  C   UNL A   1      35.509  29.382  27.616  1.00  0.00     0.001 A 
ATOM     94  C   UNL A   1      34.230  31.425  27.649  1.00  0.00     0.001 A 
ATOM     95  C   UNL A   1      35.380  30.718  27.987  1.00  0.00     0.000 A 
ENDBRANCH  87  90
BRANCH  88  96
ATOM     96  C   UNL A   1      29.646  29.832  23.505  1.00  0.00     0.021 A 
ATOM     97  C   UNL A   1      28.873  29.278  22.467  1.00  0.00     0.012 A 
ATOM     98  C   UNL A   1      29.593  31.222  23.705  1.00  0.00     0.032 A 
ATOM     99  C   UNL A   1      28.065  30.084  21.661  1.00  0.00     0.002 A 
ATOM    100  C   UNL A   1      28.800  32.025  22.886  1.00  0.00     0.041 A 
ATOM    101  C   UNL A   1      28.033  31.462  21.868  1.00  0.00     0.020 A 
ATOM    102  Cl  UNL A   1      28.778  33.729  23.125  1.00  0.00    -0.084 Cl
ENDBRANCH  88  96
ENDBRANCH  80  84
ENDBRANCH  75  78
ENDBRANCH  73  74
ENDBRANCH  72  73
ENDBRANCH   1  72
TORSDOF 17
ENDMDL
MODEL 3
REMARK VINA RESULT:     -13.1      1.570      3.187
REMARK SMILES O=C(NCCCCNC(=O)[C@H]1CCCCN1c1cc(-c2ccccc2)nc(-c2cccc(Cl)c2)n1)c1ccc(-c2c3nc(c(-c4cc(S(=O)(=O)[O-])ccc4F)c4ccc([nH]4)c(-c4cc(S(=O)(=O)[O-])ccc4F)c4nc(c(-c5cc(S(=O)(=O)[O-])ccc5F)c5ccc2[nH]5)C=C4)C=C3)cc1
REMARK SMILES IDX 5 1 4 2 3 3 1 4 2 5 36 7 37 8 98 9 38 10 97 11 39 12 40 13
REMARK SMILES IDX 41 14 91 15 42 16 96 17 90 18 92 19 43 20 95 21 89 22 88 23
REMARK SMILES IDX 44 25 76 26 56 27 75 28 57 29 60 30 74 31 93 32 58 33 59 34
REMARK SMILES IDX 73 36 94 37 61 38 45 39 46 40 54 41 47 42 53 43 55 44 52 45
REMARK SMILES IDX 48 46 49 47 50 48 51 49 77 50 78 51 86 52 79 53 85 54 87 55
REMARK SMILES IDX 84 56 80 57 81 58 82 59 83 60 62 61 63 62 71 63 64 64 70 65
REMARK SMILES IDX 72 66 69 67 65 68 66 69 67 70 68 71 6 72 7 73 8 74 9 75
REMARK SMILES IDX 10 77 11 78 12 79 16 80 13 81 15 82 14 83 17 84 18 85 35 86
REMARK SMILES IDX 19 87 27 88 26 89 20 90 21 91 25 92 22 93 24 94 23 95 28 96
REMARK SMILES IDX 29 97 34 98 30 99 32 100 31 101 33 102
REMARK H PARENT 3 6 92 24 60 35 8 76
REMARK Flexibility Score: inf
ROOT
ATOM      1  C   UNL A   1      34.094  28.555  24.381  1.00  0.00     0.023 C 
ENDROOT
BRANCH   1   2
ATOM      2  C   UNL A   1      33.866  28.822  25.863  1.00  0.00     0.116 C 
BRANCH   2   3
ATOM      3  N   UNL A   1      33.359  30.161  26.135  1.00  0.00    -0.352 N 
ATOM      4  O   UNL A   1      33.197  32.128  27.227  1.00  0.00    -0.269 OA
ATOM      5  C   UNL A   1      33.808  31.089  27.049  1.00  0.00     0.251 C 
ATOM      6  H   UNL A   1      32.587  30.440  25.591  1.00  0.00     0.163 HD
BRANCH   5   7
ATOM      7  C   UNL A   1      35.029  30.786  27.824  1.00  0.00     0.039 A 
ATOM      8  C   UNL A   1      35.166  29.547  28.454  1.00  0.00     0.014 A 
ATOM      9  C   UNL A   1      36.016  31.765  27.956  1.00  0.00     0.014 A 
ATOM     10  C   UNL A   1      36.219  29.340  29.333  1.00  0.00     0.010 A 
ATOM     11  C   UNL A   1      37.122  31.520  28.774  1.00  0.00     0.010 A 
ATOM     12  C   UNL A   1      37.217  30.315  29.489  1.00  0.00    -0.014 A 
BRANCH  12  13
ATOM     13  C   UNL A   1      38.396  30.008  30.336  1.00  0.00     0.031 A 
ATOM     14  C   UNL A   1      38.535  30.575  31.720  1.00  0.00     0.074 A 
ATOM     15  C   UNL A   1      39.334  29.182  29.832  1.00  0.00     0.049 A 
ATOM     16  N   UNL A   1      39.506  30.407  32.581  1.00  0.00    -0.248 NA
ATOM     17  C   UNL A   1      37.453  31.447  32.202  1.00  0.00     0.031 C 
ATOM     18  C   UNL A   1      39.292  28.584  28.493  1.00  0.00     0.029 A 
ATOM     19  N   UNL A   1      40.490  28.689  30.376  1.00  0.00    -0.354 N 
ATOM     20  C   UNL A   1      39.169  31.167  33.696  1.00  0.00     0.074 A 
ATOM     21  C   UNL A   1      37.905  31.809  33.397  1.00  0.00     0.031 C 
ATOM     22  C   UNL A   1      40.351  27.778  28.336  1.00  0.00     0.029 A 
ATOM     23  C   UNL A   1      41.186  27.861  29.526  1.00  0.00     0.049 A 
ATOM     24  H   UNL A   1      40.794  28.906  31.287  1.00  0.00     0.167 HD
ATOM     25  C   UNL A   1      39.855  31.311  34.856  1.00  0.00     0.034 A 
ATOM     26  C   UNL A   1      42.383  27.261  29.672  1.00  0.00     0.034 A 
ATOM     27  C   UNL A   1      41.106  30.645  35.137  1.00  0.00     0.049 A 
ATOM     28  C   UNL A   1      43.131  27.466  30.960  1.00  0.00     0.074 A 
ATOM     29  C   UNL A   1      41.851  30.667  36.303  1.00  0.00     0.029 A 
ATOM     30  N   UNL A   1      41.804  29.849  34.237  1.00  0.00    -0.354 N 
ATOM     31  N   UNL A   1      42.777  28.160  32.017  1.00  0.00    -0.248 NA
ATOM     32  C   UNL A   1      44.438  26.811  31.075  1.00  0.00     0.031 C 
ATOM     33  C   UNL A   1      43.028  29.943  36.088  1.00  0.00     0.029 A 
ATOM     34  C   UNL A   1      42.990  29.411  34.809  1.00  0.00     0.049 A 
ATOM     35  H   UNL A   1      41.502  29.627  33.327  1.00  0.00     0.167 HD
ATOM     36  C   UNL A   1      43.818  28.020  32.926  1.00  0.00     0.074 A 
ATOM     37  C   UNL A   1      44.796  27.147  32.304  1.00  0.00     0.031 C 
ATOM     38  C   UNL A   1      43.963  28.566  34.159  1.00  0.00     0.034 A 
BRANCH  25  39
ATOM     39  C   UNL A   1      39.305  32.257  35.895  1.00  0.00     0.023 A 
ATOM     40  C   UNL A   1      38.531  31.810  36.978  1.00  0.00     0.031 A 
ATOM     41  C   UNL A   1      39.595  33.631  35.811  1.00  0.00     0.131 A 
ATOM     42  C   UNL A   1      38.044  32.734  37.917  1.00  0.00     0.055 A 
ATOM     43  C   UNL A   1      39.157  34.537  36.779  1.00  0.00     0.041 A 
ATOM     44  F   UNL A   1      40.315  34.116  34.787  1.00  0.00    -0.206 F 
ATOM     45  C   UNL A   1      38.371  34.091  37.838  1.00  0.00     0.022 A 
BRANCH  42  46
ATOM     46  S   UNL A   1      36.908  32.154  39.207  1.00  0.00     0.124 S 
ATOM     47  O   UNL A   1      37.504  32.733  40.408  1.00  0.00    -0.237 OA
ATOM     48  O   UNL A   1      35.634  32.727  38.786  1.00  0.00    -0.237 OA
ATOM     49  O   UNL A   1      36.997  30.698  39.114  1.00  0.00    -0.744 OA
ENDBRANCH  42  46
ENDBRANCH  25  39
BRANCH  26  50
ATOM     50  C   UNL A   1      42.969  26.469  28.555  1.00  0.00     0.023 A 
ATOM     51  C   UNL A   1      43.985  26.996  27.745  1.00  0.00     0.031 A 
ATOM     52  C   UNL A   1      42.490  25.179  28.260  1.00  0.00     0.131 A 
ATOM     53  C   UNL A   1      44.459  26.254  26.651  1.00  0.00     0.055 A 
ATOM     54  C   UNL A   1      43.006  24.423  27.208  1.00  0.00     0.041 A 
ATOM     55  F   UNL A   1      41.518  24.627  29.005  1.00  0.00    -0.206 F 
ATOM     56  C   UNL A   1      43.988  24.966  26.387  1.00  0.00     0.022 A 
BRANCH  53  57
ATOM     57  S   UNL A   1      45.634  27.040  25.517  1.00  0.00     0.124 S 
ATOM     58  O   UNL A   1      45.965  25.939  24.619  1.00  0.00    -0.237 OA
ATOM     59  O   UNL A   1      44.829  28.114  24.946  1.00  0.00    -0.237 OA
ATOM     60  O   UNL A   1      46.717  27.475  26.398  1.00  0.00    -0.744 OA
ENDBRANCH  53  57
ENDBRANCH  26  50
BRANCH  38  61
ATOM     61  C   UNL A   1      45.222  28.211  34.904  1.00  0.00     0.023 A 
ATOM     62  C   UNL A   1      45.280  27.084  35.744  1.00  0.00     0.031 A 
ATOM     63  C   UNL A   1      46.360  29.029  34.810  1.00  0.00     0.131 A 
ATOM     64  C   UNL A   1      46.432  26.841  36.505  1.00  0.00     0.055 A 
ATOM     65  C   UNL A   1      47.525  28.749  35.525  1.00  0.00     0.041 A 
ATOM     66  F   UNL A   1      46.355  30.120  34.026  1.00  0.00    -0.206 F 
ATOM     67  C   UNL A   1      47.560  27.658  36.389  1.00  0.00     0.022 A 
BRANCH  64  68
ATOM     68  S   UNL A   1      46.401  25.496  37.720  1.00  0.00     0.124 S 
ATOM     69  O   UNL A   1      46.308  24.317  36.864  1.00  0.00    -0.237 OA
ATOM     70  O   UNL A   1      47.669  25.676  38.419  1.00  0.00    -0.237 OA
ATOM     71  O   UNL A   1      45.209  25.780  38.517  1.00  0.00    -0.744 OA
ENDBRANCH  64  68
ENDBRANCH  38  61
ENDBRANCH  12  13
ENDBRANCH   5   7
ENDBRANCH   2   3
ENDBRANCH   1   2
BRANCH   1  72
ATOM     72  C   UNL A   1      33.028  29.115  23.444  1.00  0.00     0.023 C 
BRANCH  72  73
ATOM     73  C   UNL A   1      32.035  28.097  22.895  1.00  0.00     0.116 C 
BRANCH  73  74
ATOM     74  N   UNL A   1      32.653  27.112  22.039  1.00  0.00    -0.354 N 
ATOM     75  C   UNL A   1      33.108  25.852  22.240  1.00  0.00     0.242 C 
ATOM     76  H   UNL A   1      32.767  27.422  21.110  1.00  0.00     0.163 HD
ATOM     77  O   UNL A   1      33.501  25.288  21.204  1.00  0.00    -0.273 OA
BRANCH  75  78
ATOM     78  C   UNL A   1      33.211  25.103  23.611  1.00  0.00     0.173 C 
ATOM     79  C   UNL A   1      32.394  25.506  24.841  1.00  0.00     0.035 C 
ATOM     80  N   UNL A   1      32.946  23.665  23.358  1.00  0.00    -0.344 N 
ATOM     81  C   UNL A   1      30.912  25.149  24.714  1.00  0.00     0.004 C 
ATOM     82  C   UNL A   1      31.556  23.273  23.152  1.00  0.00     0.119 C 
ATOM     83  C   UNL A   1      30.732  23.667  24.379  1.00  0.00     0.022 C 
BRANCH  80  84
ATOM     84  C   UNL A   1      33.845  22.744  23.860  1.00  0.00     0.133 A 
ATOM     85  C   UNL A   1      35.062  23.169  24.348  1.00  0.00     0.076 A 
ATOM     86  N   UNL A   1      33.488  21.452  23.910  1.00  0.00    -0.211 NA
ATOM     87  C   UNL A   1      35.886  22.219  24.921  1.00  0.00     0.076 A 
ATOM     88  C   UNL A   1      34.357  20.593  24.462  1.00  0.00     0.162 A 
ATOM     89  N   UNL A   1      35.553  20.915  24.975  1.00  0.00    -0.228 NA
BRANCH  87  90
ATOM     90  C   UNL A   1      37.166  22.577  25.546  1.00  0.00     0.000 A 
ATOM     91  C   UNL A   1      37.395  23.876  26.028  1.00  0.00     0.010 A 
ATOM     92  C   UNL A   1      38.203  21.635  25.668  1.00  0.00     0.010 A 
ATOM     93  C   UNL A   1      38.611  24.219  26.624  1.00  0.00     0.001 A 
ATOM     94  C   UNL A   1      39.423  21.979  26.255  1.00  0.00     0.001 A 
ATOM     95  C   UNL A   1      39.624  23.269  26.736  1.00  0.00     0.000 A 
ENDBRANCH  87  90
BRANCH  88  96
ATOM     96  C   UNL A   1      33.939  19.193  24.543  1.00  0.00     0.021 A 
ATOM     97  C   UNL A   1      32.587  18.829  24.391  1.00  0.00     0.012 A 
ATOM     98  C   UNL A   1      34.876  18.177  24.800  1.00  0.00     0.032 A 
ATOM     99  C   UNL A   1      32.186  17.494  24.481  1.00  0.00     0.002 A 
ATOM    100  C   UNL A   1      34.468  16.849  24.909  1.00  0.00     0.041 A 
ATOM    101  C   UNL A   1      33.128  16.503  24.747  1.00  0.00     0.020 A 
ATOM    102  Cl  UNL A   1      35.626  15.626  25.261  1.00  0.00    -0.084 Cl
ENDBRANCH  88  96
ENDBRANCH  80  84
ENDBRANCH  75  78
ENDBRANCH  73  74
ENDBRANCH  72  73
ENDBRANCH   1  72
TORSDOF 17
ENDMDL
