MODEL 1
REMARK VINA RESULT:     -12.9      0.000      0.000
REMARK SMILES O=C(NCCCCNC(=O)[C@H]1CCCN(C(=O)c2c[nH]c3ccccc23)C1)c1ccc(-c2c3nc(c(-c4cc(S(=O)(=O)[O-])ccc4F)c4ccc([nH]4)c(-c4cc(S(=O)(=O)[O-])ccc4F)c4nc(c(-c5cc(S(=O)(=O)[O-])ccc5F)c5ccc2[nH]5)C=C4)C=C3)cc1
REMARK SMILES IDX 5 1 4 2 3 3 1 4 2 5 28 7 29 8 90 9 30 10 89 11 31 12 32 13
REMARK SMILES IDX 33 14 83 15 34 16 88 17 82 18 84 19 35 20 87 21 81 22 80 23
REMARK SMILES IDX 36 25 68 26 48 27 67 28 49 29 52 30 66 31 85 32 50 33 51 34
REMARK SMILES IDX 65 36 86 37 53 38 37 39 38 40 46 41 39 42 45 43 47 44 44 45
REMARK SMILES IDX 40 46 41 47 42 48 43 49 69 50 70 51 78 52 71 53 77 54 79 55
REMARK SMILES IDX 76 56 72 57 73 58 74 59 75 60 54 61 55 62 63 63 56 64 62 65
REMARK SMILES IDX 64 66 61 67 57 68 58 69 59 70 60 71 6 72 7 73 8 74 9 75
REMARK SMILES IDX 10 77 11 78 12 79 27 80 13 81 15 82 14 83 16 84 17 85 18 86
REMARK SMILES IDX 19 87 26 88 20 89 21 90 25 91 22 93 24 94 23 95
REMARK H PARENT 3 6 84 24 52 35 8 76 20 92
REMARK Flexibility Score: inf
ROOT
ATOM      1  C   UNL A   1      35.261  21.726  24.931  1.00  0.00     0.023 C 
ENDROOT
BRANCH   1   2
ATOM      2  C   UNL A   1      36.532  22.161  25.662  1.00  0.00     0.116 C 
BRANCH   2   3
ATOM      3  N   UNL A   1      37.510  21.093  25.785  1.00  0.00    -0.352 N 
ATOM      4  O   UNL A   1      39.540  20.165  26.039  1.00  0.00    -0.269 OA
ATOM      5  C   UNL A   1      38.846  21.175  26.097  1.00  0.00     0.251 C 
ATOM      6  H   UNL A   1      37.167  20.185  25.622  1.00  0.00     0.163 HD
BRANCH   5   7
ATOM      7  C   UNL A   1      39.458  22.472  26.470  1.00  0.00     0.039 A 
ATOM      8  C   UNL A   1      38.976  23.683  25.963  1.00  0.00     0.014 A 
ATOM      9  C   UNL A   1      40.514  22.472  27.389  1.00  0.00     0.014 A 
ATOM     10  C   UNL A   1      39.606  24.880  26.304  1.00  0.00     0.010 A 
ATOM     11  C   UNL A   1      41.120  23.676  27.760  1.00  0.00     0.010 A 
ATOM     12  C   UNL A   1      40.685  24.887  27.202  1.00  0.00    -0.014 A 
BRANCH  12  13
ATOM     13  C   UNL A   1      41.335  26.171  27.565  1.00  0.00     0.031 A 
ATOM     14  C   UNL A   1      42.717  26.495  27.074  1.00  0.00     0.074 A 
ATOM     15  C   UNL A   1      40.663  27.056  28.325  1.00  0.00     0.049 A 
ATOM     16  N   UNL A   1      43.432  27.575  27.267  1.00  0.00    -0.248 NA
ATOM     17  C   UNL A   1      43.389  25.464  26.268  1.00  0.00     0.031 C 
ATOM     18  C   UNL A   1      39.322  26.849  28.874  1.00  0.00     0.029 A 
ATOM     19  N   UNL A   1      41.014  28.308  28.761  1.00  0.00    -0.354 N 
ATOM     20  C   UNL A   1      44.638  27.357  26.612  1.00  0.00     0.074 A 
ATOM     21  C   UNL A   1      44.568  26.027  26.042  1.00  0.00     0.031 C 
ATOM     22  C   UNL A   1      38.953  27.947  29.553  1.00  0.00     0.029 A 
ATOM     23  C   UNL A   1      40.040  28.920  29.513  1.00  0.00     0.049 A 
ATOM     24  H   UNL A   1      41.880  28.727  28.555  1.00  0.00     0.167 HD
ATOM     25  C   UNL A   1      45.701  28.191  26.489  1.00  0.00     0.034 A 
ATOM     26  C   UNL A   1      40.026  30.128  30.106  1.00  0.00     0.034 A 
ATOM     27  C   UNL A   1      45.765  29.514  27.061  1.00  0.00     0.049 A 
ATOM     28  C   UNL A   1      41.221  31.029  29.969  1.00  0.00     0.074 A 
ATOM     29  C   UNL A   1      46.783  30.449  26.969  1.00  0.00     0.029 A 
ATOM     30  N   UNL A   1      44.769  30.089  27.841  1.00  0.00    -0.354 N 
ATOM     31  N   UNL A   1      42.350  30.810  29.338  1.00  0.00    -0.248 NA
ATOM     32  C   UNL A   1      41.136  32.340  30.626  1.00  0.00     0.031 C 
ATOM     33  C   UNL A   1      46.422  31.570  27.728  1.00  0.00     0.029 A 
ATOM     34  C   UNL A   1      45.159  31.354  28.255  1.00  0.00     0.049 A 
ATOM     35  H   UNL A   1      43.913  29.660  28.067  1.00  0.00     0.167 HD
ATOM     36  C   UNL A   1      43.110  31.960  29.517  1.00  0.00     0.074 A 
ATOM     37  C   UNL A   1      42.307  32.874  30.306  1.00  0.00     0.031 C 
ATOM     38  C   UNL A   1      44.360  32.237  29.068  1.00  0.00     0.034 A 
BRANCH  25  39
ATOM     39  C   UNL A   1      46.895  27.669  25.735  1.00  0.00     0.023 A 
ATOM     40  C   UNL A   1      47.120  28.007  24.389  1.00  0.00     0.031 A 
ATOM     41  C   UNL A   1      47.802  26.795  26.359  1.00  0.00     0.131 A 
ATOM     42  C   UNL A   1      48.192  27.428  23.693  1.00  0.00     0.055 A 
ATOM     43  C   UNL A   1      48.903  26.270  25.679  1.00  0.00     0.041 A 
ATOM     44  F   UNL A   1      47.623  26.425  27.638  1.00  0.00    -0.206 F 
ATOM     45  C   UNL A   1      49.096  26.576  24.334  1.00  0.00     0.022 A 
BRANCH  42  46
ATOM     46  S   UNL A   1      48.323  27.713  21.907  1.00  0.00     0.124 S 
ATOM     47  O   UNL A   1      48.604  26.367  21.412  1.00  0.00    -0.237 OA
ATOM     48  O   UNL A   1      47.009  28.254  21.578  1.00  0.00    -0.237 OA
ATOM     49  O   UNL A   1      49.433  28.656  21.790  1.00  0.00    -0.744 OA
ENDBRANCH  42  46
ENDBRANCH  25  39
BRANCH  26  50
ATOM     50  C   UNL A   1      38.846  30.546  30.904  1.00  0.00     0.023 A 
ATOM     51  C   UNL A   1      37.762  31.202  30.303  1.00  0.00     0.031 A 
ATOM     52  C   UNL A   1      38.793  30.293  32.285  1.00  0.00     0.131 A 
ATOM     53  C   UNL A   1      36.672  31.604  31.088  1.00  0.00     0.055 A 
ATOM     54  C   UNL A   1      37.695  30.671  33.057  1.00  0.00     0.041 A 
ATOM     55  F   UNL A   1      39.805  29.657  32.896  1.00  0.00    -0.206 F 
ATOM     56  C   UNL A   1      36.628  31.336  32.460  1.00  0.00     0.022 A 
BRANCH  53  57
ATOM     57  S   UNL A   1      35.314  32.506  30.296  1.00  0.00     0.124 S 
ATOM     58  O   UNL A   1      34.356  32.625  31.389  1.00  0.00    -0.237 OA
ATOM     59  O   UNL A   1      35.973  33.742  29.883  1.00  0.00    -0.237 OA
ATOM     60  O   UNL A   1      34.910  31.625  29.203  1.00  0.00    -0.744 OA
ENDBRANCH  53  57
ENDBRANCH  26  50
BRANCH  38  61
ATOM     61  C   UNL A   1      44.912  33.591  29.417  1.00  0.00     0.023 A 
ATOM     62  C   UNL A   1      44.694  34.704  28.588  1.00  0.00     0.031 A 
ATOM     63  C   UNL A   1      45.691  33.761  30.574  1.00  0.00     0.131 A 
ATOM     64  C   UNL A   1      45.287  35.934  28.905  1.00  0.00     0.055 A 
ATOM     65  C   UNL A   1      46.248  34.997  30.904  1.00  0.00     0.041 A 
ATOM     66  F   UNL A   1      45.928  32.725  31.395  1.00  0.00    -0.206 F 
ATOM     67  C   UNL A   1      46.055  36.090  30.063  1.00  0.00     0.022 A 
BRANCH  64  68
ATOM     68  S   UNL A   1      45.094  37.319  27.750  1.00  0.00     0.124 S 
ATOM     69  O   UNL A   1      45.090  38.468  28.650  1.00  0.00    -0.237 OA
ATOM     70  O   UNL A   1      46.269  37.181  26.897  1.00  0.00    -0.237 OA
ATOM     71  O   UNL A   1      43.817  37.043  27.093  1.00  0.00    -0.744 OA
ENDBRANCH  64  68
ENDBRANCH  38  61
ENDBRANCH  12  13
ENDBRANCH   5   7
ENDBRANCH   2   3
ENDBRANCH   1   2
BRANCH   1  72
ATOM     72  C   UNL A   1      34.039  21.453  25.819  1.00  0.00     0.023 C 
BRANCH  72  73
ATOM     73  C   UNL A   1      33.705  22.558  26.821  1.00  0.00     0.116 C 
BRANCH  73  74
ATOM     74  N   UNL A   1      32.334  22.475  27.289  1.00  0.00    -0.356 N 
ATOM     75  C   UNL A   1      31.244  23.202  26.905  1.00  0.00     0.224 C 
ATOM     76  H   UNL A   1      32.165  21.795  27.981  1.00  0.00     0.163 HD
ATOM     77  O   UNL A   1      30.174  23.007  27.480  1.00  0.00    -0.275 OA
BRANCH  75  78
ATOM     78  C   UNL A   1      31.367  24.163  25.736  1.00  0.00     0.098 C 
ATOM     79  C   UNL A   1      31.098  23.405  24.423  1.00  0.00     0.017 C 
ATOM     80  C   UNL A   1      30.362  25.311  25.892  1.00  0.00     0.133 C 
ATOM     81  C   UNL A   1      31.046  24.352  23.222  1.00  0.00     0.022 C 
ATOM     82  N   UNL A   1      30.405  26.179  24.713  1.00  0.00    -0.338 N 
ATOM     83  C   UNL A   1      30.074  25.509  23.456  1.00  0.00     0.120 C 
BRANCH  82  84
ATOM     84  C   UNL A   1      31.008  27.431  24.817  1.00  0.00     0.256 C 
ATOM     85  O   UNL A   1      31.657  27.764  25.810  1.00  0.00    -0.269 OA
BRANCH  84  86
ATOM     86  C   UNL A   1      30.886  28.344  23.686  1.00  0.00     0.065 A 
ATOM     87  C   UNL A   1      31.960  28.816  22.952  1.00  0.00     0.097 A 
ATOM     88  C   UNL A   1      29.713  28.979  23.156  1.00  0.00     0.012 A 
ATOM     89  N   UNL A   1      31.485  29.652  21.980  1.00  0.00    -0.360 N 
ATOM     90  C   UNL A   1      30.118  29.769  22.077  1.00  0.00     0.046 A 
ATOM     91  C   UNL A   1      28.344  28.964  23.498  1.00  0.00     0.011 A 
ATOM     92  H   UNL A   1      32.042  30.104  21.306  1.00  0.00     0.166 HD
ATOM     93  C   UNL A   1      29.220  30.519  21.309  1.00  0.00     0.027 A 
ATOM     94  C   UNL A   1      27.434  29.709  22.740  1.00  0.00     0.001 A 
ATOM     95  C   UNL A   1      27.868  30.471  21.658  1.00  0.00     0.002 A 
ENDBRANCH  84  86
ENDBRANCH  82  84
ENDBRANCH  75  78
ENDBRANCH  73  74
ENDBRANCH  72  73
ENDBRANCH   1  72
TORSDOF 16
ENDMDL
MODEL 2
REMARK VINA RESULT:     -12.7      4.928      9.322
REMARK SMILES O=C(NCCCCNC(=O)[C@H]1CCCN(C(=O)c2c[nH]c3ccccc23)C1)c1ccc(-c2c3nc(c(-c4cc(S(=O)(=O)[O-])ccc4F)c4ccc([nH]4)c(-c4cc(S(=O)(=O)[O-])ccc4F)c4nc(c(-c5cc(S(=O)(=O)[O-])ccc5F)c5ccc2[nH]5)C=C4)C=C3)cc1
REMARK SMILES IDX 5 1 4 2 3 3 1 4 2 5 28 7 29 8 90 9 30 10 89 11 31 12 32 13
REMARK SMILES IDX 33 14 83 15 34 16 88 17 82 18 84 19 35 20 87 21 81 22 80 23
REMARK SMILES IDX 36 25 68 26 48 27 67 28 49 29 52 30 66 31 85 32 50 33 51 34
REMARK SMILES IDX 65 36 86 37 53 38 37 39 38 40 46 41 39 42 45 43 47 44 44 45
REMARK SMILES IDX 40 46 41 47 42 48 43 49 69 50 70 51 78 52 71 53 77 54 79 55
REMARK SMILES IDX 76 56 72 57 73 58 74 59 75 60 54 61 55 62 63 63 56 64 62 65
REMARK SMILES IDX 64 66 61 67 57 68 58 69 59 70 60 71 6 72 7 73 8 74 9 75
REMARK SMILES IDX 10 77 11 78 12 79 27 80 13 81 15 82 14 83 16 84 17 85 18 86
REMARK SMILES IDX 19 87 26 88 20 89 21 90 25 91 22 93 24 94 23 95
REMARK H PARENT 3 6 84 24 52 35 8 76 20 92
REMARK Flexibility Score: inf
ROOT
ATOM      1  C   UNL A   1      33.262  28.240  27.233  1.00  0.00     0.023 C 
ENDROOT
BRANCH   1   2
ATOM      2  C   UNL A   1      33.996  29.343  26.471  1.00  0.00     0.116 C 
BRANCH   2   3
ATOM      3  N   UNL A   1      33.756  30.668  27.017  1.00  0.00    -0.352 N 
ATOM      4  O   UNL A   1      34.064  32.439  28.365  1.00  0.00    -0.269 OA
ATOM      5  C   UNL A   1      34.494  31.372  27.938  1.00  0.00     0.251 C 
ATOM      6  H   UNL A   1      32.951  31.125  26.680  1.00  0.00     0.163 HD
BRANCH   5   7
ATOM      7  C   UNL A   1      35.783  30.840  28.439  1.00  0.00     0.039 A 
ATOM      8  C   UNL A   1      37.009  31.322  27.968  1.00  0.00     0.014 A 
ATOM      9  C   UNL A   1      35.758  29.863  29.441  1.00  0.00     0.014 A 
ATOM     10  C   UNL A   1      38.200  30.766  28.433  1.00  0.00     0.010 A 
ATOM     11  C   UNL A   1      36.954  29.333  29.934  1.00  0.00     0.010 A 
ATOM     12  C   UNL A   1      38.183  29.764  29.416  1.00  0.00    -0.014 A 
BRANCH  12  13
ATOM     13  C   UNL A   1      39.461  29.193  29.909  1.00  0.00     0.031 A 
ATOM     14  C   UNL A   1      40.123  29.747  31.139  1.00  0.00     0.074 A 
ATOM     15  C   UNL A   1      40.015  28.156  29.253  1.00  0.00     0.049 A 
ATOM     16  N   UNL A   1      41.225  29.359  31.731  1.00  0.00    -0.248 NA
ATOM     17  C   UNL A   1      39.464  30.893  31.783  1.00  0.00     0.031 C 
ATOM     18  C   UNL A   1      39.475  27.542  28.039  1.00  0.00     0.029 A 
ATOM     19  N   UNL A   1      41.149  27.433  29.518  1.00  0.00    -0.354 N 
ATOM     20  C   UNL A   1      41.397  30.213  32.814  1.00  0.00     0.074 A 
ATOM     21  C   UNL A   1      40.299  31.159  32.777  1.00  0.00     0.031 C 
ATOM     22  C   UNL A   1      40.266  26.518  27.679  1.00  0.00     0.029 A 
ATOM     23  C   UNL A   1      41.380  26.423  28.616  1.00  0.00     0.049 A 
ATOM     24  H   UNL A   1      41.742  27.619  30.283  1.00  0.00     0.167 HD
ATOM     25  C   UNL A   1      42.372  30.205  33.756  1.00  0.00     0.034 A 
ATOM     26  C   UNL A   1      42.379  25.523  28.549  1.00  0.00     0.034 A 
ATOM     27  C   UNL A   1      43.464  29.261  33.787  1.00  0.00     0.049 A 
ATOM     28  C   UNL A   1      43.457  25.542  29.595  1.00  0.00     0.074 A 
ATOM     29  C   UNL A   1      44.486  29.149  34.714  1.00  0.00     0.029 A 
ATOM     30  N   UNL A   1      43.679  28.270  32.838  1.00  0.00    -0.354 N 
ATOM     31  N   UNL A   1      43.599  26.351  30.618  1.00  0.00    -0.248 NA
ATOM     32  C   UNL A   1      44.510  24.525  29.475  1.00  0.00     0.031 C 
ATOM     33  C   UNL A   1      45.343  28.119  34.303  1.00  0.00     0.029 A 
ATOM     34  C   UNL A   1      44.829  27.558  33.146  1.00  0.00     0.049 A 
ATOM     35  H   UNL A   1      43.101  28.098  32.061  1.00  0.00     0.167 HD
ATOM     36  C   UNL A   1      44.755  25.936  31.268  1.00  0.00     0.074 A 
ATOM     37  C   UNL A   1      45.266  24.799  30.529  1.00  0.00     0.031 C 
ATOM     38  C   UNL A   1      45.341  26.449  32.379  1.00  0.00     0.034 A 
BRANCH  25  39
ATOM     39  C   UNL A   1      42.315  31.280  34.810  1.00  0.00     0.023 A 
ATOM     40  C   UNL A   1      42.987  32.504  34.648  1.00  0.00     0.031 A 
ATOM     41  C   UNL A   1      41.609  31.064  36.005  1.00  0.00     0.131 A 
ATOM     42  C   UNL A   1      42.986  33.444  35.690  1.00  0.00     0.055 A 
ATOM     43  C   UNL A   1      41.562  32.028  37.015  1.00  0.00     0.041 A 
ATOM     44  F   UNL A   1      40.966  29.904  36.219  1.00  0.00    -0.206 F 
ATOM     45  C   UNL A   1      42.264  33.221  36.865  1.00  0.00     0.022 A 
BRANCH  42  46
ATOM     46  S   UNL A   1      44.040  34.911  35.536  1.00  0.00     0.124 S 
ATOM     47  O   UNL A   1      45.176  34.551  36.381  1.00  0.00    -0.237 OA
ATOM     48  O   UNL A   1      44.301  34.962  34.102  1.00  0.00    -0.237 OA
ATOM     49  O   UNL A   1      43.204  35.991  36.056  1.00  0.00    -0.744 OA
ENDBRANCH  42  46
ENDBRANCH  25  39
BRANCH  26  50
ATOM     50  C   UNL A   1      42.417  24.542  27.435  1.00  0.00     0.023 A 
ATOM     51  C   UNL A   1      41.652  23.367  27.480  1.00  0.00     0.031 A 
ATOM     52  C   UNL A   1      43.226  24.771  26.310  1.00  0.00     0.131 A 
ATOM     53  C   UNL A   1      41.726  22.450  26.422  1.00  0.00     0.055 A 
ATOM     54  C   UNL A   1      43.277  23.869  25.248  1.00  0.00     0.041 A 
ATOM     55  F   UNL A   1      43.964  25.888  26.223  1.00  0.00    -0.206 F 
ATOM     56  C   UNL A   1      42.528  22.696  25.304  1.00  0.00     0.022 A 
BRANCH  53  57
ATOM     57  S   UNL A   1      40.776  20.910  26.537  1.00  0.00     0.124 S 
ATOM     58  O   UNL A   1      41.581  20.001  25.730  1.00  0.00    -0.237 OA
ATOM     59  O   UNL A   1      40.775  20.662  27.975  1.00  0.00    -0.237 OA
ATOM     60  O   UNL A   1      39.478  21.268  25.970  1.00  0.00    -0.744 OA
ENDBRANCH  53  57
ENDBRANCH  26  50
BRANCH  38  61
ATOM     61  C   UNL A   1      46.592  25.762  32.854  1.00  0.00     0.023 A 
ATOM     62  C   UNL A   1      46.538  24.710  33.784  1.00  0.00     0.031 A 
ATOM     63  C   UNL A   1      47.850  26.186  32.395  1.00  0.00     0.131 A 
ATOM     64  C   UNL A   1      47.728  24.142  34.261  1.00  0.00     0.055 A 
ATOM     65  C   UNL A   1      49.030  25.592  32.847  1.00  0.00     0.041 A 
ATOM     66  F   UNL A   1      47.951  27.190  31.509  1.00  0.00    -0.206 F 
ATOM     67  C   UNL A   1      48.973  24.571  33.792  1.00  0.00     0.022 A 
BRANCH  64  68
ATOM     68  S   UNL A   1      47.632  22.876  35.556  1.00  0.00     0.124 S 
ATOM     69  O   UNL A   1      46.228  22.945  35.946  1.00  0.00    -0.237 OA
ATOM     70  O   UNL A   1      48.038  21.669  34.844  1.00  0.00    -0.237 OA
ATOM     71  O   UNL A   1      48.579  23.345  36.566  1.00  0.00    -0.744 OA
ENDBRANCH  64  68
ENDBRANCH  38  61
ENDBRANCH  12  13
ENDBRANCH   5   7
ENDBRANCH   2   3
ENDBRANCH   1   2
BRANCH   1  72
ATOM     72  C   UNL A   1      31.730  28.340  27.246  1.00  0.00     0.023 C 
BRANCH  72  73
ATOM     73  C   UNL A   1      31.005  27.315  26.374  1.00  0.00     0.116 C 
BRANCH  73  74
ATOM     74  N   UNL A   1      31.078  25.977  26.929  1.00  0.00    -0.356 N 
ATOM     75  C   UNL A   1      31.822  24.909  26.516  1.00  0.00     0.224 C 
ATOM     76  H   UNL A   1      30.512  25.816  27.718  1.00  0.00     0.163 HD
ATOM     77  O   UNL A   1      31.686  23.836  27.101  1.00  0.00    -0.275 OA
BRANCH  75  78
ATOM     78  C   UNL A   1      32.842  25.099  25.408  1.00  0.00     0.098 C 
ATOM     79  C   UNL A   1      34.138  24.352  25.775  1.00  0.00     0.017 C 
ATOM     80  C   UNL A   1      32.287  24.559  24.084  1.00  0.00     0.133 C 
ATOM     81  C   UNL A   1      35.147  24.369  24.625  1.00  0.00     0.022 C 
ATOM     82  N   UNL A   1      33.309  24.643  23.039  1.00  0.00    -0.338 N 
ATOM     83  C   UNL A   1      34.523  23.878  23.319  1.00  0.00     0.120 C 
BRANCH  82  84
ATOM     84  C   UNL A   1      33.189  25.619  22.051  1.00  0.00     0.256 C 
ATOM     85  O   UNL A   1      33.318  25.357  20.854  1.00  0.00    -0.269 OA
BRANCH  84  86
ATOM     86  C   UNL A   1      32.862  26.978  22.470  1.00  0.00     0.065 A 
ATOM     87  C   UNL A   1      33.805  27.955  22.733  1.00  0.00     0.097 A 
ATOM     88  C   UNL A   1      31.580  27.554  22.758  1.00  0.00     0.012 A 
ATOM     89  N   UNL A   1      33.153  29.096  23.106  1.00  0.00    -0.360 N 
ATOM     90  C   UNL A   1      31.794  28.884  23.128  1.00  0.00     0.046 A 
ATOM     91  C   UNL A   1      30.255  27.067  22.747  1.00  0.00     0.011 A 
ATOM     92  H   UNL A   1      33.593  29.949  23.327  1.00  0.00     0.166 HD
ATOM     93  C   UNL A   1      30.751  29.755  23.460  1.00  0.00     0.027 A 
ATOM     94  C   UNL A   1      29.201  27.926  23.078  1.00  0.00     0.001 A 
ATOM     95  C   UNL A   1      29.448  29.252  23.424  1.00  0.00     0.002 A 
ENDBRANCH  84  86
ENDBRANCH  82  84
ENDBRANCH  75  78
ENDBRANCH  73  74
ENDBRANCH  72  73
ENDBRANCH   1  72
TORSDOF 16
ENDMDL
MODEL 3
REMARK VINA RESULT:     -12.7      5.107      7.814
REMARK SMILES O=C(NCCCCNC(=O)[C@H]1CCCN(C(=O)c2c[nH]c3ccccc23)C1)c1ccc(-c2c3nc(c(-c4cc(S(=O)(=O)[O-])ccc4F)c4ccc([nH]4)c(-c4cc(S(=O)(=O)[O-])ccc4F)c4nc(c(-c5cc(S(=O)(=O)[O-])ccc5F)c5ccc2[nH]5)C=C4)C=C3)cc1
REMARK SMILES IDX 5 1 4 2 3 3 1 4 2 5 28 7 29 8 90 9 30 10 89 11 31 12 32 13
REMARK SMILES IDX 33 14 83 15 34 16 88 17 82 18 84 19 35 20 87 21 81 22 80 23
REMARK SMILES IDX 36 25 68 26 48 27 67 28 49 29 52 30 66 31 85 32 50 33 51 34
REMARK SMILES IDX 65 36 86 37 53 38 37 39 38 40 46 41 39 42 45 43 47 44 44 45
REMARK SMILES IDX 40 46 41 47 42 48 43 49 69 50 70 51 78 52 71 53 77 54 79 55
REMARK SMILES IDX 76 56 72 57 73 58 74 59 75 60 54 61 55 62 63 63 56 64 62 65
REMARK SMILES IDX 64 66 61 67 57 68 58 69 59 70 60 71 6 72 7 73 8 74 9 75
REMARK SMILES IDX 10 77 11 78 12 79 27 80 13 81 15 82 14 83 16 84 17 85 18 86
REMARK SMILES IDX 19 87 26 88 20 89 21 90 25 91 22 93 24 94 23 95
REMARK H PARENT 3 6 84 24 52 35 8 76 20 92
REMARK Flexibility Score: inf
ROOT
ATOM      1  C   UNL A   1      33.341  28.945  23.235  1.00  0.00     0.023 C 
ENDROOT
BRANCH   1   2
ATOM      2  C   UNL A   1      33.641  29.166  24.717  1.00  0.00     0.116 C 
BRANCH   2   3
ATOM      3  N   UNL A   1      32.830  30.215  25.312  1.00  0.00    -0.352 N 
ATOM      4  O   UNL A   1      32.142  31.655  26.894  1.00  0.00    -0.269 OA
ATOM      5  C   UNL A   1      33.005  30.874  26.505  1.00  0.00     0.251 C 
ATOM      6  H   UNL A   1      32.044  30.491  24.786  1.00  0.00     0.163 HD
BRANCH   5   7
ATOM      7  C   UNL A   1      34.207  30.627  27.336  1.00  0.00     0.039 A 
ATOM      8  C   UNL A   1      35.139  31.636  27.596  1.00  0.00     0.014 A 
ATOM      9  C   UNL A   1      34.377  29.358  27.903  1.00  0.00     0.014 A 
ATOM     10  C   UNL A   1      36.280  31.353  28.347  1.00  0.00     0.010 A 
ATOM     11  C   UNL A   1      35.502  29.086  28.687  1.00  0.00     0.010 A 
ATOM     12  C   UNL A   1      36.473  30.075  28.895  1.00  0.00    -0.014 A 
BRANCH  12  13
ATOM     13  C   UNL A   1      37.686  29.795  29.703  1.00  0.00     0.031 A 
ATOM     14  C   UNL A   1      38.790  28.935  29.154  1.00  0.00     0.074 A 
ATOM     15  C   UNL A   1      37.800  30.336  30.930  1.00  0.00     0.049 A 
ATOM     16  N   UNL A   1      39.931  28.604  29.703  1.00  0.00    -0.248 NA
ATOM     17  C   UNL A   1      38.577  28.365  27.816  1.00  0.00     0.031 C 
ATOM     18  C   UNL A   1      36.789  31.175  31.578  1.00  0.00     0.029 A 
ATOM     19  N   UNL A   1      38.815  30.268  31.848  1.00  0.00    -0.354 N 
ATOM     20  C   UNL A   1      40.574  27.784  28.783  1.00  0.00     0.074 A 
ATOM     21  C   UNL A   1      39.678  27.645  27.652  1.00  0.00     0.031 C 
ATOM     22  C   UNL A   1      37.247  31.563  32.779  1.00  0.00     0.029 A 
ATOM     23  C   UNL A   1      38.566  30.979  32.997  1.00  0.00     0.049 A 
ATOM     24  H   UNL A   1      39.644  29.758  31.698  1.00  0.00     0.167 HD
ATOM     25  C   UNL A   1      41.799  27.209  28.868  1.00  0.00     0.034 A 
ATOM     26  C   UNL A   1      39.316  31.139  34.104  1.00  0.00     0.034 A 
ATOM     27  C   UNL A   1      42.686  27.350  29.997  1.00  0.00     0.049 A 
ATOM     28  C   UNL A   1      40.663  30.480  34.182  1.00  0.00     0.074 A 
ATOM     29  C   UNL A   1      43.959  26.833  30.169  1.00  0.00     0.029 A 
ATOM     30  N   UNL A   1      42.386  28.056  31.156  1.00  0.00    -0.354 N 
ATOM     31  N   UNL A   1      41.259  29.716  33.298  1.00  0.00    -0.248 NA
ATOM     32  C   UNL A   1      41.437  30.707  35.410  1.00  0.00     0.031 C 
ATOM     33  C   UNL A   1      44.411  27.190  31.446  1.00  0.00     0.029 A 
ATOM     34  C   UNL A   1      43.440  27.968  32.053  1.00  0.00     0.049 A 
ATOM     35  H   UNL A   1      41.548  28.546  31.316  1.00  0.00     0.167 HD
ATOM     36  C   UNL A   1      42.483  29.375  33.861  1.00  0.00     0.074 A 
ATOM     37  C   UNL A   1      42.546  30.025  35.155  1.00  0.00     0.031 C 
ATOM     38  C   UNL A   1      43.470  28.595  33.352  1.00  0.00     0.034 A 
BRANCH  25  39
ATOM     39  C   UNL A   1      42.229  26.341  27.714  1.00  0.00     0.023 A 
ATOM     40  C   UNL A   1      41.822  25.000  27.611  1.00  0.00     0.031 A 
ATOM     41  C   UNL A   1      43.084  26.853  26.723  1.00  0.00     0.131 A 
ATOM     42  C   UNL A   1      42.317  24.198  26.572  1.00  0.00     0.055 A 
ATOM     43  C   UNL A   1      43.526  26.066  25.657  1.00  0.00     0.041 A 
ATOM     44  F   UNL A   1      43.518  28.122  26.784  1.00  0.00    -0.206 F 
ATOM     45  C   UNL A   1      43.152  24.727  25.584  1.00  0.00     0.022 A 
BRANCH  42  46
ATOM     46  S   UNL A   1      41.949  22.422  26.595  1.00  0.00     0.124 S 
ATOM     47  O   UNL A   1      40.505  22.421  26.815  1.00  0.00    -0.237 OA
ATOM     48  O   UNL A   1      42.395  21.992  25.275  1.00  0.00    -0.237 OA
ATOM     49  O   UNL A   1      42.744  21.922  27.715  1.00  0.00    -0.744 OA
ENDBRANCH  42  46
ENDBRANCH  25  39
BRANCH  26  50
ATOM     50  C   UNL A   1      38.795  31.942  35.239  1.00  0.00     0.023 A 
ATOM     51  C   UNL A   1      38.237  31.323  36.367  1.00  0.00     0.031 A 
ATOM     52  C   UNL A   1      38.848  33.345  35.203  1.00  0.00     0.131 A 
ATOM     53  C   UNL A   1      37.733  32.110  37.413  1.00  0.00     0.055 A 
ATOM     54  C   UNL A   1      38.370  34.124  36.257  1.00  0.00     0.041 A 
ATOM     55  F   UNL A   1      39.384  33.976  34.148  1.00  0.00    -0.206 F 
ATOM     56  C   UNL A   1      37.802  33.506  37.368  1.00  0.00     0.022 A 
BRANCH  53  57
ATOM     57  S   UNL A   1      36.960  31.284  38.829  1.00  0.00     0.124 S 
ATOM     58  O   UNL A   1      37.938  31.522  39.885  1.00  0.00    -0.237 OA
ATOM     59  O   UNL A   1      35.698  32.008  38.950  1.00  0.00    -0.237 OA
ATOM     60  O   UNL A   1      36.839  29.896  38.391  1.00  0.00    -0.744 OA
ENDBRANCH  53  57
ENDBRANCH  26  50
BRANCH  38  61
ATOM     61  C   UNL A   1      44.697  28.425  34.205  1.00  0.00     0.023 A 
ATOM     62  C   UNL A   1      44.802  27.375  35.131  1.00  0.00     0.031 A 
ATOM     63  C   UNL A   1      45.756  29.344  34.112  1.00  0.00     0.131 A 
ATOM     64  C   UNL A   1      45.928  27.291  35.963  1.00  0.00     0.055 A 
ATOM     65  C   UNL A   1      46.890  29.235  34.917  1.00  0.00     0.041 A 
ATOM     66  F   UNL A   1      45.697  30.367  33.243  1.00  0.00    -0.206 F 
ATOM     67  C   UNL A   1      46.976  28.210  35.855  1.00  0.00     0.022 A 
BRANCH  64  68
ATOM     68  S   UNL A   1      45.978  26.001  37.236  1.00  0.00     0.124 S 
ATOM     69  O   UNL A   1      46.410  24.835  36.471  1.00  0.00    -0.237 OA
ATOM     70  O   UNL A   1      46.948  26.534  38.186  1.00  0.00    -0.237 OA
ATOM     71  O   UNL A   1      44.601  25.946  37.723  1.00  0.00    -0.744 OA
ENDBRANCH  64  68
ENDBRANCH  38  61
ENDBRANCH  12  13
ENDBRANCH   5   7
ENDBRANCH   2   3
ENDBRANCH   1   2
BRANCH   1  72
ATOM     72  C   UNL A   1      33.870  27.636  22.633  1.00  0.00     0.023 C 
BRANCH  72  73
ATOM     73  C   UNL A   1      32.829  26.791  21.899  1.00  0.00     0.116 C 
BRANCH  73  74
ATOM     74  N   UNL A   1      31.507  26.929  22.480  1.00  0.00    -0.356 N 
ATOM     75  C   UNL A   1      30.860  26.111  23.362  1.00  0.00     0.224 C 
ATOM     76  H   UNL A   1      31.004  27.728  22.201  1.00  0.00     0.163 HD
ATOM     77  O   UNL A   1      29.705  26.387  23.683  1.00  0.00    -0.275 OA
BRANCH  75  78
ATOM     78  C   UNL A   1      31.608  24.939  23.973  1.00  0.00     0.098 C 
ATOM     79  C   UNL A   1      31.732  25.152  25.493  1.00  0.00     0.017 C 
ATOM     80  C   UNL A   1      30.859  23.632  23.688  1.00  0.00     0.133 C 
ATOM     81  C   UNL A   1      32.332  23.928  26.189  1.00  0.00     0.022 C 
ATOM     82  N   UNL A   1      31.520  22.516  24.368  1.00  0.00    -0.338 N 
ATOM     83  C   UNL A   1      31.584  22.646  25.823  1.00  0.00     0.120 C 
BRANCH  82  84
ATOM     84  C   UNL A   1      32.261  21.607  23.613  1.00  0.00     0.256 C 
ATOM     85  O   UNL A   1      31.918  21.266  22.480  1.00  0.00    -0.269 OA
BRANCH  84  86
ATOM     86  C   UNL A   1      33.496  21.088  24.189  1.00  0.00     0.065 A 
ATOM     87  C   UNL A   1      33.602  19.861  24.819  1.00  0.00     0.097 A 
ATOM     88  C   UNL A   1      34.781  21.718  24.295  1.00  0.00     0.012 A 
ATOM     89  N   UNL A   1      34.891  19.702  25.243  1.00  0.00    -0.360 N 
ATOM     90  C   UNL A   1      35.636  20.817  24.935  1.00  0.00     0.046 A 
ATOM     91  C   UNL A   1      35.298  22.975  23.914  1.00  0.00     0.011 A 
ATOM     92  H   UNL A   1      35.238  18.903  25.702  1.00  0.00     0.166 HD
ATOM     93  C   UNL A   1      36.983  21.099  25.187  1.00  0.00     0.027 A 
ATOM     94  C   UNL A   1      36.643  23.273  24.159  1.00  0.00     0.001 A 
ATOM     95  C   UNL A   1      37.473  22.344  24.783  1.00  0.00     0.002 A 
ENDBRANCH  84  86
ENDBRANCH  82  84
ENDBRANCH  75  78
ENDBRANCH  73  74
ENDBRANCH  72  73
ENDBRANCH   1  72
TORSDOF 16
ENDMDL
