MODEL 1
REMARK VINA RESULT:     -12.9      0.000      0.000
REMARK SMILES CN(C)C(=O)CCc1cccc(NC(=O)[C@H]2CCCC[C@@H]2C(=O)NCCCCNC(=O)c2ccc(-c3c4nc(c(-c5cc(S(=O)(=O)[O-])ccc5F)c5ccc([nH]5)c(-c5cc(S(=O)(=O)[O-])ccc5F)c5nc(c(-c6cc(S(=O)(=O)[O-])ccc6F)c6ccc3[nH]6)C=C5)C=C4)cc2)c1
REMARK SMILES IDX 25 1 24 2 22 3 23 4 21 6 16 7 17 8 18 9 20 10 19 11 14 12
REMARK SMILES IDX 13 13 15 15 12 16 8 17 9 18 95 19 10 20 11 21 7 22 6 23 4 24
REMARK SMILES IDX 1 25 2 26 3 27 5 28 26 29 27 30 28 31 29 32 30 33 31 35
REMARK SMILES IDX 32 36 33 37 94 38 34 39 93 40 35 41 36 42 37 43 87 44 38 45
REMARK SMILES IDX 92 46 86 47 88 48 39 49 91 50 85 51 84 52 40 54 72 55 52 56
REMARK SMILES IDX 71 57 53 58 56 59 70 60 89 61 54 62 55 63 69 65 90 66 57 67
REMARK SMILES IDX 41 68 42 69 50 70 43 71 49 72 51 73 48 74 44 75 45 76 46 77
REMARK SMILES IDX 47 78 73 79 74 80 82 81 75 82 81 83 83 84 80 85 76 86 77 87
REMARK SMILES IDX 78 88 79 89 58 90 59 91 67 92 60 93 66 94 68 95 65 96 61 97
REMARK SMILES IDX 62 98 63 99 64 100
REMARK H PARENT 24 5 13 14 29 34 88 53 56 64
REMARK Flexibility Score: inf
ROOT
ATOM      1  C   UNL A   1      34.549  23.353  23.028  1.00  0.00     0.116 C 
ENDROOT
BRANCH   1   2
ATOM      2  N   UNL A   1      33.844  24.599  22.834  1.00  0.00    -0.356 N 
ATOM      3  C   UNL A   1      32.810  25.118  23.552  1.00  0.00     0.223 C 
ATOM      4  O   UNL A   1      32.172  26.033  23.032  1.00  0.00    -0.275 OA
ATOM      5  H   UNL A   1      34.152  25.148  22.076  1.00  0.00     0.163 HD
BRANCH   3   6
ATOM      6  C   UNL A   1      32.503  24.578  24.957  1.00  0.00     0.091 C 
ATOM      7  C   UNL A   1      30.980  24.401  25.175  1.00  0.00     0.091 C 
ATOM      8  C   UNL A   1      30.281  25.782  25.298  1.00  0.00     0.014 C 
ATOM      9  C   UNL A   1      30.937  26.711  26.323  1.00  0.00     0.001 C 
ATOM     10  C   UNL A   1      33.125  25.478  26.037  1.00  0.00     0.014 C 
ATOM     11  C   UNL A   1      32.442  26.838  26.127  1.00  0.00     0.001 C 
BRANCH   7  12
ATOM     12  C   UNL A   1      30.646  23.552  26.415  1.00  0.00     0.228 C 
ATOM     13  N   UNL A   1      31.407  22.515  26.852  1.00  0.00    -0.326 N 
ATOM     14  H   UNL A   1      31.224  22.287  27.792  1.00  0.00     0.169 HD
ATOM     15  O   UNL A   1      29.672  23.820  27.131  1.00  0.00    -0.274 OA
BRANCH  13  16
ATOM     16  C   UNL A   1      32.388  21.696  26.286  1.00  0.00     0.041 A 
ATOM     17  C   UNL A   1      32.934  20.195  24.424  1.00  0.00    -0.045 A 
ATOM     18  C   UNL A   1      34.238  20.100  24.918  1.00  0.00     0.004 A 
ATOM     19  C   UNL A   1      32.043  21.060  25.082  1.00  0.00     0.029 A 
ATOM     20  C   UNL A   1      34.596  20.745  26.105  1.00  0.00     0.002 A 
ATOM     21  C   UNL A   1      33.667  21.524  26.803  1.00  0.00     0.026 A 
BRANCH  17  22
ATOM     22  C   UNL A   1      32.442  19.384  23.238  1.00  0.00     0.045 C 
BRANCH  22  23
ATOM     23  C   UNL A   1      32.152  17.898  23.492  1.00  0.00     0.105 C 
BRANCH  23  24
ATOM     24  C   UNL A   1      33.372  16.981  23.573  1.00  0.00     0.222 C 
ATOM     25  C   UNL A   1      34.977  15.797  25.021  1.00  0.00     0.146 C 
ATOM     26  N   UNL A   1      33.659  16.367  24.777  1.00  0.00    -0.349 N 
ATOM     27  C   UNL A   1      32.734  16.279  25.875  1.00  0.00     0.146 C 
ATOM     28  O   UNL A   1      34.106  16.867  22.588  1.00  0.00    -0.275 OA
ENDBRANCH  23  24
ENDBRANCH  22  23
ENDBRANCH  17  22
ENDBRANCH  13  16
ENDBRANCH   7  12
ENDBRANCH   3   6
ENDBRANCH   1   2
BRANCH   1  29
ATOM     29  C   UNL A   1      35.986  23.626  23.476  1.00  0.00     0.023 C 
BRANCH  29  30
ATOM     30  C   UNL A   1      36.817  22.376  23.725  1.00  0.00     0.023 C 
BRANCH  30  31
ATOM     31  C   UNL A   1      37.370  22.256  25.140  1.00  0.00     0.116 C 
BRANCH  31  32
ATOM     32  N   UNL A   1      38.241  21.097  25.341  1.00  0.00    -0.352 N 
ATOM     33  C   UNL A   1      39.425  20.996  26.044  1.00  0.00     0.251 C 
ATOM     34  H   UNL A   1      37.937  20.266  24.911  1.00  0.00     0.163 HD
ATOM     35  O   UNL A   1      40.081  19.967  26.011  1.00  0.00    -0.269 OA
BRANCH  33  36
ATOM     36  C   UNL A   1      39.888  22.175  26.803  1.00  0.00     0.039 A 
ATOM     37  C   UNL A   1      40.894  22.038  27.762  1.00  0.00     0.014 A 
ATOM     38  C   UNL A   1      39.408  23.432  26.446  1.00  0.00     0.014 A 
ATOM     39  C   UNL A   1      41.514  23.184  28.268  1.00  0.00     0.010 A 
ATOM     40  C   UNL A   1      40.112  24.553  26.845  1.00  0.00     0.010 A 
ATOM     41  C   UNL A   1      41.178  24.447  27.756  1.00  0.00    -0.014 A 
BRANCH  41  42
ATOM     42  C   UNL A   1      41.880  25.703  28.136  1.00  0.00     0.031 A 
ATOM     43  C   UNL A   1      41.099  26.759  28.872  1.00  0.00     0.074 A 
ATOM     44  C   UNL A   1      43.115  25.971  27.670  1.00  0.00     0.049 A 
ATOM     45  N   UNL A   1      41.332  28.038  28.994  1.00  0.00    -0.248 NA
ATOM     46  C   UNL A   1      39.829  26.317  29.468  1.00  0.00     0.031 C 
ATOM     47  C   UNL A   1      43.958  25.052  26.903  1.00  0.00     0.029 A 
ATOM     48  N   UNL A   1      43.864  27.120  27.744  1.00  0.00    -0.354 N 
ATOM     49  C   UNL A   1      40.200  28.566  29.606  1.00  0.00     0.074 A 
ATOM     50  C   UNL A   1      39.260  27.474  29.758  1.00  0.00     0.031 C 
ATOM     51  C   UNL A   1      45.109  25.668  26.588  1.00  0.00     0.029 A 
ATOM     52  C   UNL A   1      45.063  27.042  27.073  1.00  0.00     0.049 A 
ATOM     53  H   UNL A   1      43.570  27.923  28.232  1.00  0.00     0.167 HD
ATOM     54  C   UNL A   1      39.973  29.838  30.019  1.00  0.00     0.034 A 
ATOM     55  C   UNL A   1      46.002  27.982  26.850  1.00  0.00     0.034 A 
ATOM     56  C   UNL A   1      40.962  30.882  29.915  1.00  0.00     0.049 A 
ATOM     57  C   UNL A   1      45.774  29.375  27.381  1.00  0.00     0.074 A 
ATOM     58  C   UNL A   1      40.898  32.186  30.376  1.00  0.00     0.029 A 
ATOM     59  N   UNL A   1      42.210  30.733  29.320  1.00  0.00    -0.354 N 
ATOM     60  N   UNL A   1      44.710  29.865  27.977  1.00  0.00    -0.248 NA
ATOM     61  C   UNL A   1      46.870  30.336  27.217  1.00  0.00     0.031 C 
ATOM     62  C   UNL A   1      42.085  32.835  30.020  1.00  0.00     0.029 A 
ATOM     63  C   UNL A   1      42.919  31.919  29.397  1.00  0.00     0.049 A 
ATOM     64  H   UNL A   1      42.541  29.904  28.905  1.00  0.00     0.167 HD
ATOM     65  C   UNL A   1      45.025  31.183  28.292  1.00  0.00     0.074 A 
ATOM     66  C   UNL A   1      46.375  31.411  27.817  1.00  0.00     0.031 C 
ATOM     67  C   UNL A   1      44.270  32.117  28.924  1.00  0.00     0.034 A 
BRANCH  54  68
ATOM     68  C   UNL A   1      38.609  30.150  30.592  1.00  0.00     0.023 A 
ATOM     69  C   UNL A   1      37.572  30.667  29.795  1.00  0.00     0.031 A 
ATOM     70  C   UNL A   1      38.364  30.012  31.970  1.00  0.00     0.131 A 
ATOM     71  C   UNL A   1      36.401  31.152  30.394  1.00  0.00     0.055 A 
ATOM     72  C   UNL A   1      37.147  30.391  32.545  1.00  0.00     0.041 A 
ATOM     73  F   UNL A   1      39.314  29.539  32.791  1.00  0.00    -0.206 F 
ATOM     74  C   UNL A   1      36.167  30.992  31.760  1.00  0.00     0.022 A 
BRANCH  71  75
ATOM     75  S   UNL A   1      35.293  32.186  29.395  1.00  0.00     0.124 S 
ATOM     76  O   UNL A   1      34.366  32.684  30.409  1.00  0.00    -0.237 OA
ATOM     77  O   UNL A   1      36.207  33.170  28.827  1.00  0.00    -0.237 OA
ATOM     78  O   UNL A   1      34.713  31.244  28.441  1.00  0.00    -0.744 OA
ENDBRANCH  71  75
ENDBRANCH  54  68
BRANCH  55  79
ATOM     79  C   UNL A   1      47.238  27.641  26.092  1.00  0.00     0.023 A 
ATOM     80  C   UNL A   1      47.303  27.824  24.702  1.00  0.00     0.031 A 
ATOM     81  C   UNL A   1      48.377  27.135  26.744  1.00  0.00     0.131 A 
ATOM     82  C   UNL A   1      48.469  27.477  24.002  1.00  0.00     0.055 A 
ATOM     83  C   UNL A   1      49.549  26.828  26.050  1.00  0.00     0.041 A 
ATOM     84  F   UNL A   1      48.373  26.957  28.075  1.00  0.00    -0.206 F 
ATOM     85  C   UNL A   1      49.597  26.991  24.668  1.00  0.00     0.022 A 
BRANCH  82  86
ATOM     86  S   UNL A   1      48.477  27.630  22.195  1.00  0.00     0.124 S 
ATOM     87  O   UNL A   1      49.603  28.532  21.979  1.00  0.00    -0.237 OA
ATOM     88  O   UNL A   1      48.671  26.247  21.775  1.00  0.00    -0.237 OA
ATOM     89  O   UNL A   1      47.160  28.190  21.895  1.00  0.00    -0.744 OA
ENDBRANCH  82  86
ENDBRANCH  55  79
BRANCH  67  90
ATOM     90  C   UNL A   1      44.917  33.447  29.208  1.00  0.00     0.023 A 
ATOM     91  C   UNL A   1      44.733  34.559  28.370  1.00  0.00     0.031 A 
ATOM     92  C   UNL A   1      45.710  33.603  30.359  1.00  0.00     0.131 A 
ATOM     93  C   UNL A   1      45.363  35.774  28.679  1.00  0.00     0.055 A 
ATOM     94  C   UNL A   1      46.294  34.826  30.687  1.00  0.00     0.041 A 
ATOM     95  F   UNL A   1      45.916  32.570  31.191  1.00  0.00    -0.206 F 
ATOM     96  C   UNL A   1      46.128  35.920  29.841  1.00  0.00     0.022 A 
BRANCH  93  97
ATOM     97  S   UNL A   1      45.215  37.156  27.514  1.00  0.00     0.124 S 
ATOM     98  O   UNL A   1      43.872  36.956  26.977  1.00  0.00    -0.237 OA
ATOM     99  O   UNL A   1      45.390  38.317  28.379  1.00  0.00    -0.237 OA
ATOM    100  O   UNL A   1      46.302  36.922  26.565  1.00  0.00    -0.744 OA
ENDBRANCH  93  97
ENDBRANCH  67  90
ENDBRANCH  41  42
ENDBRANCH  33  36
ENDBRANCH  31  32
ENDBRANCH  30  31
ENDBRANCH  29  30
ENDBRANCH   1  29
TORSDOF 19
ENDMDL
MODEL 2
REMARK VINA RESULT:     -12.9      0.960      7.297
REMARK SMILES CN(C)C(=O)CCc1cccc(NC(=O)[C@H]2CCCC[C@@H]2C(=O)NCCCCNC(=O)c2ccc(-c3c4nc(c(-c5cc(S(=O)(=O)[O-])ccc5F)c5ccc([nH]5)c(-c5cc(S(=O)(=O)[O-])ccc5F)c5nc(c(-c6cc(S(=O)(=O)[O-])ccc6F)c6ccc3[nH]6)C=C5)C=C4)cc2)c1
REMARK SMILES IDX 25 1 24 2 22 3 23 4 21 6 16 7 17 8 18 9 20 10 19 11 14 12
REMARK SMILES IDX 13 13 15 15 12 16 8 17 9 18 95 19 10 20 11 21 7 22 6 23 4 24
REMARK SMILES IDX 1 25 2 26 3 27 5 28 26 29 27 30 28 31 29 32 30 33 31 35
REMARK SMILES IDX 32 36 33 37 94 38 34 39 93 40 35 41 36 42 37 43 87 44 38 45
REMARK SMILES IDX 92 46 86 47 88 48 39 49 91 50 85 51 84 52 40 54 72 55 52 56
REMARK SMILES IDX 71 57 53 58 56 59 70 60 89 61 54 62 55 63 69 65 90 66 57 67
REMARK SMILES IDX 41 68 42 69 50 70 43 71 49 72 51 73 48 74 44 75 45 76 46 77
REMARK SMILES IDX 47 78 73 79 74 80 82 81 75 82 81 83 83 84 80 85 76 86 77 87
REMARK SMILES IDX 78 88 79 89 58 90 59 91 67 92 60 93 66 94 68 95 65 96 61 97
REMARK SMILES IDX 62 98 63 99 64 100
REMARK H PARENT 24 5 13 14 29 34 88 53 56 64
REMARK Flexibility Score: inf
ROOT
ATOM      1  C   UNL A   1      34.961  23.395  23.867  1.00  0.00     0.116 C 
ENDROOT
BRANCH   1   2
ATOM      2  N   UNL A   1      34.604  24.685  23.323  1.00  0.00    -0.356 N 
ATOM      3  C   UNL A   1      33.577  25.506  23.673  1.00  0.00     0.223 C 
ATOM      4  O   UNL A   1      33.283  26.403  22.883  1.00  0.00    -0.275 OA
ATOM      5  H   UNL A   1      35.184  25.015  22.598  1.00  0.00     0.163 HD
BRANCH   3   6
ATOM      6  C   UNL A   1      32.858  25.308  25.017  1.00  0.00     0.091 C 
ATOM      7  C   UNL A   1      31.319  25.308  24.841  1.00  0.00     0.091 C 
ATOM      8  C   UNL A   1      30.807  26.737  24.511  1.00  0.00     0.014 C 
ATOM      9  C   UNL A   1      31.307  27.807  25.485  1.00  0.00     0.001 C 
ATOM     10  C   UNL A   1      33.308  26.365  26.039  1.00  0.00     0.014 C 
ATOM     11  C   UNL A   1      32.816  27.764  25.686  1.00  0.00     0.001 C 
BRANCH   7  12
ATOM     12  C   UNL A   1      30.574  24.777  26.078  1.00  0.00     0.228 C 
ATOM     13  N   UNL A   1      31.060  23.810  26.900  1.00  0.00    -0.326 N 
ATOM     14  H   UNL A   1      30.615  23.806  27.778  1.00  0.00     0.169 HD
ATOM     15  O   UNL A   1      29.491  25.262  26.432  1.00  0.00    -0.274 OA
BRANCH  13  16
ATOM     16  C   UNL A   1      32.042  22.820  26.795  1.00  0.00     0.041 A 
ATOM     17  C   UNL A   1      32.879  20.944  25.455  1.00  0.00    -0.045 A 
ATOM     18  C   UNL A   1      33.970  20.844  26.325  1.00  0.00     0.004 A 
ATOM     19  C   UNL A   1      31.964  21.989  25.665  1.00  0.00     0.029 A 
ATOM     20  C   UNL A   1      34.065  21.680  27.442  1.00  0.00     0.002 A 
ATOM     21  C   UNL A   1      33.091  22.652  27.692  1.00  0.00     0.026 A 
BRANCH  17  22
ATOM     22  C   UNL A   1      32.634  19.957  24.327  1.00  0.00     0.045 C 
BRANCH  22  23
ATOM     23  C   UNL A   1      33.479  18.677  24.336  1.00  0.00     0.105 C 
BRANCH  23  24
ATOM     24  C   UNL A   1      32.852  17.463  25.022  1.00  0.00     0.222 C 
ATOM     25  C   UNL A   1      32.963  15.037  25.440  1.00  0.00     0.146 C 
ATOM     26  N   UNL A   1      33.604  16.311  25.145  1.00  0.00    -0.349 N 
ATOM     27  C   UNL A   1      35.029  16.257  24.953  1.00  0.00     0.146 C 
ATOM     28  O   UNL A   1      31.675  17.519  25.385  1.00  0.00    -0.275 OA
ENDBRANCH  23  24
ENDBRANCH  22  23
ENDBRANCH  17  22
ENDBRANCH  13  16
ENDBRANCH   7  12
ENDBRANCH   3   6
ENDBRANCH   1   2
BRANCH   1  29
ATOM     29  C   UNL A   1      36.437  23.099  23.596  1.00  0.00     0.023 C 
BRANCH  29  30
ATOM     30  C   UNL A   1      36.905  21.732  24.073  1.00  0.00     0.023 C 
BRANCH  30  31
ATOM     31  C   UNL A   1      37.365  21.693  25.526  1.00  0.00     0.116 C 
BRANCH  31  32
ATOM     32  N   UNL A   1      38.509  20.810  25.762  1.00  0.00    -0.352 N 
ATOM     33  C   UNL A   1      39.745  21.095  26.306  1.00  0.00     0.251 C 
ATOM     34  H   UNL A   1      38.376  19.872  25.493  1.00  0.00     0.163 HD
ATOM     35  O   UNL A   1      40.626  20.251  26.324  1.00  0.00    -0.269 OA
BRANCH  33  36
ATOM     36  C   UNL A   1      39.979  22.456  26.830  1.00  0.00     0.039 A 
ATOM     37  C   UNL A   1      40.959  22.673  27.800  1.00  0.00     0.014 A 
ATOM     38  C   UNL A   1      39.310  23.524  26.239  1.00  0.00     0.014 A 
ATOM     39  C   UNL A   1      41.363  23.982  28.081  1.00  0.00     0.010 A 
ATOM     40  C   UNL A   1      39.804  24.804  26.420  1.00  0.00     0.010 A 
ATOM     41  C   UNL A   1      40.840  25.052  27.339  1.00  0.00    -0.014 A 
BRANCH  41  42
ATOM     42  C   UNL A   1      41.309  26.457  27.476  1.00  0.00     0.031 A 
ATOM     43  C   UNL A   1      42.656  26.815  26.907  1.00  0.00     0.074 A 
ATOM     44  C   UNL A   1      40.642  27.335  28.249  1.00  0.00     0.049 A 
ATOM     45  N   UNL A   1      43.444  27.817  27.192  1.00  0.00    -0.248 NA
ATOM     46  C   UNL A   1      43.227  25.849  25.956  1.00  0.00     0.031 C 
ATOM     47  C   UNL A   1      39.351  27.095  28.898  1.00  0.00     0.029 A 
ATOM     48  N   UNL A   1      40.982  28.602  28.654  1.00  0.00    -0.354 N 
ATOM     49  C   UNL A   1      44.634  27.556  26.521  1.00  0.00     0.074 A 
ATOM     50  C   UNL A   1      44.478  26.267  25.879  1.00  0.00     0.031 C 
ATOM     51  C   UNL A   1      39.005  28.181  29.607  1.00  0.00     0.029 A 
ATOM     52  C   UNL A   1      40.074  29.169  29.518  1.00  0.00     0.049 A 
ATOM     53  H   UNL A   1      41.799  29.062  28.353  1.00  0.00     0.167 HD
ATOM     54  C   UNL A   1      45.745  28.329  26.432  1.00  0.00     0.034 A 
ATOM     55  C   UNL A   1      40.114  30.340  30.185  1.00  0.00     0.034 A 
ATOM     56  C   UNL A   1      45.836  29.640  27.026  1.00  0.00     0.049 A 
ATOM     57  C   UNL A   1      41.322  31.226  30.018  1.00  0.00     0.074 A 
ATOM     58  C   UNL A   1      46.863  30.563  26.936  1.00  0.00     0.029 A 
ATOM     59  N   UNL A   1      44.846  30.223  27.810  1.00  0.00    -0.354 N 
ATOM     60  N   UNL A   1      42.437  30.986  29.366  1.00  0.00    -0.248 NA
ATOM     61  C   UNL A   1      41.275  32.541  30.669  1.00  0.00     0.031 C 
ATOM     62  C   UNL A   1      46.515  31.682  27.701  1.00  0.00     0.029 A 
ATOM     63  C   UNL A   1      45.241  31.487  28.214  1.00  0.00     0.049 A 
ATOM     64  H   UNL A   1      43.989  29.799  28.043  1.00  0.00     0.167 HD
ATOM     65  C   UNL A   1      43.210  32.135  29.497  1.00  0.00     0.074 A 
ATOM     66  C   UNL A   1      42.435  33.066  30.294  1.00  0.00     0.031 C 
ATOM     67  C   UNL A   1      44.443  32.400  28.999  1.00  0.00     0.034 A 
BRANCH  54  68
ATOM     68  C   UNL A   1      46.932  27.758  25.688  1.00  0.00     0.023 A 
ATOM     69  C   UNL A   1      47.253  28.169  24.382  1.00  0.00     0.031 A 
ATOM     70  C   UNL A   1      47.702  26.727  26.254  1.00  0.00     0.131 A 
ATOM     71  C   UNL A   1      48.214  27.466  23.641  1.00  0.00     0.055 A 
ATOM     72  C   UNL A   1      48.738  26.107  25.549  1.00  0.00     0.041 A 
ATOM     73  F   UNL A   1      47.441  26.275  27.491  1.00  0.00    -0.206 F 
ATOM     74  C   UNL A   1      48.980  26.456  24.224  1.00  0.00     0.022 A 
BRANCH  71  75
ATOM     75  S   UNL A   1      48.289  27.749  21.850  1.00  0.00     0.124 S 
ATOM     76  O   UNL A   1      48.505  26.393  21.350  1.00  0.00    -0.237 OA
ATOM     77  O   UNL A   1      46.983  28.332  21.568  1.00  0.00    -0.237 OA
ATOM     78  O   UNL A   1      49.426  28.652  21.692  1.00  0.00    -0.744 OA
ENDBRANCH  71  75
ENDBRANCH  54  68
BRANCH  55  79
ATOM     79  C   UNL A   1      38.981  30.739  31.066  1.00  0.00     0.023 A 
ATOM     80  C   UNL A   1      37.838  31.354  30.531  1.00  0.00     0.031 A 
ATOM     81  C   UNL A   1      39.018  30.506  32.452  1.00  0.00     0.131 A 
ATOM     82  C   UNL A   1      36.790  31.743  31.380  1.00  0.00     0.055 A 
ATOM     83  C   UNL A   1      37.956  30.858  33.287  1.00  0.00     0.041 A 
ATOM     84  F   UNL A   1      40.081  29.906  33.011  1.00  0.00    -0.206 F 
ATOM     85  C   UNL A   1      36.835  31.488  32.752  1.00  0.00     0.022 A 
BRANCH  82  86
ATOM     86  S   UNL A   1      35.376  32.627  30.666  1.00  0.00     0.124 S 
ATOM     87  O   UNL A   1      35.870  34.000  30.636  1.00  0.00    -0.237 OA
ATOM     88  O   UNL A   1      35.229  31.969  29.373  1.00  0.00    -0.237 OA
ATOM     89  O   UNL A   1      34.298  32.371  31.619  1.00  0.00    -0.744 OA
ENDBRANCH  82  86
ENDBRANCH  55  79
BRANCH  67  90
ATOM     90  C   UNL A   1      44.998  33.781  29.234  1.00  0.00     0.023 A 
ATOM     91  C   UNL A   1      44.717  34.854  28.373  1.00  0.00     0.031 A 
ATOM     92  C   UNL A   1      45.802  34.024  30.363  1.00  0.00     0.131 A 
ATOM     93  C   UNL A   1      45.264  36.119  28.638  1.00  0.00     0.055 A 
ATOM     94  C   UNL A   1      46.303  35.294  30.647  1.00  0.00     0.041 A 
ATOM     95  F   UNL A   1      46.100  33.030  31.215  1.00  0.00    -0.206 F 
ATOM     96  C   UNL A   1      46.041  36.349  29.777  1.00  0.00     0.022 A 
BRANCH  93  97
ATOM     97  S   UNL A   1      44.992  37.455  27.442  1.00  0.00     0.124 S 
ATOM     98  O   UNL A   1      46.135  37.297  26.547  1.00  0.00    -0.237 OA
ATOM     99  O   UNL A   1      43.690  37.113  26.879  1.00  0.00    -0.237 OA
ATOM    100  O   UNL A   1      45.012  38.662  28.266  1.00  0.00    -0.744 OA
ENDBRANCH  93  97
ENDBRANCH  67  90
ENDBRANCH  41  42
ENDBRANCH  33  36
ENDBRANCH  31  32
ENDBRANCH  30  31
ENDBRANCH  29  30
ENDBRANCH   1  29
TORSDOF 19
ENDMDL
MODEL 3
REMARK VINA RESULT:     -12.6      2.569      7.584
REMARK SMILES CN(C)C(=O)CCc1cccc(NC(=O)[C@H]2CCCC[C@@H]2C(=O)NCCCCNC(=O)c2ccc(-c3c4nc(c(-c5cc(S(=O)(=O)[O-])ccc5F)c5ccc([nH]5)c(-c5cc(S(=O)(=O)[O-])ccc5F)c5nc(c(-c6cc(S(=O)(=O)[O-])ccc6F)c6ccc3[nH]6)C=C5)C=C4)cc2)c1
REMARK SMILES IDX 25 1 24 2 22 3 23 4 21 6 16 7 17 8 18 9 20 10 19 11 14 12
REMARK SMILES IDX 13 13 15 15 12 16 8 17 9 18 95 19 10 20 11 21 7 22 6 23 4 24
REMARK SMILES IDX 1 25 2 26 3 27 5 28 26 29 27 30 28 31 29 32 30 33 31 35
REMARK SMILES IDX 32 36 33 37 94 38 34 39 93 40 35 41 36 42 37 43 87 44 38 45
REMARK SMILES IDX 92 46 86 47 88 48 39 49 91 50 85 51 84 52 40 54 72 55 52 56
REMARK SMILES IDX 71 57 53 58 56 59 70 60 89 61 54 62 55 63 69 65 90 66 57 67
REMARK SMILES IDX 41 68 42 69 50 70 43 71 49 72 51 73 48 74 44 75 45 76 46 77
REMARK SMILES IDX 47 78 73 79 74 80 82 81 75 82 81 83 83 84 80 85 76 86 77 87
REMARK SMILES IDX 78 88 79 89 58 90 59 91 67 92 60 93 66 94 68 95 65 96 61 97
REMARK SMILES IDX 62 98 63 99 64 100
REMARK H PARENT 24 5 13 14 29 34 88 53 56 64
REMARK Flexibility Score: inf
ROOT
ATOM      1  C   UNL A   1      34.956  23.475  23.960  1.00  0.00     0.116 C 
ENDROOT
BRANCH   1   2
ATOM      2  N   UNL A   1      34.682  24.803  23.460  1.00  0.00    -0.356 N 
ATOM      3  C   UNL A   1      33.693  25.666  23.822  1.00  0.00     0.223 C 
ATOM      4  O   UNL A   1      33.466  26.607  23.062  1.00  0.00    -0.275 OA
ATOM      5  H   UNL A   1      35.294  25.128  22.760  1.00  0.00     0.163 HD
BRANCH   3   6
ATOM      6  C   UNL A   1      32.936  25.456  25.142  1.00  0.00     0.091 C 
ATOM      7  C   UNL A   1      31.404  25.409  24.914  1.00  0.00     0.091 C 
ATOM      8  C   UNL A   1      30.861  26.819  24.555  1.00  0.00     0.014 C 
ATOM      9  C   UNL A   1      31.296  27.911  25.536  1.00  0.00     0.001 C 
ATOM     10  C   UNL A   1      33.318  26.534  26.170  1.00  0.00     0.014 C 
ATOM     11  C   UNL A   1      32.798  27.915  25.788  1.00  0.00     0.001 C 
BRANCH   7  12
ATOM     12  C   UNL A   1      30.634  24.865  26.130  1.00  0.00     0.228 C 
ATOM     13  N   UNL A   1      31.092  23.872  26.937  1.00  0.00    -0.326 N 
ATOM     14  H   UNL A   1      30.635  23.858  27.809  1.00  0.00     0.169 HD
ATOM     15  O   UNL A   1      29.554  25.361  26.480  1.00  0.00    -0.274 OA
BRANCH  13  16
ATOM     16  C   UNL A   1      32.058  22.868  26.824  1.00  0.00     0.041 A 
ATOM     17  C   UNL A   1      32.802  20.922  25.530  1.00  0.00    -0.045 A 
ATOM     18  C   UNL A   1      33.939  20.851  26.340  1.00  0.00     0.004 A 
ATOM     19  C   UNL A   1      31.909  21.986  25.741  1.00  0.00     0.029 A 
ATOM     20  C   UNL A   1      34.105  21.737  27.409  1.00  0.00     0.002 A 
ATOM     21  C   UNL A   1      33.155  22.730  27.668  1.00  0.00     0.026 A 
BRANCH  17  22
ATOM     22  C   UNL A   1      32.485  19.887  24.465  1.00  0.00     0.045 C 
BRANCH  22  23
ATOM     23  C   UNL A   1      32.488  18.418  24.909  1.00  0.00     0.105 C 
BRANCH  23  24
ATOM     24  C   UNL A   1      33.798  17.658  24.705  1.00  0.00     0.222 C 
ATOM     25  C   UNL A   1      35.178  15.712  25.325  1.00  0.00     0.146 C 
ATOM     26  N   UNL A   1      33.881  16.353  25.153  1.00  0.00    -0.349 N 
ATOM     27  C   UNL A   1      32.743  15.554  25.519  1.00  0.00     0.146 C 
ATOM     28  O   UNL A   1      34.764  18.245  24.213  1.00  0.00    -0.275 OA
ENDBRANCH  23  24
ENDBRANCH  22  23
ENDBRANCH  17  22
ENDBRANCH  13  16
ENDBRANCH   7  12
ENDBRANCH   3   6
ENDBRANCH   1   2
BRANCH   1  29
ATOM     29  C   UNL A   1      36.259  22.945  23.360  1.00  0.00     0.023 C 
BRANCH  29  30
ATOM     30  C   UNL A   1      36.994  21.942  24.235  1.00  0.00     0.023 C 
BRANCH  30  31
ATOM     31  C   UNL A   1      37.423  22.483  25.595  1.00  0.00     0.116 C 
BRANCH  31  32
ATOM     32  N   UNL A   1      38.653  21.881  26.112  1.00  0.00    -0.352 N 
ATOM     33  C   UNL A   1      39.738  22.479  26.720  1.00  0.00     0.251 C 
ATOM     34  H   UNL A   1      38.715  20.904  26.011  1.00  0.00     0.163 HD
ATOM     35  O   UNL A   1      40.736  21.830  26.989  1.00  0.00    -0.269 OA
BRANCH  33  36
ATOM     36  C   UNL A   1      39.670  23.927  27.000  1.00  0.00     0.039 A 
ATOM     37  C   UNL A   1      39.370  24.377  28.287  1.00  0.00     0.014 A 
ATOM     38  C   UNL A   1      40.047  24.821  26.001  1.00  0.00     0.014 A 
ATOM     39  C   UNL A   1      39.580  25.723  28.606  1.00  0.00     0.010 A 
ATOM     40  C   UNL A   1      40.382  26.116  26.355  1.00  0.00     0.010 A 
ATOM     41  C   UNL A   1      40.159  26.585  27.662  1.00  0.00    -0.014 A 
BRANCH  41  42
ATOM     42  C   UNL A   1      40.543  27.991  27.957  1.00  0.00     0.031 A 
ATOM     43  C   UNL A   1      42.003  28.353  27.915  1.00  0.00     0.074 A 
ATOM     44  C   UNL A   1      39.638  28.868  28.435  1.00  0.00     0.049 A 
ATOM     45  N   UNL A   1      42.632  29.358  28.464  1.00  0.00    -0.248 NA
ATOM     46  C   UNL A   1      42.883  27.388  27.236  1.00  0.00     0.031 C 
ATOM     47  C   UNL A   1      38.201  28.624  28.573  1.00  0.00     0.029 A 
ATOM     48  N   UNL A   1      39.806  30.136  28.933  1.00  0.00    -0.354 N 
ATOM     49  C   UNL A   1      43.985  29.100  28.269  1.00  0.00     0.074 A 
ATOM     50  C   UNL A   1      44.076  27.811  27.617  1.00  0.00     0.031 C 
ATOM     51  C   UNL A   1      37.618  29.710  29.106  1.00  0.00     0.029 A 
ATOM     52  C   UNL A   1      38.644  30.701  29.408  1.00  0.00     0.049 A 
ATOM     53  H   UNL A   1      40.675  30.598  28.948  1.00  0.00     0.167 HD
ATOM     54  C   UNL A   1      45.051  29.877  28.589  1.00  0.00     0.034 A 
ATOM     55  C   UNL A   1      38.437  31.872  30.043  1.00  0.00     0.034 A 
ATOM     56  C   UNL A   1      44.917  31.189  29.172  1.00  0.00     0.049 A 
ATOM     57  C   UNL A   1      39.621  32.762  30.324  1.00  0.00     0.074 A 
ATOM     58  C   UNL A   1      45.904  32.115  29.460  1.00  0.00     0.029 A 
ATOM     59  N   UNL A   1      43.709  31.769  29.543  1.00  0.00    -0.354 N 
ATOM     60  N   UNL A   1      40.897  32.525  30.120  1.00  0.00    -0.248 NA
ATOM     61  C   UNL A   1      39.339  34.078  30.911  1.00  0.00     0.031 C 
ATOM     62  C   UNL A   1      45.300  33.232  30.044  1.00  0.00     0.029 A 
ATOM     63  C   UNL A   1      43.927  33.034  30.061  1.00  0.00     0.049 A 
ATOM     64  H   UNL A   1      42.827  31.342  29.451  1.00  0.00     0.167 HD
ATOM     65  C   UNL A   1      41.567  33.676  30.520  1.00  0.00     0.074 A 
ATOM     66  C   UNL A   1      40.553  34.606  30.980  1.00  0.00     0.031 C 
ATOM     67  C   UNL A   1      42.897  33.945  30.502  1.00  0.00     0.034 A 
BRANCH  54  68
ATOM     68  C   UNL A   1      46.428  29.309  28.326  1.00  0.00     0.023 A 
ATOM     69  C   UNL A   1      47.111  28.548  29.292  1.00  0.00     0.031 A 
ATOM     70  C   UNL A   1      47.106  29.602  27.130  1.00  0.00     0.131 A 
ATOM     71  C   UNL A   1      48.463  28.229  29.106  1.00  0.00     0.055 A 
ATOM     72  C   UNL A   1      48.419  29.179  26.902  1.00  0.00     0.041 A 
ATOM     73  F   UNL A   1      46.519  30.336  26.171  1.00  0.00    -0.206 F 
ATOM     74  C   UNL A   1      49.116  28.512  27.906  1.00  0.00     0.022 A 
BRANCH  71  75
ATOM     75  S   UNL A   1      49.406  27.634  30.538  1.00  0.00     0.124 S 
ATOM     76  O   UNL A   1      49.086  26.208  30.526  1.00  0.00    -0.237 OA
ATOM     77  O   UNL A   1      50.776  27.983  30.181  1.00  0.00    -0.237 OA
ATOM     78  O   UNL A   1      48.839  28.382  31.657  1.00  0.00    -0.744 OA
ENDBRANCH  71  75
ENDBRANCH  54  68
BRANCH  55  79
ATOM     79  C   UNL A   1      37.061  32.269  30.453  1.00  0.00     0.023 A 
ATOM     80  C   UNL A   1      36.191  32.889  29.543  1.00  0.00     0.031 A 
ATOM     81  C   UNL A   1      36.591  32.027  31.756  1.00  0.00     0.131 A 
ATOM     82  C   UNL A   1      34.906  33.275  29.953  1.00  0.00     0.055 A 
ATOM     83  C   UNL A   1      35.297  32.376  32.149  1.00  0.00     0.041 A 
ATOM     84  F   UNL A   1      37.377  31.422  32.660  1.00  0.00    -0.206 F 
ATOM     85  C   UNL A   1      34.448  33.012  31.246  1.00  0.00     0.022 A 
BRANCH  82  86
ATOM     86  S   UNL A   1      33.849  34.166  28.779  1.00  0.00     0.124 S 
ATOM     87  O   UNL A   1      34.801  35.081  28.159  1.00  0.00    -0.237 OA
ATOM     88  O   UNL A   1      33.354  33.084  27.935  1.00  0.00    -0.237 OA
ATOM     89  O   UNL A   1      32.844  34.794  29.634  1.00  0.00    -0.744 OA
ENDBRANCH  82  86
ENDBRANCH  55  79
BRANCH  67  90
ATOM     90  C   UNL A   1      43.325  35.328  30.920  1.00  0.00     0.023 A 
ATOM     91  C   UNL A   1      43.443  36.382  30.000  1.00  0.00     0.031 A 
ATOM     92  C   UNL A   1      43.590  35.593  32.276  1.00  0.00     0.131 A 
ATOM     93  C   UNL A   1      43.851  37.649  30.443  1.00  0.00     0.055 A 
ATOM     94  C   UNL A   1      43.947  36.866  32.718  1.00  0.00     0.041 A 
ATOM     95  F   UNL A   1      43.491  34.618  33.194  1.00  0.00    -0.206 F 
ATOM     96  C   UNL A   1      44.087  37.902  31.798  1.00  0.00     0.022 A 
BRANCH  93  97
ATOM     97  S   UNL A   1      44.122  38.958  29.217  1.00  0.00     0.124 S 
ATOM     98  O   UNL A   1      43.057  39.903  29.543  1.00  0.00    -0.237 OA
ATOM     99  O   UNL A   1      45.479  39.398  29.521  1.00  0.00    -0.237 OA
ATOM    100  O   UNL A   1      43.967  38.267  27.938  1.00  0.00    -0.744 OA
ENDBRANCH  93  97
ENDBRANCH  67  90
ENDBRANCH  41  42
ENDBRANCH  33  36
ENDBRANCH  31  32
ENDBRANCH  30  31
ENDBRANCH  29  30
ENDBRANCH   1  29
TORSDOF 19
ENDMDL
