MODEL 1
REMARK VINA RESULT:     -12.3      0.000      0.000
REMARK SMILES CC(C)[C@@H](NC(=O)/C(=C\c1ccccc1F)NC(=O)c1ccccc1)C(=O)NCCCCNC(=O)c1ccc(-c2c3nc(c(-c4cc(S(=O)(=O)[O-])ccc4F)c4ccc([nH]4)c(-c4cc(S(=O)(=O)[O-])ccc4F)c4nc(c(-c5cc(S(=O)(=O)[O-])ccc5F)c5ccc2[nH]5)C=C4)C=C3)cc1
REMARK SMILES IDX 30 1 29 2 28 3 26 4 27 5 4 7 2 8 1 9 3 10 5 11 6 12 7 14
REMARK SMILES IDX 8 15 9 16 17 17 18 18 19 20 20 21 21 22 25 23 22 24 24 25
REMARK SMILES IDX 23 26 10 27 11 28 15 29 12 30 14 31 16 32 13 33 31 34 32 35
REMARK SMILES IDX 33 36 34 37 35 39 36 40 37 41 98 42 38 43 97 44 39 45 40 46
REMARK SMILES IDX 41 47 91 48 42 49 96 50 90 51 92 52 43 53 95 54 89 55 88 56
REMARK SMILES IDX 44 58 76 59 56 60 75 61 57 62 60 63 74 64 93 65 58 66 59 67
REMARK SMILES IDX 73 69 94 70 61 71 45 72 46 73 54 74 47 75 53 76 55 77 52 78
REMARK SMILES IDX 48 79 49 80 50 81 51 82 77 83 78 84 86 85 79 86 85 87 87 88
REMARK SMILES IDX 84 89 80 90 81 91 82 92 83 93 62 94 63 95 71 96 64 97 70 98
REMARK SMILES IDX 72 99 69 100 65 101 66 102 67 103 68 104
REMARK H PARENT 28 6 5 13 17 19 33 38 92 57 60 68
REMARK Flexibility Score: inf
ROOT
ATOM      1  C   UNL A   1      36.657  23.248  23.480  1.00  0.00     0.023 C 
ENDROOT
BRANCH   1   2
ATOM      2  C   UNL A   1      35.230  23.657  23.830  1.00  0.00     0.116 C 
BRANCH   2   3
ATOM      3  N   UNL A   1      34.371  23.232  22.754  1.00  0.00    -0.354 N 
ATOM      4  C   UNL A   1      33.041  23.486  22.668  1.00  0.00     0.242 C 
ATOM      5  O   UNL A   1      32.297  22.548  22.373  1.00  0.00    -0.273 OA
ATOM      6  H   UNL A   1      34.781  22.717  22.023  1.00  0.00     0.163 HD
BRANCH   4   7
ATOM      7  C   UNL A   1      32.481  24.838  23.109  1.00  0.00     0.174 C 
BRANCH   7   8
ATOM      8  C   UNL A   1      32.876  25.932  22.053  1.00  0.00     0.015 C 
ATOM      9  C   UNL A   1      31.869  26.013  20.902  1.00  0.00     0.010 C 
ATOM     10  C   UNL A   1      33.014  27.344  22.654  1.00  0.00     0.010 C 
ENDBRANCH   7   8
BRANCH   7  11
ATOM     11  N   UNL A   1      31.024  24.815  23.396  1.00  0.00    -0.339 N 
ATOM     12  C   UNL A   1      30.348  25.618  24.294  1.00  0.00     0.268 C 
ATOM     13  H   UNL A   1      30.486  24.161  22.896  1.00  0.00     0.164 HD
ATOM     14  O   UNL A   1      29.422  26.311  23.866  1.00  0.00    -0.268 OA
BRANCH  12  15
ATOM     15  C   UNL A   1      30.525  25.453  25.789  1.00  0.00     0.107 C 
ATOM     16  C   UNL A   1      31.241  26.289  26.574  1.00  0.00     0.043 C 
BRANCH  15  17
ATOM     17  N   UNL A   1      29.849  24.451  26.478  1.00  0.00    -0.317 N 
ATOM     18  C   UNL A   1      30.124  23.178  26.902  1.00  0.00     0.255 C 
ATOM     19  H   UNL A   1      28.936  24.728  26.723  1.00  0.00     0.170 HD
ATOM     20  O   UNL A   1      29.230  22.533  27.452  1.00  0.00    -0.269 OA
BRANCH  18  21
ATOM     21  C   UNL A   1      31.425  22.531  26.737  1.00  0.00     0.040 A 
ATOM     22  C   UNL A   1      32.469  22.909  27.586  1.00  0.00     0.014 A 
ATOM     23  C   UNL A   1      31.657  21.675  25.659  1.00  0.00     0.014 A 
ATOM     24  C   UNL A   1      33.739  22.365  27.396  1.00  0.00     0.001 A 
ATOM     25  C   UNL A   1      32.925  21.126  25.480  1.00  0.00     0.001 A 
ATOM     26  C   UNL A   1      33.961  21.465  26.352  1.00  0.00     0.000 A 
ENDBRANCH  18  21
ENDBRANCH  15  17
BRANCH  16  27
ATOM     27  C   UNL A   1      32.114  27.426  26.265  1.00  0.00     0.012 A 
ATOM     28  C   UNL A   1      31.500  28.689  26.171  1.00  0.00     0.011 A 
ATOM     29  C   UNL A   1      33.494  27.347  26.096  1.00  0.00     0.130 A 
ATOM     30  C   UNL A   1      32.270  29.849  26.057  1.00  0.00     0.001 A 
ATOM     31  C   UNL A   1      34.266  28.499  25.966  1.00  0.00     0.040 A 
ATOM     32  F   UNL A   1      34.113  26.159  26.088  1.00  0.00    -0.206 F 
ATOM     33  C   UNL A   1      33.657  29.754  25.982  1.00  0.00     0.003 A 
ENDBRANCH  16  27
ENDBRANCH  12  15
ENDBRANCH   7  11
ENDBRANCH   4   7
ENDBRANCH   2   3
ENDBRANCH   1   2
BRANCH   1  34
ATOM     34  C   UNL A   1      37.017  21.877  24.055  1.00  0.00     0.023 C 
BRANCH  34  35
ATOM     35  C   UNL A   1      37.446  21.929  25.516  1.00  0.00     0.116 C 
BRANCH  35  36
ATOM     36  N   UNL A   1      38.305  20.804  25.858  1.00  0.00    -0.352 N 
ATOM     37  C   UNL A   1      39.592  20.839  26.334  1.00  0.00     0.251 C 
ATOM     38  H   UNL A   1      37.914  19.910  25.732  1.00  0.00     0.163 HD
ATOM     39  O   UNL A   1      40.287  19.838  26.332  1.00  0.00    -0.269 OA
BRANCH  37  40
ATOM     40  C   UNL A   1      40.097  22.132  26.826  1.00  0.00     0.039 A 
ATOM     41  C   UNL A   1      41.020  22.153  27.870  1.00  0.00     0.014 A 
ATOM     42  C   UNL A   1      39.710  23.306  26.173  1.00  0.00     0.014 A 
ATOM     43  C   UNL A   1      41.603  23.368  28.231  1.00  0.00     0.010 A 
ATOM     44  C   UNL A   1      40.352  24.495  26.479  1.00  0.00     0.010 A 
ATOM     45  C   UNL A   1      41.296  24.539  27.518  1.00  0.00    -0.014 A 
BRANCH  45  46
ATOM     46  C   UNL A   1      41.920  25.839  27.853  1.00  0.00     0.031 A 
ATOM     47  C   UNL A   1      41.117  26.863  28.607  1.00  0.00     0.074 A 
ATOM     48  C   UNL A   1      43.158  26.127  27.410  1.00  0.00     0.049 A 
ATOM     49  N   UNL A   1      41.405  28.110  28.865  1.00  0.00    -0.248 NA
ATOM     50  C   UNL A   1      39.799  26.433  29.100  1.00  0.00     0.031 C 
ATOM     51  C   UNL A   1      44.017  25.221  26.644  1.00  0.00     0.029 A 
ATOM     52  N   UNL A   1      43.905  27.271  27.531  1.00  0.00    -0.354 N 
ATOM     53  C   UNL A   1      40.293  28.623  29.525  1.00  0.00     0.074 A 
ATOM     54  C   UNL A   1      39.308  27.565  29.580  1.00  0.00     0.031 C 
ATOM     55  C   UNL A   1      45.182  25.836  26.384  1.00  0.00     0.029 A 
ATOM     56  C   UNL A   1      45.133  27.194  26.917  1.00  0.00     0.049 A 
ATOM     57  H   UNL A   1      43.593  28.071  28.011  1.00  0.00     0.167 HD
ATOM     58  C   UNL A   1      40.121  29.857  30.051  1.00  0.00     0.034 A 
ATOM     59  C   UNL A   1      46.101  28.120  26.781  1.00  0.00     0.034 A 
ATOM     60  C   UNL A   1      41.129  30.886  30.018  1.00  0.00     0.049 A 
ATOM     61  C   UNL A   1      45.885  29.490  27.365  1.00  0.00     0.074 A 
ATOM     62  C   UNL A   1      41.088  32.146  30.585  1.00  0.00     0.029 A 
ATOM     63  N   UNL A   1      42.359  30.773  29.381  1.00  0.00    -0.354 N 
ATOM     64  N   UNL A   1      44.836  29.958  28.001  1.00  0.00    -0.248 NA
ATOM     65  C   UNL A   1      46.979  30.458  27.209  1.00  0.00     0.031 C 
ATOM     66  C   UNL A   1      42.264  32.819  30.238  1.00  0.00     0.029 A 
ATOM     67  C   UNL A   1      43.070  31.954  29.514  1.00  0.00     0.049 A 
ATOM     68  H   UNL A   1      42.677  29.971  28.907  1.00  0.00     0.167 HD
ATOM     69  C   UNL A   1      45.147  31.273  28.330  1.00  0.00     0.074 A 
ATOM     70  C   UNL A   1      46.487  31.519  27.835  1.00  0.00     0.031 C 
ATOM     71  C   UNL A   1      44.394  32.192  28.987  1.00  0.00     0.034 A 
BRANCH  58  72
ATOM     72  C   UNL A   1      38.789  30.166  30.683  1.00  0.00     0.023 A 
ATOM     73  C   UNL A   1      37.810  30.920  30.012  1.00  0.00     0.031 A 
ATOM     74  C   UNL A   1      38.497  29.704  31.978  1.00  0.00     0.131 A 
ATOM     75  C   UNL A   1      36.608  31.237  30.661  1.00  0.00     0.055 A 
ATOM     76  C   UNL A   1      37.271  29.964  32.591  1.00  0.00     0.041 A 
ATOM     77  F   UNL A   1      39.404  28.998  32.672  1.00  0.00    -0.206 F 
ATOM     78  C   UNL A   1      36.322  30.744  31.937  1.00  0.00     0.022 A 
BRANCH  75  79
ATOM     79  S   UNL A   1      35.460  32.384  29.851  1.00  0.00     0.124 S 
ATOM     80  O   UNL A   1      34.405  32.501  30.855  1.00  0.00    -0.237 OA
ATOM     81  O   UNL A   1      36.286  33.570  29.653  1.00  0.00    -0.237 OA
ATOM     82  O   UNL A   1      35.077  31.679  28.630  1.00  0.00    -0.744 OA
ENDBRANCH  75  79
ENDBRANCH  58  72
BRANCH  59  83
ATOM     83  C   UNL A   1      47.348  27.782  26.043  1.00  0.00     0.023 A 
ATOM     84  C   UNL A   1      47.418  27.910  24.648  1.00  0.00     0.031 A 
ATOM     85  C   UNL A   1      48.497  27.354  26.730  1.00  0.00     0.131 A 
ATOM     86  C   UNL A   1      48.613  27.602  23.979  1.00  0.00     0.055 A 
ATOM     87  C   UNL A   1      49.693  27.080  26.065  1.00  0.00     0.041 A 
ATOM     88  F   UNL A   1      48.482  27.231  28.067  1.00  0.00    -0.206 F 
ATOM     89  C   UNL A   1      49.755  27.201  24.680  1.00  0.00     0.022 A 
BRANCH  86  90
ATOM     90  S   UNL A   1      48.661  27.732  22.171  1.00  0.00     0.124 S 
ATOM     91  O   UNL A   1      48.621  26.331  21.771  1.00  0.00    -0.237 OA
ATOM     92  O   UNL A   1      47.463  28.517  21.888  1.00  0.00    -0.237 OA
ATOM     93  O   UNL A   1      49.924  28.422  21.914  1.00  0.00    -0.744 OA
ENDBRANCH  86  90
ENDBRANCH  59  83
BRANCH  71  94
ATOM     94  C   UNL A   1      45.005  33.550  29.214  1.00  0.00     0.023 A 
ATOM     95  C   UNL A   1      44.920  34.562  28.244  1.00  0.00     0.031 A 
ATOM     96  C   UNL A   1      45.647  33.843  30.431  1.00  0.00     0.131 A 
ATOM     97  C   UNL A   1      45.499  35.815  28.494  1.00  0.00     0.055 A 
ATOM     98  C   UNL A   1      46.174  35.108  30.694  1.00  0.00     0.041 A 
ATOM     99  F   UNL A   1      45.752  32.910  31.390  1.00  0.00    -0.206 F 
ATOM    100  C   UNL A   1      46.107  36.100  29.720  1.00  0.00     0.022 A 
BRANCH  97 101
ATOM    101  S   UNL A   1      45.490  37.056  27.173  1.00  0.00     0.124 S 
ATOM    102  O   UNL A   1      46.253  38.144  27.777  1.00  0.00    -0.237 OA
ATOM    103  O   UNL A   1      46.142  36.352  26.074  1.00  0.00    -0.237 OA
ATOM    104  O   UNL A   1      44.068  37.333  26.973  1.00  0.00    -0.744 OA
ENDBRANCH  97 101
ENDBRANCH  71  94
ENDBRANCH  45  46
ENDBRANCH  37  40
ENDBRANCH  35  36
ENDBRANCH  34  35
ENDBRANCH   1  34
TORSDOF 20
ENDMDL
MODEL 2
REMARK VINA RESULT:     -12.3      0.597      7.183
REMARK SMILES CC(C)[C@@H](NC(=O)/C(=C\c1ccccc1F)NC(=O)c1ccccc1)C(=O)NCCCCNC(=O)c1ccc(-c2c3nc(c(-c4cc(S(=O)(=O)[O-])ccc4F)c4ccc([nH]4)c(-c4cc(S(=O)(=O)[O-])ccc4F)c4nc(c(-c5cc(S(=O)(=O)[O-])ccc5F)c5ccc2[nH]5)C=C4)C=C3)cc1
REMARK SMILES IDX 30 1 29 2 28 3 26 4 27 5 4 7 2 8 1 9 3 10 5 11 6 12 7 14
REMARK SMILES IDX 8 15 9 16 17 17 18 18 19 20 20 21 21 22 25 23 22 24 24 25
REMARK SMILES IDX 23 26 10 27 11 28 15 29 12 30 14 31 16 32 13 33 31 34 32 35
REMARK SMILES IDX 33 36 34 37 35 39 36 40 37 41 98 42 38 43 97 44 39 45 40 46
REMARK SMILES IDX 41 47 91 48 42 49 96 50 90 51 92 52 43 53 95 54 89 55 88 56
REMARK SMILES IDX 44 58 76 59 56 60 75 61 57 62 60 63 74 64 93 65 58 66 59 67
REMARK SMILES IDX 73 69 94 70 61 71 45 72 46 73 54 74 47 75 53 76 55 77 52 78
REMARK SMILES IDX 48 79 49 80 50 81 51 82 77 83 78 84 86 85 79 86 85 87 87 88
REMARK SMILES IDX 84 89 80 90 81 91 82 92 83 93 62 94 63 95 71 96 64 97 70 98
REMARK SMILES IDX 72 99 69 100 65 101 66 102 67 103 68 104
REMARK H PARENT 28 6 5 13 17 19 33 38 92 57 60 68
REMARK Flexibility Score: inf
ROOT
ATOM      1  C   UNL A   1      36.359  23.103  23.245  1.00  0.00     0.023 C 
ENDROOT
BRANCH   1   2
ATOM      2  C   UNL A   1      34.968  23.271  23.846  1.00  0.00     0.116 C 
BRANCH   2   3
ATOM      3  N   UNL A   1      34.003  22.943  22.826  1.00  0.00    -0.354 N 
ATOM      4  C   UNL A   1      32.729  23.410  22.776  1.00  0.00     0.242 C 
ATOM      5  O   UNL A   1      31.830  22.595  22.560  1.00  0.00    -0.273 OA
ATOM      6  H   UNL A   1      34.290  22.334  22.110  1.00  0.00     0.163 HD
BRANCH   4   7
ATOM      7  C   UNL A   1      32.419  24.856  23.164  1.00  0.00     0.174 C 
BRANCH   7   8
ATOM      8  C   UNL A   1      32.979  25.820  22.058  1.00  0.00     0.015 C 
ATOM      9  C   UNL A   1      31.963  26.068  20.939  1.00  0.00     0.010 C 
ATOM     10  C   UNL A   1      33.416  27.192  22.605  1.00  0.00     0.010 C 
ENDBRANCH   7   8
BRANCH   7  11
ATOM     11  N   UNL A   1      30.985  25.097  23.464  1.00  0.00    -0.339 N 
ATOM     12  C   UNL A   1      30.477  25.921  24.449  1.00  0.00     0.268 C 
ATOM     13  H   UNL A   1      30.330  24.620  22.906  1.00  0.00     0.164 HD
ATOM     14  O   UNL A   1      29.713  26.828  24.107  1.00  0.00    -0.268 OA
BRANCH  12  15
ATOM     15  C   UNL A   1      30.603  25.570  25.916  1.00  0.00     0.107 C 
ATOM     16  C   UNL A   1      31.300  26.293  26.822  1.00  0.00     0.043 C 
BRANCH  15  17
ATOM     17  N   UNL A   1      29.896  24.498  26.453  1.00  0.00    -0.317 N 
ATOM     18  C   UNL A   1      30.166  23.195  26.779  1.00  0.00     0.255 C 
ATOM     19  H   UNL A   1      28.962  24.738  26.648  1.00  0.00     0.170 HD
ATOM     20  O   UNL A   1      29.245  22.489  27.193  1.00  0.00    -0.269 OA
BRANCH  18  21
ATOM     21  C   UNL A   1      31.489  22.584  26.661  1.00  0.00     0.040 A 
ATOM     22  C   UNL A   1      31.679  21.588  25.700  1.00  0.00     0.014 A 
ATOM     23  C   UNL A   1      32.489  22.878  27.589  1.00  0.00     0.014 A 
ATOM     24  C   UNL A   1      32.907  20.934  25.621  1.00  0.00     0.001 A 
ATOM     25  C   UNL A   1      33.719  22.231  27.501  1.00  0.00     0.001 A 
ATOM     26  C   UNL A   1      33.929  21.266  26.513  1.00  0.00     0.000 A 
ENDBRANCH  18  21
ENDBRANCH  15  17
BRANCH  16  27
ATOM     27  C   UNL A   1      32.192  27.449  26.685  1.00  0.00     0.012 A 
ATOM     28  C   UNL A   1      31.666  28.702  27.051  1.00  0.00     0.011 A 
ATOM     29  C   UNL A   1      33.515  27.386  26.257  1.00  0.00     0.130 A 
ATOM     30  C   UNL A   1      32.490  29.827  27.123  1.00  0.00     0.001 A 
ATOM     31  C   UNL A   1      34.339  28.509  26.310  1.00  0.00     0.040 A 
ATOM     32  F   UNL A   1      34.034  26.234  25.813  1.00  0.00    -0.206 F 
ATOM     33  C   UNL A   1      33.835  29.723  26.778  1.00  0.00     0.003 A 
ENDBRANCH  16  27
ENDBRANCH  12  15
ENDBRANCH   7  11
ENDBRANCH   4   7
ENDBRANCH   2   3
ENDBRANCH   1   2
BRANCH   1  34
ATOM     34  C   UNL A   1      37.114  21.927  23.866  1.00  0.00     0.023 C 
BRANCH  34  35
ATOM     35  C   UNL A   1      37.474  22.147  25.330  1.00  0.00     0.116 C 
BRANCH  35  36
ATOM     36  N   UNL A   1      38.334  21.085  25.831  1.00  0.00    -0.352 N 
ATOM     37  C   UNL A   1      39.567  21.204  26.422  1.00  0.00     0.251 C 
ATOM     38  H   UNL A   1      37.988  20.168  25.734  1.00  0.00     0.163 HD
ATOM     39  O   UNL A   1      40.293  20.235  26.558  1.00  0.00    -0.269 OA
BRANCH  37  40
ATOM     40  C   UNL A   1      39.978  22.548  26.865  1.00  0.00     0.039 A 
ATOM     41  C   UNL A   1      41.002  22.677  27.800  1.00  0.00     0.014 A 
ATOM     42  C   UNL A   1      39.393  23.669  26.267  1.00  0.00     0.014 A 
ATOM     43  C   UNL A   1      41.484  23.950  28.103  1.00  0.00     0.010 A 
ATOM     44  C   UNL A   1      39.931  24.923  26.509  1.00  0.00     0.010 A 
ATOM     45  C   UNL A   1      40.973  25.076  27.437  1.00  0.00    -0.014 A 
BRANCH  45  46
ATOM     46  C   UNL A   1      41.483  26.440  27.710  1.00  0.00     0.031 A 
ATOM     47  C   UNL A   1      42.862  26.813  27.241  1.00  0.00     0.074 A 
ATOM     48  C   UNL A   1      40.750  27.299  28.443  1.00  0.00     0.049 A 
ATOM     49  N   UNL A   1      43.561  27.884  27.504  1.00  0.00    -0.248 NA
ATOM     50  C   UNL A   1      43.558  25.829  26.397  1.00  0.00     0.031 C 
ATOM     51  C   UNL A   1      39.412  27.034  28.975  1.00  0.00     0.029 A 
ATOM     52  N   UNL A   1      41.035  28.568  28.878  1.00  0.00    -0.354 N 
ATOM     53  C   UNL A   1      44.790  27.691  26.882  1.00  0.00     0.074 A 
ATOM     54  C   UNL A   1      44.756  26.379  26.274  1.00  0.00     0.031 C 
ATOM     55  C   UNL A   1      38.983  28.115  29.644  1.00  0.00     0.029 A 
ATOM     56  C   UNL A   1      40.033  29.128  29.634  1.00  0.00     0.049 A 
ATOM     57  H   UNL A   1      41.876  29.034  28.668  1.00  0.00     0.167 HD
ATOM     58  C   UNL A   1      45.840  28.541  26.812  1.00  0.00     0.034 A 
ATOM     59  C   UNL A   1      39.977  30.316  30.267  1.00  0.00     0.034 A 
ATOM     60  C   UNL A   1      45.840  29.858  27.394  1.00  0.00     0.049 A 
ATOM     61  C   UNL A   1      41.160  31.242  30.184  1.00  0.00     0.074 A 
ATOM     62  C   UNL A   1      46.822  30.830  27.319  1.00  0.00     0.029 A 
ATOM     63  N   UNL A   1      44.810  30.389  28.159  1.00  0.00    -0.354 N 
ATOM     64  N   UNL A   1      42.310  31.056  29.579  1.00  0.00    -0.248 NA
ATOM     65  C   UNL A   1      41.041  32.534  30.872  1.00  0.00     0.031 C 
ATOM     66  C   UNL A   1      46.414  31.922  28.092  1.00  0.00     0.029 A 
ATOM     67  C   UNL A   1      45.147  31.662  28.591  1.00  0.00     0.049 A 
ATOM     68  H   UNL A   1      43.964  29.929  28.364  1.00  0.00     0.167 HD
ATOM     69  C   UNL A   1      43.050  32.212  29.806  1.00  0.00     0.074 A 
ATOM     70  C   UNL A   1      42.210  33.095  30.591  1.00  0.00     0.031 C 
ATOM     71  C   UNL A   1      44.308  32.516  29.398  1.00  0.00     0.034 A 
BRANCH  58  72
ATOM     72  C   UNL A   1      47.079  28.060  26.103  1.00  0.00     0.023 A 
ATOM     73  C   UNL A   1      47.221  28.167  24.709  1.00  0.00     0.031 A 
ATOM     74  C   UNL A   1      48.131  27.478  26.832  1.00  0.00     0.131 A 
ATOM     75  C   UNL A   1      48.364  27.651  24.081  1.00  0.00     0.055 A 
ATOM     76  C   UNL A   1      49.296  27.029  26.210  1.00  0.00     0.041 A 
ATOM     77  F   UNL A   1      48.039  27.331  28.164  1.00  0.00    -0.206 F 
ATOM     78  C   UNL A   1      49.413  27.104  24.825  1.00  0.00     0.022 A 
BRANCH  75  79
ATOM     79  S   UNL A   1      48.420  27.615  22.269  1.00  0.00     0.124 S 
ATOM     80  O   UNL A   1      49.595  28.438  21.995  1.00  0.00    -0.237 OA
ATOM     81  O   UNL A   1      48.556  26.191  21.984  1.00  0.00    -0.237 OA
ATOM     82  O   UNL A   1      47.144  28.210  21.876  1.00  0.00    -0.744 OA
ENDBRANCH  75  79
ENDBRANCH  58  72
BRANCH  59  83
ATOM     83  C   UNL A   1      38.764  30.680  31.047  1.00  0.00     0.023 A 
ATOM     84  C   UNL A   1      37.714  31.398  30.456  1.00  0.00     0.031 A 
ATOM     85  C   UNL A   1      38.627  30.286  32.390  1.00  0.00     0.131 A 
ATOM     86  C   UNL A   1      36.572  31.711  31.211  1.00  0.00     0.055 A 
ATOM     87  C   UNL A   1      37.476  30.571  33.127  1.00  0.00     0.041 A 
ATOM     88  F   UNL A   1      39.599  29.584  32.993  1.00  0.00    -0.206 F 
ATOM     89  C   UNL A   1      36.441  31.291  32.538  1.00  0.00     0.022 A 
BRANCH  86  90
ATOM     90  S   UNL A   1      35.250  32.680  30.435  1.00  0.00     0.124 S 
ATOM     91  O   UNL A   1      35.936  33.930  30.132  1.00  0.00    -0.237 OA
ATOM     92  O   UNL A   1      34.892  31.848  29.290  1.00  0.00    -0.237 OA
ATOM     93  O   UNL A   1      34.231  32.762  31.480  1.00  0.00    -0.744 OA
ENDBRANCH  86  90
ENDBRANCH  59  83
BRANCH  71  94
ATOM     94  C   UNL A   1      44.852  33.866  29.788  1.00  0.00     0.023 A 
ATOM     95  C   UNL A   1      44.598  35.008  29.012  1.00  0.00     0.031 A 
ATOM     96  C   UNL A   1      45.602  34.014  30.968  1.00  0.00     0.131 A 
ATOM     97  C   UNL A   1      45.119  36.249  29.410  1.00  0.00     0.055 A 
ATOM     98  C   UNL A   1      46.073  35.258  31.386  1.00  0.00     0.041 A 
ATOM     99  F   UNL A   1      45.871  32.951  31.745  1.00  0.00    -0.206 F 
ATOM    100  C   UNL A   1      45.838  36.384  30.601  1.00  0.00     0.022 A 
BRANCH  97 101
ATOM    101  S   UNL A   1      44.887  37.679  28.320  1.00  0.00     0.124 S 
ATOM    102  O   UNL A   1      46.177  38.354  28.430  1.00  0.00    -0.237 OA
ATOM    103  O   UNL A   1      44.602  37.053  27.034  1.00  0.00    -0.237 OA
ATOM    104  O   UNL A   1      43.763  38.391  28.925  1.00  0.00    -0.744 OA
ENDBRANCH  97 101
ENDBRANCH  71  94
ENDBRANCH  45  46
ENDBRANCH  37  40
ENDBRANCH  35  36
ENDBRANCH  34  35
ENDBRANCH   1  34
TORSDOF 20
ENDMDL
MODEL 3
REMARK VINA RESULT:     -11.6      2.995      7.652
REMARK SMILES CC(C)[C@@H](NC(=O)/C(=C\c1ccccc1F)NC(=O)c1ccccc1)C(=O)NCCCCNC(=O)c1ccc(-c2c3nc(c(-c4cc(S(=O)(=O)[O-])ccc4F)c4ccc([nH]4)c(-c4cc(S(=O)(=O)[O-])ccc4F)c4nc(c(-c5cc(S(=O)(=O)[O-])ccc5F)c5ccc2[nH]5)C=C4)C=C3)cc1
REMARK SMILES IDX 30 1 29 2 28 3 26 4 27 5 4 7 2 8 1 9 3 10 5 11 6 12 7 14
REMARK SMILES IDX 8 15 9 16 17 17 18 18 19 20 20 21 21 22 25 23 22 24 24 25
REMARK SMILES IDX 23 26 10 27 11 28 15 29 12 30 14 31 16 32 13 33 31 34 32 35
REMARK SMILES IDX 33 36 34 37 35 39 36 40 37 41 98 42 38 43 97 44 39 45 40 46
REMARK SMILES IDX 41 47 91 48 42 49 96 50 90 51 92 52 43 53 95 54 89 55 88 56
REMARK SMILES IDX 44 58 76 59 56 60 75 61 57 62 60 63 74 64 93 65 58 66 59 67
REMARK SMILES IDX 73 69 94 70 61 71 45 72 46 73 54 74 47 75 53 76 55 77 52 78
REMARK SMILES IDX 48 79 49 80 50 81 51 82 77 83 78 84 86 85 79 86 85 87 87 88
REMARK SMILES IDX 84 89 80 90 81 91 82 92 83 93 62 94 63 95 71 96 64 97 70 98
REMARK SMILES IDX 72 99 69 100 65 101 66 102 67 103 68 104
REMARK H PARENT 28 6 5 13 17 19 33 38 92 57 60 68
REMARK Flexibility Score: inf
ROOT
ATOM      1  C   UNL A   1      36.541  22.986  24.413  1.00  0.00     0.023 C 
ENDROOT
BRANCH   1   2
ATOM      2  C   UNL A   1      35.274  23.813  24.226  1.00  0.00     0.116 C 
BRANCH   2   3
ATOM      3  N   UNL A   1      34.615  23.348  23.032  1.00  0.00    -0.354 N 
ATOM      4  C   UNL A   1      33.305  23.547  22.733  1.00  0.00     0.242 C 
ATOM      5  O   UNL A   1      32.656  22.578  22.335  1.00  0.00    -0.273 OA
ATOM      6  H   UNL A   1      35.156  22.848  22.380  1.00  0.00     0.163 HD
BRANCH   4   7
ATOM      7  C   UNL A   1      32.629  24.877  23.066  1.00  0.00     0.174 C 
BRANCH   7   8
ATOM      8  C   UNL A   1      32.964  25.923  21.943  1.00  0.00     0.015 C 
ATOM      9  C   UNL A   1      31.882  25.975  20.861  1.00  0.00     0.010 C 
ATOM     10  C   UNL A   1      33.160  27.355  22.477  1.00  0.00     0.010 C 
ENDBRANCH   7   8
BRANCH   7  11
ATOM     11  N   UNL A   1      31.172  24.756  23.323  1.00  0.00    -0.339 N 
ATOM     12  C   UNL A   1      30.418  25.537  24.177  1.00  0.00     0.268 C 
ATOM     13  H   UNL A   1      30.694  24.047  22.835  1.00  0.00     0.164 HD
ATOM     14  O   UNL A   1      29.454  26.145  23.706  1.00  0.00    -0.268 OA
BRANCH  12  15
ATOM     15  C   UNL A   1      30.571  25.436  25.680  1.00  0.00     0.107 C 
ATOM     16  C   UNL A   1      31.248  26.324  26.444  1.00  0.00     0.043 C 
BRANCH  15  17
ATOM     17  N   UNL A   1      29.912  24.442  26.397  1.00  0.00    -0.317 N 
ATOM     18  C   UNL A   1      30.202  23.177  26.837  1.00  0.00     0.255 C 
ATOM     19  H   UNL A   1      29.002  24.719  26.653  1.00  0.00     0.170 HD
ATOM     20  O   UNL A   1      29.321  22.537  27.412  1.00  0.00    -0.269 OA
BRANCH  18  21
ATOM     21  C   UNL A   1      31.503  22.534  26.660  1.00  0.00     0.040 A 
ATOM     22  C   UNL A   1      31.663  21.637  25.600  1.00  0.00     0.014 A 
ATOM     23  C   UNL A   1      32.505  22.692  27.617  1.00  0.00     0.014 A 
ATOM     24  C   UNL A   1      32.867  20.950  25.459  1.00  0.00     0.001 A 
ATOM     25  C   UNL A   1      33.712  22.011  27.466  1.00  0.00     0.001 A 
ATOM     26  C   UNL A   1      33.894  21.148  26.384  1.00  0.00     0.000 A 
ENDBRANCH  18  21
ENDBRANCH  15  17
BRANCH  16  27
ATOM     27  C   UNL A   1      32.092  27.474  26.106  1.00  0.00     0.012 A 
ATOM     28  C   UNL A   1      31.436  28.699  25.883  1.00  0.00     0.011 A 
ATOM     29  C   UNL A   1      33.482  27.444  26.026  1.00  0.00     0.130 A 
ATOM     30  C   UNL A   1      32.164  29.881  25.731  1.00  0.00     0.001 A 
ATOM     31  C   UNL A   1      34.215  28.617  25.858  1.00  0.00     0.040 A 
ATOM     32  F   UNL A   1      34.147  26.287  26.141  1.00  0.00    -0.206 F 
ATOM     33  C   UNL A   1      33.556  29.842  25.746  1.00  0.00     0.003 A 
ENDBRANCH  16  27
ENDBRANCH  12  15
ENDBRANCH   7  11
ENDBRANCH   4   7
ENDBRANCH   2   3
ENDBRANCH   1   2
BRANCH   1  34
ATOM     34  C   UNL A   1      36.947  22.885  25.884  1.00  0.00     0.023 C 
BRANCH  34  35
ATOM     35  C   UNL A   1      38.299  23.521  26.181  1.00  0.00     0.116 C 
BRANCH  35  36
ATOM     36  N   UNL A   1      39.365  22.530  26.177  1.00  0.00    -0.352 N 
ATOM     37  C   UNL A   1      40.718  22.744  26.275  1.00  0.00     0.251 C 
ATOM     38  H   UNL A   1      39.081  21.591  26.093  1.00  0.00     0.163 HD
ATOM     39  O   UNL A   1      41.513  21.863  25.998  1.00  0.00    -0.269 OA
BRANCH  37  40
ATOM     40  C   UNL A   1      41.162  24.080  26.710  1.00  0.00     0.039 A 
ATOM     41  C   UNL A   1      41.236  25.113  25.779  1.00  0.00     0.014 A 
ATOM     42  C   UNL A   1      41.411  24.305  28.068  1.00  0.00     0.014 A 
ATOM     43  C   UNL A   1      41.514  26.405  26.224  1.00  0.00     0.010 A 
ATOM     44  C   UNL A   1      41.604  25.602  28.515  1.00  0.00     0.010 A 
ATOM     45  C   UNL A   1      41.669  26.662  27.596  1.00  0.00    -0.014 A 
BRANCH  45  46
ATOM     46  C   UNL A   1      41.933  28.026  28.108  1.00  0.00     0.031 A 
ATOM     47  C   UNL A   1      43.352  28.517  28.183  1.00  0.00     0.074 A 
ATOM     48  C   UNL A   1      40.920  28.778  28.578  1.00  0.00     0.049 A 
ATOM     49  N   UNL A   1      43.822  29.603  28.736  1.00  0.00    -0.248 NA
ATOM     50  C   UNL A   1      44.381  27.648  27.588  1.00  0.00     0.031 C 
ATOM     51  C   UNL A   1      39.508  28.391  28.584  1.00  0.00     0.029 A 
ATOM     52  N   UNL A   1      40.926  30.022  29.156  1.00  0.00    -0.354 N 
ATOM     53  C   UNL A   1      45.202  29.534  28.583  1.00  0.00     0.074 A 
ATOM     54  C   UNL A   1      45.495  28.277  27.930  1.00  0.00     0.031 C 
ATOM     55  C   UNL A   1      38.782  29.387  29.115  1.00  0.00     0.029 A 
ATOM     56  C   UNL A   1      39.679  30.458  29.536  1.00  0.00     0.049 A 
ATOM     57  H   UNL A   1      41.745  30.552  29.285  1.00  0.00     0.167 HD
ATOM     58  C   UNL A   1      46.135  30.447  28.938  1.00  0.00     0.034 A 
ATOM     59  C   UNL A   1      39.305  31.585  30.172  1.00  0.00     0.034 A 
ATOM     60  C   UNL A   1      45.820  31.711  29.554  1.00  0.00     0.049 A 
ATOM     61  C   UNL A   1      40.359  32.583  30.567  1.00  0.00     0.074 A 
ATOM     62  C   UNL A   1      46.680  32.741  29.888  1.00  0.00     0.029 A 
ATOM     63  N   UNL A   1      44.546  32.116  29.930  1.00  0.00    -0.354 N 
ATOM     64  N   UNL A   1      41.660  32.515  30.402  1.00  0.00    -0.248 NA
ATOM     65  C   UNL A   1      39.898  33.805  31.238  1.00  0.00     0.031 C 
ATOM     66  C   UNL A   1      45.936  33.741  30.523  1.00  0.00     0.029 A 
ATOM     67  C   UNL A   1      44.602  33.366  30.523  1.00  0.00     0.049 A 
ATOM     68  H   UNL A   1      43.724  31.591  29.794  1.00  0.00     0.167 HD
ATOM     69  C   UNL A   1      42.173  33.690  30.941  1.00  0.00     0.074 A 
ATOM     70  C   UNL A   1      41.039  34.455  31.423  1.00  0.00     0.031 C 
ATOM     71  C   UNL A   1      43.464  34.101  31.025  1.00  0.00     0.034 A 
BRANCH  58  72
ATOM     72  C   UNL A   1      47.580  30.100  28.691  1.00  0.00     0.023 A 
ATOM     73  C   UNL A   1      48.346  29.405  29.643  1.00  0.00     0.031 A 
ATOM     74  C   UNL A   1      48.202  30.476  27.488  1.00  0.00     0.131 A 
ATOM     75  C   UNL A   1      49.705  29.157  29.399  1.00  0.00     0.055 A 
ATOM     76  C   UNL A   1      49.536  30.164  27.221  1.00  0.00     0.041 A 
ATOM     77  F   UNL A   1      47.523  31.160  26.553  1.00  0.00    -0.206 F 
ATOM     78  C   UNL A   1      50.298  29.510  28.184  1.00  0.00     0.022 A 
BRANCH  75  79
ATOM     79  S   UNL A   1      50.712  28.450  30.731  1.00  0.00     0.124 S 
ATOM     80  O   UNL A   1      51.394  29.635  31.244  1.00  0.00    -0.237 OA
ATOM     81  O   UNL A   1      49.707  27.861  31.609  1.00  0.00    -0.237 OA
ATOM     82  O   UNL A   1      51.572  27.492  30.038  1.00  0.00    -0.744 OA
ENDBRANCH  75  79
ENDBRANCH  58  72
BRANCH  59  83
ATOM     83  C   UNL A   1      37.869  31.811  30.488  1.00  0.00     0.023 A 
ATOM     84  C   UNL A   1      36.990  32.327  29.524  1.00  0.00     0.031 A 
ATOM     85  C   UNL A   1      37.351  31.485  31.753  1.00  0.00     0.131 A 
ATOM     86  C   UNL A   1      35.636  32.513  29.844  1.00  0.00     0.055 A 
ATOM     87  C   UNL A   1      35.997  31.640  32.057  1.00  0.00     0.041 A 
ATOM     88  F   UNL A   1      38.151  30.974  32.703  1.00  0.00    -0.206 F 
ATOM     89  C   UNL A   1      35.131  32.160  31.099  1.00  0.00     0.022 A 
BRANCH  86  90
ATOM     90  S   UNL A   1      34.532  33.224  28.593  1.00  0.00     0.124 S 
ATOM     91  O   UNL A   1      33.698  32.080  28.248  1.00  0.00    -0.237 OA
ATOM     92  O   UNL A   1      33.878  34.297  29.336  1.00  0.00    -0.237 OA
ATOM     93  O   UNL A   1      35.450  33.670  27.545  1.00  0.00    -0.744 OA
ENDBRANCH  86  90
ENDBRANCH  59  83
BRANCH  71  94
ATOM     94  C   UNL A   1      43.721  35.444  31.657  1.00  0.00     0.023 A 
ATOM     95  C   UNL A   1      43.962  35.570  33.035  1.00  0.00     0.031 A 
ATOM     96  C   UNL A   1      43.760  36.604  30.864  1.00  0.00     0.131 A 
ATOM     97  C   UNL A   1      44.201  36.838  33.586  1.00  0.00     0.055 A 
ATOM     98  C   UNL A   1      44.050  37.855  31.409  1.00  0.00     0.041 A 
ATOM     99  F   UNL A   1      43.537  36.536  29.541  1.00  0.00    -0.206 F 
ATOM    100  C   UNL A   1      44.266  37.977  32.779  1.00  0.00     0.022 A 
BRANCH  97 101
ATOM    101  S   UNL A   1      44.377  36.986  35.384  1.00  0.00     0.124 S 
ATOM    102  O   UNL A   1      45.375  38.044  35.503  1.00  0.00    -0.237 OA
ATOM    103  O   UNL A   1      43.024  37.333  35.806  1.00  0.00    -0.237 OA
ATOM    104  O   UNL A   1      44.831  35.658  35.794  1.00  0.00    -0.744 OA
ENDBRANCH  97 101
ENDBRANCH  71  94
ENDBRANCH  45  46
ENDBRANCH  37  40
ENDBRANCH  35  36
ENDBRANCH  34  35
ENDBRANCH   1  34
TORSDOF 20
ENDMDL
