MODEL 1
REMARK VINA RESULT:     -11.9      0.000      0.000
REMARK SMILES Cc1noc(-c2ccc(CCl)cc2)c1C(=O)NCCCCNC(=O)c1ccc(-c2c3nc(c(-c4cc(S(=O)(=O)[O-])ccc4F)c4ccc([nH]4)c(-c4cc(S(=O)(=O)[O-])ccc4F)c4nc(c(-c5cc(S(=O)(=O)[O-])ccc5F)c5ccc2[nH]5)C=C4)C=C3)cc1
REMARK SMILES IDX 20 1 19 2 18 3 17 4 15 5 16 6 14 8 1 9 2 10 3 11 4 12 5 13
REMARK SMILES IDX 6 14 7 15 13 16 8 17 12 18 9 19 10 20 11 21 21 22 22 23
REMARK SMILES IDX 23 24 24 26 25 27 26 28 87 29 27 30 86 31 28 32 29 33 30 34
REMARK SMILES IDX 80 35 31 36 85 37 79 38 81 39 32 40 84 41 78 42 77 43 33 45
REMARK SMILES IDX 65 46 45 47 64 48 46 49 49 50 63 51 82 52 47 53 48 54 62 56
REMARK SMILES IDX 83 57 50 58 34 59 35 60 43 61 36 62 42 63 44 64 41 65 37 66
REMARK SMILES IDX 38 67 39 68 40 69 66 70 67 71 75 72 68 73 74 74 76 75 73 76
REMARK SMILES IDX 69 77 70 78 71 79 72 80 51 81 52 82 60 83 53 84 59 85 61 86
REMARK SMILES IDX 58 87 54 88 55 89 56 90 57 91
REMARK H PARENT 17 7 22 25 81 44 49 55
REMARK Flexibility Score: inf
ROOT
ATOM      1  C   UNL A   1      31.487  29.066  25.938  1.00  0.00     0.023 C 
ENDROOT
BRANCH   1   2
ATOM      2  C   UNL A   1      31.605  27.911  26.928  1.00  0.00     0.023 C 
BRANCH   2   3
ATOM      3  C   UNL A   1      32.452  26.714  26.512  1.00  0.00     0.116 C 
BRANCH   3   4
ATOM      4  N   UNL A   1      31.705  25.533  26.151  1.00  0.00    -0.352 N 
ATOM      5  C   UNL A   1      31.626  24.808  24.987  1.00  0.00     0.257 C 
ATOM      6  O   UNL A   1      30.882  23.826  25.032  1.00  0.00    -0.269 OA
ATOM      7  H   UNL A   1      31.144  25.180  26.879  1.00  0.00     0.163 HD
BRANCH   5   8
ATOM      8  C   UNL A   1      32.319  25.170  23.756  1.00  0.00     0.110 A 
ATOM      9  C   UNL A   1      34.155  23.338  23.122  1.00  0.00     0.071 C 
ATOM     10  C   UNL A   1      33.380  24.595  22.978  1.00  0.00     0.094 A 
ATOM     11  N   UNL A   1      33.653  25.330  21.892  1.00  0.00    -0.084 NA
ATOM     12  O   UNL A   1      32.719  26.330  21.867  1.00  0.00    -0.355 OA
ATOM     13  C   UNL A   1      31.903  26.223  22.947  1.00  0.00     0.179 A 
BRANCH  13  14
ATOM     14  C   UNL A   1      30.818  27.192  22.948  1.00  0.00     0.021 A 
ATOM     15  C   UNL A   1      31.029  28.462  22.391  1.00  0.00     0.012 A 
ATOM     16  C   UNL A   1      29.569  26.897  23.500  1.00  0.00     0.012 A 
ATOM     17  C   UNL A   1      30.010  29.416  22.377  1.00  0.00     0.006 A 
ATOM     18  C   UNL A   1      28.548  27.857  23.496  1.00  0.00     0.006 A 
ATOM     19  C   UNL A   1      28.756  29.124  22.929  1.00  0.00    -0.033 A 
BRANCH  19  20
ATOM     20  C   UNL A   1      27.652  30.145  22.897  1.00  0.00     0.145 C 
ATOM     21  Cl  UNL A   1      28.050  31.486  21.801  1.00  0.00    -0.122 Cl
ENDBRANCH  19  20
ENDBRANCH  13  14
ENDBRANCH   5   8
ENDBRANCH   3   4
ENDBRANCH   2   3
ENDBRANCH   1   2
BRANCH   1  22
ATOM     22  C   UNL A   1      32.654  30.046  25.879  1.00  0.00     0.116 C 
BRANCH  22  23
ATOM     23  N   UNL A   1      32.349  31.372  26.396  1.00  0.00    -0.352 N 
ATOM     24  C   UNL A   1      33.071  32.167  27.258  1.00  0.00     0.251 C 
ATOM     25  H   UNL A   1      31.497  31.757  26.084  1.00  0.00     0.163 HD
ATOM     26  O   UNL A   1      32.607  33.246  27.619  1.00  0.00    -0.269 OA
BRANCH  24  27
ATOM     27  C   UNL A   1      34.373  31.700  27.783  1.00  0.00     0.039 A 
ATOM     28  C   UNL A   1      35.382  32.639  28.017  1.00  0.00     0.014 A 
ATOM     29  C   UNL A   1      34.583  30.355  28.094  1.00  0.00     0.014 A 
ATOM     30  C   UNL A   1      36.559  32.247  28.659  1.00  0.00     0.010 A 
ATOM     31  C   UNL A   1      35.722  29.982  28.805  1.00  0.00     0.010 A 
ATOM     32  C   UNL A   1      36.716  30.925  29.108  1.00  0.00    -0.014 A 
BRANCH  32  33
ATOM     33  C   UNL A   1      37.899  30.510  29.909  1.00  0.00     0.031 A 
ATOM     34  C   UNL A   1      38.905  29.555  29.328  1.00  0.00     0.074 A 
ATOM     35  C   UNL A   1      38.018  30.921  31.189  1.00  0.00     0.049 A 
ATOM     36  N   UNL A   1      39.932  28.982  29.899  1.00  0.00    -0.248 NA
ATOM     37  C   UNL A   1      38.702  29.166  27.924  1.00  0.00     0.031 C 
ATOM     38  C   UNL A   1      37.082  31.807  31.885  1.00  0.00     0.029 A 
ATOM     39  N   UNL A   1      38.967  30.636  32.139  1.00  0.00    -0.354 N 
ATOM     40  C   UNL A   1      40.487  28.148  28.935  1.00  0.00     0.074 A 
ATOM     41  C   UNL A   1      39.641  28.246  27.763  1.00  0.00     0.031 C 
ATOM     42  C   UNL A   1      37.514  32.008  33.140  1.00  0.00     0.029 A 
ATOM     43  C   UNL A   1      38.732  31.232  33.356  1.00  0.00     0.049 A 
ATOM     44  H   UNL A   1      39.745  30.057  31.965  1.00  0.00     0.167 HD
ATOM     45  C   UNL A   1      41.608  27.388  29.011  1.00  0.00     0.034 A 
ATOM     46  C   UNL A   1      39.411  31.156  34.518  1.00  0.00     0.034 A 
ATOM     47  C   UNL A   1      42.452  27.319  30.178  1.00  0.00     0.049 A 
ATOM     48  C   UNL A   1      40.656  30.307  34.579  1.00  0.00     0.074 A 
ATOM     49  C   UNL A   1      43.640  26.629  30.345  1.00  0.00     0.029 A 
ATOM     50  N   UNL A   1      42.196  27.960  31.384  1.00  0.00    -0.354 N 
ATOM     51  N   UNL A   1      41.193  29.561  33.642  1.00  0.00    -0.248 NA
ATOM     52  C   UNL A   1      41.391  30.301  35.850  1.00  0.00     0.031 C 
ATOM     53  C   UNL A   1      44.073  26.809  31.664  1.00  0.00     0.029 A 
ATOM     54  C   UNL A   1      43.191  27.666  32.302  1.00  0.00     0.049 A 
ATOM     55  H   UNL A   1      41.419  28.541  31.560  1.00  0.00     0.167 HD
ATOM     56  C   UNL A   1      42.348  29.022  34.202  1.00  0.00     0.074 A 
ATOM     57  C   UNL A   1      42.433  29.537  35.554  1.00  0.00     0.031 C 
ATOM     58  C   UNL A   1      43.259  28.183  33.648  1.00  0.00     0.034 A 
BRANCH  45  59
ATOM     59  C   UNL A   1      41.965  26.560  27.800  1.00  0.00     0.023 A 
ATOM     60  C   UNL A   1      41.555  25.220  27.677  1.00  0.00     0.031 A 
ATOM     61  C   UNL A   1      42.756  27.101  26.771  1.00  0.00     0.131 A 
ATOM     62  C   UNL A   1      42.009  24.444  26.600  1.00  0.00     0.055 A 
ATOM     63  C   UNL A   1      43.132  26.347  25.657  1.00  0.00     0.041 A 
ATOM     64  F   UNL A   1      43.193  28.368  26.840  1.00  0.00    -0.206 F 
ATOM     65  C   UNL A   1      42.774  25.005  25.576  1.00  0.00     0.022 A 
BRANCH  62  66
ATOM     66  S   UNL A   1      41.712  22.655  26.640  1.00  0.00     0.124 S 
ATOM     67  O   UNL A   1      40.256  22.601  26.739  1.00  0.00    -0.237 OA
ATOM     68  O   UNL A   1      42.283  22.213  25.374  1.00  0.00    -0.237 OA
ATOM     69  O   UNL A   1      42.427  22.215  27.836  1.00  0.00    -0.744 OA
ENDBRANCH  62  66
ENDBRANCH  45  59
BRANCH  46  70
ATOM     70  C   UNL A   1      38.936  31.895  35.722  1.00  0.00     0.023 A 
ATOM     71  C   UNL A   1      38.292  31.223  36.773  1.00  0.00     0.031 A 
ATOM     72  C   UNL A   1      39.083  33.289  35.823  1.00  0.00     0.131 A 
ATOM     73  C   UNL A   1      37.777  31.950  37.858  1.00  0.00     0.055 A 
ATOM     74  C   UNL A   1      38.612  34.003  36.927  1.00  0.00     0.041 A 
ATOM     75  F   UNL A   1      39.700  33.978  34.849  1.00  0.00    -0.206 F 
ATOM     76  C   UNL A   1      37.943  33.333  37.947  1.00  0.00     0.022 A 
BRANCH  73  77
ATOM     77  S   UNL A   1      36.817  31.067  39.117  1.00  0.00     0.124 S 
ATOM     78  O   UNL A   1      35.618  31.893  39.211  1.00  0.00    -0.237 OA
ATOM     79  O   UNL A   1      36.647  29.755  38.503  1.00  0.00    -0.237 OA
ATOM     80  O   UNL A   1      37.687  31.095  40.291  1.00  0.00    -0.744 OA
ENDBRANCH  73  77
ENDBRANCH  46  70
BRANCH  58  81
ATOM     81  C   UNL A   1      44.454  27.818  34.492  1.00  0.00     0.023 A 
ATOM     82  C   UNL A   1      44.454  26.689  35.328  1.00  0.00     0.031 A 
ATOM     83  C   UNL A   1      45.609  28.619  34.459  1.00  0.00     0.131 A 
ATOM     84  C   UNL A   1      45.568  26.419  36.137  1.00  0.00     0.055 A 
ATOM     85  C   UNL A   1      46.735  28.316  35.226  1.00  0.00     0.041 A 
ATOM     86  F   UNL A   1      45.662  29.710  33.678  1.00  0.00    -0.206 F 
ATOM     87  C   UNL A   1      46.714  27.217  36.080  1.00  0.00     0.022 A 
BRANCH  84  88
ATOM     88  S   UNL A   1      45.472  25.054  37.327  1.00  0.00     0.124 S 
ATOM     89  O   UNL A   1      44.485  24.176  36.705  1.00  0.00    -0.237 OA
ATOM     90  O   UNL A   1      46.844  24.558  37.347  1.00  0.00    -0.237 OA
ATOM     91  O   UNL A   1      45.031  25.704  38.560  1.00  0.00    -0.744 OA
ENDBRANCH  84  88
ENDBRANCH  58  81
ENDBRANCH  32  33
ENDBRANCH  24  27
ENDBRANCH  22  23
ENDBRANCH   1  22
TORSDOF 16
ENDMDL
MODEL 2
REMARK VINA RESULT:     -11.9      2.176      8.214
REMARK SMILES Cc1noc(-c2ccc(CCl)cc2)c1C(=O)NCCCCNC(=O)c1ccc(-c2c3nc(c(-c4cc(S(=O)(=O)[O-])ccc4F)c4ccc([nH]4)c(-c4cc(S(=O)(=O)[O-])ccc4F)c4nc(c(-c5cc(S(=O)(=O)[O-])ccc5F)c5ccc2[nH]5)C=C4)C=C3)cc1
REMARK SMILES IDX 20 1 19 2 18 3 17 4 15 5 16 6 14 8 1 9 2 10 3 11 4 12 5 13
REMARK SMILES IDX 6 14 7 15 13 16 8 17 12 18 9 19 10 20 11 21 21 22 22 23
REMARK SMILES IDX 23 24 24 26 25 27 26 28 87 29 27 30 86 31 28 32 29 33 30 34
REMARK SMILES IDX 80 35 31 36 85 37 79 38 81 39 32 40 84 41 78 42 77 43 33 45
REMARK SMILES IDX 65 46 45 47 64 48 46 49 49 50 63 51 82 52 47 53 48 54 62 56
REMARK SMILES IDX 83 57 50 58 34 59 35 60 43 61 36 62 42 63 44 64 41 65 37 66
REMARK SMILES IDX 38 67 39 68 40 69 66 70 67 71 75 72 68 73 74 74 76 75 73 76
REMARK SMILES IDX 69 77 70 78 71 79 72 80 51 81 52 82 60 83 53 84 59 85 61 86
REMARK SMILES IDX 58 87 54 88 55 89 56 90 57 91
REMARK H PARENT 17 7 22 25 81 44 49 55
REMARK Flexibility Score: inf
ROOT
ATOM      1  C   UNL A   1      32.685  29.657  25.601  1.00  0.00     0.023 C 
ENDROOT
BRANCH   1   2
ATOM      2  C   UNL A   1      31.447  28.981  25.022  1.00  0.00     0.023 C 
BRANCH   2   3
ATOM      3  C   UNL A   1      31.309  27.477  25.224  1.00  0.00     0.116 C 
BRANCH   3   4
ATOM      4  N   UNL A   1      32.516  26.803  25.640  1.00  0.00    -0.352 N 
ATOM      5  C   UNL A   1      33.500  26.152  24.937  1.00  0.00     0.257 C 
ATOM      6  O   UNL A   1      34.416  25.693  25.623  1.00  0.00    -0.269 OA
ATOM      7  H   UNL A   1      32.662  26.813  26.613  1.00  0.00     0.163 HD
BRANCH   5   8
ATOM      8  C   UNL A   1      33.474  25.956  23.493  1.00  0.00     0.110 A 
ATOM      9  C   UNL A   1      33.693  28.288  22.211  1.00  0.00     0.071 C 
ATOM     10  C   UNL A   1      33.528  26.820  22.347  1.00  0.00     0.094 A 
ATOM     11  N   UNL A   1      33.478  26.128  21.201  1.00  0.00    -0.084 NA
ATOM     12  O   UNL A   1      33.503  24.806  21.556  1.00  0.00    -0.355 OA
ATOM     13  C   UNL A   1      33.537  24.695  22.909  1.00  0.00     0.179 A 
BRANCH  13  14
ATOM     14  C   UNL A   1      33.663  23.321  23.371  1.00  0.00     0.021 A 
ATOM     15  C   UNL A   1      32.561  22.459  23.275  1.00  0.00     0.012 A 
ATOM     16  C   UNL A   1      34.853  22.836  23.921  1.00  0.00     0.012 A 
ATOM     17  C   UNL A   1      32.648  21.135  23.711  1.00  0.00     0.006 A 
ATOM     18  C   UNL A   1      34.938  21.511  24.368  1.00  0.00     0.006 A 
ATOM     19  C   UNL A   1      33.839  20.645  24.262  1.00  0.00    -0.033 A 
BRANCH  19  20
ATOM     20  C   UNL A   1      33.939  19.214  24.714  1.00  0.00     0.145 C 
ATOM     21  Cl  UNL A   1      32.333  18.539  25.066  1.00  0.00    -0.122 Cl
ENDBRANCH  19  20
ENDBRANCH  13  14
ENDBRANCH   5   8
ENDBRANCH   3   4
ENDBRANCH   2   3
ENDBRANCH   1   2
BRANCH   1  22
ATOM     22  C   UNL A   1      32.605  30.119  27.052  1.00  0.00     0.116 C 
BRANCH  22  23
ATOM     23  N   UNL A   1      32.742  31.558  27.231  1.00  0.00    -0.352 N 
ATOM     24  C   UNL A   1      33.813  32.287  27.697  1.00  0.00     0.251 C 
ATOM     25  H   UNL A   1      31.950  32.087  26.982  1.00  0.00     0.163 HD
ATOM     26  O   UNL A   1      33.706  33.505  27.824  1.00  0.00    -0.269 OA
BRANCH  24  27
ATOM     27  C   UNL A   1      35.064  31.602  28.089  1.00  0.00     0.039 A 
ATOM     28  C   UNL A   1      36.255  32.332  28.109  1.00  0.00     0.014 A 
ATOM     29  C   UNL A   1      35.056  30.263  28.486  1.00  0.00     0.014 A 
ATOM     30  C   UNL A   1      37.416  31.751  28.626  1.00  0.00     0.010 A 
ATOM     31  C   UNL A   1      36.193  29.712  29.074  1.00  0.00     0.010 A 
ATOM     32  C   UNL A   1      37.381  30.454  29.164  1.00  0.00    -0.014 A 
BRANCH  32  33
ATOM     33  C   UNL A   1      38.566  29.859  29.840  1.00  0.00     0.031 A 
ATOM     34  C   UNL A   1      38.970  30.335  31.208  1.00  0.00     0.074 A 
ATOM     35  C   UNL A   1      39.327  28.958  29.185  1.00  0.00     0.049 A 
ATOM     36  N   UNL A   1      40.030  30.032  31.913  1.00  0.00    -0.248 NA
ATOM     37  C   UNL A   1      38.078  31.311  31.851  1.00  0.00     0.031 C 
ATOM     38  C   UNL A   1      39.070  28.454  27.834  1.00  0.00     0.029 A 
ATOM     39  N   UNL A   1      40.482  28.318  29.560  1.00  0.00    -0.354 N 
ATOM     40  C   UNL A   1      39.946  30.795  33.072  1.00  0.00     0.074 A 
ATOM     41  C   UNL A   1      38.761  31.620  32.943  1.00  0.00     0.031 C 
ATOM     42  C   UNL A   1      40.025  27.570  27.503  1.00  0.00     0.029 A 
ATOM     43  C   UNL A   1      40.988  27.475  28.596  1.00  0.00     0.049 A 
ATOM     44  H   UNL A   1      40.910  28.449  30.437  1.00  0.00     0.167 HD
ATOM     45  C   UNL A   1      40.766  30.793  34.152  1.00  0.00     0.034 A 
ATOM     46  C   UNL A   1      42.104  26.719  28.588  1.00  0.00     0.034 A 
ATOM     47  C   UNL A   1      41.929  29.950  34.275  1.00  0.00     0.049 A 
ATOM     48  C   UNL A   1      43.001  26.731  29.800  1.00  0.00     0.074 A 
ATOM     49  C   UNL A   1      42.796  29.824  35.347  1.00  0.00     0.029 A 
ATOM     50  N   UNL A   1      42.393  29.087  33.289  1.00  0.00    -0.354 N 
ATOM     51  N   UNL A   1      42.881  27.425  30.909  1.00  0.00    -0.248 NA
ATOM     52  C   UNL A   1      44.175  25.850  29.765  1.00  0.00     0.031 C 
ATOM     53  C   UNL A   1      43.811  28.929  34.989  1.00  0.00     0.029 A 
ATOM     54  C   UNL A   1      43.543  28.445  33.719  1.00  0.00     0.049 A 
ATOM     55  H   UNL A   1      41.966  28.952  32.411  1.00  0.00     0.167 HD
ATOM     56  C   UNL A   1      43.947  27.037  31.715  1.00  0.00     0.074 A 
ATOM     57  C   UNL A   1      44.693  26.044  30.969  1.00  0.00     0.031 C 
ATOM     58  C   UNL A   1      44.277  27.460  32.962  1.00  0.00     0.034 A 
BRANCH  45  59
ATOM     59  C   UNL A   1      40.436  31.751  35.272  1.00  0.00     0.023 A 
ATOM     60  C   UNL A   1      39.463  31.445  36.241  1.00  0.00     0.031 A 
ATOM     61  C   UNL A   1      41.071  33.003  35.352  1.00  0.00     0.131 A 
ATOM     62  C   UNL A   1      39.093  32.407  37.192  1.00  0.00     0.055 A 
ATOM     63  C   UNL A   1      40.759  33.924  36.356  1.00  0.00     0.041 A 
ATOM     64  F   UNL A   1      41.994  33.361  34.447  1.00  0.00    -0.206 F 
ATOM     65  C   UNL A   1      39.752  33.636  37.272  1.00  0.00     0.022 A 
BRANCH  62  66
ATOM     66  S   UNL A   1      37.634  32.088  38.220  1.00  0.00     0.124 S 
ATOM     67  O   UNL A   1      37.351  30.691  37.902  1.00  0.00    -0.237 OA
ATOM     68  O   UNL A   1      38.134  32.348  39.565  1.00  0.00    -0.237 OA
ATOM     69  O   UNL A   1      36.648  33.045  37.724  1.00  0.00    -0.744 OA
ENDBRANCH  62  66
ENDBRANCH  45  59
BRANCH  46  70
ATOM     70  C   UNL A   1      42.449  25.891  27.398  1.00  0.00     0.023 A 
ATOM     71  C   UNL A   1      42.074  24.540  27.326  1.00  0.00     0.031 A 
ATOM     72  C   UNL A   1      43.193  26.426  26.332  1.00  0.00     0.131 A 
ATOM     73  C   UNL A   1      42.482  23.757  26.235  1.00  0.00     0.055 A 
ATOM     74  C   UNL A   1      43.556  25.656  25.225  1.00  0.00     0.041 A 
ATOM     75  F   UNL A   1      43.570  27.715  26.347  1.00  0.00    -0.206 F 
ATOM     76  C   UNL A   1      43.211  24.308  25.179  1.00  0.00     0.022 A 
BRANCH  73  77
ATOM     77  S   UNL A   1      42.111  21.982  26.254  1.00  0.00     0.124 S 
ATOM     78  O   UNL A   1      42.504  21.611  27.609  1.00  0.00    -0.237 OA
ATOM     79  O   UNL A   1      40.680  21.969  25.973  1.00  0.00    -0.237 OA
ATOM     80  O   UNL A   1      42.957  21.446  25.190  1.00  0.00    -0.744 OA
ENDBRANCH  73  77
ENDBRANCH  46  70
BRANCH  58  81
ATOM     81  C   UNL A   1      45.468  26.803  33.613  1.00  0.00     0.023 A 
ATOM     82  C   UNL A   1      45.351  25.604  34.337  1.00  0.00     0.031 A 
ATOM     83  C   UNL A   1      46.740  27.394  33.510  1.00  0.00     0.131 A 
ATOM     84  C   UNL A   1      46.478  25.060  34.972  1.00  0.00     0.055 A 
ATOM     85  C   UNL A   1      47.867  26.819  34.099  1.00  0.00     0.041 A 
ATOM     86  F   UNL A   1      46.908  28.540  32.831  1.00  0.00    -0.206 F 
ATOM     87  C   UNL A   1      47.737  25.652  34.845  1.00  0.00     0.022 A 
BRANCH  84  88
ATOM     88  S   UNL A   1      46.261  23.607  36.035  1.00  0.00     0.124 S 
ATOM     89  O   UNL A   1      44.870  23.245  35.777  1.00  0.00    -0.237 OA
ATOM     90  O   UNL A   1      47.267  22.686  35.516  1.00  0.00    -0.237 OA
ATOM     91  O   UNL A   1      46.527  24.121  37.378  1.00  0.00    -0.744 OA
ENDBRANCH  84  88
ENDBRANCH  58  81
ENDBRANCH  32  33
ENDBRANCH  24  27
ENDBRANCH  22  23
ENDBRANCH   1  22
TORSDOF 16
ENDMDL
MODEL 3
REMARK VINA RESULT:     -11.9      2.082      2.668
REMARK SMILES Cc1noc(-c2ccc(CCl)cc2)c1C(=O)NCCCCNC(=O)c1ccc(-c2c3nc(c(-c4cc(S(=O)(=O)[O-])ccc4F)c4ccc([nH]4)c(-c4cc(S(=O)(=O)[O-])ccc4F)c4nc(c(-c5cc(S(=O)(=O)[O-])ccc5F)c5ccc2[nH]5)C=C4)C=C3)cc1
REMARK SMILES IDX 20 1 19 2 18 3 17 4 15 5 16 6 14 8 1 9 2 10 3 11 4 12 5 13
REMARK SMILES IDX 6 14 7 15 13 16 8 17 12 18 9 19 10 20 11 21 21 22 22 23
REMARK SMILES IDX 23 24 24 26 25 27 26 28 87 29 27 30 86 31 28 32 29 33 30 34
REMARK SMILES IDX 80 35 31 36 85 37 79 38 81 39 32 40 84 41 78 42 77 43 33 45
REMARK SMILES IDX 65 46 45 47 64 48 46 49 49 50 63 51 82 52 47 53 48 54 62 56
REMARK SMILES IDX 83 57 50 58 34 59 35 60 43 61 36 62 42 63 44 64 41 65 37 66
REMARK SMILES IDX 38 67 39 68 40 69 66 70 67 71 75 72 68 73 74 74 76 75 73 76
REMARK SMILES IDX 69 77 70 78 71 79 72 80 51 81 52 82 60 83 53 84 59 85 61 86
REMARK SMILES IDX 58 87 54 88 55 89 56 90 57 91
REMARK H PARENT 17 7 22 25 81 44 49 55
REMARK Flexibility Score: inf
ROOT
ATOM      1  C   UNL A   1      32.096  31.082  26.880  1.00  0.00     0.023 C 
ENDROOT
BRANCH   1   2
ATOM      2  C   UNL A   1      32.528  29.815  26.151  1.00  0.00     0.023 C 
BRANCH   2   3
ATOM      3  C   UNL A   1      33.053  28.661  26.997  1.00  0.00     0.116 C 
BRANCH   3   4
ATOM      4  N   UNL A   1      32.139  27.555  27.157  1.00  0.00    -0.352 N 
ATOM      5  C   UNL A   1      31.901  26.436  26.397  1.00  0.00     0.257 C 
ATOM      6  O   UNL A   1      31.040  25.675  26.843  1.00  0.00    -0.269 OA
ATOM      7  H   UNL A   1      31.581  27.614  27.964  1.00  0.00     0.163 HD
BRANCH   5   8
ATOM      8  C   UNL A   1      32.562  26.159  25.128  1.00  0.00     0.110 A 
ATOM      9  C   UNL A   1      34.416  24.259  25.414  1.00  0.00     0.071 C 
ATOM     10  C   UNL A   1      33.617  25.284  24.699  1.00  0.00     0.094 A 
ATOM     11  N   UNL A   1      33.856  25.402  23.386  1.00  0.00    -0.084 NA
ATOM     12  O   UNL A   1      32.905  26.259  22.904  1.00  0.00    -0.355 OA
ATOM     13  C   UNL A   1      32.113  26.685  23.921  1.00  0.00     0.179 A 
BRANCH  13  14
ATOM     14  C   UNL A   1      31.011  27.527  23.479  1.00  0.00     0.021 A 
ATOM     15  C   UNL A   1      31.290  28.746  22.843  1.00  0.00     0.012 A 
ATOM     16  C   UNL A   1      29.678  27.162  23.684  1.00  0.00     0.012 A 
ATOM     17  C   UNL A   1      30.257  29.578  22.408  1.00  0.00     0.006 A 
ATOM     18  C   UNL A   1      28.641  28.002  23.258  1.00  0.00     0.006 A 
ATOM     19  C   UNL A   1      28.919  29.215  22.611  1.00  0.00    -0.033 A 
BRANCH  19  20
ATOM     20  C   UNL A   1      27.805  30.103  22.126  1.00  0.00     0.145 C 
ATOM     21  Cl  UNL A   1      27.429  31.368  23.316  1.00  0.00    -0.122 Cl
ENDBRANCH  19  20
ENDBRANCH  13  14
ENDBRANCH   5   8
ENDBRANCH   3   4
ENDBRANCH   2   3
ENDBRANCH   1   2
BRANCH   1  22
ATOM     22  C   UNL A   1      33.190  32.091  27.216  1.00  0.00     0.116 C 
BRANCH  22  23
ATOM     23  N   UNL A   1      32.698  33.427  27.523  1.00  0.00    -0.352 N 
ATOM     24  C   UNL A   1      33.153  34.340  28.447  1.00  0.00     0.251 C 
ATOM     25  H   UNL A   1      31.922  33.719  26.991  1.00  0.00     0.163 HD
ATOM     26  O   UNL A   1      32.557  35.405  28.591  1.00  0.00    -0.269 OA
BRANCH  24  27
ATOM     27  C   UNL A   1      34.321  34.017  29.297  1.00  0.00     0.039 A 
ATOM     28  C   UNL A   1      34.114  33.321  30.491  1.00  0.00     0.014 A 
ATOM     29  C   UNL A   1      35.616  34.351  28.896  1.00  0.00     0.014 A 
ATOM     30  C   UNL A   1      35.211  32.869  31.228  1.00  0.00     0.010 A 
ATOM     31  C   UNL A   1      36.707  33.831  29.589  1.00  0.00     0.010 A 
ATOM     32  C   UNL A   1      36.517  33.073  30.754  1.00  0.00    -0.014 A 
BRANCH  32  33
ATOM     33  C   UNL A   1      37.698  32.489  31.448  1.00  0.00     0.031 A 
ATOM     34  C   UNL A   1      38.455  31.351  30.819  1.00  0.00     0.074 A 
ATOM     35  C   UNL A   1      38.031  32.923  32.681  1.00  0.00     0.049 A 
ATOM     36  N   UNL A   1      39.429  30.631  31.310  1.00  0.00    -0.248 NA
ATOM     37  C   UNL A   1      38.029  30.949  29.470  1.00  0.00     0.031 C 
ATOM     38  C   UNL A   1      37.344  33.984  33.421  1.00  0.00     0.029 A 
ATOM     39  N   UNL A   1      39.022  32.513  33.539  1.00  0.00    -0.354 N 
ATOM     40  C   UNL A   1      39.720  29.676  30.342  1.00  0.00     0.074 A 
ATOM     41  C   UNL A   1      38.774  29.874  29.263  1.00  0.00     0.031 C 
ATOM     42  C   UNL A   1      37.945  34.156  34.609  1.00  0.00     0.029 A 
ATOM     43  C   UNL A   1      39.032  33.189  34.738  1.00  0.00     0.049 A 
ATOM     44  H   UNL A   1      39.666  31.802  33.317  1.00  0.00     0.167 HD
ATOM     45  C   UNL A   1      40.698  28.736  30.342  1.00  0.00     0.034 A 
ATOM     46  C   UNL A   1      39.817  33.041  35.823  1.00  0.00     0.034 A 
ATOM     47  C   UNL A   1      41.647  28.566  31.415  1.00  0.00     0.049 A 
ATOM     48  C   UNL A   1      40.900  31.991  35.801  1.00  0.00     0.074 A 
ATOM     49  C   UNL A   1      42.713  27.687  31.494  1.00  0.00     0.029 A 
ATOM     50  N   UNL A   1      41.644  29.289  32.601  1.00  0.00    -0.354 N 
ATOM     51  N   UNL A   1      41.192  31.126  34.856  1.00  0.00    -0.248 NA
ATOM     52  C   UNL A   1      41.765  31.906  36.984  1.00  0.00     0.031 C 
ATOM     53  C   UNL A   1      43.319  27.840  32.746  1.00  0.00     0.029 A 
ATOM     54  C   UNL A   1      42.673  28.861  33.424  1.00  0.00     0.049 A 
ATOM     55  H   UNL A   1      41.002  30.003  32.825  1.00  0.00     0.167 HD
ATOM     56  C   UNL A   1      42.296  30.417  35.321  1.00  0.00     0.074 A 
ATOM     57  C   UNL A   1      42.622  30.961  36.623  1.00  0.00     0.031 C 
ATOM     58  C   UNL A   1      42.983  29.411  34.722  1.00  0.00     0.034 A 
BRANCH  45  59
ATOM     59  C   UNL A   1      40.768  27.812  29.150  1.00  0.00     0.023 A 
ATOM     60  C   UNL A   1      41.716  27.999  28.127  1.00  0.00     0.031 A 
ATOM     61  C   UNL A   1      39.853  26.753  29.011  1.00  0.00     0.131 A 
ATOM     62  C   UNL A   1      41.672  27.199  26.976  1.00  0.00     0.055 A 
ATOM     63  C   UNL A   1      39.872  25.904  27.902  1.00  0.00     0.041 A 
ATOM     64  F   UNL A   1      38.915  26.535  29.945  1.00  0.00    -0.206 F 
ATOM     65  C   UNL A   1      40.773  26.137  26.867  1.00  0.00     0.022 A 
BRANCH  62  66
ATOM     66  S   UNL A   1      42.705  27.666  25.561  1.00  0.00     0.124 S 
ATOM     67  O   UNL A   1      43.991  27.918  26.206  1.00  0.00    -0.237 OA
ATOM     68  O   UNL A   1      42.637  26.481  24.715  1.00  0.00    -0.237 OA
ATOM     69  O   UNL A   1      42.041  28.853  25.028  1.00  0.00    -0.744 OA
ENDBRANCH  62  66
ENDBRANCH  45  59
BRANCH  46  70
ATOM     70  C   UNL A   1      39.616  33.897  37.026  1.00  0.00     0.023 A 
ATOM     71  C   UNL A   1      39.034  33.377  38.193  1.00  0.00     0.031 A 
ATOM     72  C   UNL A   1      39.965  35.259  37.014  1.00  0.00     0.131 A 
ATOM     73  C   UNL A   1      38.775  34.222  39.284  1.00  0.00     0.055 A 
ATOM     74  C   UNL A   1      39.751  36.085  38.119  1.00  0.00     0.041 A 
ATOM     75  F   UNL A   1      40.533  35.804  35.927  1.00  0.00    -0.206 F 
ATOM     76  C   UNL A   1      39.140  35.569  39.259  1.00  0.00     0.022 A 
BRANCH  73  77
ATOM     77  S   UNL A   1      37.882  33.549  40.711  1.00  0.00     0.124 S 
ATOM     78  O   UNL A   1      37.970  34.650  41.663  1.00  0.00    -0.237 OA
ATOM     79  O   UNL A   1      36.562  33.290  40.146  1.00  0.00    -0.237 OA
ATOM     80  O   UNL A   1      38.651  32.357  41.062  1.00  0.00    -0.744 OA
ENDBRANCH  73  77
ENDBRANCH  46  70
BRANCH  58  81
ATOM     81  C   UNL A   1      44.187  28.876  35.454  1.00  0.00     0.023 A 
ATOM     82  C   UNL A   1      44.086  27.824  36.380  1.00  0.00     0.031 A 
ATOM     83  C   UNL A   1      45.457  29.435  35.221  1.00  0.00     0.131 A 
ATOM     84  C   UNL A   1      45.227  27.396  37.077  1.00  0.00     0.055 A 
ATOM     85  C   UNL A   1      46.596  28.970  35.879  1.00  0.00     0.041 A 
ATOM     86  F   UNL A   1      45.609  30.443  34.347  1.00  0.00    -0.206 F 
ATOM     87  C   UNL A   1      46.483  27.952  36.821  1.00  0.00     0.022 A 
BRANCH  84  88
ATOM     88  S   UNL A   1      45.033  26.154  38.384  1.00  0.00     0.124 S 
ATOM     89  O   UNL A   1      46.374  25.583  38.463  1.00  0.00    -0.237 OA
ATOM     90  O   UNL A   1      44.616  26.962  39.525  1.00  0.00    -0.237 OA
ATOM     91  O   UNL A   1      44.008  25.256  37.855  1.00  0.00    -0.744 OA
ENDBRANCH  84  88
ENDBRANCH  58  81
ENDBRANCH  32  33
ENDBRANCH  24  27
ENDBRANCH  22  23
ENDBRANCH   1  22
TORSDOF 16
ENDMDL
