MODEL 1
REMARK VINA RESULT:     -13.7      0.000      0.000
REMARK SMILES CN1C(=O)/C(=C(\SC2=[NH+][C@@H]3N=c4ccccc4=C3N=N2)C(=O)NCCCCNC(=O)c2ccc(-c3c4nc(c(-c5cc(S(=O)(=O)[O-])ccc5F)c5ccc([nH]5)c(-c5cc(S(=O)(=O)[O-])ccc5F)c5nc(c(-c6cc(S(=O)(=O)[O-])ccc6F)c6ccc3[nH]6)C=C5)C=C4)cc2)c2ccccc21
REMARK SMILES IDX 26 1 25 2 24 3 23 4 21 5 22 6 6 8 1 9 2 10 3 11 99 12 4 13
REMARK SMILES IDX 5 14 94 15 98 16 95 17 97 18 96 19 7 20 8 21 9 22 20 23
REMARK SMILES IDX 10 24 19 26 11 27 18 28 12 29 17 30 13 31 16 32 14 33 15 34
REMARK SMILES IDX 27 35 28 36 29 37 30 39 31 40 32 41 93 42 33 43 92 44 34 45
REMARK SMILES IDX 35 46 36 47 86 48 37 49 91 50 85 51 87 52 38 53 90 54 84 55
REMARK SMILES IDX 83 56 39 58 71 59 51 60 70 61 52 62 55 63 69 64 88 65 53 66
REMARK SMILES IDX 54 67 68 69 89 70 56 71 40 72 41 73 49 74 42 75 48 76 50 77
REMARK SMILES IDX 47 78 43 79 44 80 45 81 46 82 72 83 73 84 81 85 74 86 80 87
REMARK SMILES IDX 82 88 79 89 75 90 76 91 77 92 78 93 57 94 58 95 66 96 59 97
REMARK SMILES IDX 65 98 67 99 64 100 60 101 61 102 62 103 63 104
REMARK H PARENT 23 7 9 25 28 38 87 57 55 68
REMARK Flexibility Score: inf
ROOT
ATOM      1  C   UNL A   1      31.399  30.427  26.946  1.00  0.00     0.023 C 
ENDROOT
BRANCH   1   2
ATOM      2  C   UNL A   1      31.759  28.985  26.581  1.00  0.00     0.023 C 
BRANCH   2   3
ATOM      3  C   UNL A   1      31.893  28.005  27.751  1.00  0.00     0.116 C 
BRANCH   3   4
ATOM      4  N   UNL A   1      31.346  26.706  27.395  1.00  0.00    -0.352 N 
ATOM      5  C   UNL A   1      31.427  25.836  26.359  1.00  0.00     0.259 C 
ATOM      6  O   UNL A   1      30.504  25.016  26.390  1.00  0.00    -0.269 OA
ATOM      7  H   UNL A   1      30.751  26.363  28.102  1.00  0.00     0.163 HD
BRANCH   5   8
ATOM      8  C   UNL A   1      32.501  25.771  25.275  1.00  0.00     0.098 C 
ATOM      9  C   UNL A   1      34.116  28.303  21.573  1.00  0.00     0.153 C 
ATOM     10  N   UNL A   1      33.151  27.677  22.431  1.00  0.00    -0.311 N 
ATOM     11  C   UNL A   1      33.258  26.403  22.961  1.00  0.00     0.260 C 
ATOM     12  C   UNL A   1      31.873  28.182  22.711  1.00  0.00     0.052 A 
ATOM     13  O   UNL A   1      33.941  25.468  22.549  1.00  0.00    -0.269 OA
ATOM     14  C   UNL A   1      32.253  26.364  24.074  1.00  0.00     0.069 C 
ATOM     15  C   UNL A   1      31.214  27.319  23.600  1.00  0.00     0.012 A 
ATOM     16  C   UNL A   1      31.241  29.247  22.087  1.00  0.00     0.027 A 
ATOM     17  C   UNL A   1      29.838  27.422  23.727  1.00  0.00     0.011 A 
ATOM     18  C   UNL A   1      29.868  29.387  22.284  1.00  0.00     0.002 A 
ATOM     19  C   UNL A   1      29.168  28.465  23.075  1.00  0.00     0.001 A 
BRANCH   8  20
ATOM     20  S   UNL A   1      33.916  24.806  25.633  1.00  0.00     0.011 SA
BRANCH  20  21
ATOM     21  C   UNL A   1      33.659  23.105  25.166  1.00  0.00     0.386 C 
ATOM     22  N   UNL A   1      34.545  22.230  25.540  1.00  0.00    -0.235 N 
ATOM     23  N   UNL A   1      32.421  22.817  24.628  1.00  0.00     0.088 NA
ATOM     24  C   UNL A   1      33.990  20.877  25.595  1.00  0.00     0.348 C 
ATOM     25  H   UNL A   1      35.479  22.450  25.758  1.00  0.00     0.308 HD
ATOM     26  N   UNL A   1      32.075  21.663  24.307  1.00  0.00    -0.033 NA
ATOM     27  N   UNL A   1      34.955  19.769  25.372  1.00  0.00    -0.232 NA
ATOM     28  C   UNL A   1      32.931  20.662  24.587  1.00  0.00     0.165 C 
ATOM     29  C   UNL A   1      34.295  18.986  24.563  1.00  0.00     0.072 A 
ATOM     30  C   UNL A   1      33.012  19.467  24.027  1.00  0.00     0.032 A 
ATOM     31  C   UNL A   1      34.718  17.653  24.065  1.00  0.00     0.029 A 
ATOM     32  C   UNL A   1      32.247  18.752  23.057  1.00  0.00     0.012 A 
ATOM     33  C   UNL A   1      33.942  17.004  23.176  1.00  0.00     0.002 A 
ATOM     34  C   UNL A   1      32.697  17.553  22.658  1.00  0.00     0.001 A 
ENDBRANCH  20  21
ENDBRANCH   8  20
ENDBRANCH   5   8
ENDBRANCH   3   4
ENDBRANCH   2   3
ENDBRANCH   1   2
BRANCH   1  35
ATOM     35  C   UNL A   1      32.194  31.511  26.224  1.00  0.00     0.116 C 
BRANCH  35  36
ATOM     36  N   UNL A   1      32.044  32.829  26.823  1.00  0.00    -0.352 N 
ATOM     37  C   UNL A   1      32.856  33.475  27.728  1.00  0.00     0.251 C 
ATOM     38  H   UNL A   1      31.246  33.331  26.540  1.00  0.00     0.163 HD
ATOM     39  O   UNL A   1      32.504  34.550  28.204  1.00  0.00    -0.269 OA
BRANCH  37  40
ATOM     40  C   UNL A   1      34.126  32.849  28.155  1.00  0.00     0.039 A 
ATOM     41  C   UNL A   1      34.154  31.529  28.609  1.00  0.00     0.014 A 
ATOM     42  C   UNL A   1      35.299  33.609  28.136  1.00  0.00     0.014 A 
ATOM     43  C   UNL A   1      35.309  31.031  29.203  1.00  0.00     0.010 A 
ATOM     44  C   UNL A   1      36.480  33.078  28.664  1.00  0.00     0.010 A 
ATOM     45  C   UNL A   1      36.481  31.805  29.253  1.00  0.00    -0.014 A 
BRANCH  45  46
ATOM     46  C   UNL A   1      37.685  31.263  29.937  1.00  0.00     0.031 A 
ATOM     47  C   UNL A   1      38.002  31.649  31.358  1.00  0.00     0.074 A 
ATOM     48  C   UNL A   1      38.461  30.371  29.292  1.00  0.00     0.049 A 
ATOM     49  N   UNL A   1      38.980  31.237  32.123  1.00  0.00    -0.248 NA
ATOM     50  C   UNL A   1      37.108  32.624  32.006  1.00  0.00     0.031 C 
ATOM     51  C   UNL A   1      38.245  29.922  27.916  1.00  0.00     0.029 A 
ATOM     52  N   UNL A   1      39.562  29.664  29.706  1.00  0.00    -0.354 N 
ATOM     53  C   UNL A   1      38.829  31.905  33.333  1.00  0.00     0.074 A 
ATOM     54  C   UNL A   1      37.684  32.778  33.191  1.00  0.00     0.031 C 
ATOM     55  C   UNL A   1      39.150  28.980  27.617  1.00  0.00     0.029 A 
ATOM     56  C   UNL A   1      40.050  28.799  28.753  1.00  0.00     0.049 A 
ATOM     57  H   UNL A   1      39.965  29.766  30.599  1.00  0.00     0.167 HD
ATOM     58  C   UNL A   1      39.567  31.787  34.462  1.00  0.00     0.034 A 
ATOM     59  C   UNL A   1      41.106  27.960  28.783  1.00  0.00     0.034 A 
ATOM     60  C   UNL A   1      40.693  30.898  34.597  1.00  0.00     0.049 A 
ATOM     61  C   UNL A   1      41.922  27.863  30.046  1.00  0.00     0.074 A 
ATOM     62  C   UNL A   1      41.494  30.698  35.708  1.00  0.00     0.029 A 
ATOM     63  N   UNL A   1      41.175  30.060  33.604  1.00  0.00    -0.354 N 
ATOM     64  N   UNL A   1      41.740  28.475  31.193  1.00  0.00    -0.248 NA
ATOM     65  C   UNL A   1      43.085  26.964  30.025  1.00  0.00     0.031 C 
ATOM     66  C   UNL A   1      42.485  29.776  35.373  1.00  0.00     0.029 A 
ATOM     67  C   UNL A   1      42.272  29.354  34.069  1.00  0.00     0.049 A 
ATOM     68  H   UNL A   1      40.792  29.977  32.699  1.00  0.00     0.167 HD
ATOM     69  C   UNL A   1      42.757  28.028  32.032  1.00  0.00     0.074 A 
ATOM     70  C   UNL A   1      43.531  27.069  31.270  1.00  0.00     0.031 C 
ATOM     71  C   UNL A   1      43.029  28.390  33.310  1.00  0.00     0.034 A 
BRANCH  58  72
ATOM     72  C   UNL A   1      39.187  32.613  35.665  1.00  0.00     0.023 A 
ATOM     73  C   UNL A   1      39.687  33.922  35.810  1.00  0.00     0.031 A 
ATOM     74  C   UNL A   1      38.449  32.060  36.726  1.00  0.00     0.131 A 
ATOM     75  C   UNL A   1      39.472  34.620  37.006  1.00  0.00     0.055 A 
ATOM     76  C   UNL A   1      38.207  32.773  37.901  1.00  0.00     0.041 A 
ATOM     77  F   UNL A   1      37.950  30.817  36.633  1.00  0.00    -0.206 F 
ATOM     78  C   UNL A   1      38.731  34.056  38.049  1.00  0.00     0.022 A 
BRANCH  75  79
ATOM     79  S   UNL A   1      40.189  36.264  37.276  1.00  0.00     0.124 S 
ATOM     80  O   UNL A   1      40.033  36.879  35.961  1.00  0.00    -0.237 OA
ATOM     81  O   UNL A   1      39.327  36.803  38.324  1.00  0.00    -0.237 OA
ATOM     82  O   UNL A   1      41.566  35.985  37.670  1.00  0.00    -0.744 OA
ENDBRANCH  75  79
ENDBRANCH  58  72
BRANCH  59  83
ATOM     83  C   UNL A   1      41.401  27.124  27.583  1.00  0.00     0.023 A 
ATOM     84  C   UNL A   1      41.081  25.755  27.562  1.00  0.00     0.031 A 
ATOM     85  C   UNL A   1      42.107  27.655  26.492  1.00  0.00     0.131 A 
ATOM     86  C   UNL A   1      41.533  24.948  26.510  1.00  0.00     0.055 A 
ATOM     87  C   UNL A   1      42.494  26.862  25.409  1.00  0.00     0.041 A 
ATOM     88  F   UNL A   1      42.446  28.953  26.471  1.00  0.00    -0.206 F 
ATOM     89  C   UNL A   1      42.224  25.496  25.426  1.00  0.00     0.022 A 
BRANCH  86  90
ATOM     90  S   UNL A   1      41.374  23.142  26.593  1.00  0.00     0.124 S 
ATOM     91  O   UNL A   1      42.352  22.706  25.601  1.00  0.00    -0.237 OA
ATOM     92  O   UNL A   1      41.726  22.873  27.986  1.00  0.00    -0.237 OA
ATOM     93  O   UNL A   1      39.976  22.904  26.253  1.00  0.00    -0.744 OA
ENDBRANCH  86  90
ENDBRANCH  59  83
BRANCH  71  94
ATOM     94  C   UNL A   1      44.218  27.764  33.997  1.00  0.00     0.023 A 
ATOM     95  C   UNL A   1      44.052  26.609  34.785  1.00  0.00     0.031 A 
ATOM     96  C   UNL A   1      45.473  28.396  33.995  1.00  0.00     0.131 A 
ATOM     97  C   UNL A   1      45.114  26.143  35.569  1.00  0.00     0.055 A 
ATOM     98  C   UNL A   1      46.541  27.904  34.747  1.00  0.00     0.041 A 
ATOM     99  F   UNL A   1      45.676  29.505  33.268  1.00  0.00    -0.206 F 
ATOM    100  C   UNL A   1      46.359  26.781  35.549  1.00  0.00     0.022 A 
BRANCH  97 101
ATOM    101  S   UNL A   1      44.898  24.747  36.707  1.00  0.00     0.124 S 
ATOM    102  O   UNL A   1      43.604  25.050  37.314  1.00  0.00    -0.237 OA
ATOM    103  O   UNL A   1      44.908  23.604  35.798  1.00  0.00    -0.237 OA
ATOM    104  O   UNL A   1      46.045  24.843  37.605  1.00  0.00    -0.744 OA
ENDBRANCH  97 101
ENDBRANCH  71  94
ENDBRANCH  45  46
ENDBRANCH  37  40
ENDBRANCH  35  36
ENDBRANCH   1  35
TORSDOF 16
ENDMDL
MODEL 2
REMARK VINA RESULT:     -13.4      1.504      4.769
REMARK SMILES CN1C(=O)/C(=C(\SC2=[NH+][C@@H]3N=c4ccccc4=C3N=N2)C(=O)NCCCCNC(=O)c2ccc(-c3c4nc(c(-c5cc(S(=O)(=O)[O-])ccc5F)c5ccc([nH]5)c(-c5cc(S(=O)(=O)[O-])ccc5F)c5nc(c(-c6cc(S(=O)(=O)[O-])ccc6F)c6ccc3[nH]6)C=C5)C=C4)cc2)c2ccccc21
REMARK SMILES IDX 26 1 25 2 24 3 23 4 21 5 22 6 6 8 1 9 2 10 3 11 99 12 4 13
REMARK SMILES IDX 5 14 94 15 98 16 95 17 97 18 96 19 7 20 8 21 9 22 20 23
REMARK SMILES IDX 10 24 19 26 11 27 18 28 12 29 17 30 13 31 16 32 14 33 15 34
REMARK SMILES IDX 27 35 28 36 29 37 30 39 31 40 32 41 93 42 33 43 92 44 34 45
REMARK SMILES IDX 35 46 36 47 86 48 37 49 91 50 85 51 87 52 38 53 90 54 84 55
REMARK SMILES IDX 83 56 39 58 71 59 51 60 70 61 52 62 55 63 69 64 88 65 53 66
REMARK SMILES IDX 54 67 68 69 89 70 56 71 40 72 41 73 49 74 42 75 48 76 50 77
REMARK SMILES IDX 47 78 43 79 44 80 45 81 46 82 72 83 73 84 81 85 74 86 80 87
REMARK SMILES IDX 82 88 79 89 75 90 76 91 77 92 78 93 57 94 58 95 66 96 59 97
REMARK SMILES IDX 65 98 67 99 64 100 60 101 61 102 62 103 63 104
REMARK H PARENT 23 7 9 25 28 38 87 57 55 68
REMARK Flexibility Score: inf
ROOT
ATOM      1  C   UNL A   1      31.815  29.534  25.251  1.00  0.00     0.023 C 
ENDROOT
BRANCH   1   2
ATOM      2  C   UNL A   1      33.082  29.173  24.472  1.00  0.00     0.023 C 
BRANCH   2   3
ATOM      3  C   UNL A   1      33.376  27.677  24.316  1.00  0.00     0.116 C 
BRANCH   3   4
ATOM      4  N   UNL A   1      32.903  26.939  25.475  1.00  0.00    -0.352 N 
ATOM      5  C   UNL A   1      32.216  25.797  25.721  1.00  0.00     0.259 C 
ATOM      6  O   UNL A   1      31.777  25.779  26.876  1.00  0.00    -0.269 OA
ATOM      7  H   UNL A   1      33.147  27.396  26.313  1.00  0.00     0.163 HD
BRANCH   5   8
ATOM      8  C   UNL A   1      31.999  24.615  24.779  1.00  0.00     0.098 C 
ATOM      9  C   UNL A   1      33.615  20.192  24.033  1.00  0.00     0.153 C 
ATOM     10  N   UNL A   1      33.683  21.602  24.292  1.00  0.00    -0.311 N 
ATOM     11  C   UNL A   1      32.933  22.570  23.648  1.00  0.00     0.260 C 
ATOM     12  C   UNL A   1      34.644  22.229  25.098  1.00  0.00     0.052 A 
ATOM     13  O   UNL A   1      32.382  22.495  22.552  1.00  0.00    -0.269 OA
ATOM     14  C   UNL A   1      33.051  23.788  24.516  1.00  0.00     0.069 C 
ATOM     15  C   UNL A   1      34.391  23.608  25.138  1.00  0.00     0.012 A 
ATOM     16  C   UNL A   1      35.791  21.657  25.628  1.00  0.00     0.027 A 
ATOM     17  C   UNL A   1      35.401  24.456  25.564  1.00  0.00     0.011 A 
ATOM     18  C   UNL A   1      36.769  22.517  26.126  1.00  0.00     0.002 A 
ATOM     19  C   UNL A   1      36.587  23.906  26.069  1.00  0.00     0.001 A 
BRANCH   8  20
ATOM     20  S   UNL A   1      30.435  24.509  24.003  1.00  0.00     0.011 SA
BRANCH  20  21
ATOM     21  C   UNL A   1      29.777  26.133  23.678  1.00  0.00     0.386 C 
ATOM     22  N   UNL A   1      30.482  26.940  22.941  1.00  0.00    -0.235 N 
ATOM     23  N   UNL A   1      28.463  26.328  24.055  1.00  0.00     0.088 NA
ATOM     24  C   UNL A   1      29.653  27.966  22.305  1.00  0.00     0.348 C 
ATOM     25  H   UNL A   1      31.456  26.872  22.826  1.00  0.00     0.308 HD
ATOM     26  N   UNL A   1      27.849  27.392  23.841  1.00  0.00    -0.033 NA
ATOM     27  N   UNL A   1      30.333  29.252  22.001  1.00  0.00    -0.232 NA
ATOM     28  C   UNL A   1      28.489  28.342  23.134  1.00  0.00     0.165 C 
ATOM     29  C   UNL A   1      29.451  30.131  22.393  1.00  0.00     0.072 A 
ATOM     30  C   UNL A   1      28.261  29.644  23.109  1.00  0.00     0.032 A 
ATOM     31  C   UNL A   1      29.531  31.606  22.245  1.00  0.00     0.029 A 
ATOM     32  C   UNL A   1      27.278  30.509  23.677  1.00  0.00     0.012 A 
ATOM     33  C   UNL A   1      28.558  32.374  22.771  1.00  0.00     0.002 A 
ATOM     34  C   UNL A   1      27.421  31.831  23.500  1.00  0.00     0.001 A 
ENDBRANCH  20  21
ENDBRANCH   8  20
ENDBRANCH   5   8
ENDBRANCH   3   4
ENDBRANCH   2   3
ENDBRANCH   1   2
BRANCH   1  35
ATOM     35  C   UNL A   1      32.034  30.036  26.675  1.00  0.00     0.116 C 
BRANCH  35  36
ATOM     36  N   UNL A   1      31.950  31.484  26.794  1.00  0.00    -0.352 N 
ATOM     37  C   UNL A   1      32.862  32.374  27.316  1.00  0.00     0.251 C 
ATOM     38  H   UNL A   1      31.119  31.887  26.450  1.00  0.00     0.163 HD
ATOM     39  O   UNL A   1      32.563  33.559  27.428  1.00  0.00    -0.269 OA
BRANCH  37  40
ATOM     40  C   UNL A   1      34.179  31.888  27.782  1.00  0.00     0.039 A 
ATOM     41  C   UNL A   1      34.391  30.532  28.037  1.00  0.00     0.014 A 
ATOM     42  C   UNL A   1      35.205  32.812  28.002  1.00  0.00     0.014 A 
ATOM     43  C   UNL A   1      35.560  30.126  28.673  1.00  0.00     0.010 A 
ATOM     44  C   UNL A   1      36.410  32.388  28.571  1.00  0.00     0.010 A 
ATOM     45  C   UNL A   1      36.576  31.052  28.963  1.00  0.00    -0.014 A 
BRANCH  45  46
ATOM     46  C   UNL A   1      37.793  30.597  29.686  1.00  0.00     0.031 A 
ATOM     47  C   UNL A   1      38.054  31.034  31.104  1.00  0.00     0.074 A 
ATOM     48  C   UNL A   1      38.634  29.736  29.080  1.00  0.00     0.049 A 
ATOM     49  N   UNL A   1      39.037  30.697  31.900  1.00  0.00    -0.248 NA
ATOM     50  C   UNL A   1      37.092  31.970  31.708  1.00  0.00     0.031 C 
ATOM     51  C   UNL A   1      38.477  29.244  27.712  1.00  0.00     0.029 A 
ATOM     52  N   UNL A   1      39.764  29.105  29.536  1.00  0.00    -0.354 N 
ATOM     53  C   UNL A   1      38.819  31.383  33.089  1.00  0.00     0.074 A 
ATOM     54  C   UNL A   1      37.630  32.184  32.901  1.00  0.00     0.031 C 
ATOM     55  C   UNL A   1      39.440  28.349  27.456  1.00  0.00     0.029 A 
ATOM     56  C   UNL A   1      40.323  28.247  28.615  1.00  0.00     0.049 A 
ATOM     57  H   UNL A   1      40.140  29.250  30.434  1.00  0.00     0.167 HD
ATOM     58  C   UNL A   1      39.537  31.334  34.237  1.00  0.00     0.034 A 
ATOM     59  C   UNL A   1      41.424  27.472  28.689  1.00  0.00     0.034 A 
ATOM     60  C   UNL A   1      40.708  30.515  34.419  1.00  0.00     0.049 A 
ATOM     61  C   UNL A   1      42.215  27.451  29.971  1.00  0.00     0.074 A 
ATOM     62  C   UNL A   1      41.493  30.388  35.552  1.00  0.00     0.029 A 
ATOM     63  N   UNL A   1      41.260  29.683  33.456  1.00  0.00    -0.354 N 
ATOM     64  N   UNL A   1      41.972  28.078  31.099  1.00  0.00    -0.248 NA
ATOM     65  C   UNL A   1      43.428  26.621  29.998  1.00  0.00     0.031 C 
ATOM     66  C   UNL A   1      42.543  29.517  35.261  1.00  0.00     0.029 A 
ATOM     67  C   UNL A   1      42.385  29.054  33.963  1.00  0.00     0.049 A 
ATOM     68  H   UNL A   1      40.904  29.558  32.546  1.00  0.00     0.167 HD
ATOM     69  C   UNL A   1      42.992  27.710  31.970  1.00  0.00     0.074 A 
ATOM     70  C   UNL A   1      43.838  26.780  31.250  1.00  0.00     0.031 C 
ATOM     71  C   UNL A   1      43.214  28.117  33.244  1.00  0.00     0.034 A 
BRANCH  58  72
ATOM     72  C   UNL A   1      39.082  32.165  35.411  1.00  0.00     0.023 A 
ATOM     73  C   UNL A   1      39.575  33.472  35.584  1.00  0.00     0.031 A 
ATOM     74  C   UNL A   1      38.275  31.616  36.423  1.00  0.00     0.131 A 
ATOM     75  C   UNL A   1      39.285  34.174  36.762  1.00  0.00     0.055 A 
ATOM     76  C   UNL A   1      37.960  32.334  37.578  1.00  0.00     0.041 A 
ATOM     77  F   UNL A   1      37.780  30.374  36.301  1.00  0.00    -0.206 F 
ATOM     78  C   UNL A   1      38.476  33.615  37.756  1.00  0.00     0.022 A 
BRANCH  75  79
ATOM     79  S   UNL A   1      39.989  35.816  37.074  1.00  0.00     0.124 S 
ATOM     80  O   UNL A   1      39.278  36.222  38.284  1.00  0.00    -0.237 OA
ATOM     81  O   UNL A   1      41.405  35.511  37.254  1.00  0.00    -0.237 OA
ATOM     82  O   UNL A   1      39.653  36.576  35.875  1.00  0.00    -0.744 OA
ENDBRANCH  75  79
ENDBRANCH  58  72
BRANCH  59  83
ATOM     83  C   UNL A   1      41.795  26.627  27.517  1.00  0.00     0.023 A 
ATOM     84  C   UNL A   1      41.442  25.266  27.468  1.00  0.00     0.031 A 
ATOM     85  C   UNL A   1      42.601  27.137  26.487  1.00  0.00     0.131 A 
ATOM     86  C   UNL A   1      41.958  24.446  26.456  1.00  0.00     0.055 A 
ATOM     87  C   UNL A   1      43.054  26.333  25.439  1.00  0.00     0.041 A 
ATOM     88  F   UNL A   1      42.975  28.426  26.494  1.00  0.00    -0.206 F 
ATOM     89  C   UNL A   1      42.749  24.974  25.433  1.00  0.00     0.022 A 
BRANCH  86  90
ATOM     90  S   UNL A   1      41.745  22.645  26.525  1.00  0.00     0.124 S 
ATOM     91  O   UNL A   1      42.468  22.209  25.334  1.00  0.00    -0.237 OA
ATOM     92  O   UNL A   1      42.378  22.316  27.802  1.00  0.00    -0.237 OA
ATOM     93  O   UNL A   1      40.298  22.468  26.490  1.00  0.00    -0.744 OA
ENDBRANCH  86  90
ENDBRANCH  59  83
BRANCH  71  94
ATOM     94  C   UNL A   1      44.421  27.577  33.973  1.00  0.00     0.023 A 
ATOM     95  C   UNL A   1      44.308  26.420  34.766  1.00  0.00     0.031 A 
ATOM     96  C   UNL A   1      45.630  28.292  34.003  1.00  0.00     0.131 A 
ATOM     97  C   UNL A   1      45.374  26.031  35.586  1.00  0.00     0.055 A 
ATOM     98  C   UNL A   1      46.705  27.878  34.790  1.00  0.00     0.041 A 
ATOM     99  F   UNL A   1      45.780  29.407  33.271  1.00  0.00    -0.206 F 
ATOM    100  C   UNL A   1      46.574  26.751  35.597  1.00  0.00     0.022 A 
BRANCH  97 101
ATOM    101  S   UNL A   1      45.217  24.632  36.729  1.00  0.00     0.124 S 
ATOM    102  O   UNL A   1      44.475  25.229  37.837  1.00  0.00    -0.237 OA
ATOM    103  O   UNL A   1      44.473  23.663  35.930  1.00  0.00    -0.237 OA
ATOM    104  O   UNL A   1      46.598  24.267  37.032  1.00  0.00    -0.744 OA
ENDBRANCH  97 101
ENDBRANCH  71  94
ENDBRANCH  45  46
ENDBRANCH  37  40
ENDBRANCH  35  36
ENDBRANCH   1  35
TORSDOF 16
ENDMDL
MODEL 3
REMARK VINA RESULT:     -13.4      4.727      9.492
REMARK SMILES CN1C(=O)/C(=C(\SC2=[NH+][C@@H]3N=c4ccccc4=C3N=N2)C(=O)NCCCCNC(=O)c2ccc(-c3c4nc(c(-c5cc(S(=O)(=O)[O-])ccc5F)c5ccc([nH]5)c(-c5cc(S(=O)(=O)[O-])ccc5F)c5nc(c(-c6cc(S(=O)(=O)[O-])ccc6F)c6ccc3[nH]6)C=C5)C=C4)cc2)c2ccccc21
REMARK SMILES IDX 26 1 25 2 24 3 23 4 21 5 22 6 6 8 1 9 2 10 3 11 99 12 4 13
REMARK SMILES IDX 5 14 94 15 98 16 95 17 97 18 96 19 7 20 8 21 9 22 20 23
REMARK SMILES IDX 10 24 19 26 11 27 18 28 12 29 17 30 13 31 16 32 14 33 15 34
REMARK SMILES IDX 27 35 28 36 29 37 30 39 31 40 32 41 93 42 33 43 92 44 34 45
REMARK SMILES IDX 35 46 36 47 86 48 37 49 91 50 85 51 87 52 38 53 90 54 84 55
REMARK SMILES IDX 83 56 39 58 71 59 51 60 70 61 52 62 55 63 69 64 88 65 53 66
REMARK SMILES IDX 54 67 68 69 89 70 56 71 40 72 41 73 49 74 42 75 48 76 50 77
REMARK SMILES IDX 47 78 43 79 44 80 45 81 46 82 72 83 73 84 81 85 74 86 80 87
REMARK SMILES IDX 82 88 79 89 75 90 76 91 77 92 78 93 57 94 58 95 66 96 59 97
REMARK SMILES IDX 65 98 67 99 64 100 60 101 61 102 62 103 63 104
REMARK H PARENT 23 7 9 25 28 38 87 57 55 68
REMARK Flexibility Score: inf
ROOT
ATOM      1  C   UNL A   1      35.912  22.549  24.134  1.00  0.00     0.023 C 
ENDROOT
BRANCH   1   2
ATOM      2  C   UNL A   1      34.712  23.498  24.098  1.00  0.00     0.023 C 
BRANCH   2   3
ATOM      3  C   UNL A   1      34.622  24.518  25.237  1.00  0.00     0.116 C 
BRANCH   3   4
ATOM      4  N   UNL A   1      33.483  24.231  26.092  1.00  0.00    -0.352 N 
ATOM      5  C   UNL A   1      32.169  24.560  26.152  1.00  0.00     0.259 C 
ATOM      6  O   UNL A   1      31.700  24.324  27.270  1.00  0.00    -0.269 OA
ATOM      7  H   UNL A   1      33.735  23.634  26.835  1.00  0.00     0.163 HD
BRANCH   5   8
ATOM      8  C   UNL A   1      31.291  25.110  25.030  1.00  0.00     0.098 C 
ATOM      9  C   UNL A   1      30.515  29.171  22.656  1.00  0.00     0.153 C 
ATOM     10  N   UNL A   1      30.722  28.318  23.792  1.00  0.00    -0.311 N 
ATOM     11  C   UNL A   1      30.131  27.081  23.982  1.00  0.00     0.260 C 
ATOM     12  C   UNL A   1      31.403  28.684  24.962  1.00  0.00     0.052 A 
ATOM     13  O   UNL A   1      29.102  26.648  23.468  1.00  0.00    -0.269 OA
ATOM     14  C   UNL A   1      30.945  26.428  25.059  1.00  0.00     0.069 C 
ATOM     15  C   UNL A   1      31.428  27.595  25.847  1.00  0.00     0.012 A 
ATOM     16  C   UNL A   1      31.827  29.955  25.318  1.00  0.00     0.027 A 
ATOM     17  C   UNL A   1      31.720  27.831  27.180  1.00  0.00     0.011 A 
ATOM     18  C   UNL A   1      32.193  30.163  26.647  1.00  0.00     0.002 A 
ATOM     19  C   UNL A   1      32.114  29.116  27.577  1.00  0.00     0.001 A 
BRANCH   8  20
ATOM     20  S   UNL A   1      30.687  23.950  23.868  1.00  0.00     0.011 SA
BRANCH  20  21
ATOM     21  C   UNL A   1      31.367  22.332  24.175  1.00  0.00     0.386 C 
ATOM     22  N   UNL A   1      31.788  21.644  23.155  1.00  0.00    -0.235 N 
ATOM     23  N   UNL A   1      31.593  22.024  25.501  1.00  0.00     0.088 NA
ATOM     24  C   UNL A   1      32.781  20.641  23.542  1.00  0.00     0.348 C 
ATOM     25  H   UNL A   1      31.476  21.780  22.231  1.00  0.00     0.308 HD
ATOM     26  N   UNL A   1      32.117  20.953  25.867  1.00  0.00    -0.033 NA
ATOM     27  N   UNL A   1      32.854  19.433  22.679  1.00  0.00    -0.232 NA
ATOM     28  C   UNL A   1      32.548  20.117  24.904  1.00  0.00     0.165 C 
ATOM     29  C   UNL A   1      32.929  18.470  23.557  1.00  0.00     0.072 A 
ATOM     30  C   UNL A   1      32.753  18.813  24.977  1.00  0.00     0.032 A 
ATOM     31  C   UNL A   1      33.127  17.024  23.284  1.00  0.00     0.029 A 
ATOM     32  C   UNL A   1      32.712  17.840  26.021  1.00  0.00     0.012 A 
ATOM     33  C   UNL A   1      33.114  16.152  24.310  1.00  0.00     0.002 A 
ATOM     34  C   UNL A   1      32.899  16.553  25.693  1.00  0.00     0.001 A 
ENDBRANCH  20  21
ENDBRANCH   8  20
ENDBRANCH   5   8
ENDBRANCH   3   4
ENDBRANCH   2   3
ENDBRANCH   1   2
BRANCH   1  35
ATOM     35  C   UNL A   1      36.397  22.147  25.524  1.00  0.00     0.116 C 
BRANCH  35  36
ATOM     36  N   UNL A   1      37.419  21.111  25.499  1.00  0.00    -0.352 N 
ATOM     37  C   UNL A   1      38.743  21.180  25.872  1.00  0.00     0.251 C 
ATOM     38  H   UNL A   1      37.120  20.234  25.168  1.00  0.00     0.163 HD
ATOM     39  O   UNL A   1      39.482  20.220  25.676  1.00  0.00    -0.269 OA
BRANCH  37  40
ATOM     40  C   UNL A   1      39.276  22.426  26.465  1.00  0.00     0.039 A 
ATOM     41  C   UNL A   1      38.720  23.665  26.143  1.00  0.00     0.014 A 
ATOM     42  C   UNL A   1      40.375  22.353  27.326  1.00  0.00     0.014 A 
ATOM     43  C   UNL A   1      39.365  24.832  26.539  1.00  0.00     0.010 A 
ATOM     44  C   UNL A   1      40.977  23.529  27.786  1.00  0.00     0.010 A 
ATOM     45  C   UNL A   1      40.511  24.778  27.351  1.00  0.00    -0.014 A 
BRANCH  45  46
ATOM     46  C   UNL A   1      41.206  26.040  27.718  1.00  0.00     0.031 A 
ATOM     47  C   UNL A   1      42.597  26.327  27.215  1.00  0.00     0.074 A 
ATOM     48  C   UNL A   1      40.554  26.958  28.457  1.00  0.00     0.049 A 
ATOM     49  N   UNL A   1      43.333  27.394  27.396  1.00  0.00    -0.248 NA
ATOM     50  C   UNL A   1      43.248  25.283  26.406  1.00  0.00     0.031 C 
ATOM     51  C   UNL A   1      39.204  26.787  28.994  1.00  0.00     0.029 A 
ATOM     52  N   UNL A   1      40.920  28.217  28.863  1.00  0.00    -0.354 N 
ATOM     53  C   UNL A   1      44.531  27.149  26.736  1.00  0.00     0.074 A 
ATOM     54  C   UNL A   1      44.441  25.818  26.179  1.00  0.00     0.031 C 
ATOM     55  C   UNL A   1      38.834  27.917  29.613  1.00  0.00     0.029 A 
ATOM     56  C   UNL A   1      39.939  28.871  29.575  1.00  0.00     0.049 A 
ATOM     57  H   UNL A   1      41.798  28.615  28.666  1.00  0.00     0.167 HD
ATOM     58  C   UNL A   1      45.601  27.968  26.595  1.00  0.00     0.034 A 
ATOM     59  C   UNL A   1      39.929  30.096  30.140  1.00  0.00     0.034 A 
ATOM     60  C   UNL A   1      45.671  29.301  27.138  1.00  0.00     0.049 A 
ATOM     61  C   UNL A   1      41.140  30.978  29.984  1.00  0.00     0.074 A 
ATOM     62  C   UNL A   1      46.707  30.212  27.034  1.00  0.00     0.029 A 
ATOM     63  N   UNL A   1      44.671  29.918  27.876  1.00  0.00    -0.354 N 
ATOM     64  N   UNL A   1      42.250  30.744  29.324  1.00  0.00    -0.248 NA
ATOM     65  C   UNL A   1      41.103  32.291  30.645  1.00  0.00     0.031 C 
ATOM     66  C   UNL A   1      46.355  31.359  27.745  1.00  0.00     0.029 A 
ATOM     67  C   UNL A   1      45.074  31.189  28.248  1.00  0.00     0.049 A 
ATOM     68  H   UNL A   1      43.803  29.511  28.101  1.00  0.00     0.167 HD
ATOM     69  C   UNL A   1      43.037  31.881  29.481  1.00  0.00     0.074 A 
ATOM     70  C   UNL A   1      42.262  32.816  30.271  1.00  0.00     0.031 C 
ATOM     71  C   UNL A   1      44.291  32.121  29.023  1.00  0.00     0.034 A 
BRANCH  58  72
ATOM     72  C   UNL A   1      46.789  27.477  25.807  1.00  0.00     0.023 A 
ATOM     73  C   UNL A   1      46.979  27.900  24.478  1.00  0.00     0.031 A 
ATOM     74  C   UNL A   1      47.648  26.490  26.322  1.00  0.00     0.131 A 
ATOM     75  C   UNL A   1      47.983  27.311  23.697  1.00  0.00     0.055 A 
ATOM     76  C   UNL A   1      48.670  25.932  25.552  1.00  0.00     0.041 A 
ATOM     77  F   UNL A   1      47.507  26.057  27.585  1.00  0.00    -0.206 F 
ATOM     78  C   UNL A   1      48.832  26.334  24.228  1.00  0.00     0.022 A 
BRANCH  75  79
ATOM     79  S   UNL A   1      48.193  27.748  21.949  1.00  0.00     0.124 S 
ATOM     80  O   UNL A   1      49.345  28.644  22.000  1.00  0.00    -0.237 OA
ATOM     81  O   UNL A   1      48.441  26.445  21.338  1.00  0.00    -0.237 OA
ATOM     82  O   UNL A   1      46.929  28.382  21.592  1.00  0.00    -0.744 OA
ENDBRANCH  75  79
ENDBRANCH  58  72
BRANCH  59  83
ATOM     83  C   UNL A   1      38.704  30.551  30.859  1.00  0.00     0.023 A 
ATOM     84  C   UNL A   1      37.623  31.114  30.157  1.00  0.00     0.031 A 
ATOM     85  C   UNL A   1      38.644  30.536  32.262  1.00  0.00     0.131 A 
ATOM     86  C   UNL A   1      36.566  31.708  30.859  1.00  0.00     0.055 A 
ATOM     87  C   UNL A   1      37.555  31.064  32.958  1.00  0.00     0.041 A 
ATOM     88  F   UNL A   1      39.656  30.021  32.977  1.00  0.00    -0.206 F 
ATOM     89  C   UNL A   1      36.518  31.672  32.256  1.00  0.00     0.022 A 
BRANCH  86  90
ATOM     90  S   UNL A   1      35.304  32.678  29.988  1.00  0.00     0.124 S 
ATOM     91  O   UNL A   1      34.894  31.761  28.930  1.00  0.00    -0.237 OA
ATOM     92  O   UNL A   1      34.318  32.904  31.043  1.00  0.00    -0.237 OA
ATOM     93  O   UNL A   1      36.026  33.868  29.553  1.00  0.00    -0.744 OA
ENDBRANCH  86  90
ENDBRANCH  59  83
BRANCH  71  94
ATOM     94  C   UNL A   1      44.937  33.444  29.355  1.00  0.00     0.023 A 
ATOM     95  C   UNL A   1      44.830  34.526  28.461  1.00  0.00     0.031 A 
ATOM     96  C   UNL A   1      45.780  33.580  30.470  1.00  0.00     0.131 A 
ATOM     97  C   UNL A   1      45.583  35.686  28.679  1.00  0.00     0.055 A 
ATOM     98  C   UNL A   1      46.498  34.753  30.706  1.00  0.00     0.041 A 
ATOM     99  F   UNL A   1      45.923  32.571  31.344  1.00  0.00    -0.206 F 
ATOM    100  C   UNL A   1      46.413  35.807  29.800  1.00  0.00     0.022 A 
BRANCH  97 101
ATOM    101  S   UNL A   1      45.584  37.044  27.477  1.00  0.00     0.124 S 
ATOM    102  O   UNL A   1      46.450  36.516  26.425  1.00  0.00    -0.237 OA
ATOM    103  O   UNL A   1      44.170  37.148  27.127  1.00  0.00    -0.237 OA
ATOM    104  O   UNL A   1      46.130  38.175  28.222  1.00  0.00    -0.744 OA
ENDBRANCH  97 101
ENDBRANCH  71  94
ENDBRANCH  45  46
ENDBRANCH  37  40
ENDBRANCH  35  36
ENDBRANCH   1  35
TORSDOF 16
ENDMDL
