MODEL 1
REMARK VINA RESULT:     -12.1      0.000      0.000
REMARK SMILES O=C(Cc1cncnc1N1CCC2(CC1)OCCC[C@@H]2O)NCCCCNC(=O)c1ccc(-c2c3nc(c(-c4cc(S(=O)(=O)[O-])ccc4F)c4ccc([nH]4)c(-c4cc(S(=O)(=O)[O-])ccc4F)c4nc(c(-c5cc(S(=O)(=O)[O-])ccc5F)c5ccc2[nH]5)C=C4)C=C3)cc1
REMARK SMILES IDX 24 1 23 2 22 3 1 4 2 5 3 7 4 8 5 9 9 10 6 11 8 12 7 13 10 14
REMARK SMILES IDX 11 15 15 16 12 17 14 18 13 19 16 20 20 21 17 22 19 23 18 24
REMARK SMILES IDX 21 25 25 27 26 28 27 29 28 30 29 32 30 33 31 34 92 35 32 36
REMARK SMILES IDX 91 37 33 38 34 39 35 40 85 41 36 42 90 43 84 44 86 45 37 46
REMARK SMILES IDX 89 47 83 48 82 49 38 51 70 52 50 53 69 54 51 55 54 56 68 57
REMARK SMILES IDX 87 58 52 59 53 60 67 62 88 63 55 64 39 65 40 66 48 67 41 68
REMARK SMILES IDX 47 69 49 70 46 71 42 72 43 73 44 74 45 75 71 76 72 77 80 78
REMARK SMILES IDX 73 79 79 80 81 81 78 82 74 83 75 84 76 85 77 86 56 87 57 88
REMARK SMILES IDX 65 89 58 90 64 91 66 92 63 93 59 94 60 95 61 96 62 97
REMARK H PARENT 22 6 21 26 27 31 86 50 54 61
REMARK Flexibility Score: inf
ROOT
ATOM      1  C   UNL A   1      32.123  29.471  27.267  1.00  0.00     0.023 C 
ENDROOT
BRANCH   1   2
ATOM      2  C   UNL A   1      33.588  29.046  27.280  1.00  0.00     0.116 C 
BRANCH   2   3
ATOM      3  N   UNL A   1      33.817  27.864  26.474  1.00  0.00    -0.356 N 
ATOM      4  O   UNL A   1      33.549  28.916  24.448  1.00  0.00    -0.275 OA
ATOM      5  C   UNL A   1      33.780  27.900  25.097  1.00  0.00     0.224 C 
ATOM      6  H   UNL A   1      34.005  27.008  26.924  1.00  0.00     0.163 HD
BRANCH   5   7
ATOM      7  C   UNL A   1      34.044  26.570  24.434  1.00  0.00     0.141 C 
BRANCH   7   8
ATOM      8  C   UNL A   1      33.395  25.363  25.062  1.00  0.00     0.022 A 
ATOM      9  C   UNL A   1      34.094  24.416  25.791  1.00  0.00     0.121 A 
ATOM     10  C   UNL A   1      32.009  25.193  25.032  1.00  0.00     0.135 A 
ATOM     11  N   UNL A   1      33.518  23.408  26.467  1.00  0.00    -0.244 NA
ATOM     12  N   UNL A   1      31.401  24.204  25.713  1.00  0.00    -0.219 NA
ATOM     13  C   UNL A   1      32.184  23.362  26.398  1.00  0.00     0.224 A 
BRANCH  10  14
ATOM     14  N   UNL A   1      31.210  26.106  24.374  1.00  0.00    -0.356 N 
ATOM     15  C   UNL A   1      30.149  26.769  25.112  1.00  0.00     0.121 C 
ATOM     16  C   UNL A   1      30.965  25.985  22.944  1.00  0.00     0.121 C 
ATOM     17  C   UNL A   1      30.143  28.221  24.633  1.00  0.00     0.060 C 
ATOM     18  C   UNL A   1      30.973  27.399  22.364  1.00  0.00     0.060 C 
ATOM     19  C   UNL A   1      29.973  28.334  23.094  1.00  0.00     0.097 C 
ATOM     20  O   UNL A   1      28.658  27.915  22.660  1.00  0.00    -0.372 OA
ATOM     21  C   UNL A   1      30.203  29.800  22.629  1.00  0.00     0.146 C 
ATOM     22  C   UNL A   1      27.575  28.708  23.140  1.00  0.00     0.161 C 
ATOM     23  C   UNL A   1      29.093  30.727  23.121  1.00  0.00     0.037 C 
ATOM     24  C   UNL A   1      27.718  30.174  22.754  1.00  0.00     0.031 C 
BRANCH  21  25
ATOM     25  O   UNL A   1      30.228  29.874  21.196  1.00  0.00    -0.390 OA
ATOM     26  H   UNL A   1      29.343  29.685  20.847  1.00  0.00     0.211 HD
ENDBRANCH  21  25
ENDBRANCH  10  14
ENDBRANCH   7   8
ENDBRANCH   5   7
ENDBRANCH   2   3
ENDBRANCH   1   2
BRANCH   1  27
ATOM     27  C   UNL A   1      31.878  30.933  26.886  1.00  0.00     0.023 C 
BRANCH  27  28
ATOM     28  C   UNL A   1      33.100  31.843  26.973  1.00  0.00     0.116 C 
BRANCH  28  29
ATOM     29  N   UNL A   1      32.752  33.216  27.301  1.00  0.00    -0.352 N 
ATOM     30  C   UNL A   1      33.248  34.028  28.293  1.00  0.00     0.251 C 
ATOM     31  H   UNL A   1      32.061  33.622  26.730  1.00  0.00     0.163 HD
ATOM     32  O   UNL A   1      32.699  35.103  28.525  1.00  0.00    -0.269 OA
BRANCH  30  33
ATOM     33  C   UNL A   1      34.412  33.597  29.100  1.00  0.00     0.039 A 
ATOM     34  C   UNL A   1      34.201  32.743  30.185  1.00  0.00     0.014 A 
ATOM     35  C   UNL A   1      35.706  34.027  28.794  1.00  0.00     0.014 A 
ATOM     36  C   UNL A   1      35.293  32.264  30.915  1.00  0.00     0.010 A 
ATOM     37  C   UNL A   1      36.798  33.487  29.471  1.00  0.00     0.010 A 
ATOM     38  C   UNL A   1      36.605  32.598  30.538  1.00  0.00    -0.014 A 
BRANCH  38  39
ATOM     39  C   UNL A   1      37.781  32.017  31.245  1.00  0.00     0.031 A 
ATOM     40  C   UNL A   1      38.571  30.902  30.613  1.00  0.00     0.074 A 
ATOM     41  C   UNL A   1      38.104  32.456  32.478  1.00  0.00     0.049 A 
ATOM     42  N   UNL A   1      39.581  30.225  31.098  1.00  0.00    -0.248 NA
ATOM     43  C   UNL A   1      38.152  30.474  29.270  1.00  0.00     0.031 C 
ATOM     44  C   UNL A   1      37.397  33.510  33.211  1.00  0.00     0.029 A 
ATOM     45  N   UNL A   1      39.102  32.070  33.339  1.00  0.00    -0.354 N 
ATOM     46  C   UNL A   1      39.910  29.284  30.127  1.00  0.00     0.074 A 
ATOM     47  C   UNL A   1      38.951  29.440  29.054  1.00  0.00     0.031 C 
ATOM     48  C   UNL A   1      38.004  33.707  34.392  1.00  0.00     0.029 A 
ATOM     49  C   UNL A   1      39.105  32.760  34.530  1.00  0.00     0.049 A 
ATOM     50  H   UNL A   1      39.755  31.366  33.123  1.00  0.00     0.167 HD
ATOM     51  C   UNL A   1      40.929  28.388  30.122  1.00  0.00     0.034 A 
ATOM     52  C   UNL A   1      39.895  32.636  35.616  1.00  0.00     0.034 A 
ATOM     53  C   UNL A   1      41.882  28.251  31.198  1.00  0.00     0.049 A 
ATOM     54  C   UNL A   1      40.993  31.601  35.605  1.00  0.00     0.074 A 
ATOM     55  C   UNL A   1      42.985  27.417  31.269  1.00  0.00     0.029 A 
ATOM     56  N   UNL A   1      41.841  28.953  32.397  1.00  0.00    -0.354 N 
ATOM     57  N   UNL A   1      41.323  30.755  34.656  1.00  0.00    -0.248 NA
ATOM     58  C   UNL A   1      41.831  31.512  36.808  1.00  0.00     0.031 C 
ATOM     59  C   UNL A   1      43.558  27.552  32.538  1.00  0.00     0.029 A 
ATOM     60  C   UNL A   1      42.874  28.540  33.227  1.00  0.00     0.049 A 
ATOM     61  H   UNL A   1      41.177  29.643  32.624  1.00  0.00     0.167 HD
ATOM     62  C   UNL A   1      42.430  30.060  35.137  1.00  0.00     0.074 A 
ATOM     63  C   UNL A   1      42.718  30.595  36.451  1.00  0.00     0.031 C 
ATOM     64  C   UNL A   1      43.148  29.072  34.542  1.00  0.00     0.034 A 
BRANCH  51  65
ATOM     65  C   UNL A   1      41.043  27.465  28.931  1.00  0.00     0.023 A 
ATOM     66  C   UNL A   1      42.048  27.626  27.961  1.00  0.00     0.031 A 
ATOM     67  C   UNL A   1      40.121  26.418  28.753  1.00  0.00     0.131 A 
ATOM     68  C   UNL A   1      42.061  26.806  26.822  1.00  0.00     0.055 A 
ATOM     69  C   UNL A   1      40.193  25.549  27.662  1.00  0.00     0.041 A 
ATOM     70  F   UNL A   1      39.125  26.226  29.632  1.00  0.00    -0.206 F 
ATOM     71  C   UNL A   1      41.157  25.751  26.680  1.00  0.00     0.022 A 
BRANCH  68  72
ATOM     72  S   UNL A   1      43.177  27.236  25.459  1.00  0.00     0.124 S 
ATOM     73  O   UNL A   1      43.389  25.934  24.830  1.00  0.00    -0.237 OA
ATOM     74  O   UNL A   1      42.387  28.195  24.695  1.00  0.00    -0.237 OA
ATOM     75  O   UNL A   1      44.348  27.790  26.136  1.00  0.00    -0.744 OA
ENDBRANCH  68  72
ENDBRANCH  51  65
BRANCH  52  76
ATOM     76  C   UNL A   1      39.679  33.499  36.814  1.00  0.00     0.023 A 
ATOM     77  C   UNL A   1      39.077  32.988  37.975  1.00  0.00     0.031 A 
ATOM     78  C   UNL A   1      40.024  34.863  36.799  1.00  0.00     0.131 A 
ATOM     79  C   UNL A   1      38.789  33.843  39.051  1.00  0.00     0.055 A 
ATOM     80  C   UNL A   1      39.791  35.697  37.895  1.00  0.00     0.041 A 
ATOM     81  F   UNL A   1      40.602  35.407  35.716  1.00  0.00    -0.206 F 
ATOM     82  C   UNL A   1      39.157  35.189  39.024  1.00  0.00     0.022 A 
BRANCH  79  83
ATOM     83  S   UNL A   1      37.834  33.189  40.446  1.00  0.00     0.124 S 
ATOM     84  O   UNL A   1      37.899  34.295  41.394  1.00  0.00    -0.237 OA
ATOM     85  O   UNL A   1      36.533  32.942  39.834  1.00  0.00    -0.237 OA
ATOM     86  O   UNL A   1      38.576  31.990  40.833  1.00  0.00    -0.744 OA
ENDBRANCH  79  83
ENDBRANCH  52  76
BRANCH  64  87
ATOM     87  C   UNL A   1      44.348  28.543  35.291  1.00  0.00     0.023 A 
ATOM     88  C   UNL A   1      44.234  27.531  36.261  1.00  0.00     0.031 A 
ATOM     89  C   UNL A   1      45.627  29.071  35.038  1.00  0.00     0.131 A 
ATOM     90  C   UNL A   1      45.368  27.121  36.980  1.00  0.00     0.055 A 
ATOM     91  C   UNL A   1      46.761  28.611  35.707  1.00  0.00     0.041 A 
ATOM     92  F   UNL A   1      45.797  30.044  34.127  1.00  0.00    -0.206 F 
ATOM     93  C   UNL A   1      46.633  27.640  36.696  1.00  0.00     0.022 A 
BRANCH  90  94
ATOM     94  S   UNL A   1      45.149  25.973  38.368  1.00  0.00     0.124 S 
ATOM     95  O   UNL A   1      43.903  26.446  38.960  1.00  0.00    -0.237 OA
ATOM     96  O   UNL A   1      45.085  24.679  37.696  1.00  0.00    -0.237 OA
ATOM     97  O   UNL A   1      46.343  26.189  39.183  1.00  0.00    -0.744 OA
ENDBRANCH  90  94
ENDBRANCH  64  87
ENDBRANCH  38  39
ENDBRANCH  30  33
ENDBRANCH  28  29
ENDBRANCH  27  28
ENDBRANCH   1  27
TORSDOF 17
ENDMDL
MODEL 2
REMARK VINA RESULT:     -11.8      5.637      9.392
REMARK SMILES O=C(Cc1cncnc1N1CCC2(CC1)OCCC[C@@H]2O)NCCCCNC(=O)c1ccc(-c2c3nc(c(-c4cc(S(=O)(=O)[O-])ccc4F)c4ccc([nH]4)c(-c4cc(S(=O)(=O)[O-])ccc4F)c4nc(c(-c5cc(S(=O)(=O)[O-])ccc5F)c5ccc2[nH]5)C=C4)C=C3)cc1
REMARK SMILES IDX 24 1 23 2 22 3 1 4 2 5 3 7 4 8 5 9 9 10 6 11 8 12 7 13 10 14
REMARK SMILES IDX 11 15 15 16 12 17 14 18 13 19 16 20 20 21 17 22 19 23 18 24
REMARK SMILES IDX 21 25 25 27 26 28 27 29 28 30 29 32 30 33 31 34 92 35 32 36
REMARK SMILES IDX 91 37 33 38 34 39 35 40 85 41 36 42 90 43 84 44 86 45 37 46
REMARK SMILES IDX 89 47 83 48 82 49 38 51 70 52 50 53 69 54 51 55 54 56 68 57
REMARK SMILES IDX 87 58 52 59 53 60 67 62 88 63 55 64 39 65 40 66 48 67 41 68
REMARK SMILES IDX 47 69 49 70 46 71 42 72 43 73 44 74 45 75 71 76 72 77 80 78
REMARK SMILES IDX 73 79 79 80 81 81 78 82 74 83 75 84 76 85 77 86 56 87 57 88
REMARK SMILES IDX 65 89 58 90 64 91 66 92 63 93 59 94 60 95 61 96 62 97
REMARK H PARENT 22 6 21 26 27 31 86 50 54 61
REMARK Flexibility Score: inf
ROOT
ATOM      1  C   UNL A   1      39.774  22.891  26.762  1.00  0.00     0.023 C 
ENDROOT
BRANCH   1   2
ATOM      2  C   UNL A   1      38.576  23.794  26.487  1.00  0.00     0.116 C 
BRANCH   2   3
ATOM      3  N   UNL A   1      37.777  23.314  25.379  1.00  0.00    -0.356 N 
ATOM      4  O   UNL A   1      35.770  23.390  26.497  1.00  0.00    -0.275 OA
ATOM      5  C   UNL A   1      36.412  23.151  25.479  1.00  0.00     0.224 C 
ATOM      6  H   UNL A   1      38.222  23.096  24.528  1.00  0.00     0.163 HD
BRANCH   5   7
ATOM      7  C   UNL A   1      35.754  22.641  24.219  1.00  0.00     0.141 C 
BRANCH   7   8
ATOM      8  C   UNL A   1      34.616  21.671  24.399  1.00  0.00     0.022 A 
ATOM      9  C   UNL A   1      34.793  20.350  24.777  1.00  0.00     0.121 A 
ATOM     10  C   UNL A   1      33.288  22.092  24.296  1.00  0.00     0.135 A 
ATOM     11  N   UNL A   1      33.788  19.508  25.068  1.00  0.00    -0.244 NA
ATOM     12  N   UNL A   1      32.260  21.277  24.600  1.00  0.00    -0.219 NA
ATOM     13  C   UNL A   1      32.561  20.027  24.973  1.00  0.00     0.224 A 
BRANCH  10  14
ATOM     14  N   UNL A   1      32.996  23.401  23.974  1.00  0.00    -0.356 N 
ATOM     15  C   UNL A   1      32.561  24.303  25.026  1.00  0.00     0.121 C 
ATOM     16  C   UNL A   1      32.514  23.749  22.644  1.00  0.00     0.121 C 
ATOM     17  C   UNL A   1      33.242  25.642  24.745  1.00  0.00     0.060 C 
ATOM     18  C   UNL A   1      33.173  25.073  22.258  1.00  0.00     0.060 C 
ATOM     19  C   UNL A   1      32.930  26.177  23.321  1.00  0.00     0.097 C 
ATOM     20  O   UNL A   1      31.542  26.560  23.176  1.00  0.00    -0.372 OA
ATOM     21  C   UNL A   1      33.820  27.411  22.998  1.00  0.00     0.146 C 
ATOM     22  C   UNL A   1      31.118  27.642  24.003  1.00  0.00     0.161 C 
ATOM     23  C   UNL A   1      33.444  28.616  23.858  1.00  0.00     0.037 C 
ATOM     24  C   UNL A   1      31.946  28.899  23.776  1.00  0.00     0.031 C 
BRANCH  21  25
ATOM     25  O   UNL A   1      33.665  27.793  21.623  1.00  0.00    -0.390 OA
ATOM     26  H   UNL A   1      34.311  28.483  21.404  1.00  0.00     0.211 HD
ENDBRANCH  21  25
ENDBRANCH  10  14
ENDBRANCH   7   8
ENDBRANCH   5   7
ENDBRANCH   2   3
ENDBRANCH   1   2
BRANCH   1  27
ATOM     27  C   UNL A   1      39.680  21.490  26.153  1.00  0.00     0.023 C 
BRANCH  27  28
ATOM     28  C   UNL A   1      40.324  20.377  26.974  1.00  0.00     0.116 C 
BRANCH  28  29
ATOM     29  N   UNL A   1      41.366  19.675  26.243  1.00  0.00    -0.352 N 
ATOM     30  C   UNL A   1      42.552  20.154  25.739  1.00  0.00     0.251 C 
ATOM     31  H   UNL A   1      41.198  18.718  26.087  1.00  0.00     0.163 HD
ATOM     32  O   UNL A   1      43.222  19.443  24.993  1.00  0.00    -0.269 OA
BRANCH  30  33
ATOM     33  C   UNL A   1      43.001  21.528  26.061  1.00  0.00     0.039 A 
ATOM     34  C   UNL A   1      43.041  22.481  25.041  1.00  0.00     0.014 A 
ATOM     35  C   UNL A   1      43.378  21.881  27.359  1.00  0.00     0.014 A 
ATOM     36  C   UNL A   1      43.390  23.802  25.337  1.00  0.00     0.010 A 
ATOM     37  C   UNL A   1      43.649  23.213  27.668  1.00  0.00     0.010 A 
ATOM     38  C   UNL A   1      43.656  24.190  26.661  1.00  0.00    -0.014 A 
BRANCH  38  39
ATOM     39  C   UNL A   1      43.932  25.612  27.008  1.00  0.00     0.031 A 
ATOM     40  C   UNL A   1      45.322  26.172  26.860  1.00  0.00     0.074 A 
ATOM     41  C   UNL A   1      42.946  26.382  27.510  1.00  0.00     0.049 A 
ATOM     42  N   UNL A   1      45.773  27.361  27.172  1.00  0.00    -0.248 NA
ATOM     43  C   UNL A   1      46.345  25.267  26.315  1.00  0.00     0.031 C 
ATOM     44  C   UNL A   1      41.565  25.947  27.730  1.00  0.00     0.029 A 
ATOM     45  N   UNL A   1      42.949  27.689  27.931  1.00  0.00    -0.354 N 
ATOM     46  C   UNL A   1      47.132  27.343  26.873  1.00  0.00     0.074 A 
ATOM     47  C   UNL A   1      47.440  26.006  26.413  1.00  0.00     0.031 C 
ATOM     48  C   UNL A   1      40.851  26.976  28.213  1.00  0.00     0.029 A 
ATOM     49  C   UNL A   1      41.729  28.127  28.391  1.00  0.00     0.049 A 
ATOM     50  H   UNL A   1      43.751  28.260  27.904  1.00  0.00     0.167 HD
ATOM     51  C   UNL A   1      48.034  28.354  26.955  1.00  0.00     0.034 A 
ATOM     52  C   UNL A   1      41.360  29.316  28.912  1.00  0.00     0.034 A 
ATOM     53  C   UNL A   1      47.707  29.685  27.408  1.00  0.00     0.049 A 
ATOM     54  C   UNL A   1      42.391  30.410  29.035  1.00  0.00     0.074 A 
ATOM     55  C   UNL A   1      48.531  30.796  27.474  1.00  0.00     0.029 A 
ATOM     56  N   UNL A   1      46.465  30.085  27.885  1.00  0.00    -0.354 N 
ATOM     57  N   UNL A   1      43.661  30.391  28.698  1.00  0.00    -0.248 NA
ATOM     58  C   UNL A   1      41.937  31.687  29.599  1.00  0.00     0.031 C 
ATOM     59  C   UNL A   1      47.814  31.840  28.068  1.00  0.00     0.029 A 
ATOM     60  C   UNL A   1      46.514  31.413  28.286  1.00  0.00     0.049 A 
ATOM     61  H   UNL A   1      45.668  29.511  27.932  1.00  0.00     0.167 HD
ATOM     62  C   UNL A   1      44.145  31.668  28.977  1.00  0.00     0.074 A 
ATOM     63  C   UNL A   1      43.029  32.431  29.495  1.00  0.00     0.031 C 
ATOM     64  C   UNL A   1      45.398  32.165  28.813  1.00  0.00     0.034 A 
BRANCH  51  65
ATOM     65  C   UNL A   1      49.464  28.046  26.577  1.00  0.00     0.023 A 
ATOM     66  C   UNL A   1      49.968  28.321  25.294  1.00  0.00     0.031 A 
ATOM     67  C   UNL A   1      50.334  27.453  27.510  1.00  0.00     0.131 A 
ATOM     68  C   UNL A   1      51.274  27.934  24.955  1.00  0.00     0.055 A 
ATOM     69  C   UNL A   1      51.660  27.151  27.194  1.00  0.00     0.041 A 
ATOM     70  F   UNL A   1      49.907  27.146  28.744  1.00  0.00    -0.206 F 
ATOM     71  C   UNL A   1      52.133  27.376  25.905  1.00  0.00     0.022 A 
BRANCH  68  72
ATOM     72  S   UNL A   1      51.781  28.029  23.217  1.00  0.00     0.124 S 
ATOM     73  O   UNL A   1      51.324  29.367  22.848  1.00  0.00    -0.237 OA
ATOM     74  O   UNL A   1      53.226  27.848  23.300  1.00  0.00    -0.237 OA
ATOM     75  O   UNL A   1      51.050  26.933  22.585  1.00  0.00    -0.744 OA
ENDBRANCH  68  72
ENDBRANCH  51  65
BRANCH  52  76
ATOM     76  C   UNL A   1      39.958  29.541  29.370  1.00  0.00     0.023 A 
ATOM     77  C   UNL A   1      39.644  29.592  30.738  1.00  0.00     0.031 A 
ATOM     78  C   UNL A   1      38.901  29.656  28.449  1.00  0.00     0.131 A 
ATOM     79  C   UNL A   1      38.304  29.700  31.146  1.00  0.00     0.055 A 
ATOM     80  C   UNL A   1      37.577  29.825  28.860  1.00  0.00     0.041 A 
ATOM     81  F   UNL A   1      39.142  29.614  27.128  1.00  0.00    -0.206 F 
ATOM     82  C   UNL A   1      37.272  29.833  30.216  1.00  0.00     0.022 A 
BRANCH  79  83
ATOM     83  S   UNL A   1      37.923  29.562  32.914  1.00  0.00     0.124 S 
ATOM     84  O   UNL A   1      39.231  29.790  33.518  1.00  0.00    -0.237 OA
ATOM     85  O   UNL A   1      36.938  30.622  33.095  1.00  0.00    -0.237 OA
ATOM     86  O   UNL A   1      37.404  28.202  33.043  1.00  0.00    -0.744 OA
ENDBRANCH  79  83
ENDBRANCH  52  76
BRANCH  64  87
ATOM     87  C   UNL A   1      45.613  33.621  29.152  1.00  0.00     0.023 A 
ATOM     88  C   UNL A   1      45.488  34.637  28.187  1.00  0.00     0.031 A 
ATOM     89  C   UNL A   1      45.960  33.997  30.462  1.00  0.00     0.131 A 
ATOM     90  C   UNL A   1      45.766  35.968  28.532  1.00  0.00     0.055 A 
ATOM     91  C   UNL A   1      46.167  35.331  30.816  1.00  0.00     0.041 A 
ATOM     92  F   UNL A   1      46.099  33.072  31.425  1.00  0.00    -0.206 F 
ATOM     93  C   UNL A   1      46.085  36.325  29.845  1.00  0.00     0.022 A 
BRANCH  90  94
ATOM     94  S   UNL A   1      45.806  37.218  27.218  1.00  0.00     0.124 S 
ATOM     95  O   UNL A   1      46.738  38.200  27.762  1.00  0.00    -0.237 OA
ATOM     96  O   UNL A   1      46.284  36.452  26.073  1.00  0.00    -0.237 OA
ATOM     97  O   UNL A   1      44.418  37.666  27.128  1.00  0.00    -0.744 OA
ENDBRANCH  90  94
ENDBRANCH  64  87
ENDBRANCH  38  39
ENDBRANCH  30  33
ENDBRANCH  28  29
ENDBRANCH  27  28
ENDBRANCH   1  27
TORSDOF 17
ENDMDL
MODEL 3
REMARK VINA RESULT:     -11.8      5.720     11.176
REMARK SMILES O=C(Cc1cncnc1N1CCC2(CC1)OCCC[C@@H]2O)NCCCCNC(=O)c1ccc(-c2c3nc(c(-c4cc(S(=O)(=O)[O-])ccc4F)c4ccc([nH]4)c(-c4cc(S(=O)(=O)[O-])ccc4F)c4nc(c(-c5cc(S(=O)(=O)[O-])ccc5F)c5ccc2[nH]5)C=C4)C=C3)cc1
REMARK SMILES IDX 24 1 23 2 22 3 1 4 2 5 3 7 4 8 5 9 9 10 6 11 8 12 7 13 10 14
REMARK SMILES IDX 11 15 15 16 12 17 14 18 13 19 16 20 20 21 17 22 19 23 18 24
REMARK SMILES IDX 21 25 25 27 26 28 27 29 28 30 29 32 30 33 31 34 92 35 32 36
REMARK SMILES IDX 91 37 33 38 34 39 35 40 85 41 36 42 90 43 84 44 86 45 37 46
REMARK SMILES IDX 89 47 83 48 82 49 38 51 70 52 50 53 69 54 51 55 54 56 68 57
REMARK SMILES IDX 87 58 52 59 53 60 67 62 88 63 55 64 39 65 40 66 48 67 41 68
REMARK SMILES IDX 47 69 49 70 46 71 42 72 43 73 44 74 45 75 71 76 72 77 80 78
REMARK SMILES IDX 73 79 79 80 81 81 78 82 74 83 75 84 76 85 77 86 56 87 57 88
REMARK SMILES IDX 65 89 58 90 64 91 66 92 63 93 59 94 60 95 61 96 62 97
REMARK H PARENT 22 6 21 26 27 31 86 50 54 61
REMARK Flexibility Score: inf
ROOT
ATOM      1  C   UNL A   1      39.614  22.824  26.866  1.00  0.00     0.023 C 
ENDROOT
BRANCH   1   2
ATOM      2  C   UNL A   1      38.547  23.800  26.379  1.00  0.00     0.116 C 
BRANCH   2   3
ATOM      3  N   UNL A   1      37.741  23.237  25.315  1.00  0.00    -0.356 N 
ATOM      4  O   UNL A   1      35.833  24.411  25.832  1.00  0.00    -0.275 OA
ATOM      5  C   UNL A   1      36.426  23.600  25.126  1.00  0.00     0.224 C 
ATOM      6  H   UNL A   1      38.145  22.575  24.708  1.00  0.00     0.163 HD
BRANCH   5   7
ATOM      7  C   UNL A   1      35.751  22.906  23.966  1.00  0.00     0.141 C 
BRANCH   7   8
ATOM      8  C   UNL A   1      34.627  21.963  24.307  1.00  0.00     0.022 A 
ATOM      9  C   UNL A   1      34.828  20.684  24.799  1.00  0.00     0.121 A 
ATOM     10  C   UNL A   1      33.295  22.378  24.243  1.00  0.00     0.135 A 
ATOM     11  N   UNL A   1      33.843  19.879  25.230  1.00  0.00    -0.244 NA
ATOM     12  N   UNL A   1      32.288  21.602  24.685  1.00  0.00    -0.219 NA
ATOM     13  C   UNL A   1      32.612  20.392  25.158  1.00  0.00     0.224 A 
BRANCH  10  14
ATOM     14  N   UNL A   1      32.982  23.651  23.813  1.00  0.00    -0.356 N 
ATOM     15  C   UNL A   1      32.382  24.582  24.752  1.00  0.00     0.121 C 
ATOM     16  C   UNL A   1      32.648  23.904  22.418  1.00  0.00     0.121 C 
ATOM     17  C   UNL A   1      33.028  25.940  24.477  1.00  0.00     0.060 C 
ATOM     18  C   UNL A   1      33.286  25.239  22.036  1.00  0.00     0.060 C 
ATOM     19  C   UNL A   1      32.865  26.382  22.997  1.00  0.00     0.097 C 
ATOM     20  O   UNL A   1      31.488  26.682  22.668  1.00  0.00    -0.372 OA
ATOM     21  C   UNL A   1      33.728  27.643  22.710  1.00  0.00     0.146 C 
ATOM     22  C   UNL A   1      30.917  27.781  23.375  1.00  0.00     0.161 C 
ATOM     23  C   UNL A   1      33.195  28.870  23.448  1.00  0.00     0.037 C 
ATOM     24  C   UNL A   1      31.707  29.068  23.174  1.00  0.00     0.031 C 
BRANCH  21  25
ATOM     25  O   UNL A   1      33.723  27.945  21.307  1.00  0.00    -0.390 OA
ATOM     26  H   UNL A   1      33.754  27.120  20.798  1.00  0.00     0.211 HD
ENDBRANCH  21  25
ENDBRANCH  10  14
ENDBRANCH   7   8
ENDBRANCH   5   7
ENDBRANCH   2   3
ENDBRANCH   1   2
BRANCH   1  27
ATOM     27  C   UNL A   1      39.758  21.553  26.024  1.00  0.00     0.023 C 
BRANCH  27  28
ATOM     28  C   UNL A   1      40.114  20.291  26.805  1.00  0.00     0.116 C 
BRANCH  28  29
ATOM     29  N   UNL A   1      41.123  19.487  26.136  1.00  0.00    -0.352 N 
ATOM     30  C   UNL A   1      42.377  19.846  25.699  1.00  0.00     0.251 C 
ATOM     31  H   UNL A   1      40.873  18.549  25.972  1.00  0.00     0.163 HD
ATOM     32  O   UNL A   1      43.016  19.068  24.994  1.00  0.00    -0.269 OA
BRANCH  30  33
ATOM     33  C   UNL A   1      42.937  21.172  26.045  1.00  0.00     0.039 A 
ATOM     34  C   UNL A   1      43.130  22.108  25.026  1.00  0.00     0.014 A 
ATOM     35  C   UNL A   1      43.270  21.497  27.362  1.00  0.00     0.014 A 
ATOM     36  C   UNL A   1      43.588  23.391  25.340  1.00  0.00     0.010 A 
ATOM     37  C   UNL A   1      43.651  22.799  27.683  1.00  0.00     0.010 A 
ATOM     38  C   UNL A   1      43.811  23.762  26.676  1.00  0.00    -0.014 A 
BRANCH  38  39
ATOM     39  C   UNL A   1      44.204  25.154  27.035  1.00  0.00     0.031 A 
ATOM     40  C   UNL A   1      43.185  26.109  27.595  1.00  0.00     0.074 A 
ATOM     41  C   UNL A   1      45.464  25.573  26.804  1.00  0.00     0.049 A 
ATOM     42  N   UNL A   1      43.317  27.375  27.903  1.00  0.00    -0.248 NA
ATOM     43  C   UNL A   1      41.830  25.579  27.809  1.00  0.00     0.031 C 
ATOM     44  C   UNL A   1      46.537  24.752  26.237  1.00  0.00     0.029 A 
ATOM     45  N   UNL A   1      46.060  26.793  27.011  1.00  0.00    -0.354 N 
ATOM     46  C   UNL A   1      42.063  27.795  28.337  1.00  0.00     0.074 A 
ATOM     47  C   UNL A   1      41.172  26.664  28.191  1.00  0.00     0.031 C 
ATOM     48  C   UNL A   1      47.663  25.480  26.173  1.00  0.00     0.029 A 
ATOM     49  C   UNL A   1      47.384  26.835  26.639  1.00  0.00     0.049 A 
ATOM     50  H   UNL A   1      45.583  27.566  27.391  1.00  0.00     0.167 HD
ATOM     51  C   UNL A   1      41.696  29.005  28.828  1.00  0.00     0.034 A 
ATOM     52  C   UNL A   1      48.272  27.851  26.656  1.00  0.00     0.034 A 
ATOM     53  C   UNL A   1      42.601  30.120  28.975  1.00  0.00     0.049 A 
ATOM     54  C   UNL A   1      47.827  29.200  27.165  1.00  0.00     0.074 A 
ATOM     55  C   UNL A   1      42.345  31.369  29.515  1.00  0.00     0.029 A 
ATOM     56  N   UNL A   1      43.929  30.131  28.568  1.00  0.00    -0.354 N 
ATOM     57  N   UNL A   1      46.649  29.564  27.620  1.00  0.00    -0.248 NA
ATOM     58  C   UNL A   1      48.832  30.270  27.172  1.00  0.00     0.031 C 
ATOM     59  C   UNL A   1      43.489  32.159  29.358  1.00  0.00     0.029 A 
ATOM     60  C   UNL A   1      44.491  31.377  28.808  1.00  0.00     0.049 A 
ATOM     61  H   UNL A   1      44.403  29.366  28.169  1.00  0.00     0.167 HD
ATOM     62  C   UNL A   1      46.788  30.897  28.001  1.00  0.00     0.074 A 
ATOM     63  C   UNL A   1      48.163  31.264  27.735  1.00  0.00     0.031 C 
ATOM     64  C   UNL A   1      45.862  31.739  28.529  1.00  0.00     0.034 A 
BRANCH  51  65
ATOM     65  C   UNL A   1      40.246  29.192  29.212  1.00  0.00     0.023 A 
ATOM     66  C   UNL A   1      39.826  29.179  30.554  1.00  0.00     0.031 A 
ATOM     67  C   UNL A   1      39.265  29.369  28.220  1.00  0.00     0.131 A 
ATOM     68  C   UNL A   1      38.459  29.261  30.862  1.00  0.00     0.055 A 
ATOM     69  C   UNL A   1      37.916  29.539  28.538  1.00  0.00     0.041 A 
ATOM     70  F   UNL A   1      39.599  29.369  26.920  1.00  0.00    -0.206 F 
ATOM     71  C   UNL A   1      37.504  29.470  29.865  1.00  0.00     0.022 A 
BRANCH  68  72
ATOM     72  S   UNL A   1      37.936  28.938  32.568  1.00  0.00     0.124 S 
ATOM     73  O   UNL A   1      38.916  29.710  33.329  1.00  0.00    -0.237 OA
ATOM     74  O   UNL A   1      36.570  29.450  32.580  1.00  0.00    -0.237 OA
ATOM     75  O   UNL A   1      38.061  27.488  32.697  1.00  0.00    -0.744 OA
ENDBRANCH  68  72
ENDBRANCH  51  65
BRANCH  52  76
ATOM     76  C   UNL A   1      49.667  27.648  26.168  1.00  0.00     0.023 A 
ATOM     77  C   UNL A   1      50.040  28.024  24.867  1.00  0.00     0.031 A 
ATOM     78  C   UNL A   1      50.637  27.027  26.976  1.00  0.00     0.131 A 
ATOM     79  C   UNL A   1      51.329  27.728  24.394  1.00  0.00     0.055 A 
ATOM     80  C   UNL A   1      51.937  26.791  26.522  1.00  0.00     0.041 A 
ATOM     81  F   UNL A   1      50.337  26.647  28.229  1.00  0.00    -0.206 F 
ATOM     82  C   UNL A   1      52.283  27.130  25.218  1.00  0.00     0.022 A 
BRANCH  79  83
ATOM     83  S   UNL A   1      51.706  28.048  22.650  1.00  0.00     0.124 S 
ATOM     84  O   UNL A   1      52.029  26.711  22.166  1.00  0.00    -0.237 OA
ATOM     85  O   UNL A   1      50.454  28.621  22.169  1.00  0.00    -0.237 OA
ATOM     86  O   UNL A   1      52.832  28.979  22.712  1.00  0.00    -0.744 OA
ENDBRANCH  79  83
ENDBRANCH  52  76
BRANCH  64  87
ATOM     87  C   UNL A   1      46.325  33.128  28.902  1.00  0.00     0.023 A 
ATOM     88  C   UNL A   1      46.225  34.211  28.010  1.00  0.00     0.031 A 
ATOM     89  C   UNL A   1      46.886  33.368  30.169  1.00  0.00     0.131 A 
ATOM     90  C   UNL A   1      46.732  35.467  28.377  1.00  0.00     0.055 A 
ATOM     91  C   UNL A   1      47.325  34.636  30.554  1.00  0.00     0.041 A 
ATOM     92  F   UNL A   1      47.013  32.372  31.061  1.00  0.00    -0.206 F 
ATOM     93  C   UNL A   1      47.263  35.692  29.649  1.00  0.00     0.022 A 
BRANCH  90  94
ATOM     94  S   UNL A   1      46.784  36.783  27.128  1.00  0.00     0.124 S 
ATOM     95  O   UNL A   1      45.443  37.348  27.227  1.00  0.00    -0.237 OA
ATOM     96  O   UNL A   1      47.870  37.629  27.610  1.00  0.00    -0.237 OA
ATOM     97  O   UNL A   1      47.063  36.065  25.886  1.00  0.00    -0.744 OA
ENDBRANCH  90  94
ENDBRANCH  64  87
ENDBRANCH  38  39
ENDBRANCH  30  33
ENDBRANCH  28  29
ENDBRANCH  27  28
ENDBRANCH   1  27
TORSDOF 17
ENDMDL
