MODEL 1
REMARK VINA RESULT:     -11.6      0.000      0.000
REMARK SMILES CC[C@](C)(NC(=O)N(C)[C@@H](C)c1ccccc1F)C(=O)NCCCCNC(=O)c1ccc(-c2c3nc(c(-c4cc(S(=O)(=O)[O-])ccc4F)c4ccc([nH]4)c(-c4cc(S(=O)(=O)[O-])ccc4F)c4nc(c(-c5cc(S(=O)(=O)[O-])ccc5F)c5ccc2[nH]5)C=C4)C=C3)cc1
REMARK SMILES IDX 23 1 22 2 21 3 19 4 20 5 3 7 4 8 2 9 1 10 5 11 6 12 7 14
REMARK SMILES IDX 8 15 9 16 10 17 11 18 12 19 13 20 17 21 14 22 16 23 18 24
REMARK SMILES IDX 15 25 24 26 25 27 26 28 27 29 28 31 29 32 30 33 91 34 31 35
REMARK SMILES IDX 90 36 32 37 33 38 34 39 84 40 35 41 89 42 83 43 85 44 36 45
REMARK SMILES IDX 88 46 82 47 81 48 37 50 69 51 49 52 68 53 50 54 53 55 67 56
REMARK SMILES IDX 86 57 51 58 52 59 66 61 87 62 54 63 38 64 39 65 47 66 40 67
REMARK SMILES IDX 46 68 48 69 45 70 41 71 42 72 43 73 44 74 70 75 71 76 79 77
REMARK SMILES IDX 72 78 78 79 80 80 77 81 73 82 74 83 75 84 76 85 55 86 56 87
REMARK SMILES IDX 64 88 57 89 63 90 65 91 62 92 58 93 59 94 60 95 61 96
REMARK H PARENT 21 6 5 13 26 30 85 49 53 60
REMARK Flexibility Score: inf
ROOT
ATOM      1  C   UNL A   1      34.222  21.438  26.915  1.00  0.00     0.023 C 
ENDROOT
BRANCH   1   2
ATOM      2  C   UNL A   1      32.933  21.535  26.125  1.00  0.00     0.116 C 
BRANCH   2   3
ATOM      3  N   UNL A   1      31.867  22.257  26.803  1.00  0.00    -0.354 N 
ATOM      4  C   UNL A   1      31.154  23.373  26.465  1.00  0.00     0.245 C 
ATOM      5  O   UNL A   1      30.186  23.641  27.188  1.00  0.00    -0.272 OA
ATOM      6  H   UNL A   1      31.610  21.867  27.669  1.00  0.00     0.163 HD
BRANCH   4   7
ATOM      7  C   UNL A   1      31.449  24.208  25.184  1.00  0.00     0.117 C 
ATOM      8  C   UNL A   1      31.944  23.340  24.008  1.00  0.00     0.045 C 
BRANCH   7   9
ATOM      9  C   UNL A   1      32.610  25.206  25.581  1.00  0.00     0.035 C 
ATOM     10  C   UNL A   1      33.854  25.211  24.696  1.00  0.00     0.007 C 
ENDBRANCH   7   9
BRANCH   7  11
ATOM     11  N   UNL A   1      30.281  25.003  24.698  1.00  0.00    -0.324 N 
ATOM     12  C   UNL A   1      30.001  26.182  24.100  1.00  0.00     0.318 C 
ATOM     13  H   UNL A   1      29.447  24.508  24.867  1.00  0.00     0.166 HD
ATOM     14  O   UNL A   1      28.826  26.538  24.248  1.00  0.00    -0.249 OA
BRANCH  12  15
ATOM     15  N   UNL A   1      30.857  26.859  23.276  1.00  0.00    -0.321 N 
ATOM     16  C   UNL A   1      31.546  26.325  22.110  1.00  0.00     0.149 C 
BRANCH  15  17
ATOM     17  C   UNL A   1      31.176  28.300  23.571  1.00  0.00     0.117 C 
ATOM     18  C   UNL A   1      29.959  29.249  23.489  1.00  0.00     0.036 C 
BRANCH  17  19
ATOM     19  C   UNL A   1      31.992  28.529  24.843  1.00  0.00     0.010 A 
ATOM     20  C   UNL A   1      31.403  28.562  26.117  1.00  0.00     0.009 A 
ATOM     21  C   UNL A   1      33.392  28.662  24.786  1.00  0.00     0.128 A 
ATOM     22  C   UNL A   1      32.175  28.757  27.267  1.00  0.00     0.001 A 
ATOM     23  C   UNL A   1      34.163  28.883  25.924  1.00  0.00     0.039 A 
ATOM     24  F   UNL A   1      34.045  28.569  23.620  1.00  0.00    -0.207 F 
ATOM     25  C   UNL A   1      33.554  28.933  27.170  1.00  0.00     0.003 A 
ENDBRANCH  17  19
ENDBRANCH  15  17
ENDBRANCH  12  15
ENDBRANCH   7  11
ENDBRANCH   4   7
ENDBRANCH   2   3
ENDBRANCH   1   2
BRANCH   1  26
ATOM     26  C   UNL A   1      35.149  22.642  26.816  1.00  0.00     0.023 C 
BRANCH  26  27
ATOM     27  C   UNL A   1      36.098  22.577  25.639  1.00  0.00     0.116 C 
BRANCH  27  28
ATOM     28  N   UNL A   1      36.999  21.436  25.734  1.00  0.00    -0.352 N 
ATOM     29  C   UNL A   1      38.354  21.407  25.937  1.00  0.00     0.251 C 
ATOM     30  H   UNL A   1      36.571  20.554  25.637  1.00  0.00     0.163 HD
ATOM     31  O   UNL A   1      38.972  20.359  25.747  1.00  0.00    -0.269 OA
BRANCH  29  32
ATOM     32  C   UNL A   1      39.059  22.631  26.364  1.00  0.00     0.039 A 
ATOM     33  C   UNL A   1      40.129  22.529  27.254  1.00  0.00     0.014 A 
ATOM     34  C   UNL A   1      38.665  23.881  25.879  1.00  0.00     0.014 A 
ATOM     35  C   UNL A   1      40.838  23.677  27.608  1.00  0.00     0.010 A 
ATOM     36  C   UNL A   1      39.445  24.997  26.132  1.00  0.00     0.010 A 
ATOM     37  C   UNL A   1      40.525  24.913  27.020  1.00  0.00    -0.014 A 
BRANCH  37  38
ATOM     38  C   UNL A   1      41.283  26.147  27.342  1.00  0.00     0.031 A 
ATOM     39  C   UNL A   1      40.634  27.220  28.175  1.00  0.00     0.074 A 
ATOM     40  C   UNL A   1      42.518  26.323  26.836  1.00  0.00     0.049 A 
ATOM     41  N   UNL A   1      41.079  28.412  28.476  1.00  0.00    -0.248 NA
ATOM     42  C   UNL A   1      39.291  26.932  28.707  1.00  0.00     0.031 C 
ATOM     43  C   UNL A   1      43.231  25.365  25.986  1.00  0.00     0.029 A 
ATOM     44  N   UNL A   1      43.398  27.368  26.964  1.00  0.00    -0.354 N 
ATOM     45  C   UNL A   1      40.066  29.017  29.212  1.00  0.00     0.074 A 
ATOM     46  C   UNL A   1      38.958  28.090  29.254  1.00  0.00     0.031 C 
ATOM     47  C   UNL A   1      44.454  25.844  25.713  1.00  0.00     0.029 A 
ATOM     48  C   UNL A   1      44.594  27.165  26.316  1.00  0.00     0.049 A 
ATOM     49  H   UNL A   1      43.191  28.186  27.471  1.00  0.00     0.167 HD
ATOM     50  C   UNL A   1      40.073  30.224  29.825  1.00  0.00     0.034 A 
ATOM     51  C   UNL A   1      45.678  27.959  26.214  1.00  0.00     0.034 A 
ATOM     52  C   UNL A   1      41.203  31.117  29.808  1.00  0.00     0.049 A 
ATOM     53  C   UNL A   1      45.658  29.304  26.888  1.00  0.00     0.074 A 
ATOM     54  C   UNL A   1      41.340  32.338  30.443  1.00  0.00     0.029 A 
ATOM     55  N   UNL A   1      42.389  30.883  29.126  1.00  0.00    -0.354 N 
ATOM     56  N   UNL A   1      44.695  29.858  27.589  1.00  0.00    -0.248 NA
ATOM     57  C   UNL A   1      46.864  30.132  26.757  1.00  0.00     0.031 C 
ATOM     58  C   UNL A   1      42.584  32.871  30.094  1.00  0.00     0.029 A 
ATOM     59  C   UNL A   1      43.252  31.951  29.301  1.00  0.00     0.049 A 
ATOM     60  H   UNL A   1      42.587  30.078  28.595  1.00  0.00     0.167 HD
ATOM     61  C   UNL A   1      45.188  31.091  28.002  1.00  0.00     0.074 A 
ATOM     62  C   UNL A   1      46.534  31.199  27.474  1.00  0.00     0.031 C 
ATOM     63  C   UNL A   1      44.585  32.043  28.755  1.00  0.00     0.034 A 
BRANCH  50  64
ATOM     64  C   UNL A   1      38.827  30.648  30.557  1.00  0.00     0.023 A 
ATOM     65  C   UNL A   1      37.821  31.399  29.926  1.00  0.00     0.031 A 
ATOM     66  C   UNL A   1      38.635  30.282  31.901  1.00  0.00     0.131 A 
ATOM     67  C   UNL A   1      36.689  31.800  30.651  1.00  0.00     0.055 A 
ATOM     68  C   UNL A   1      37.475  30.625  32.596  1.00  0.00     0.041 A 
ATOM     69  F   UNL A   1      39.574  29.583  32.559  1.00  0.00    -0.206 F 
ATOM     70  C   UNL A   1      36.497  31.396  31.974  1.00  0.00     0.022 A 
BRANCH  67  71
ATOM     71  S   UNL A   1      35.511  32.931  29.866  1.00  0.00     0.124 S 
ATOM     72  O   UNL A   1      34.528  31.999  29.320  1.00  0.00    -0.237 OA
ATOM     73  O   UNL A   1      35.059  33.748  30.988  1.00  0.00    -0.237 OA
ATOM     74  O   UNL A   1      36.318  33.633  28.870  1.00  0.00    -0.744 OA
ENDBRANCH  67  71
ENDBRANCH  50  64
BRANCH  51  75
ATOM     75  C   UNL A   1      46.868  27.493  25.450  1.00  0.00     0.023 A 
ATOM     76  C   UNL A   1      47.037  27.838  24.101  1.00  0.00     0.031 A 
ATOM     77  C   UNL A   1      47.868  26.721  26.068  1.00  0.00     0.131 A 
ATOM     78  C   UNL A   1      48.174  27.398  23.405  1.00  0.00     0.055 A 
ATOM     79  C   UNL A   1      49.015  26.318  25.383  1.00  0.00     0.041 A 
ATOM     80  F   UNL A   1      47.758  26.376  27.361  1.00  0.00    -0.206 F 
ATOM     81  C   UNL A   1      49.170  26.652  24.041  1.00  0.00     0.022 A 
BRANCH  78  82
ATOM     82  S   UNL A   1      48.326  27.799  21.643  1.00  0.00     0.124 S 
ATOM     83  O   UNL A   1      48.653  26.498  21.071  1.00  0.00    -0.237 OA
ATOM     84  O   UNL A   1      47.000  28.322  21.333  1.00  0.00    -0.237 OA
ATOM     85  O   UNL A   1      49.404  28.785  21.611  1.00  0.00    -0.744 OA
ENDBRANCH  78  82
ENDBRANCH  51  75
BRANCH  63  86
ATOM     86  C   UNL A   1      45.381  33.278  29.082  1.00  0.00     0.023 A 
ATOM     87  C   UNL A   1      45.337  34.418  28.263  1.00  0.00     0.031 A 
ATOM     88  C   UNL A   1      46.139  33.334  30.265  1.00  0.00     0.131 A 
ATOM     89  C   UNL A   1      46.060  35.562  28.627  1.00  0.00     0.055 A 
ATOM     90  C   UNL A   1      46.818  34.491  30.646  1.00  0.00     0.041 A 
ATOM     91  F   UNL A   1      46.207  32.270  31.083  1.00  0.00    -0.206 F 
ATOM     92  C   UNL A   1      46.784  35.612  29.822  1.00  0.00     0.022 A 
BRANCH  89  93
ATOM     93  S   UNL A   1      46.069  36.982  27.500  1.00  0.00     0.124 S 
ATOM     94  O   UNL A   1      44.692  37.457  27.603  1.00  0.00    -0.237 OA
ATOM     95  O   UNL A   1      47.087  37.847  28.088  1.00  0.00    -0.237 OA
ATOM     96  O   UNL A   1      46.427  36.394  26.210  1.00  0.00    -0.744 OA
ENDBRANCH  89  93
ENDBRANCH  63  86
ENDBRANCH  37  38
ENDBRANCH  29  32
ENDBRANCH  27  28
ENDBRANCH  26  27
ENDBRANCH   1  26
TORSDOF 19
ENDMDL
MODEL 2
REMARK VINA RESULT:     -11.4      1.086      7.519
REMARK SMILES CC[C@](C)(NC(=O)N(C)[C@@H](C)c1ccccc1F)C(=O)NCCCCNC(=O)c1ccc(-c2c3nc(c(-c4cc(S(=O)(=O)[O-])ccc4F)c4ccc([nH]4)c(-c4cc(S(=O)(=O)[O-])ccc4F)c4nc(c(-c5cc(S(=O)(=O)[O-])ccc5F)c5ccc2[nH]5)C=C4)C=C3)cc1
REMARK SMILES IDX 23 1 22 2 21 3 19 4 20 5 3 7 4 8 2 9 1 10 5 11 6 12 7 14
REMARK SMILES IDX 8 15 9 16 10 17 11 18 12 19 13 20 17 21 14 22 16 23 18 24
REMARK SMILES IDX 15 25 24 26 25 27 26 28 27 29 28 31 29 32 30 33 91 34 31 35
REMARK SMILES IDX 90 36 32 37 33 38 34 39 84 40 35 41 89 42 83 43 85 44 36 45
REMARK SMILES IDX 88 46 82 47 81 48 37 50 69 51 49 52 68 53 50 54 53 55 67 56
REMARK SMILES IDX 86 57 51 58 52 59 66 61 87 62 54 63 38 64 39 65 47 66 40 67
REMARK SMILES IDX 46 68 48 69 45 70 41 71 42 72 43 73 44 74 70 75 71 76 79 77
REMARK SMILES IDX 72 78 78 79 80 80 77 81 73 82 74 83 75 84 76 85 55 86 56 87
REMARK SMILES IDX 64 88 57 89 63 90 65 91 62 92 58 93 59 94 60 95 61 96
REMARK H PARENT 21 6 5 13 26 30 85 49 53 60
REMARK Flexibility Score: inf
ROOT
ATOM      1  C   UNL A   1      34.849  20.706  24.967  1.00  0.00     0.023 C 
ENDROOT
BRANCH   1   2
ATOM      2  C   UNL A   1      33.381  21.040  25.130  1.00  0.00     0.116 C 
BRANCH   2   3
ATOM      3  N   UNL A   1      33.026  21.560  26.441  1.00  0.00    -0.354 N 
ATOM      4  C   UNL A   1      32.560  22.778  26.852  1.00  0.00     0.245 C 
ATOM      5  O   UNL A   1      32.190  22.851  28.030  1.00  0.00    -0.272 OA
ATOM      6  H   UNL A   1      33.143  20.912  27.172  1.00  0.00     0.163 HD
BRANCH   4   7
ATOM      7  C   UNL A   1      32.384  23.985  25.883  1.00  0.00     0.117 C 
ATOM      8  C   UNL A   1      31.804  23.570  24.515  1.00  0.00     0.045 C 
BRANCH   7   9
ATOM      9  C   UNL A   1      33.837  24.561  25.647  1.00  0.00     0.035 C 
ATOM     10  C   UNL A   1      34.370  24.537  24.217  1.00  0.00     0.007 C 
ENDBRANCH   7   9
BRANCH   7  11
ATOM     11  N   UNL A   1      31.520  25.076  26.427  1.00  0.00    -0.324 N 
ATOM     12  C   UNL A   1      31.201  26.368  26.189  1.00  0.00     0.318 C 
ATOM     13  H   UNL A   1      31.022  24.748  27.210  1.00  0.00     0.166 HD
ATOM     14  O   UNL A   1      30.702  26.936  27.167  1.00  0.00    -0.249 OA
BRANCH  12  15
ATOM     15  N   UNL A   1      31.262  26.971  24.963  1.00  0.00    -0.321 N 
ATOM     16  C   UNL A   1      30.234  26.952  23.933  1.00  0.00     0.149 C 
BRANCH  15  17
ATOM     17  C   UNL A   1      32.506  27.724  24.575  1.00  0.00     0.117 C 
ATOM     18  C   UNL A   1      32.464  28.329  23.153  1.00  0.00     0.036 C 
BRANCH  17  19
ATOM     19  C   UNL A   1      32.991  28.739  25.611  1.00  0.00     0.010 A 
ATOM     20  C   UNL A   1      34.230  28.616  26.260  1.00  0.00     0.009 A 
ATOM     21  C   UNL A   1      32.225  29.879  25.914  1.00  0.00     0.128 A 
ATOM     22  C   UNL A   1      34.656  29.567  27.192  1.00  0.00     0.001 A 
ATOM     23  C   UNL A   1      32.631  30.816  26.860  1.00  0.00     0.039 A 
ATOM     24  F   UNL A   1      31.064  30.115  25.288  1.00  0.00    -0.207 F 
ATOM     25  C   UNL A   1      33.850  30.660  27.505  1.00  0.00     0.003 A 
ENDBRANCH  17  19
ENDBRANCH  15  17
ENDBRANCH  12  15
ENDBRANCH   7  11
ENDBRANCH   4   7
ENDBRANCH   2   3
ENDBRANCH   1   2
BRANCH   1  26
ATOM     26  C   UNL A   1      35.819  21.605  25.722  1.00  0.00     0.023 C 
BRANCH  26  27
ATOM     27  C   UNL A   1      37.188  21.689  25.079  1.00  0.00     0.116 C 
BRANCH  27  28
ATOM     28  N   UNL A   1      38.081  20.651  25.576  1.00  0.00    -0.352 N 
ATOM     29  C   UNL A   1      39.333  20.765  26.122  1.00  0.00     0.251 C 
ATOM     30  H   UNL A   1      37.736  19.731  25.509  1.00  0.00     0.163 HD
ATOM     31  O   UNL A   1      40.027  19.757  26.260  1.00  0.00    -0.269 OA
BRANCH  29  32
ATOM     32  C   UNL A   1      39.842  22.091  26.524  1.00  0.00     0.039 A 
ATOM     33  C   UNL A   1      40.909  22.172  27.420  1.00  0.00     0.014 A 
ATOM     34  C   UNL A   1      39.267  23.255  26.009  1.00  0.00     0.014 A 
ATOM     35  C   UNL A   1      41.434  23.422  27.750  1.00  0.00     0.010 A 
ATOM     36  C   UNL A   1      39.867  24.483  26.239  1.00  0.00     0.010 A 
ATOM     37  C   UNL A   1      40.942  24.583  27.133  1.00  0.00    -0.014 A 
BRANCH  37  38
ATOM     38  C   UNL A   1      41.502  25.924  27.429  1.00  0.00     0.031 A 
ATOM     39  C   UNL A   1      42.863  26.292  26.901  1.00  0.00     0.074 A 
ATOM     40  C   UNL A   1      40.818  26.774  28.218  1.00  0.00     0.049 A 
ATOM     41  N   UNL A   1      43.575  27.363  27.133  1.00  0.00    -0.248 NA
ATOM     42  C   UNL A   1      43.528  25.311  26.026  1.00  0.00     0.031 C 
ATOM     43  C   UNL A   1      39.506  26.507  28.815  1.00  0.00     0.029 A 
ATOM     44  N   UNL A   1      41.127  28.038  28.652  1.00  0.00    -0.354 N 
ATOM     45  C   UNL A   1      44.773  27.173  26.453  1.00  0.00     0.074 A 
ATOM     46  C   UNL A   1      44.721  25.859  25.855  1.00  0.00     0.031 C 
ATOM     47  C   UNL A   1      39.104  27.592  29.494  1.00  0.00     0.029 A 
ATOM     48  C   UNL A   1      40.148  28.609  29.430  1.00  0.00     0.049 A 
ATOM     49  H   UNL A   1      41.971  28.492  28.428  1.00  0.00     0.167 HD
ATOM     50  C   UNL A   1      45.810  28.033  26.313  1.00  0.00     0.034 A 
ATOM     51  C   UNL A   1      40.102  29.814  30.031  1.00  0.00     0.034 A 
ATOM     52  C   UNL A   1      45.827  29.356  26.880  1.00  0.00     0.049 A 
ATOM     53  C   UNL A   1      41.272  30.747  29.877  1.00  0.00     0.074 A 
ATOM     54  C   UNL A   1      46.799  30.331  26.753  1.00  0.00     0.029 A 
ATOM     55  N   UNL A   1      44.824  29.891  27.677  1.00  0.00    -0.354 N 
ATOM     56  N   UNL A   1      42.394  30.556  29.222  1.00  0.00    -0.248 NA
ATOM     57  C   UNL A   1      41.175  32.052  30.543  1.00  0.00     0.031 C 
ATOM     58  C   UNL A   1      46.415  31.432  27.523  1.00  0.00     0.029 A 
ATOM     59  C   UNL A   1      45.168  31.172  28.073  1.00  0.00     0.049 A 
ATOM     60  H   UNL A   1      43.992  29.428  27.926  1.00  0.00     0.167 HD
ATOM     61  C   UNL A   1      43.128  31.727  29.378  1.00  0.00     0.074 A 
ATOM     62  C   UNL A   1      42.320  32.620  30.187  1.00  0.00     0.031 C 
ATOM     63  C   UNL A   1      44.354  32.039  28.890  1.00  0.00     0.034 A 
BRANCH  50  64
ATOM     64  C   UNL A   1      47.006  27.569  25.523  1.00  0.00     0.023 A 
ATOM     65  C   UNL A   1      47.171  27.908  24.170  1.00  0.00     0.031 A 
ATOM     66  C   UNL A   1      48.003  26.791  26.137  1.00  0.00     0.131 A 
ATOM     67  C   UNL A   1      48.284  27.432  23.461  1.00  0.00     0.055 A 
ATOM     68  C   UNL A   1      49.142  26.379  25.446  1.00  0.00     0.041 A 
ATOM     69  F   UNL A   1      47.885  26.421  27.422  1.00  0.00    -0.206 F 
ATOM     70  C   UNL A   1      49.284  26.692  24.096  1.00  0.00     0.022 A 
BRANCH  67  71
ATOM     71  S   UNL A   1      48.365  27.720  21.674  1.00  0.00     0.124 S 
ATOM     72  O   UNL A   1      48.630  26.375  21.171  1.00  0.00    -0.237 OA
ATOM     73  O   UNL A   1      47.043  28.263  21.379  1.00  0.00    -0.237 OA
ATOM     74  O   UNL A   1      49.471  28.664  21.527  1.00  0.00    -0.744 OA
ENDBRANCH  67  71
ENDBRANCH  50  64
BRANCH  51  75
ATOM     75  C   UNL A   1      38.902  30.201  30.823  1.00  0.00     0.023 A 
ATOM     76  C   UNL A   1      38.000  31.160  30.339  1.00  0.00     0.031 A 
ATOM     77  C   UNL A   1      38.624  29.594  32.060  1.00  0.00     0.131 A 
ATOM     78  C   UNL A   1      36.868  31.499  31.097  1.00  0.00     0.055 A 
ATOM     79  C   UNL A   1      37.477  29.906  32.793  1.00  0.00     0.041 A 
ATOM     80  F   UNL A   1      39.450  28.661  32.559  1.00  0.00    -0.206 F 
ATOM     81  C   UNL A   1      36.594  30.868  32.313  1.00  0.00     0.022 A 
BRANCH  78  82
ATOM     82  S   UNL A   1      35.761  32.796  30.478  1.00  0.00     0.124 S 
ATOM     83  O   UNL A   1      36.191  33.949  31.260  1.00  0.00    -0.237 OA
ATOM     84  O   UNL A   1      36.089  32.825  29.057  1.00  0.00    -0.237 OA
ATOM     85  O   UNL A   1      34.429  32.285  30.796  1.00  0.00    -0.744 OA
ENDBRANCH  78  82
ENDBRANCH  51  75
BRANCH  63  86
ATOM     86  C   UNL A   1      44.893  33.412  29.190  1.00  0.00     0.023 A 
ATOM     87  C   UNL A   1      44.754  34.471  28.279  1.00  0.00     0.031 A 
ATOM     88  C   UNL A   1      45.496  33.674  30.434  1.00  0.00     0.131 A 
ATOM     89  C   UNL A   1      45.233  35.744  28.617  1.00  0.00     0.055 A 
ATOM     90  C   UNL A   1      45.927  34.953  30.783  1.00  0.00     0.041 A 
ATOM     91  F   UNL A   1      45.647  32.694  31.340  1.00  0.00    -0.206 F 
ATOM     92  C   UNL A   1      45.802  35.996  29.870  1.00  0.00     0.022 A 
BRANCH  89  93
ATOM     93  S   UNL A   1      45.134  37.068  27.382  1.00  0.00     0.124 S 
ATOM     94  O   UNL A   1      45.975  36.543  26.310  1.00  0.00    -0.237 OA
ATOM     95  O   UNL A   1      43.703  37.129  27.098  1.00  0.00    -0.237 OA
ATOM     96  O   UNL A   1      45.676  38.232  28.082  1.00  0.00    -0.744 OA
ENDBRANCH  89  93
ENDBRANCH  63  86
ENDBRANCH  37  38
ENDBRANCH  29  32
ENDBRANCH  27  28
ENDBRANCH  26  27
ENDBRANCH   1  26
TORSDOF 19
ENDMDL
MODEL 3
REMARK VINA RESULT:     -11.4      2.359      3.119
REMARK SMILES CC[C@](C)(NC(=O)N(C)[C@@H](C)c1ccccc1F)C(=O)NCCCCNC(=O)c1ccc(-c2c3nc(c(-c4cc(S(=O)(=O)[O-])ccc4F)c4ccc([nH]4)c(-c4cc(S(=O)(=O)[O-])ccc4F)c4nc(c(-c5cc(S(=O)(=O)[O-])ccc5F)c5ccc2[nH]5)C=C4)C=C3)cc1
REMARK SMILES IDX 23 1 22 2 21 3 19 4 20 5 3 7 4 8 2 9 1 10 5 11 6 12 7 14
REMARK SMILES IDX 8 15 9 16 10 17 11 18 12 19 13 20 17 21 14 22 16 23 18 24
REMARK SMILES IDX 15 25 24 26 25 27 26 28 27 29 28 31 29 32 30 33 91 34 31 35
REMARK SMILES IDX 90 36 32 37 33 38 34 39 84 40 35 41 89 42 83 43 85 44 36 45
REMARK SMILES IDX 88 46 82 47 81 48 37 50 69 51 49 52 68 53 50 54 53 55 67 56
REMARK SMILES IDX 86 57 51 58 52 59 66 61 87 62 54 63 38 64 39 65 47 66 40 67
REMARK SMILES IDX 46 68 48 69 45 70 41 71 42 72 43 73 44 74 70 75 71 76 79 77
REMARK SMILES IDX 72 78 78 79 80 80 77 81 73 82 74 83 75 84 76 85 55 86 56 87
REMARK SMILES IDX 64 88 57 89 63 90 65 91 62 92 58 93 59 94 60 95 61 96
REMARK H PARENT 21 6 5 13 26 30 85 49 53 60
REMARK Flexibility Score: inf
ROOT
ATOM      1  C   UNL A   1      37.022  20.937  24.733  1.00  0.00     0.023 C 
ENDROOT
BRANCH   1   2
ATOM      2  C   UNL A   1      35.577  20.537  24.948  1.00  0.00     0.116 C 
BRANCH   2   3
ATOM      3  N   UNL A   1      35.024  20.954  26.227  1.00  0.00    -0.354 N 
ATOM      4  C   UNL A   1      34.040  21.845  26.557  1.00  0.00     0.245 C 
ATOM      5  O   UNL A   1      33.684  21.849  27.741  1.00  0.00    -0.272 OA
ATOM      6  H   UNL A   1      35.436  20.510  27.002  1.00  0.00     0.163 HD
BRANCH   4   7
ATOM      7  C   UNL A   1      33.312  22.728  25.500  1.00  0.00     0.117 C 
ATOM      8  C   UNL A   1      32.598  21.893  24.417  1.00  0.00     0.045 C 
BRANCH   7   9
ATOM      9  C   UNL A   1      34.446  23.577  24.798  1.00  0.00     0.035 C 
ATOM     10  C   UNL A   1      35.467  24.257  25.707  1.00  0.00     0.007 C 
ENDBRANCH   7   9
BRANCH   7  11
ATOM     11  N   UNL A   1      32.306  23.664  26.085  1.00  0.00    -0.324 N 
ATOM     12  C   UNL A   1      31.816  24.911  25.904  1.00  0.00     0.318 C 
ATOM     13  H   UNL A   1      31.854  23.235  26.847  1.00  0.00     0.166 HD
ATOM     14  O   UNL A   1      31.240  25.359  26.902  1.00  0.00    -0.249 OA
BRANCH  12  15
ATOM     15  N   UNL A   1      31.800  25.574  24.709  1.00  0.00    -0.321 N 
ATOM     16  C   UNL A   1      30.849  25.386  23.623  1.00  0.00     0.149 C 
BRANCH  15  17
ATOM     17  C   UNL A   1      32.865  26.598  24.421  1.00  0.00     0.117 C 
ATOM     18  C   UNL A   1      32.874  27.112  22.963  1.00  0.00     0.036 C 
BRANCH  17  19
ATOM     19  C   UNL A   1      32.941  27.745  25.429  1.00  0.00     0.010 A 
ATOM     20  C   UNL A   1      34.080  27.980  26.215  1.00  0.00     0.009 A 
ATOM     21  C   UNL A   1      31.876  28.654  25.566  1.00  0.00     0.128 A 
ATOM     22  C   UNL A   1      34.130  29.046  27.118  1.00  0.00     0.001 A 
ATOM     23  C   UNL A   1      31.908  29.702  26.482  1.00  0.00     0.039 A 
ATOM     24  F   UNL A   1      30.780  28.551  24.802  1.00  0.00    -0.207 F 
ATOM     25  C   UNL A   1      33.038  29.900  27.264  1.00  0.00     0.003 A 
ENDBRANCH  17  19
ENDBRANCH  15  17
ENDBRANCH  12  15
ENDBRANCH   7  11
ENDBRANCH   4   7
ENDBRANCH   2   3
ENDBRANCH   1   2
BRANCH   1  26
ATOM     26  C   UNL A   1      38.053  19.843  24.977  1.00  0.00     0.023 C 
BRANCH  26  27
ATOM     27  C   UNL A   1      39.228  20.299  25.816  1.00  0.00     0.116 C 
BRANCH  27  28
ATOM     28  N   UNL A   1      40.219  19.244  25.976  1.00  0.00    -0.352 N 
ATOM     29  C   UNL A   1      41.579  19.336  26.113  1.00  0.00     0.251 C 
ATOM     30  H   UNL A   1      39.859  18.327  25.986  1.00  0.00     0.163 HD
ATOM     31  O   UNL A   1      42.270  18.324  25.995  1.00  0.00    -0.269 OA
BRANCH  29  32
ATOM     32  C   UNL A   1      42.203  20.646  26.386  1.00  0.00     0.039 A 
ATOM     33  C   UNL A   1      42.676  21.414  25.321  1.00  0.00     0.014 A 
ATOM     34  C   UNL A   1      42.313  21.118  27.697  1.00  0.00     0.014 A 
ATOM     35  C   UNL A   1      43.206  22.681  25.571  1.00  0.00     0.010 A 
ATOM     36  C   UNL A   1      42.722  22.421  27.929  1.00  0.00     0.010 A 
ATOM     37  C   UNL A   1      43.197  23.208  26.872  1.00  0.00    -0.014 A 
BRANCH  37  38
ATOM     38  C   UNL A   1      43.715  24.566  27.169  1.00  0.00     0.031 A 
ATOM     39  C   UNL A   1      42.776  25.620  27.692  1.00  0.00     0.074 A 
ATOM     40  C   UNL A   1      45.003  24.861  26.910  1.00  0.00     0.049 A 
ATOM     41  N   UNL A   1      43.000  26.889  27.910  1.00  0.00    -0.248 NA
ATOM     42  C   UNL A   1      41.391  25.201  27.970  1.00  0.00     0.031 C 
ATOM     43  C   UNL A   1      45.994  23.928  26.368  1.00  0.00     0.029 A 
ATOM     44  N   UNL A   1      45.703  26.029  27.070  1.00  0.00    -0.354 N 
ATOM     45  C   UNL A   1      41.784  27.420  28.329  1.00  0.00     0.074 A 
ATOM     46  C   UNL A   1      40.811  26.353  28.270  1.00  0.00     0.031 C 
ATOM     47  C   UNL A   1      47.183  24.545  26.289  1.00  0.00     0.029 A 
ATOM     48  C   UNL A   1      47.029  25.931  26.718  1.00  0.00     0.049 A 
ATOM     49  H   UNL A   1      45.295  26.861  27.405  1.00  0.00     0.167 HD
ATOM     50  C   UNL A   1      41.514  28.675  28.756  1.00  0.00     0.034 A 
ATOM     51  C   UNL A   1      48.008  26.857  26.734  1.00  0.00     0.034 A 
ATOM     52  C   UNL A   1      42.506  29.714  28.849  1.00  0.00     0.049 A 
ATOM     53  C   UNL A   1      47.682  28.250  27.195  1.00  0.00     0.074 A 
ATOM     54  C   UNL A   1      42.355  31.005  29.323  1.00  0.00     0.029 A 
ATOM     55  N   UNL A   1      43.834  29.579  28.467  1.00  0.00    -0.354 N 
ATOM     56  N   UNL A   1      46.529  28.734  27.598  1.00  0.00    -0.248 NA
ATOM     57  C   UNL A   1      48.781  29.224  27.202  1.00  0.00     0.031 C 
ATOM     58  C   UNL A   1      43.574  31.670  29.168  1.00  0.00     0.029 A 
ATOM     59  C   UNL A   1      44.506  30.774  28.666  1.00  0.00     0.049 A 
ATOM     60  H   UNL A   1      44.238  28.758  28.105  1.00  0.00     0.167 HD
ATOM     61  C   UNL A   1      46.769  30.063  27.928  1.00  0.00     0.074 A 
ATOM     62  C   UNL A   1      48.178  30.305  27.680  1.00  0.00     0.031 C 
ATOM     63  C   UNL A   1      45.907  30.996  28.400  1.00  0.00     0.034 A 
BRANCH  50  64
ATOM     64  C   UNL A   1      40.095  28.994  29.149  1.00  0.00     0.023 A 
ATOM     65  C   UNL A   1      39.692  29.024  30.494  1.00  0.00     0.031 A 
ATOM     66  C   UNL A   1      39.135  29.288  28.164  1.00  0.00     0.131 A 
ATOM     67  C   UNL A   1      38.354  29.296  30.818  1.00  0.00     0.055 A 
ATOM     68  C   UNL A   1      37.823  29.626  28.495  1.00  0.00     0.041 A 
ATOM     69  F   UNL A   1      39.461  29.252  26.861  1.00  0.00    -0.206 F 
ATOM     70  C   UNL A   1      37.423  29.623  29.828  1.00  0.00     0.022 A 
BRANCH  67  71
ATOM     71  S   UNL A   1      37.826  29.132  32.543  1.00  0.00     0.124 S 
ATOM     72  O   UNL A   1      38.892  29.843  33.245  1.00  0.00    -0.237 OA
ATOM     73  O   UNL A   1      36.520  29.783  32.540  1.00  0.00    -0.237 OA
ATOM     74  O   UNL A   1      37.801  27.687  32.759  1.00  0.00    -0.744 OA
ENDBRANCH  67  71
ENDBRANCH  50  64
BRANCH  51  75
ATOM     75  C   UNL A   1      49.385  26.485  26.305  1.00  0.00     0.023 A 
ATOM     76  C   UNL A   1      49.905  26.940  25.084  1.00  0.00     0.031 A 
ATOM     77  C   UNL A   1      50.210  25.696  27.125  1.00  0.00     0.131 A 
ATOM     78  C   UNL A   1      51.210  26.587  24.707  1.00  0.00     0.055 A 
ATOM     79  C   UNL A   1      51.521  25.380  26.764  1.00  0.00     0.041 A 
ATOM     80  F   UNL A   1      49.762  25.248  28.308  1.00  0.00    -0.206 F 
ATOM     81  C   UNL A   1      52.026  25.822  25.545  1.00  0.00     0.022 A 
BRANCH  78  82
ATOM     82  S   UNL A   1      51.827  27.129  23.090  1.00  0.00     0.124 S 
ATOM     83  O   UNL A   1      50.645  26.963  22.252  1.00  0.00    -0.237 OA
ATOM     84  O   UNL A   1      52.234  28.503  23.363  1.00  0.00    -0.237 OA
ATOM     85  O   UNL A   1      52.923  26.202  22.816  1.00  0.00    -0.744 OA
ENDBRANCH  78  82
ENDBRANCH  51  75
BRANCH  63  86
ATOM     86  C   UNL A   1      46.459  32.361  28.709  1.00  0.00     0.023 A 
ATOM     87  C   UNL A   1      46.470  33.384  27.748  1.00  0.00     0.031 A 
ATOM     88  C   UNL A   1      46.919  32.657  30.005  1.00  0.00     0.131 A 
ATOM     89  C   UNL A   1      46.956  34.654  28.090  1.00  0.00     0.055 A 
ATOM     90  C   UNL A   1      47.356  33.935  30.354  1.00  0.00     0.041 A 
ATOM     91  F   UNL A   1      46.923  31.713  30.961  1.00  0.00    -0.206 F 
ATOM     92  C   UNL A   1      47.380  34.941  29.392  1.00  0.00     0.022 A 
BRANCH  89  93
ATOM     93  S   UNL A   1      47.055  35.925  26.802  1.00  0.00     0.124 S 
ATOM     94  O   UNL A   1      45.747  35.810  26.164  1.00  0.00    -0.237 OA
ATOM     95  O   UNL A   1      47.283  37.142  27.575  1.00  0.00    -0.237 OA
ATOM     96  O   UNL A   1      48.185  35.494  25.980  1.00  0.00    -0.744 OA
ENDBRANCH  89  93
ENDBRANCH  63  86
ENDBRANCH  37  38
ENDBRANCH  29  32
ENDBRANCH  27  28
ENDBRANCH  26  27
ENDBRANCH   1  26
TORSDOF 19
ENDMDL
