MODEL 1
REMARK VINA RESULT:     -12.8      0.000      0.000
REMARK SMILES Cc1nc(CC(=O)N2Cc3nc[nH]c3C[C@H]2C(=O)NCCCCNC(=O)c2ccc(-c3c4nc(c(-c5cc(S(=O)(=O)[O-])ccc5F)c5ccc([nH]5)c(-c5cc(S(=O)(=O)[O-])ccc5F)c5nc(c(-c6cc(S(=O)(=O)[O-])ccc6F)c6ccc3[nH]6)C=C5)C=C4)cc2)cs1
REMARK SMILES IDX 21 1 20 2 19 3 17 4 18 5 16 7 8 8 9 9 10 10 15 11 11 12
REMARK SMILES IDX 14 13 12 14 13 15 6 17 7 18 5 19 4 20 1 21 2 22 3 23 91 24
REMARK SMILES IDX 90 25 22 26 23 27 24 28 25 29 26 31 27 32 28 33 89 34 29 35
REMARK SMILES IDX 88 36 30 37 31 38 32 39 82 40 33 41 87 42 81 43 83 44 34 45
REMARK SMILES IDX 86 46 80 47 79 48 35 50 67 51 47 52 66 53 48 54 51 55 65 56
REMARK SMILES IDX 84 57 49 58 50 59 64 61 85 62 52 63 36 64 37 65 45 66 38 67
REMARK SMILES IDX 44 68 46 69 43 70 39 71 40 72 41 73 42 74 68 75 69 76 77 77
REMARK SMILES IDX 70 78 76 79 78 80 75 81 71 82 72 83 73 84 74 85 53 86 54 87
REMARK SMILES IDX 62 88 55 89 61 90 63 91 60 92 56 93 57 94 58 95 59 96
REMARK H PARENT 19 6 13 16 24 30 83 49 51 60
REMARK Flexibility Score: inf
ROOT
ATOM      1  C   UNL A   1      36.657  22.172  23.970  1.00  0.00     0.023 C 
ENDROOT
BRANCH   1   2
ATOM      2  C   UNL A   1      35.255  22.719  24.253  1.00  0.00     0.116 C 
BRANCH   2   3
ATOM      3  N   UNL A   1      34.800  23.652  23.245  1.00  0.00    -0.354 N 
ATOM      4  C   UNL A   1      33.581  23.956  22.735  1.00  0.00     0.243 C 
ATOM      5  O   UNL A   1      33.578  24.913  21.947  1.00  0.00    -0.273 OA
ATOM      6  H   UNL A   1      35.530  24.177  22.845  1.00  0.00     0.163 HD
BRANCH   4   7
ATOM      7  C   UNL A   1      32.239  23.240  23.059  1.00  0.00     0.180 C 
ATOM      8  N   UNL A   1      32.194  22.250  24.194  1.00  0.00    -0.324 N 
ATOM      9  C   UNL A   1      31.869  22.749  25.551  1.00  0.00     0.178 C 
ATOM     10  C   UNL A   1      30.979  23.937  25.492  1.00  0.00     0.081 A 
ATOM     11  C   UNL A   1      30.978  24.149  22.974  1.00  0.00     0.091 C 
ATOM     12  N   UNL A   1      30.623  24.691  26.578  1.00  0.00    -0.240 NA
ATOM     13  C   UNL A   1      30.573  24.554  24.333  1.00  0.00     0.042 A 
ATOM     14  C   UNL A   1      29.980  25.730  26.084  1.00  0.00     0.197 A 
ATOM     15  N   UNL A   1      29.883  25.668  24.716  1.00  0.00    -0.348 N 
ATOM     16  H   UNL A   1      29.411  26.300  24.129  1.00  0.00     0.167 HD
BRANCH   8  17
ATOM     17  C   UNL A   1      32.396  20.876  24.094  1.00  0.00     0.229 C 
ATOM     18  O   UNL A   1      32.155  20.277  23.036  1.00  0.00    -0.274 OA
BRANCH  17  19
ATOM     19  C   UNL A   1      32.794  20.033  25.293  1.00  0.00     0.157 C 
BRANCH  19  20
ATOM     20  C   UNL A   1      33.236  18.643  25.013  1.00  0.00     0.061 A 
ATOM     21  C   UNL A   1      32.311  15.195  25.738  1.00  0.00     0.079 C 
ATOM     22  C   UNL A   1      32.933  16.460  25.266  1.00  0.00     0.090 A 
ATOM     23  N   UNL A   1      32.364  17.636  25.388  1.00  0.00    -0.246 NA
ATOM     24  S   UNL A   1      34.493  16.478  24.551  1.00  0.00    -0.127 S 
ATOM     25  C   UNL A   1      34.427  18.195  24.470  1.00  0.00     0.091 A 
ENDBRANCH  19  20
ENDBRANCH  17  19
ENDBRANCH   8  17
ENDBRANCH   4   7
ENDBRANCH   2   3
ENDBRANCH   1   2
BRANCH   1  26
ATOM     26  C   UNL A   1      37.113  21.047  24.907  1.00  0.00     0.023 C 
BRANCH  26  27
ATOM     27  C   UNL A   1      38.540  21.200  25.423  1.00  0.00     0.116 C 
BRANCH  27  28
ATOM     28  N   UNL A   1      39.237  19.931  25.644  1.00  0.00    -0.352 N 
ATOM     29  C   UNL A   1      40.590  19.784  25.909  1.00  0.00     0.251 C 
ATOM     30  H   UNL A   1      38.696  19.110  25.600  1.00  0.00     0.163 HD
ATOM     31  O   UNL A   1      41.185  18.735  25.679  1.00  0.00    -0.269 OA
BRANCH  29  32
ATOM     32  C   UNL A   1      41.273  20.932  26.524  1.00  0.00     0.039 A 
ATOM     33  C   UNL A   1      41.954  21.902  25.784  1.00  0.00     0.014 A 
ATOM     34  C   UNL A   1      41.073  21.071  27.896  1.00  0.00     0.014 A 
ATOM     35  C   UNL A   1      42.358  23.068  26.435  1.00  0.00     0.010 A 
ATOM     36  C   UNL A   1      41.313  22.282  28.483  1.00  0.00     0.010 A 
ATOM     37  C   UNL A   1      42.012  23.261  27.784  1.00  0.00    -0.014 A 
BRANCH  37  38
ATOM     38  C   UNL A   1      42.241  24.530  28.472  1.00  0.00     0.031 A 
ATOM     39  C   UNL A   1      41.171  25.543  28.241  1.00  0.00     0.074 A 
ATOM     40  C   UNL A   1      43.184  24.664  29.435  1.00  0.00     0.049 A 
ATOM     41  N   UNL A   1      41.237  26.621  27.535  1.00  0.00    -0.248 NA
ATOM     42  C   UNL A   1      39.802  25.234  28.696  1.00  0.00     0.031 C 
ATOM     43  C   UNL A   1      44.064  23.617  29.980  1.00  0.00     0.029 A 
ATOM     44  N   UNL A   1      43.496  25.735  30.218  1.00  0.00    -0.354 N 
ATOM     45  C   UNL A   1      40.011  27.266  27.699  1.00  0.00     0.074 A 
ATOM     46  C   UNL A   1      39.113  26.266  28.201  1.00  0.00     0.031 C 
ATOM     47  C   UNL A   1      44.624  24.035  31.138  1.00  0.00     0.029 A 
ATOM     48  C   UNL A   1      44.315  25.442  31.311  1.00  0.00     0.049 A 
ATOM     49  H   UNL A   1      43.170  26.644  30.028  1.00  0.00     0.167 HD
ATOM     50  C   UNL A   1      39.937  28.629  27.687  1.00  0.00     0.034 A 
ATOM     51  C   UNL A   1      44.749  26.297  32.277  1.00  0.00     0.034 A 
ATOM     52  C   UNL A   1      41.191  29.179  27.225  1.00  0.00     0.049 A 
ATOM     53  C   UNL A   1      44.656  27.653  31.690  1.00  0.00     0.074 A 
ATOM     54  C   UNL A   1      41.843  29.306  26.018  1.00  0.00     0.029 A 
ATOM     55  N   UNL A   1      42.133  29.320  28.217  1.00  0.00    -0.354 N 
ATOM     56  N   UNL A   1      45.347  28.018  30.645  1.00  0.00    -0.248 NA
ATOM     57  C   UNL A   1      43.493  28.480  31.984  1.00  0.00     0.031 C 
ATOM     58  C   UNL A   1      43.237  29.265  26.326  1.00  0.00     0.029 A 
ATOM     59  C   UNL A   1      43.401  29.196  27.710  1.00  0.00     0.049 A 
ATOM     60  H   UNL A   1      41.925  29.486  29.165  1.00  0.00     0.167 HD
ATOM     61  C   UNL A   1      44.491  28.824  29.920  1.00  0.00     0.074 A 
ATOM     62  C   UNL A   1      43.445  29.210  30.865  1.00  0.00     0.031 C 
ATOM     63  C   UNL A   1      44.533  28.850  28.556  1.00  0.00     0.034 A 
BRANCH  50  64
ATOM     64  C   UNL A   1      38.979  29.492  28.498  1.00  0.00     0.023 A 
ATOM     65  C   UNL A   1      39.211  29.586  29.891  1.00  0.00     0.031 A 
ATOM     66  C   UNL A   1      37.729  29.980  28.062  1.00  0.00     0.131 A 
ATOM     67  C   UNL A   1      38.215  30.056  30.770  1.00  0.00     0.055 A 
ATOM     68  C   UNL A   1      36.759  30.490  28.934  1.00  0.00     0.041 A 
ATOM     69  F   UNL A   1      37.327  29.915  26.789  1.00  0.00    -0.206 F 
ATOM     70  C   UNL A   1      36.987  30.506  30.298  1.00  0.00     0.022 A 
BRANCH  67  71
ATOM     71  S   UNL A   1      38.489  29.929  32.559  1.00  0.00     0.124 S 
ATOM     72  O   UNL A   1      37.903  31.173  33.043  1.00  0.00    -0.237 OA
ATOM     73  O   UNL A   1      37.770  28.704  32.888  1.00  0.00    -0.237 OA
ATOM     74  O   UNL A   1      39.944  29.844  32.673  1.00  0.00    -0.744 OA
ENDBRANCH  67  71
ENDBRANCH  50  64
BRANCH  51  75
ATOM     75  C   UNL A   1      44.888  26.041  33.741  1.00  0.00     0.023 A 
ATOM     76  C   UNL A   1      43.888  26.353  34.691  1.00  0.00     0.031 A 
ATOM     77  C   UNL A   1      45.944  25.214  34.183  1.00  0.00     0.131 A 
ATOM     78  C   UNL A   1      43.963  25.829  36.007  1.00  0.00     0.055 A 
ATOM     79  C   UNL A   1      46.004  24.687  35.476  1.00  0.00     0.041 A 
ATOM     80  F   UNL A   1      46.910  24.819  33.338  1.00  0.00    -0.206 F 
ATOM     81  C   UNL A   1      45.007  24.984  36.391  1.00  0.00     0.022 A 
BRANCH  78  82
ATOM     82  S   UNL A   1      42.660  26.182  37.238  1.00  0.00     0.124 S 
ATOM     83  O   UNL A   1      42.208  27.509  36.837  1.00  0.00    -0.237 OA
ATOM     84  O   UNL A   1      41.724  25.085  37.025  1.00  0.00    -0.237 OA
ATOM     85  O   UNL A   1      43.374  26.139  38.515  1.00  0.00    -0.744 OA
ENDBRANCH  78  82
ENDBRANCH  51  75
BRANCH  63  86
ATOM     86  C   UNL A   1      45.810  28.404  27.880  1.00  0.00     0.023 A 
ATOM     87  C   UNL A   1      46.092  27.103  27.406  1.00  0.00     0.031 A 
ATOM     88  C   UNL A   1      46.769  29.407  27.650  1.00  0.00     0.131 A 
ATOM     89  C   UNL A   1      47.303  26.854  26.725  1.00  0.00     0.055 A 
ATOM     90  C   UNL A   1      47.950  29.163  26.957  1.00  0.00     0.041 A 
ATOM     91  F   UNL A   1      46.551  30.663  28.076  1.00  0.00    -0.206 F 
ATOM     92  C   UNL A   1      48.224  27.883  26.493  1.00  0.00     0.022 A 
BRANCH  89  93
ATOM     93  S   UNL A   1      47.728  25.177  26.146  1.00  0.00     0.124 S 
ATOM     94  O   UNL A   1      48.833  24.786  27.013  1.00  0.00    -0.237 OA
ATOM     95  O   UNL A   1      46.478  24.447  26.339  1.00  0.00    -0.237 OA
ATOM     96  O   UNL A   1      48.099  25.384  24.744  1.00  0.00    -0.744 OA
ENDBRANCH  89  93
ENDBRANCH  63  86
ENDBRANCH  37  38
ENDBRANCH  29  32
ENDBRANCH  27  28
ENDBRANCH  26  27
ENDBRANCH   1  26
TORSDOF 17
ENDMDL
MODEL 2
REMARK VINA RESULT:     -12.6      4.746      9.927
REMARK SMILES Cc1nc(CC(=O)N2Cc3nc[nH]c3C[C@H]2C(=O)NCCCCNC(=O)c2ccc(-c3c4nc(c(-c5cc(S(=O)(=O)[O-])ccc5F)c5ccc([nH]5)c(-c5cc(S(=O)(=O)[O-])ccc5F)c5nc(c(-c6cc(S(=O)(=O)[O-])ccc6F)c6ccc3[nH]6)C=C5)C=C4)cc2)cs1
REMARK SMILES IDX 21 1 20 2 19 3 17 4 18 5 16 7 8 8 9 9 10 10 15 11 11 12
REMARK SMILES IDX 14 13 12 14 13 15 6 17 7 18 5 19 4 20 1 21 2 22 3 23 91 24
REMARK SMILES IDX 90 25 22 26 23 27 24 28 25 29 26 31 27 32 28 33 89 34 29 35
REMARK SMILES IDX 88 36 30 37 31 38 32 39 82 40 33 41 87 42 81 43 83 44 34 45
REMARK SMILES IDX 86 46 80 47 79 48 35 50 67 51 47 52 66 53 48 54 51 55 65 56
REMARK SMILES IDX 84 57 49 58 50 59 64 61 85 62 52 63 36 64 37 65 45 66 38 67
REMARK SMILES IDX 44 68 46 69 43 70 39 71 40 72 41 73 42 74 68 75 69 76 77 77
REMARK SMILES IDX 70 78 76 79 78 80 75 81 71 82 72 83 73 84 74 85 53 86 54 87
REMARK SMILES IDX 62 88 55 89 61 90 63 91 60 92 56 93 57 94 58 95 59 96
REMARK H PARENT 19 6 13 16 24 30 83 49 51 60
REMARK Flexibility Score: inf
ROOT
ATOM      1  C   UNL A   1      32.212  29.391  26.411  1.00  0.00     0.023 C 
ENDROOT
BRANCH   1   2
ATOM      2  C   UNL A   1      33.710  29.138  26.218  1.00  0.00     0.116 C 
BRANCH   2   3
ATOM      3  N   UNL A   1      34.050  28.777  24.859  1.00  0.00    -0.354 N 
ATOM      4  C   UNL A   1      33.922  27.639  24.134  1.00  0.00     0.243 C 
ATOM      5  O   UNL A   1      34.232  27.753  22.939  1.00  0.00    -0.273 OA
ATOM      6  H   UNL A   1      34.462  29.515  24.354  1.00  0.00     0.163 HD
BRANCH   4   7
ATOM      7  C   UNL A   1      33.420  26.263  24.657  1.00  0.00     0.180 C 
ATOM      8  N   UNL A   1      32.573  25.403  23.755  1.00  0.00    -0.324 N 
ATOM      9  C   UNL A   1      33.252  24.438  22.860  1.00  0.00     0.178 C 
ATOM     10  C   UNL A   1      34.529  23.960  23.449  1.00  0.00     0.081 A 
ATOM     11  C   UNL A   1      34.467  25.459  25.482  1.00  0.00     0.091 C 
ATOM     12  N   UNL A   1      35.435  23.170  22.793  1.00  0.00    -0.240 NA
ATOM     13  C   UNL A   1      35.064  24.412  24.631  1.00  0.00     0.042 A 
ATOM     14  C   UNL A   1      36.487  23.117  23.584  1.00  0.00     0.197 A 
ATOM     15  N   UNL A   1      36.291  23.825  24.744  1.00  0.00    -0.348 N 
ATOM     16  H   UNL A   1      36.911  23.895  25.505  1.00  0.00     0.167 HD
BRANCH   8  17
ATOM     17  C   UNL A   1      31.181  25.395  23.700  1.00  0.00     0.229 C 
ATOM     18  O   UNL A   1      30.581  24.570  22.998  1.00  0.00    -0.274 OA
BRANCH  17  19
ATOM     19  C   UNL A   1      30.344  26.460  24.387  1.00  0.00     0.157 C 
BRANCH  19  20
ATOM     20  C   UNL A   1      30.089  27.705  23.619  1.00  0.00     0.061 A 
ATOM     21  C   UNL A   1      27.339  29.858  22.580  1.00  0.00     0.079 C 
ATOM     22  C   UNL A   1      28.648  29.204  22.844  1.00  0.00     0.090 A 
ATOM     23  N   UNL A   1      28.808  28.224  23.700  1.00  0.00    -0.246 NA
ATOM     24  S   UNL A   1      30.067  29.667  21.996  1.00  0.00    -0.127 S 
ATOM     25  C   UNL A   1      30.937  28.409  22.783  1.00  0.00     0.091 A 
ENDBRANCH  19  20
ENDBRANCH  17  19
ENDBRANCH   8  17
ENDBRANCH   4   7
ENDBRANCH   2   3
ENDBRANCH   1   2
BRANCH   1  26
ATOM     26  C   UNL A   1      31.815  30.868  26.527  1.00  0.00     0.023 C 
BRANCH  26  27
ATOM     27  C   UNL A   1      32.828  31.733  27.269  1.00  0.00     0.116 C 
BRANCH  27  28
ATOM     28  N   UNL A   1      32.462  33.148  27.351  1.00  0.00    -0.352 N 
ATOM     29  C   UNL A   1      32.967  34.066  28.260  1.00  0.00     0.251 C 
ATOM     30  H   UNL A   1      31.798  33.477  26.703  1.00  0.00     0.163 HD
ATOM     31  O   UNL A   1      32.354  35.087  28.558  1.00  0.00    -0.269 OA
BRANCH  29  32
ATOM     32  C   UNL A   1      34.297  33.781  28.819  1.00  0.00     0.039 A 
ATOM     33  C   UNL A   1      34.488  33.176  30.065  1.00  0.00     0.014 A 
ATOM     34  C   UNL A   1      35.363  34.024  27.956  1.00  0.00     0.014 A 
ATOM     35  C   UNL A   1      35.770  32.735  30.395  1.00  0.00     0.010 A 
ATOM     36  C   UNL A   1      36.570  33.434  28.210  1.00  0.00     0.010 A 
ATOM     37  C   UNL A   1      36.804  32.847  29.449  1.00  0.00    -0.014 A 
BRANCH  37  38
ATOM     38  C   UNL A   1      38.118  32.241  29.658  1.00  0.00     0.031 A 
ATOM     39  C   UNL A   1      38.197  30.813  29.237  1.00  0.00     0.074 A 
ATOM     40  C   UNL A   1      39.214  32.985  29.945  1.00  0.00     0.049 A 
ATOM     41  N   UNL A   1      38.279  29.767  29.988  1.00  0.00    -0.248 NA
ATOM     42  C   UNL A   1      37.974  30.487  27.815  1.00  0.00     0.031 C 
ATOM     43  C   UNL A   1      39.302  34.451  30.041  1.00  0.00     0.029 A 
ATOM     44  N   UNL A   1      40.513  32.609  30.110  1.00  0.00    -0.354 N 
ATOM     45  C   UNL A   1      38.411  28.679  29.123  1.00  0.00     0.074 A 
ATOM     46  C   UNL A   1      37.973  29.152  27.841  1.00  0.00     0.031 C 
ATOM     47  C   UNL A   1      40.595  34.843  30.007  1.00  0.00     0.029 A 
ATOM     48  C   UNL A   1      41.432  33.662  30.099  1.00  0.00     0.049 A 
ATOM     49  H   UNL A   1      40.783  31.670  30.227  1.00  0.00     0.167 HD
ATOM     50  C   UNL A   1      39.149  27.590  29.486  1.00  0.00     0.034 A 
ATOM     51  C   UNL A   1      42.787  33.583  30.200  1.00  0.00     0.034 A 
ATOM     52  C   UNL A   1      39.469  27.667  30.893  1.00  0.00     0.049 A 
ATOM     53  C   UNL A   1      43.070  32.282  30.846  1.00  0.00     0.074 A 
ATOM     54  C   UNL A   1      38.798  27.482  32.082  1.00  0.00     0.029 A 
ATOM     55  N   UNL A   1      40.589  28.415  31.166  1.00  0.00    -0.354 N 
ATOM     56  N   UNL A   1      42.671  31.993  32.055  1.00  0.00    -0.248 NA
ATOM     57  C   UNL A   1      43.424  31.135  30.019  1.00  0.00     0.031 C 
ATOM     58  C   UNL A   1      39.421  28.364  33.017  1.00  0.00     0.029 A 
ATOM     59  C   UNL A   1      40.499  29.001  32.402  1.00  0.00     0.049 A 
ATOM     60  H   UNL A   1      41.354  28.518  30.554  1.00  0.00     0.167 HD
ATOM     61  C   UNL A   1      42.316  30.659  31.999  1.00  0.00     0.074 A 
ATOM     62  C   UNL A   1      42.956  30.147  30.790  1.00  0.00     0.031 C 
ATOM     63  C   UNL A   1      41.288  30.171  32.755  1.00  0.00     0.034 A 
BRANCH  50  64
ATOM     64  C   UNL A   1      39.982  26.711  28.562  1.00  0.00     0.023 A 
ATOM     65  C   UNL A   1      41.101  27.306  27.934  1.00  0.00     0.031 A 
ATOM     66  C   UNL A   1      39.602  25.453  28.047  1.00  0.00     0.131 A 
ATOM     67  C   UNL A   1      41.721  26.708  26.819  1.00  0.00     0.055 A 
ATOM     68  C   UNL A   1      40.250  24.839  26.969  1.00  0.00     0.041 A 
ATOM     69  F   UNL A   1      38.534  24.780  28.488  1.00  0.00    -0.206 F 
ATOM     70  C   UNL A   1      41.298  25.476  26.330  1.00  0.00     0.022 A 
BRANCH  67  71
ATOM     71  S   UNL A   1      42.995  27.634  25.918  1.00  0.00     0.124 S 
ATOM     72  O   UNL A   1      42.305  27.969  24.678  1.00  0.00    -0.237 OA
ATOM     73  O   UNL A   1      43.262  28.741  26.829  1.00  0.00    -0.237 OA
ATOM     74  O   UNL A   1      44.082  26.668  25.782  1.00  0.00    -0.744 OA
ENDBRANCH  67  71
ENDBRANCH  50  64
BRANCH  51  75
ATOM     75  C   UNL A   1      43.814  34.379  29.466  1.00  0.00     0.023 A 
ATOM     76  C   UNL A   1      44.376  33.986  28.229  1.00  0.00     0.031 A 
ATOM     77  C   UNL A   1      44.054  35.710  29.875  1.00  0.00     0.131 A 
ATOM     78  C   UNL A   1      45.121  34.913  27.456  1.00  0.00     0.055 A 
ATOM     79  C   UNL A   1      44.775  36.622  29.101  1.00  0.00     0.041 A 
ATOM     80  F   UNL A   1      43.516  36.190  31.007  1.00  0.00    -0.206 F 
ATOM     81  C   UNL A   1      45.303  36.230  27.882  1.00  0.00     0.022 A 
BRANCH  78  82
ATOM     82  S   UNL A   1      45.818  34.440  25.834  1.00  0.00     0.124 S 
ATOM     83  O   UNL A   1      46.362  33.115  26.106  1.00  0.00    -0.237 OA
ATOM     84  O   UNL A   1      44.651  34.498  24.963  1.00  0.00    -0.237 OA
ATOM     85  O   UNL A   1      46.824  35.473  25.580  1.00  0.00    -0.744 OA
ENDBRANCH  78  82
ENDBRANCH  51  75
BRANCH  63  86
ATOM     86  C   UNL A   1      40.889  30.948  33.988  1.00  0.00     0.023 A 
ATOM     87  C   UNL A   1      39.770  31.805  34.109  1.00  0.00     0.031 A 
ATOM     88  C   UNL A   1      41.676  30.735  35.133  1.00  0.00     0.131 A 
ATOM     89  C   UNL A   1      39.481  32.405  35.353  1.00  0.00     0.055 A 
ATOM     90  C   UNL A   1      41.373  31.310  36.364  1.00  0.00     0.041 A 
ATOM     91  F   UNL A   1      42.749  29.928  35.078  1.00  0.00    -0.206 F 
ATOM     92  C   UNL A   1      40.273  32.151  36.478  1.00  0.00     0.022 A 
BRANCH  89  93
ATOM     93  S   UNL A   1      38.078  33.558  35.535  1.00  0.00     0.124 S 
ATOM     94  O   UNL A   1      38.434  34.669  34.659  1.00  0.00    -0.237 OA
ATOM     95  O   UNL A   1      36.942  32.748  35.107  1.00  0.00    -0.237 OA
ATOM     96  O   UNL A   1      38.087  33.884  36.963  1.00  0.00    -0.744 OA
ENDBRANCH  89  93
ENDBRANCH  63  86
ENDBRANCH  37  38
ENDBRANCH  29  32
ENDBRANCH  27  28
ENDBRANCH  26  27
ENDBRANCH   1  26
TORSDOF 17
ENDMDL
MODEL 3
REMARK VINA RESULT:     -12.5      3.215      8.129
REMARK SMILES Cc1nc(CC(=O)N2Cc3nc[nH]c3C[C@H]2C(=O)NCCCCNC(=O)c2ccc(-c3c4nc(c(-c5cc(S(=O)(=O)[O-])ccc5F)c5ccc([nH]5)c(-c5cc(S(=O)(=O)[O-])ccc5F)c5nc(c(-c6cc(S(=O)(=O)[O-])ccc6F)c6ccc3[nH]6)C=C5)C=C4)cc2)cs1
REMARK SMILES IDX 21 1 20 2 19 3 17 4 18 5 16 7 8 8 9 9 10 10 15 11 11 12
REMARK SMILES IDX 14 13 12 14 13 15 6 17 7 18 5 19 4 20 1 21 2 22 3 23 91 24
REMARK SMILES IDX 90 25 22 26 23 27 24 28 25 29 26 31 27 32 28 33 89 34 29 35
REMARK SMILES IDX 88 36 30 37 31 38 32 39 82 40 33 41 87 42 81 43 83 44 34 45
REMARK SMILES IDX 86 46 80 47 79 48 35 50 67 51 47 52 66 53 48 54 51 55 65 56
REMARK SMILES IDX 84 57 49 58 50 59 64 61 85 62 52 63 36 64 37 65 45 66 38 67
REMARK SMILES IDX 44 68 46 69 43 70 39 71 40 72 41 73 42 74 68 75 69 76 77 77
REMARK SMILES IDX 70 78 76 79 78 80 75 81 71 82 72 83 73 84 74 85 53 86 54 87
REMARK SMILES IDX 62 88 55 89 61 90 63 91 60 92 56 93 57 94 58 95 59 96
REMARK H PARENT 19 6 13 16 24 30 83 49 51 60
REMARK Flexibility Score: inf
ROOT
ATOM      1  C   UNL A   1      32.655  28.867  26.980  1.00  0.00     0.023 C 
ENDROOT
BRANCH   1   2
ATOM      2  C   UNL A   1      32.495  27.882  25.818  1.00  0.00     0.116 C 
BRANCH   2   3
ATOM      3  N   UNL A   1      33.507  26.847  25.814  1.00  0.00    -0.354 N 
ATOM      4  C   UNL A   1      33.747  25.777  25.016  1.00  0.00     0.243 C 
ATOM      5  O   UNL A   1      34.800  25.174  25.269  1.00  0.00    -0.273 OA
ATOM      6  H   UNL A   1      34.159  26.940  26.545  1.00  0.00     0.163 HD
BRANCH   4   7
ATOM      7  C   UNL A   1      32.852  25.279  23.846  1.00  0.00     0.180 C 
ATOM      8  N   UNL A   1      31.517  24.656  24.161  1.00  0.00    -0.324 N 
ATOM      9  C   UNL A   1      30.331  25.539  24.249  1.00  0.00     0.178 C 
ATOM     10  C   UNL A   1      30.469  26.722  23.361  1.00  0.00     0.081 A 
ATOM     11  C   UNL A   1      32.826  26.215  22.601  1.00  0.00     0.091 C 
ATOM     12  N   UNL A   1      29.595  27.775  23.334  1.00  0.00    -0.240 NA
ATOM     13  C   UNL A   1      31.586  27.014  22.615  1.00  0.00     0.042 A 
ATOM     14  C   UNL A   1      30.159  28.676  22.554  1.00  0.00     0.197 A 
ATOM     15  N   UNL A   1      31.359  28.237  22.053  1.00  0.00    -0.348 N 
ATOM     16  H   UNL A   1      31.940  28.710  21.415  1.00  0.00     0.167 HD
BRANCH   8  17
ATOM     17  C   UNL A   1      31.268  23.298  24.347  1.00  0.00     0.229 C 
ATOM     18  O   UNL A   1      30.689  22.895  25.365  1.00  0.00    -0.274 OA
BRANCH  17  19
ATOM     19  C   UNL A   1      31.799  22.246  23.388  1.00  0.00     0.157 C 
BRANCH  19  20
ATOM     20  C   UNL A   1      32.916  21.401  23.879  1.00  0.00     0.061 A 
ATOM     21  C   UNL A   1      33.657  17.940  24.746  1.00  0.00     0.079 C 
ATOM     22  C   UNL A   1      33.674  19.401  24.472  1.00  0.00     0.090 A 
ATOM     23  N   UNL A   1      32.708  20.032  23.848  1.00  0.00    -0.246 NA
ATOM     24  S   UNL A   1      34.969  20.396  25.001  1.00  0.00    -0.127 S 
ATOM     25  C   UNL A   1      34.133  21.780  24.415  1.00  0.00     0.091 A 
ENDBRANCH  19  20
ENDBRANCH  17  19
ENDBRANCH   8  17
ENDBRANCH   4   7
ENDBRANCH   2   3
ENDBRANCH   1   2
BRANCH   1  26
ATOM     26  C   UNL A   1      33.847  29.824  26.855  1.00  0.00     0.023 C 
BRANCH  26  27
ATOM     27  C   UNL A   1      35.079  29.398  27.646  1.00  0.00     0.116 C 
BRANCH  27  28
ATOM     28  N   UNL A   1      35.300  30.166  28.872  1.00  0.00    -0.352 N 
ATOM     29  C   UNL A   1      36.318  29.956  29.790  1.00  0.00     0.251 C 
ATOM     30  H   UNL A   1      34.669  30.898  29.062  1.00  0.00     0.163 HD
ATOM     31  O   UNL A   1      36.225  30.324  30.958  1.00  0.00    -0.269 OA
BRANCH  29  32
ATOM     32  C   UNL A   1      37.539  29.309  29.287  1.00  0.00     0.039 A 
ATOM     33  C   UNL A   1      38.197  29.718  28.124  1.00  0.00     0.014 A 
ATOM     34  C   UNL A   1      38.085  28.344  30.131  1.00  0.00     0.014 A 
ATOM     35  C   UNL A   1      39.467  29.201  27.866  1.00  0.00     0.010 A 
ATOM     36  C   UNL A   1      39.393  27.980  29.965  1.00  0.00     0.010 A 
ATOM     37  C   UNL A   1      40.069  28.348  28.806  1.00  0.00    -0.014 A 
BRANCH  37  38
ATOM     38  C   UNL A   1      41.463  27.920  28.689  1.00  0.00     0.031 A 
ATOM     39  C   UNL A   1      41.645  26.674  27.890  1.00  0.00     0.074 A 
ATOM     40  C   UNL A   1      42.493  28.728  29.037  1.00  0.00     0.049 A 
ATOM     41  N   UNL A   1      41.964  25.498  28.315  1.00  0.00    -0.248 NA
ATOM     42  C   UNL A   1      41.248  26.686  26.470  1.00  0.00     0.031 C 
ATOM     43  C   UNL A   1      42.420  30.119  29.515  1.00  0.00     0.029 A 
ATOM     44  N   UNL A   1      43.838  28.529  28.942  1.00  0.00    -0.354 N 
ATOM     45  C   UNL A   1      42.091  24.698  27.179  1.00  0.00     0.074 A 
ATOM     46  C   UNL A   1      41.408  25.404  26.133  1.00  0.00     0.031 C 
ATOM     47  C   UNL A   1      43.638  30.702  29.439  1.00  0.00     0.029 A 
ATOM     48  C   UNL A   1      44.612  29.680  29.110  1.00  0.00     0.049 A 
ATOM     49  H   UNL A   1      44.232  27.644  28.768  1.00  0.00     0.167 HD
ATOM     50  C   UNL A   1      42.999  23.680  27.146  1.00  0.00     0.034 A 
ATOM     51  C   UNL A   1      45.967  29.788  29.027  1.00  0.00     0.034 A 
ATOM     52  C   UNL A   1      43.519  23.449  28.474  1.00  0.00     0.049 A 
ATOM     53  C   UNL A   1      46.498  28.427  29.260  1.00  0.00     0.074 A 
ATOM     54  C   UNL A   1      43.065  22.869  29.638  1.00  0.00     0.029 A 
ATOM     55  N   UNL A   1      44.572  24.268  28.807  1.00  0.00    -0.354 N 
ATOM     56  N   UNL A   1      46.325  27.784  30.383  1.00  0.00    -0.248 NA
ATOM     57  C   UNL A   1      46.854  27.594  28.118  1.00  0.00     0.031 C 
ATOM     58  C   UNL A   1      43.715  23.572  30.698  1.00  0.00     0.029 A 
ATOM     59  C   UNL A   1      44.603  24.503  30.158  1.00  0.00     0.049 A 
ATOM     60  H   UNL A   1      45.217  24.639  28.162  1.00  0.00     0.167 HD
ATOM     61  C   UNL A   1      46.126  26.469  30.010  1.00  0.00     0.074 A 
ATOM     62  C   UNL A   1      46.631  26.384  28.641  1.00  0.00     0.031 C 
ATOM     63  C   UNL A   1      45.292  25.654  30.719  1.00  0.00     0.034 A 
BRANCH  50  64
ATOM     64  C   UNL A   1      43.780  23.202  25.928  1.00  0.00     0.023 A 
ATOM     65  C   UNL A   1      43.634  21.844  25.555  1.00  0.00     0.031 A 
ATOM     66  C   UNL A   1      44.843  23.887  25.301  1.00  0.00     0.131 A 
ATOM     67  C   UNL A   1      44.550  21.221  24.685  1.00  0.00     0.055 A 
ATOM     68  C   UNL A   1      45.723  23.276  24.401  1.00  0.00     0.041 A 
ATOM     69  F   UNL A   1      45.155  25.156  25.582  1.00  0.00    -0.206 F 
ATOM     70  C   UNL A   1      45.598  21.930  24.107  1.00  0.00     0.022 A 
BRANCH  67  71
ATOM     71  S   UNL A   1      44.444  19.427  24.434  1.00  0.00     0.124 S 
ATOM     72  O   UNL A   1      43.105  19.132  24.930  1.00  0.00    -0.237 OA
ATOM     73  O   UNL A   1      44.641  19.313  22.994  1.00  0.00    -0.237 OA
ATOM     74  O   UNL A   1      45.538  18.906  25.252  1.00  0.00    -0.744 OA
ENDBRANCH  67  71
ENDBRANCH  50  64
BRANCH  51  75
ATOM     75  C   UNL A   1      46.767  30.893  28.422  1.00  0.00     0.023 A 
ATOM     76  C   UNL A   1      46.253  31.808  27.475  1.00  0.00     0.031 A 
ATOM     77  C   UNL A   1      48.014  31.217  29.002  1.00  0.00     0.131 A 
ATOM     78  C   UNL A   1      46.970  32.991  27.160  1.00  0.00     0.055 A 
ATOM     79  C   UNL A   1      48.708  32.392  28.700  1.00  0.00     0.041 A 
ATOM     80  F   UNL A   1      48.557  30.438  29.951  1.00  0.00    -0.206 F 
ATOM     81  C   UNL A   1      48.183  33.290  27.785  1.00  0.00     0.022 A 
BRANCH  78  82
ATOM     82  S   UNL A   1      46.303  34.209  25.973  1.00  0.00     0.124 S 
ATOM     83  O   UNL A   1      45.747  35.229  26.854  1.00  0.00    -0.237 OA
ATOM     84  O   UNL A   1      47.488  34.584  25.211  1.00  0.00    -0.237 OA
ATOM     85  O   UNL A   1      45.308  33.443  25.220  1.00  0.00    -0.744 OA
ENDBRANCH  78  82
ENDBRANCH  51  75
BRANCH  63  86
ATOM     86  C   UNL A   1      44.996  26.024  32.155  1.00  0.00     0.023 A 
ATOM     87  C   UNL A   1      43.837  26.682  32.625  1.00  0.00     0.031 A 
ATOM     88  C   UNL A   1      45.943  25.607  33.107  1.00  0.00     0.131 A 
ATOM     89  C   UNL A   1      43.666  26.893  34.010  1.00  0.00     0.055 A 
ATOM     90  C   UNL A   1      45.760  25.795  34.473  1.00  0.00     0.041 A 
ATOM     91  F   UNL A   1      47.062  24.973  32.717  1.00  0.00    -0.206 F 
ATOM     92  C   UNL A   1      44.619  26.442  34.931  1.00  0.00     0.022 A 
BRANCH  89  93
ATOM     93  S   UNL A   1      42.210  27.786  34.651  1.00  0.00     0.124 S 
ATOM     94  O   UNL A   1      41.893  28.731  33.587  1.00  0.00    -0.237 OA
ATOM     95  O   UNL A   1      41.243  26.712  34.857  1.00  0.00    -0.237 OA
ATOM     96  O   UNL A   1      42.702  28.403  35.884  1.00  0.00    -0.744 OA
ENDBRANCH  89  93
ENDBRANCH  63  86
ENDBRANCH  37  38
ENDBRANCH  29  32
ENDBRANCH  27  28
ENDBRANCH  26  27
ENDBRANCH   1  26
TORSDOF 17
ENDMDL
