MODEL 1
REMARK VINA RESULT:     -10.2      0.000      0.000
REMARK SMILES CCSc1cccc(-c2ccc([C@@H](C)C(=O)NCCCCNC(=O)c3ccc(-c4c5nc(c(-c6cc(S(=O)(=O)[O-])ccc6F)c6ccc([nH]6)c(-c6cc(S(=O)(=O)[O-])ccc6F)c6nc(c(-c7cc(S(=O)(=O)[O-])ccc7F)c7ccc4[nH]7)C=C6)C=C5)cc3)cc2)c1
REMARK SMILES IDX 19 1 18 2 17 3 15 4 16 5 13 7 14 8 12 9 9 10 10 11 89 12
REMARK SMILES IDX 11 13 88 14 8 15 4 16 5 17 90 18 6 19 7 20 3 21 2 22 1 23
REMARK SMILES IDX 20 24 21 25 22 26 23 27 24 29 25 30 26 31 87 32 27 33 86 34
REMARK SMILES IDX 28 35 29 36 30 37 80 38 31 39 85 40 79 41 81 42 32 43 84 44
REMARK SMILES IDX 78 45 77 46 33 48 65 49 45 50 64 51 46 52 49 53 63 54 82 55
REMARK SMILES IDX 47 56 48 57 62 59 83 60 50 61 34 62 35 63 43 64 36 65 42 66
REMARK SMILES IDX 44 67 41 68 37 69 38 70 39 71 40 72 66 73 67 74 75 75 68 76
REMARK SMILES IDX 74 77 76 78 73 79 69 80 70 81 71 82 72 83 51 84 52 85 60 86
REMARK SMILES IDX 53 87 59 88 61 89 58 90 54 91 55 92 56 93 57 94
REMARK H PARENT 17 6 22 28 81 47 49 58
REMARK Flexibility Score: inf
ROOT
ATOM      1  C   UNL A   1      33.836  35.288  29.199  1.00  0.00     0.023 C 
ENDROOT
BRANCH   1   2
ATOM      2  C   UNL A   1      32.966  35.794  30.349  1.00  0.00     0.116 C 
BRANCH   2   3
ATOM      3  N   UNL A   1      33.744  36.123  31.525  1.00  0.00    -0.356 N 
ATOM      4  C   UNL A   1      34.686  35.414  32.207  1.00  0.00     0.227 C 
ATOM      5  O   UNL A   1      35.149  35.939  33.227  1.00  0.00    -0.274 OA
ATOM      6  H   UNL A   1      33.560  37.017  31.897  1.00  0.00     0.163 HD
BRANCH   4   7
ATOM      7  C   UNL A   1      35.192  34.030  31.767  1.00  0.00     0.105 C 
ATOM      8  C   UNL A   1      34.742  32.886  32.676  1.00  0.00     0.023 C 
BRANCH   7   9
ATOM      9  C   UNL A   1      36.653  34.032  31.349  1.00  0.00    -0.036 A 
ATOM     10  C   UNL A   1      39.348  34.203  30.401  1.00  0.00    -0.018 A 
ATOM     11  C   UNL A   1      39.013  34.502  31.730  1.00  0.00     0.009 A 
ATOM     12  C   UNL A   1      38.301  33.770  29.569  1.00  0.00     0.009 A 
ATOM     13  C   UNL A   1      37.698  34.388  32.206  1.00  0.00     0.005 A 
ATOM     14  C   UNL A   1      36.979  33.708  30.026  1.00  0.00     0.005 A 
BRANCH  10  15
ATOM     15  C   UNL A   1      40.735  34.342  29.892  1.00  0.00    -0.017 A 
ATOM     16  C   UNL A   1      42.341  35.359  28.331  1.00  0.00     0.008 A 
ATOM     17  C   UNL A   1      43.365  34.589  28.884  1.00  0.00     0.015 A 
ATOM     18  C   UNL A   1      41.052  35.259  28.870  1.00  0.00     0.023 A 
ATOM     19  C   UNL A   1      43.094  33.700  29.920  1.00  0.00     0.002 A 
ATOM     20  C   UNL A   1      41.790  33.565  30.404  1.00  0.00     0.009 A 
BRANCH  16  21
ATOM     21  S   UNL A   1      42.753  36.441  26.968  1.00  0.00    -0.126 SA
BRANCH  21  22
ATOM     22  C   UNL A   1      43.254  37.987  27.808  1.00  0.00     0.071 C 
ATOM     23  C   UNL A   1      44.750  38.078  28.054  1.00  0.00     0.016 C 
ENDBRANCH  21  22
ENDBRANCH  16  21
ENDBRANCH  10  15
ENDBRANCH   7   9
ENDBRANCH   4   7
ENDBRANCH   2   3
ENDBRANCH   1   2
BRANCH   1  24
ATOM     24  C   UNL A   1      33.284  34.072  28.458  1.00  0.00     0.023 C 
BRANCH  24  25
ATOM     25  C   UNL A   1      34.323  33.055  27.996  1.00  0.00     0.116 C 
BRANCH  25  26
ATOM     26  N   UNL A   1      33.753  31.839  27.433  1.00  0.00    -0.352 N 
ATOM     27  C   UNL A   1      34.275  30.562  27.459  1.00  0.00     0.251 C 
ATOM     28  H   UNL A   1      32.886  31.940  26.978  1.00  0.00     0.163 HD
ATOM     29  O   UNL A   1      33.707  29.648  26.879  1.00  0.00    -0.269 OA
BRANCH  27  30
ATOM     30  C   UNL A   1      35.561  30.337  28.155  1.00  0.00     0.039 A 
ATOM     31  C   UNL A   1      35.546  29.793  29.441  1.00  0.00     0.014 A 
ATOM     32  C   UNL A   1      36.770  30.572  27.494  1.00  0.00     0.014 A 
ATOM     33  C   UNL A   1      36.747  29.385  30.027  1.00  0.00     0.010 A 
ATOM     34  C   UNL A   1      37.955  30.105  28.052  1.00  0.00     0.010 A 
ATOM     35  C   UNL A   1      37.952  29.486  29.314  1.00  0.00    -0.014 A 
BRANCH  35  36
ATOM     36  C   UNL A   1      39.222  28.920  29.838  1.00  0.00     0.031 A 
ATOM     37  C   UNL A   1      39.928  29.596  30.977  1.00  0.00     0.074 A 
ATOM     38  C   UNL A   1      39.788  27.868  29.213  1.00  0.00     0.049 A 
ATOM     39  N   UNL A   1      41.116  29.364  31.469  1.00  0.00    -0.248 NA
ATOM     40  C   UNL A   1      39.213  30.707  31.622  1.00  0.00     0.031 C 
ATOM     41  C   UNL A   1      39.216  27.151  28.071  1.00  0.00     0.029 A 
ATOM     42  N   UNL A   1      40.985  27.233  29.434  1.00  0.00    -0.354 N 
ATOM     43  C   UNL A   1      41.303  30.313  32.469  1.00  0.00     0.074 A 
ATOM     44  C   UNL A   1      40.122  31.152  32.475  1.00  0.00     0.031 C 
ATOM     45  C   UNL A   1      40.057  26.173  27.698  1.00  0.00     0.029 A 
ATOM     46  C   UNL A   1      41.250  26.223  28.537  1.00  0.00     0.049 A 
ATOM     47  H   UNL A   1      41.597  27.477  30.165  1.00  0.00     0.167 HD
ATOM     48  C   UNL A   1      42.352  30.456  33.315  1.00  0.00     0.034 A 
ATOM     49  C   UNL A   1      42.340  25.444  28.390  1.00  0.00     0.034 A 
ATOM     50  C   UNL A   1      43.510  29.595  33.309  1.00  0.00     0.049 A 
ATOM     51  C   UNL A   1      43.509  25.646  29.317  1.00  0.00     0.074 A 
ATOM     52  C   UNL A   1      44.590  29.595  34.176  1.00  0.00     0.029 A 
ATOM     53  N   UNL A   1      43.744  28.586  32.383  1.00  0.00    -0.354 N 
ATOM     54  N   UNL A   1      43.650  26.514  30.292  1.00  0.00    -0.248 NA
ATOM     55  C   UNL A   1      44.669  24.765  29.123  1.00  0.00     0.031 C 
ATOM     56  C   UNL A   1      45.503  28.629  33.738  1.00  0.00     0.029 A 
ATOM     57  C   UNL A   1      44.967  27.984  32.634  1.00  0.00     0.049 A 
ATOM     58  H   UNL A   1      43.131  28.336  31.655  1.00  0.00     0.167 HD
ATOM     59  C   UNL A   1      44.906  26.272  30.837  1.00  0.00     0.074 A 
ATOM     60  C   UNL A   1      45.478  25.170  30.092  1.00  0.00     0.031 C 
ATOM     61  C   UNL A   1      45.530  26.902  31.865  1.00  0.00     0.034 A 
BRANCH  48  62
ATOM     62  C   UNL A   1      42.298  31.601  34.295  1.00  0.00     0.023 A 
ATOM     63  C   UNL A   1      41.446  31.575  35.412  1.00  0.00     0.031 A 
ATOM     64  C   UNL A   1      43.084  32.749  34.091  1.00  0.00     0.131 A 
ATOM     65  C   UNL A   1      41.337  32.706  36.235  1.00  0.00     0.055 A 
ATOM     66  C   UNL A   1      43.030  33.841  34.960  1.00  0.00     0.041 A 
ATOM     67  F   UNL A   1      43.904  32.838  33.031  1.00  0.00    -0.206 F 
ATOM     68  C   UNL A   1      42.140  33.830  36.031  1.00  0.00     0.022 A 
BRANCH  65  69
ATOM     69  S   UNL A   1      40.028  32.738  37.489  1.00  0.00     0.124 S 
ATOM     70  O   UNL A   1      40.801  32.646  38.726  1.00  0.00    -0.237 OA
ATOM     71  O   UNL A   1      39.379  34.018  37.235  1.00  0.00    -0.237 OA
ATOM     72  O   UNL A   1      39.224  31.558  37.175  1.00  0.00    -0.744 OA
ENDBRANCH  65  69
ENDBRANCH  48  62
BRANCH  49  73
ATOM     73  C   UNL A   1      42.400  24.427  27.303  1.00  0.00     0.023 A 
ATOM     74  C   UNL A   1      41.650  23.244  27.381  1.00  0.00     0.031 A 
ATOM     75  C   UNL A   1      43.238  24.607  26.188  1.00  0.00     0.131 A 
ATOM     76  C   UNL A   1      41.780  22.267  26.382  1.00  0.00     0.055 A 
ATOM     77  C   UNL A   1      43.330  23.653  25.173  1.00  0.00     0.041 A 
ATOM     78  F   UNL A   1      43.972  25.724  26.064  1.00  0.00    -0.206 F 
ATOM     79  C   UNL A   1      42.606  22.468  25.273  1.00  0.00     0.022 A 
BRANCH  76  80
ATOM     80  S   UNL A   1      40.901  20.694  26.586  1.00  0.00     0.124 S 
ATOM     81  O   UNL A   1      41.717  19.790  25.782  1.00  0.00    -0.237 OA
ATOM     82  O   UNL A   1      40.961  20.499  28.030  1.00  0.00    -0.237 OA
ATOM     83  O   UNL A   1      39.571  20.975  26.051  1.00  0.00    -0.744 OA
ENDBRANCH  76  80
ENDBRANCH  49  73
BRANCH  61  84
ATOM     84  C   UNL A   1      46.892  26.387  32.251  1.00  0.00     0.023 A 
ATOM     85  C   UNL A   1      47.047  25.362  33.199  1.00  0.00     0.031 A 
ATOM     86  C   UNL A   1      48.047  26.929  31.660  1.00  0.00     0.131 A 
ATOM     87  C   UNL A   1      48.334  24.935  33.559  1.00  0.00     0.055 A 
ATOM     88  C   UNL A   1      49.322  26.467  31.987  1.00  0.00     0.041 A 
ATOM     89  F   UNL A   1      47.952  27.911  30.750  1.00  0.00    -0.206 F 
ATOM     90  C   UNL A   1      49.471  25.470  32.947  1.00  0.00     0.022 A 
BRANCH  87  91
ATOM     91  S   UNL A   1      48.508  23.703  34.878  1.00  0.00     0.124 S 
ATOM     92  O   UNL A   1      47.473  22.736  34.528  1.00  0.00    -0.237 OA
ATOM     93  O   UNL A   1      49.886  23.253  34.709  1.00  0.00    -0.237 OA
ATOM     94  O   UNL A   1      48.255  24.468  36.098  1.00  0.00    -0.744 OA
ENDBRANCH  87  91
ENDBRANCH  61  84
ENDBRANCH  35  36
ENDBRANCH  27  30
ENDBRANCH  25  26
ENDBRANCH  24  25
ENDBRANCH   1  24
TORSDOF 18
ENDMDL
MODEL 2
REMARK VINA RESULT:     -10.0      3.718     10.489
REMARK SMILES CCSc1cccc(-c2ccc([C@@H](C)C(=O)NCCCCNC(=O)c3ccc(-c4c5nc(c(-c6cc(S(=O)(=O)[O-])ccc6F)c6ccc([nH]6)c(-c6cc(S(=O)(=O)[O-])ccc6F)c6nc(c(-c7cc(S(=O)(=O)[O-])ccc7F)c7ccc4[nH]7)C=C6)C=C5)cc3)cc2)c1
REMARK SMILES IDX 19 1 18 2 17 3 15 4 16 5 13 7 14 8 12 9 9 10 10 11 89 12
REMARK SMILES IDX 11 13 88 14 8 15 4 16 5 17 90 18 6 19 7 20 3 21 2 22 1 23
REMARK SMILES IDX 20 24 21 25 22 26 23 27 24 29 25 30 26 31 87 32 27 33 86 34
REMARK SMILES IDX 28 35 29 36 30 37 80 38 31 39 85 40 79 41 81 42 32 43 84 44
REMARK SMILES IDX 78 45 77 46 33 48 65 49 45 50 64 51 46 52 49 53 63 54 82 55
REMARK SMILES IDX 47 56 48 57 62 59 83 60 50 61 34 62 35 63 43 64 36 65 42 66
REMARK SMILES IDX 44 67 41 68 37 69 38 70 39 71 40 72 66 73 67 74 75 75 68 76
REMARK SMILES IDX 74 77 76 78 73 79 69 80 70 81 71 82 72 83 51 84 52 85 60 86
REMARK SMILES IDX 53 87 59 88 61 89 58 90 54 91 55 92 56 93 57 94
REMARK H PARENT 17 6 22 28 81 47 49 58
REMARK Flexibility Score: inf
ROOT
ATOM      1  C   UNL A   1      32.295  30.532  26.889  1.00  0.00     0.023 C 
ENDROOT
BRANCH   1   2
ATOM      2  C   UNL A   1      32.641  29.520  25.797  1.00  0.00     0.116 C 
BRANCH   2   3
ATOM      3  N   UNL A   1      31.638  28.482  25.670  1.00  0.00    -0.356 N 
ATOM      4  C   UNL A   1      31.528  27.442  24.798  1.00  0.00     0.227 C 
ATOM      5  O   UNL A   1      30.515  26.739  24.895  1.00  0.00    -0.274 OA
ATOM      6  H   UNL A   1      30.910  28.539  26.329  1.00  0.00     0.163 HD
BRANCH   4   7
ATOM      7  C   UNL A   1      32.586  27.109  23.734  1.00  0.00     0.105 C 
ATOM      8  C   UNL A   1      32.052  27.119  22.301  1.00  0.00     0.023 C 
BRANCH   7   9
ATOM      9  C   UNL A   1      33.475  25.937  24.119  1.00  0.00    -0.036 A 
ATOM     10  C   UNL A   1      35.305  23.811  24.683  1.00  0.00    -0.018 A 
ATOM     11  C   UNL A   1      34.930  24.742  25.665  1.00  0.00     0.009 A 
ATOM     12  C   UNL A   1      34.701  23.947  23.422  1.00  0.00     0.009 A 
ATOM     13  C   UNL A   1      34.008  25.765  25.399  1.00  0.00     0.005 A 
ATOM     14  C   UNL A   1      33.823  25.000  23.139  1.00  0.00     0.005 A 
BRANCH  10  15
ATOM     15  C   UNL A   1      36.294  22.739  24.958  1.00  0.00    -0.017 A 
ATOM     16  C   UNL A   1      38.478  22.030  25.842  1.00  0.00     0.008 A 
ATOM     17  C   UNL A   1      38.207  20.717  25.454  1.00  0.00     0.015 A 
ATOM     18  C   UNL A   1      37.502  23.013  25.631  1.00  0.00     0.023 A 
ATOM     19  C   UNL A   1      37.008  20.405  24.821  1.00  0.00     0.002 A 
ATOM     20  C   UNL A   1      36.072  21.409  24.560  1.00  0.00     0.009 A 
BRANCH  16  21
ATOM     21  S   UNL A   1      40.060  22.367  26.603  1.00  0.00    -0.126 SA
BRANCH  21  22
ATOM     22  C   UNL A   1      40.994  20.820  26.313  1.00  0.00     0.071 C 
ATOM     23  C   UNL A   1      41.262  20.034  27.585  1.00  0.00     0.016 C 
ENDBRANCH  21  22
ENDBRANCH  16  21
ENDBRANCH  10  15
ENDBRANCH   7   9
ENDBRANCH   4   7
ENDBRANCH   2   3
ENDBRANCH   1   2
BRANCH   1  24
ATOM     24  C   UNL A   1      33.486  31.041  27.698  1.00  0.00     0.023 C 
BRANCH  24  25
ATOM     25  C   UNL A   1      33.996  32.427  27.315  1.00  0.00     0.116 C 
BRANCH  25  26
ATOM     26  N   UNL A   1      33.187  33.521  27.833  1.00  0.00    -0.352 N 
ATOM     27  C   UNL A   1      33.386  34.258  28.983  1.00  0.00     0.251 C 
ATOM     28  H   UNL A   1      32.400  33.767  27.295  1.00  0.00     0.163 HD
ATOM     29  O   UNL A   1      32.575  35.107  29.323  1.00  0.00    -0.269 OA
BRANCH  27  30
ATOM     30  C   UNL A   1      34.567  33.958  29.821  1.00  0.00     0.039 A 
ATOM     31  C   UNL A   1      34.420  33.102  30.914  1.00  0.00     0.014 A 
ATOM     32  C   UNL A   1      35.827  34.444  29.461  1.00  0.00     0.014 A 
ATOM     33  C   UNL A   1      35.556  32.648  31.588  1.00  0.00     0.010 A 
ATOM     34  C   UNL A   1      36.959  33.939  30.091  1.00  0.00     0.010 A 
ATOM     35  C   UNL A   1      36.836  33.018  31.145  1.00  0.00    -0.014 A 
BRANCH  35  36
ATOM     36  C   UNL A   1      38.068  32.432  31.733  1.00  0.00     0.031 A 
ATOM     37  C   UNL A   1      38.763  31.299  31.036  1.00  0.00     0.074 A 
ATOM     38  C   UNL A   1      38.488  32.847  32.945  1.00  0.00     0.049 A 
ATOM     39  N   UNL A   1      39.744  30.545  31.457  1.00  0.00    -0.248 NA
ATOM     40  C   UNL A   1      38.260  30.946  29.700  1.00  0.00     0.031 C 
ATOM     41  C   UNL A   1      37.872  33.914  33.738  1.00  0.00     0.029 A 
ATOM     42  N   UNL A   1      39.519  32.404  33.736  1.00  0.00    -0.354 N 
ATOM     43  C   UNL A   1      39.963  29.612  30.449  1.00  0.00     0.074 A 
ATOM     44  C   UNL A   1      38.977  29.870  29.420  1.00  0.00     0.031 C 
ATOM     45  C   UNL A   1      38.540  34.046  34.896  1.00  0.00     0.029 A 
ATOM     46  C   UNL A   1      39.598  33.043  34.953  1.00  0.00     0.049 A 
ATOM     47  H   UNL A   1      40.144  31.695  33.460  1.00  0.00     0.167 HD
ATOM     48  C   UNL A   1      40.912  28.646  30.381  1.00  0.00     0.034 A 
ATOM     49  C   UNL A   1      40.412  32.829  36.005  1.00  0.00     0.034 A 
ATOM     50  C   UNL A   1      41.900  28.419  31.407  1.00  0.00     0.049 A 
ATOM     51  C   UNL A   1      41.434  31.725  35.922  1.00  0.00     0.074 A 
ATOM     52  C   UNL A   1      42.959  27.527  31.403  1.00  0.00     0.029 A 
ATOM     53  N   UNL A   1      41.946  29.084  32.626  1.00  0.00    -0.354 N 
ATOM     54  N   UNL A   1      41.664  30.885  34.939  1.00  0.00    -0.248 NA
ATOM     55  C   UNL A   1      42.305  31.538  37.091  1.00  0.00     0.031 C 
ATOM     56  C   UNL A   1      43.606  27.610  32.641  1.00  0.00     0.029 A 
ATOM     57  C   UNL A   1      42.989  28.595  33.396  1.00  0.00     0.049 A 
ATOM     58  H   UNL A   1      41.326  29.798  32.902  1.00  0.00     0.167 HD
ATOM     59  C   UNL A   1      42.715  30.081  35.366  1.00  0.00     0.074 A 
ATOM     60  C   UNL A   1      43.084  30.544  36.688  1.00  0.00     0.031 C 
ATOM     61  C   UNL A   1      43.326  29.054  34.721  1.00  0.00     0.034 A 
BRANCH  48  62
ATOM     62  C   UNL A   1      40.901  27.751  29.166  1.00  0.00     0.023 A 
ATOM     63  C   UNL A   1      41.822  27.920  28.119  1.00  0.00     0.031 A 
ATOM     64  C   UNL A   1      39.934  26.739  29.038  1.00  0.00     0.131 A 
ATOM     65  C   UNL A   1      41.708  27.146  26.955  1.00  0.00     0.055 A 
ATOM     66  C   UNL A   1      39.875  25.918  27.910  1.00  0.00     0.041 A 
ATOM     67  F   UNL A   1      39.017  26.543  29.999  1.00  0.00    -0.206 F 
ATOM     68  C   UNL A   1      40.755  26.130  26.852  1.00  0.00     0.022 A 
BRANCH  65  69
ATOM     69  S   UNL A   1      42.729  27.585  25.523  1.00  0.00     0.124 S 
ATOM     70  O   UNL A   1      42.608  26.385  24.696  1.00  0.00    -0.237 OA
ATOM     71  O   UNL A   1      42.065  28.779  25.015  1.00  0.00    -0.237 OA
ATOM     72  O   UNL A   1      44.053  27.804  26.100  1.00  0.00    -0.744 OA
ENDBRANCH  65  69
ENDBRANCH  48  62
BRANCH  49  73
ATOM     73  C   UNL A   1      40.277  33.646  37.243  1.00  0.00     0.023 A 
ATOM     74  C   UNL A   1      39.668  33.118  38.392  1.00  0.00     0.031 A 
ATOM     75  C   UNL A   1      40.721  34.979  37.283  1.00  0.00     0.131 A 
ATOM     76  C   UNL A   1      39.485  33.931  39.522  1.00  0.00     0.055 A 
ATOM     77  C   UNL A   1      40.576  35.771  38.424  1.00  0.00     0.041 A 
ATOM     78  F   UNL A   1      41.314  35.530  36.211  1.00  0.00    -0.206 F 
ATOM     79  C   UNL A   1      39.945  35.250  39.550  1.00  0.00     0.022 A 
BRANCH  76  80
ATOM     80  S   UNL A   1      38.572  33.258  40.937  1.00  0.00     0.124 S 
ATOM     81  O   UNL A   1      38.208  31.931  40.453  1.00  0.00    -0.237 OA
ATOM     82  O   UNL A   1      39.577  33.303  41.994  1.00  0.00    -0.237 OA
ATOM     83  O   UNL A   1      37.459  34.190  41.098  1.00  0.00    -0.744 OA
ENDBRANCH  76  80
ENDBRANCH  49  73
BRANCH  61  84
ATOM     84  C   UNL A   1      44.471  28.387  35.437  1.00  0.00     0.023 A 
ATOM     85  C   UNL A   1      44.252  27.387  36.399  1.00  0.00     0.031 A 
ATOM     86  C   UNL A   1      45.797  28.756  35.149  1.00  0.00     0.131 A 
ATOM     87  C   UNL A   1      45.342  26.816  37.070  1.00  0.00     0.055 A 
ATOM     88  C   UNL A   1      46.880  28.150  35.785  1.00  0.00     0.041 A 
ATOM     89  F   UNL A   1      46.059  29.706  34.238  1.00  0.00    -0.206 F 
ATOM     90  C   UNL A   1      46.656  27.179  36.758  1.00  0.00     0.022 A 
BRANCH  87  91
ATOM     91  S   UNL A   1      45.023  25.623  38.398  1.00  0.00     0.124 S 
ATOM     92  O   UNL A   1      46.374  25.282  38.831  1.00  0.00    -0.237 OA
ATOM     93  O   UNL A   1      44.228  26.405  39.340  1.00  0.00    -0.237 OA
ATOM     94  O   UNL A   1      44.297  24.546  37.725  1.00  0.00    -0.744 OA
ENDBRANCH  87  91
ENDBRANCH  61  84
ENDBRANCH  35  36
ENDBRANCH  27  30
ENDBRANCH  25  26
ENDBRANCH  24  25
ENDBRANCH   1  24
TORSDOF 18
ENDMDL
MODEL 3
REMARK VINA RESULT:      -9.8      2.566      3.850
REMARK SMILES CCSc1cccc(-c2ccc([C@@H](C)C(=O)NCCCCNC(=O)c3ccc(-c4c5nc(c(-c6cc(S(=O)(=O)[O-])ccc6F)c6ccc([nH]6)c(-c6cc(S(=O)(=O)[O-])ccc6F)c6nc(c(-c7cc(S(=O)(=O)[O-])ccc7F)c7ccc4[nH]7)C=C6)C=C5)cc3)cc2)c1
REMARK SMILES IDX 19 1 18 2 17 3 15 4 16 5 13 7 14 8 12 9 9 10 10 11 89 12
REMARK SMILES IDX 11 13 88 14 8 15 4 16 5 17 90 18 6 19 7 20 3 21 2 22 1 23
REMARK SMILES IDX 20 24 21 25 22 26 23 27 24 29 25 30 26 31 87 32 27 33 86 34
REMARK SMILES IDX 28 35 29 36 30 37 80 38 31 39 85 40 79 41 81 42 32 43 84 44
REMARK SMILES IDX 78 45 77 46 33 48 65 49 45 50 64 51 46 52 49 53 63 54 82 55
REMARK SMILES IDX 47 56 48 57 62 59 83 60 50 61 34 62 35 63 43 64 36 65 42 66
REMARK SMILES IDX 44 67 41 68 37 69 38 70 39 71 40 72 66 73 67 74 75 75 68 76
REMARK SMILES IDX 74 77 76 78 73 79 69 80 70 81 71 82 72 83 51 84 52 85 60 86
REMARK SMILES IDX 53 87 59 88 61 89 58 90 54 91 55 92 56 93 57 94
REMARK H PARENT 17 6 22 28 81 47 49 58
REMARK Flexibility Score: inf
ROOT
ATOM      1  C   UNL A   1      34.674  34.513  29.325  1.00  0.00     0.023 C 
ENDROOT
BRANCH   1   2
ATOM      2  C   UNL A   1      33.490  35.390  28.917  1.00  0.00     0.116 C 
BRANCH   2   3
ATOM      3  N   UNL A   1      33.410  36.606  29.700  1.00  0.00    -0.356 N 
ATOM      4  C   UNL A   1      33.002  36.824  30.980  1.00  0.00     0.227 C 
ATOM      5  O   UNL A   1      32.989  37.999  31.369  1.00  0.00    -0.274 OA
ATOM      6  H   UNL A   1      33.702  37.416  29.223  1.00  0.00     0.163 HD
BRANCH   4   7
ATOM      7  C   UNL A   1      32.578  35.701  31.941  1.00  0.00     0.105 C 
ATOM      8  C   UNL A   1      31.439  36.087  32.886  1.00  0.00     0.023 C 
BRANCH   7   9
ATOM      9  C   UNL A   1      33.755  34.966  32.561  1.00  0.00    -0.036 A 
ATOM     10  C   UNL A   1      35.958  33.735  33.910  1.00  0.00    -0.018 A 
ATOM     11  C   UNL A   1      34.780  33.028  33.623  1.00  0.00     0.009 A 
ATOM     12  C   UNL A   1      36.021  35.064  33.460  1.00  0.00     0.009 A 
ATOM     13  C   UNL A   1      33.712  33.620  32.933  1.00  0.00     0.005 A 
ATOM     14  C   UNL A   1      34.935  35.675  32.820  1.00  0.00     0.005 A 
BRANCH  10  15
ATOM     15  C   UNL A   1      37.082  33.115  34.656  1.00  0.00    -0.017 A 
ATOM     16  C   UNL A   1      38.486  32.984  36.671  1.00  0.00     0.008 A 
ATOM     17  C   UNL A   1      39.244  31.974  36.076  1.00  0.00     0.015 A 
ATOM     18  C   UNL A   1      37.391  33.508  35.974  1.00  0.00     0.023 A 
ATOM     19  C   UNL A   1      38.942  31.535  34.791  1.00  0.00     0.002 A 
ATOM     20  C   UNL A   1      37.885  32.113  34.083  1.00  0.00     0.009 A 
BRANCH  16  21
ATOM     21  S   UNL A   1      38.963  33.533  38.305  1.00  0.00    -0.126 SA
BRANCH  21  22
ATOM     22  C   UNL A   1      40.438  34.565  37.977  1.00  0.00     0.071 C 
ATOM     23  C   UNL A   1      41.364  34.687  39.175  1.00  0.00     0.016 C 
ENDBRANCH  21  22
ENDBRANCH  16  21
ENDBRANCH  10  15
ENDBRANCH   7   9
ENDBRANCH   4   7
ENDBRANCH   2   3
ENDBRANCH   1   2
BRANCH   1  24
ATOM     24  C   UNL A   1      34.450  33.011  29.163  1.00  0.00     0.023 C 
BRANCH  24  25
ATOM     25  C   UNL A   1      34.794  32.439  27.792  1.00  0.00     0.116 C 
BRANCH  25  26
ATOM     26  N   UNL A   1      34.172  31.152  27.513  1.00  0.00    -0.352 N 
ATOM     27  C   UNL A   1      34.711  29.892  27.673  1.00  0.00     0.251 C 
ATOM     28  H   UNL A   1      33.250  31.185  27.167  1.00  0.00     0.163 HD
ATOM     29  O   UNL A   1      34.084  28.901  27.329  1.00  0.00    -0.269 OA
BRANCH  27  30
ATOM     30  C   UNL A   1      36.081  29.772  28.218  1.00  0.00     0.039 A 
ATOM     31  C   UNL A   1      36.249  29.323  29.529  1.00  0.00     0.014 A 
ATOM     32  C   UNL A   1      37.188  30.009  27.398  1.00  0.00     0.014 A 
ATOM     33  C   UNL A   1      37.530  29.009  29.988  1.00  0.00     0.010 A 
ATOM     34  C   UNL A   1      38.453  29.634  27.835  1.00  0.00     0.010 A 
ATOM     35  C   UNL A   1      38.634  29.108  29.125  1.00  0.00    -0.014 A 
BRANCH  35  36
ATOM     36  C   UNL A   1      39.985  28.635  29.524  1.00  0.00     0.031 A 
ATOM     37  C   UNL A   1      40.767  29.392  30.558  1.00  0.00     0.074 A 
ATOM     38  C   UNL A   1      40.544  27.595  28.874  1.00  0.00     0.049 A 
ATOM     39  N   UNL A   1      42.013  29.246  30.925  1.00  0.00    -0.248 NA
ATOM     40  C   UNL A   1      40.059  30.483  31.244  1.00  0.00     0.031 C 
ATOM     41  C   UNL A   1      39.897  26.804  27.823  1.00  0.00     0.029 A 
ATOM     42  N   UNL A   1      41.794  27.037  28.982  1.00  0.00    -0.354 N 
ATOM     43  C   UNL A   1      42.248  30.240  31.869  1.00  0.00     0.074 A 
ATOM     44  C   UNL A   1      41.026  31.011  31.978  1.00  0.00     0.031 C 
ATOM     45  C   UNL A   1      40.751  25.863  27.391  1.00  0.00     0.029 A 
ATOM     46  C   UNL A   1      42.021  26.012  28.093  1.00  0.00     0.049 A 
ATOM     47  H   UNL A   1      42.465  27.343  29.634  1.00  0.00     0.167 HD
ATOM     48  C   UNL A   1      43.371  30.474  32.591  1.00  0.00     0.034 A 
ATOM     49  C   UNL A   1      43.135  25.292  27.851  1.00  0.00     0.034 A 
ATOM     50  C   UNL A   1      44.571  29.682  32.484  1.00  0.00     0.049 A 
ATOM     51  C   UNL A   1      44.383  25.594  28.639  1.00  0.00     0.074 A 
ATOM     52  C   UNL A   1      45.736  29.775  33.227  1.00  0.00     0.029 A 
ATOM     53  N   UNL A   1      44.766  28.654  31.570  1.00  0.00    -0.354 N 
ATOM     54  N   UNL A   1      44.574  26.504  29.566  1.00  0.00    -0.248 NA
ATOM     55  C   UNL A   1      45.566  24.774  28.346  1.00  0.00     0.031 C 
ATOM     56  C   UNL A   1      46.654  28.847  32.722  1.00  0.00     0.029 A 
ATOM     57  C   UNL A   1      46.043  28.132  31.704  1.00  0.00     0.049 A 
ATOM     58  H   UNL A   1      44.094  28.342  30.921  1.00  0.00     0.167 HD
ATOM     59  C   UNL A   1      45.893  26.354  29.977  1.00  0.00     0.074 A 
ATOM     60  C   UNL A   1      46.448  25.260  29.208  1.00  0.00     0.031 C 
ATOM     61  C   UNL A   1      46.585  27.056  30.911  1.00  0.00     0.034 A 
BRANCH  48  62
ATOM     62  C   UNL A   1      43.353  31.650  33.535  1.00  0.00     0.023 A 
ATOM     63  C   UNL A   1      43.744  32.934  33.120  1.00  0.00     0.031 A 
ATOM     64  C   UNL A   1      42.973  31.478  34.878  1.00  0.00     0.131 A 
ATOM     65  C   UNL A   1      43.826  33.977  34.055  1.00  0.00     0.055 A 
ATOM     66  C   UNL A   1      42.980  32.539  35.786  1.00  0.00     0.041 A 
ATOM     67  F   UNL A   1      42.607  30.270  35.336  1.00  0.00    -0.206 F 
ATOM     68  C   UNL A   1      43.424  33.795  35.380  1.00  0.00     0.022 A 
BRANCH  65  69
ATOM     69  S   UNL A   1      44.601  35.535  33.545  1.00  0.00     0.124 S 
ATOM     70  O   UNL A   1      43.587  36.089  32.649  1.00  0.00    -0.237 OA
ATOM     71  O   UNL A   1      44.779  36.229  34.814  1.00  0.00    -0.237 OA
ATOM     72  O   UNL A   1      45.834  35.105  32.889  1.00  0.00    -0.744 OA
ENDBRANCH  65  69
ENDBRANCH  48  62
BRANCH  49  73
ATOM     73  C   UNL A   1      43.139  24.240  26.796  1.00  0.00     0.023 A 
ATOM     74  C   UNL A   1      42.478  23.019  26.993  1.00  0.00     0.031 A 
ATOM     75  C   UNL A   1      43.838  24.428  25.590  1.00  0.00     0.131 A 
ATOM     76  C   UNL A   1      42.559  22.015  26.015  1.00  0.00     0.055 A 
ATOM     77  C   UNL A   1      43.879  23.443  24.601  1.00  0.00     0.041 A 
ATOM     78  F   UNL A   1      44.483  25.581  25.351  1.00  0.00    -0.206 F 
ATOM     79  C   UNL A   1      43.245  22.222  24.816  1.00  0.00     0.022 A 
BRANCH  76  80
ATOM     80  S   UNL A   1      41.808  20.401  26.364  1.00  0.00     0.124 S 
ATOM     81  O   UNL A   1      40.386  20.698  26.225  1.00  0.00    -0.237 OA
ATOM     82  O   UNL A   1      42.393  19.564  25.322  1.00  0.00    -0.237 OA
ATOM     83  O   UNL A   1      42.254  20.104  27.723  1.00  0.00    -0.744 OA
ENDBRANCH  76  80
ENDBRANCH  49  73
BRANCH  61  84
ATOM     84  C   UNL A   1      48.009  26.635  31.162  1.00  0.00     0.023 A 
ATOM     85  C   UNL A   1      48.320  25.591  32.049  1.00  0.00     0.031 A 
ATOM     86  C   UNL A   1      49.066  27.286  30.501  1.00  0.00     0.131 A 
ATOM     87  C   UNL A   1      49.661  25.252  32.283  1.00  0.00     0.055 A 
ATOM     88  C   UNL A   1      50.395  26.912  30.702  1.00  0.00     0.041 A 
ATOM     89  F   UNL A   1      48.822  28.289  29.645  1.00  0.00    -0.206 F 
ATOM     90  C   UNL A   1      50.699  25.895  31.604  1.00  0.00     0.022 A 
BRANCH  87  91
ATOM     91  S   UNL A   1      50.037  23.990  33.530  1.00  0.00     0.124 S 
ATOM     92  O   UNL A   1      51.045  24.660  34.344  1.00  0.00    -0.237 OA
ATOM     93  O   UNL A   1      48.740  23.778  34.165  1.00  0.00    -0.237 OA
ATOM     94  O   UNL A   1      50.527  22.862  32.739  1.00  0.00    -0.744 OA
ENDBRANCH  87  91
ENDBRANCH  61  84
ENDBRANCH  35  36
ENDBRANCH  27  30
ENDBRANCH  25  26
ENDBRANCH  24  25
ENDBRANCH   1  24
TORSDOF 18
ENDMDL
