MODEL 1
REMARK VINA RESULT:      -9.9      0.000      0.000
REMARK SMILES O=C(NCCCCNC(=O)[C@H](Cc1ccccc1)SCc1nccs1)c1ccc(-c2c3nc(c(-c4cc(S(=O)(=O)[O-])ccc4F)c4ccc([nH]4)c(-c4cc(S(=O)(=O)[O-])ccc4F)c4nc(c(-c5cc(S(=O)(=O)[O-])ccc5F)c5ccc2[nH]5)C=C4)C=C3)cc1
REMARK SMILES IDX 5 1 4 2 3 3 1 4 2 5 26 7 27 8 88 9 28 10 87 11 29 12 30 13
REMARK SMILES IDX 31 14 81 15 32 16 86 17 80 18 82 19 33 20 85 21 79 22 78 23
REMARK SMILES IDX 34 25 66 26 46 27 65 28 47 29 50 30 64 31 83 32 48 33 49 34
REMARK SMILES IDX 63 36 84 37 51 38 35 39 36 40 44 41 37 42 43 43 45 44 42 45
REMARK SMILES IDX 38 46 39 47 40 48 41 49 67 50 68 51 76 52 69 53 75 54 77 55
REMARK SMILES IDX 74 56 70 57 71 58 72 59 73 60 52 61 53 62 61 63 54 64 60 65
REMARK SMILES IDX 62 66 59 67 55 68 56 69 57 70 58 71 6 72 7 73 8 74 9 75
REMARK SMILES IDX 10 77 11 78 19 79 20 80 21 81 22 82 25 83 23 84 24 85 12 86
REMARK SMILES IDX 13 87 14 88 18 89 15 90 17 91 16 92
REMARK H PARENT 3 6 82 24 50 35 8 76
REMARK Flexibility Score: inf
ROOT
ATOM      1  C   UNL A   1      35.498  33.598  29.294  1.00  0.00     0.023 C 
ENDROOT
BRANCH   1   2
ATOM      2  C   UNL A   1      35.311  33.130  27.857  1.00  0.00     0.116 C 
BRANCH   2   3
ATOM      3  N   UNL A   1      34.321  32.072  27.736  1.00  0.00    -0.352 N 
ATOM      4  O   UNL A   1      33.577  29.949  27.540  1.00  0.00    -0.269 OA
ATOM      5  C   UNL A   1      34.493  30.708  27.828  1.00  0.00     0.251 C 
ATOM      6  H   UNL A   1      33.399  32.371  27.564  1.00  0.00     0.163 HD
BRANCH   5   7
ATOM      7  C   UNL A   1      35.804  30.168  28.260  1.00  0.00     0.039 A 
ATOM      8  C   UNL A   1      35.939  29.575  29.516  1.00  0.00     0.014 A 
ATOM      9  C   UNL A   1      36.908  30.267  27.409  1.00  0.00     0.014 A 
ATOM     10  C   UNL A   1      37.202  29.234  29.983  1.00  0.00     0.010 A 
ATOM     11  C   UNL A   1      38.164  29.826  27.844  1.00  0.00     0.010 A 
ATOM     12  C   UNL A   1      38.328  29.334  29.147  1.00  0.00    -0.014 A 
BRANCH  12  13
ATOM     13  C   UNL A   1      39.638  28.852  29.662  1.00  0.00     0.031 A 
ATOM     14  C   UNL A   1      40.252  29.417  30.914  1.00  0.00     0.074 A 
ATOM     15  C   UNL A   1      40.237  27.833  29.013  1.00  0.00     0.049 A 
ATOM     16  N   UNL A   1      41.349  29.053  31.529  1.00  0.00    -0.248 NA
ATOM     17  C   UNL A   1      39.552  30.540  31.555  1.00  0.00     0.031 C 
ATOM     18  C   UNL A   1      39.742  27.222  27.775  1.00  0.00     0.029 A 
ATOM     19  N   UNL A   1      41.362  27.107  29.310  1.00  0.00    -0.354 N 
ATOM     20  C   UNL A   1      41.477  29.900  32.624  1.00  0.00     0.074 A 
ATOM     21  C   UNL A   1      40.364  30.825  32.565  1.00  0.00     0.031 C 
ATOM     22  C   UNL A   1      40.517  26.176  27.459  1.00  0.00     0.029 A 
ATOM     23  C   UNL A   1      41.606  26.085  28.422  1.00  0.00     0.049 A 
ATOM     24  H   UNL A   1      41.938  27.298  30.085  1.00  0.00     0.167 HD
ATOM     25  C   UNL A   1      42.429  29.899  33.592  1.00  0.00     0.034 A 
ATOM     26  C   UNL A   1      42.603  25.181  28.376  1.00  0.00     0.034 A 
ATOM     27  C   UNL A   1      43.537  28.970  33.631  1.00  0.00     0.049 A 
ATOM     28  C   UNL A   1      43.648  25.209  29.455  1.00  0.00     0.074 A 
ATOM     29  C   UNL A   1      44.557  28.881  34.563  1.00  0.00     0.029 A 
ATOM     30  N   UNL A   1      43.773  27.969  32.696  1.00  0.00    -0.354 N 
ATOM     31  N   UNL A   1      43.748  26.018  30.485  1.00  0.00    -0.248 NA
ATOM     32  C   UNL A   1      44.710  24.201  29.372  1.00  0.00     0.031 C 
ATOM     33  C   UNL A   1      45.437  27.868  34.163  1.00  0.00     0.029 A 
ATOM     34  C   UNL A   1      44.930  27.274  33.019  1.00  0.00     0.049 A 
ATOM     35  H   UNL A   1      43.201  27.780  31.917  1.00  0.00     0.167 HD
ATOM     36  C   UNL A   1      44.884  25.611  31.175  1.00  0.00     0.074 A 
ATOM     37  C   UNL A   1      45.407  24.458  30.467  1.00  0.00     0.031 C 
ATOM     38  C   UNL A   1      45.455  26.146  32.285  1.00  0.00     0.034 A 
BRANCH  25  39
ATOM     39  C   UNL A   1      42.334  30.956  34.668  1.00  0.00     0.023 A 
ATOM     40  C   UNL A   1      42.940  32.216  34.522  1.00  0.00     0.031 A 
ATOM     41  C   UNL A   1      41.626  30.701  35.856  1.00  0.00     0.131 A 
ATOM     42  C   UNL A   1      42.874  33.153  35.567  1.00  0.00     0.055 A 
ATOM     43  C   UNL A   1      41.505  31.661  36.864  1.00  0.00     0.041 A 
ATOM     44  F   UNL A   1      41.043  29.510  36.062  1.00  0.00    -0.206 F 
ATOM     45  C   UNL A   1      42.140  32.892  36.727  1.00  0.00     0.022 A 
BRANCH  42  46
ATOM     46  S   UNL A   1      43.857  34.671  35.437  1.00  0.00     0.124 S 
ATOM     47  O   UNL A   1      42.821  35.699  35.487  1.00  0.00    -0.237 OA
ATOM     48  O   UNL A   1      44.729  34.584  36.601  1.00  0.00    -0.237 OA
ATOM     49  O   UNL A   1      44.527  34.536  34.144  1.00  0.00    -0.744 OA
ENDBRANCH  42  46
ENDBRANCH  25  39
BRANCH  26  50
ATOM     50  C   UNL A   1      42.680  24.206  27.250  1.00  0.00     0.023 A 
ATOM     51  C   UNL A   1      42.029  22.965  27.311  1.00  0.00     0.031 A 
ATOM     52  C   UNL A   1      43.439  24.496  26.101  1.00  0.00     0.131 A 
ATOM     53  C   UNL A   1      42.185  22.041  26.266  1.00  0.00     0.055 A 
ATOM     54  C   UNL A   1      43.541  23.600  25.037  1.00  0.00     0.041 A 
ATOM     55  F   UNL A   1      44.078  25.671  25.988  1.00  0.00    -0.206 F 
ATOM     56  C   UNL A   1      42.923  22.357  25.123  1.00  0.00     0.022 A 
BRANCH  53  57
ATOM     57  S   UNL A   1      41.485  20.380  26.461  1.00  0.00     0.124 S 
ATOM     58  O   UNL A   1      40.053  20.648  26.380  1.00  0.00    -0.237 OA
ATOM     59  O   UNL A   1      42.070  19.671  25.328  1.00  0.00    -0.237 OA
ATOM     60  O   UNL A   1      41.968  19.960  27.774  1.00  0.00    -0.744 OA
ENDBRANCH  53  57
ENDBRANCH  26  50
BRANCH  38  61
ATOM     61  C   UNL A   1      46.701  25.465  32.792  1.00  0.00     0.023 A 
ATOM     62  C   UNL A   1      46.650  24.529  33.841  1.00  0.00     0.031 A 
ATOM     63  C   UNL A   1      47.960  25.796  32.261  1.00  0.00     0.131 A 
ATOM     64  C   UNL A   1      47.838  24.015  34.378  1.00  0.00     0.055 A 
ATOM     65  C   UNL A   1      49.136  25.231  32.757  1.00  0.00     0.041 A 
ATOM     66  F   UNL A   1      48.069  26.685  31.262  1.00  0.00    -0.206 F 
ATOM     67  C   UNL A   1      49.081  24.350  33.834  1.00  0.00     0.022 A 
BRANCH  64  68
ATOM     68  S   UNL A   1      47.744  22.998  35.878  1.00  0.00     0.124 S 
ATOM     69  O   UNL A   1      46.387  22.466  35.798  1.00  0.00    -0.237 OA
ATOM     70  O   UNL A   1      48.820  22.036  35.670  1.00  0.00    -0.237 OA
ATOM     71  O   UNL A   1      47.970  23.959  36.956  1.00  0.00    -0.744 OA
ENDBRANCH  64  68
ENDBRANCH  38  61
ENDBRANCH  12  13
ENDBRANCH   5   7
ENDBRANCH   2   3
ENDBRANCH   1   2
BRANCH   1  72
ATOM     72  C   UNL A   1      36.858  34.224  29.601  1.00  0.00     0.023 C 
BRANCH  72  73
ATOM     73  C   UNL A   1      37.412  33.937  30.996  1.00  0.00     0.116 C 
BRANCH  73  74
ATOM     74  N   UNL A   1      36.937  32.672  31.519  1.00  0.00    -0.355 N 
ATOM     75  C   UNL A   1      36.638  32.294  32.793  1.00  0.00     0.233 C 
ATOM     76  H   UNL A   1      36.809  31.969  30.842  1.00  0.00     0.163 HD
ATOM     77  O   UNL A   1      36.227  31.141  32.931  1.00  0.00    -0.274 OA
BRANCH  75  78
ATOM     78  C   UNL A   1      36.903  33.232  33.972  1.00  0.00     0.140 C 
BRANCH  78  79
ATOM     79  S   UNL A   1      35.418  34.172  34.542  1.00  0.00    -0.141 SA
BRANCH  79  80
ATOM     80  C   UNL A   1      34.136  33.864  33.287  1.00  0.00     0.137 C 
BRANCH  80  81
ATOM     81  C   UNL A   1      33.661  35.029  32.482  1.00  0.00     0.102 A 
ATOM     82  N   UNL A   1      32.954  34.961  31.370  1.00  0.00    -0.249 NA
ATOM     83  S   UNL A   1      34.157  36.619  32.935  1.00  0.00    -0.126 S 
ATOM     84  C   UNL A   1      32.728  36.236  30.885  1.00  0.00     0.123 A 
ATOM     85  C   UNL A   1      33.290  37.262  31.612  1.00  0.00     0.087 A 
ENDBRANCH  80  81
ENDBRANCH  79  80
ENDBRANCH  78  79
BRANCH  78  86
ATOM     86  C   UNL A   1      37.809  32.644  35.082  1.00  0.00     0.060 C 
BRANCH  86  87
ATOM     87  C   UNL A   1      38.390  33.555  36.137  1.00  0.00    -0.046 A 
ATOM     88  C   UNL A   1      38.179  33.295  37.498  1.00  0.00     0.004 A 
ATOM     89  C   UNL A   1      39.170  34.664  35.784  1.00  0.00     0.004 A 
ATOM     90  C   UNL A   1      38.658  34.164  38.480  1.00  0.00     0.000 A 
ATOM     91  C   UNL A   1      39.648  35.537  36.766  1.00  0.00     0.000 A 
ATOM     92  C   UNL A   1      39.379  35.295  38.111  1.00  0.00     0.000 A 
ENDBRANCH  86  87
ENDBRANCH  78  86
ENDBRANCH  75  78
ENDBRANCH  73  74
ENDBRANCH  72  73
ENDBRANCH   1  72
TORSDOF 19
ENDMDL
MODEL 2
REMARK VINA RESULT:      -9.8      4.647      7.892
REMARK SMILES O=C(NCCCCNC(=O)[C@H](Cc1ccccc1)SCc1nccs1)c1ccc(-c2c3nc(c(-c4cc(S(=O)(=O)[O-])ccc4F)c4ccc([nH]4)c(-c4cc(S(=O)(=O)[O-])ccc4F)c4nc(c(-c5cc(S(=O)(=O)[O-])ccc5F)c5ccc2[nH]5)C=C4)C=C3)cc1
REMARK SMILES IDX 5 1 4 2 3 3 1 4 2 5 26 7 27 8 88 9 28 10 87 11 29 12 30 13
REMARK SMILES IDX 31 14 81 15 32 16 86 17 80 18 82 19 33 20 85 21 79 22 78 23
REMARK SMILES IDX 34 25 66 26 46 27 65 28 47 29 50 30 64 31 83 32 48 33 49 34
REMARK SMILES IDX 63 36 84 37 51 38 35 39 36 40 44 41 37 42 43 43 45 44 42 45
REMARK SMILES IDX 38 46 39 47 40 48 41 49 67 50 68 51 76 52 69 53 75 54 77 55
REMARK SMILES IDX 74 56 70 57 71 58 72 59 73 60 52 61 53 62 61 63 54 64 60 65
REMARK SMILES IDX 62 66 59 67 55 68 56 69 57 70 58 71 6 72 7 73 8 74 9 75
REMARK SMILES IDX 10 77 11 78 19 79 20 80 21 81 22 82 25 83 23 84 24 85 12 86
REMARK SMILES IDX 13 87 14 88 18 89 15 90 17 91 16 92
REMARK H PARENT 3 6 82 24 50 35 8 76
REMARK Flexibility Score: inf
ROOT
ATOM      1  C   UNL A   1      32.976  27.933  25.388  1.00  0.00     0.023 C 
ENDROOT
BRANCH   1   2
ATOM      2  C   UNL A   1      33.627  29.276  25.090  1.00  0.00     0.116 C 
BRANCH   2   3
ATOM      3  N   UNL A   1      32.932  30.388  25.719  1.00  0.00    -0.352 N 
ATOM      4  O   UNL A   1      32.467  31.880  27.349  1.00  0.00    -0.269 OA
ATOM      5  C   UNL A   1      33.251  31.071  26.873  1.00  0.00     0.251 C 
ATOM      6  H   UNL A   1      32.120  30.697  25.256  1.00  0.00     0.163 HD
BRANCH   5   7
ATOM      7  C   UNL A   1      34.546  30.801  27.543  1.00  0.00     0.039 A 
ATOM      8  C   UNL A   1      34.792  29.554  28.118  1.00  0.00     0.014 A 
ATOM      9  C   UNL A   1      35.515  31.806  27.606  1.00  0.00     0.014 A 
ATOM     10  C   UNL A   1      35.929  29.366  28.894  1.00  0.00     0.010 A 
ATOM     11  C   UNL A   1      36.708  31.578  28.303  1.00  0.00     0.010 A 
ATOM     12  C   UNL A   1      36.913  30.367  28.980  1.00  0.00    -0.014 A 
BRANCH  12  13
ATOM     13  C   UNL A   1      38.160  30.072  29.734  1.00  0.00     0.031 A 
ATOM     14  C   UNL A   1      38.385  30.595  31.127  1.00  0.00     0.074 A 
ATOM     15  C   UNL A   1      39.067  29.254  29.163  1.00  0.00     0.049 A 
ATOM     16  N   UNL A   1      39.385  30.367  31.940  1.00  0.00    -0.248 NA
ATOM     17  C   UNL A   1      37.364  31.499  31.675  1.00  0.00     0.031 C 
ATOM     18  C   UNL A   1      38.962  28.705  27.807  1.00  0.00     0.029 A 
ATOM     19  N   UNL A   1      40.229  28.711  29.647  1.00  0.00    -0.354 N 
ATOM     20  C   UNL A   1      39.121  31.098  33.093  1.00  0.00     0.074 A 
ATOM     21  C   UNL A   1      37.882  31.811  32.856  1.00  0.00     0.031 C 
ATOM     22  C   UNL A   1      39.976  27.855  27.596  1.00  0.00     0.029 A 
ATOM     23  C   UNL A   1      40.844  27.852  28.766  1.00  0.00     0.049 A 
ATOM     24  H   UNL A   1      40.588  28.915  30.541  1.00  0.00     0.167 HD
ATOM     25  C   UNL A   1      39.839  31.159  34.243  1.00  0.00     0.034 A 
ATOM     26  C   UNL A   1      41.988  27.151  28.875  1.00  0.00     0.034 A 
ATOM     27  C   UNL A   1      41.077  30.444  34.459  1.00  0.00     0.049 A 
ATOM     28  C   UNL A   1      42.768  27.246  30.157  1.00  0.00     0.074 A 
ATOM     29  C   UNL A   1      41.885  30.435  35.583  1.00  0.00     0.029 A 
ATOM     30  N   UNL A   1      41.689  29.610  33.531  1.00  0.00    -0.354 N 
ATOM     31  N   UNL A   1      42.496  27.941  31.238  1.00  0.00    -0.248 NA
ATOM     32  C   UNL A   1      44.002  26.458  30.238  1.00  0.00     0.031 C 
ATOM     33  C   UNL A   1      43.010  29.645  35.316  1.00  0.00     0.029 A 
ATOM     34  C   UNL A   1      42.872  29.100  34.050  1.00  0.00     0.049 A 
ATOM     35  H   UNL A   1      41.335  29.409  32.635  1.00  0.00     0.167 HD
ATOM     36  C   UNL A   1      43.527  27.669  32.129  1.00  0.00     0.074 A 
ATOM     37  C   UNL A   1      44.399  26.713  31.475  1.00  0.00     0.031 C 
ATOM     38  C   UNL A   1      43.745  28.172  33.372  1.00  0.00     0.034 A 
BRANCH  25  39
ATOM     39  C   UNL A   1      39.322  32.058  35.343  1.00  0.00     0.023 A 
ATOM     40  C   UNL A   1      38.682  31.539  36.482  1.00  0.00     0.031 A 
ATOM     41  C   UNL A   1      39.472  33.454  35.252  1.00  0.00     0.131 A 
ATOM     42  C   UNL A   1      38.167  32.410  37.457  1.00  0.00     0.055 A 
ATOM     43  C   UNL A   1      39.020  34.312  36.257  1.00  0.00     0.041 A 
ATOM     44  F   UNL A   1      40.057  34.010  34.180  1.00  0.00    -0.206 F 
ATOM     45  C   UNL A   1      38.353  33.792  37.364  1.00  0.00     0.022 A 
BRANCH  42  46
ATOM     46  S   UNL A   1      37.150  31.719  38.790  1.00  0.00     0.124 S 
ATOM     47  O   UNL A   1      38.039  31.856  39.941  1.00  0.00    -0.237 OA
ATOM     48  O   UNL A   1      35.981  32.589  38.779  1.00  0.00    -0.237 OA
ATOM     49  O   UNL A   1      36.908  30.343  38.359  1.00  0.00    -0.744 OA
ENDBRANCH  42  46
ENDBRANCH  25  39
BRANCH  26  50
ATOM     50  C   UNL A   1      42.482  26.335  27.728  1.00  0.00     0.023 A 
ATOM     51  C   UNL A   1      42.275  24.949  27.675  1.00  0.00     0.031 A 
ATOM     52  C   UNL A   1      43.199  26.936  26.678  1.00  0.00     0.131 A 
ATOM     53  C   UNL A   1      42.818  24.202  26.618  1.00  0.00     0.055 A 
ATOM     54  C   UNL A   1      43.685  26.199  25.598  1.00  0.00     0.041 A 
ATOM     55  F   UNL A   1      43.422  28.260  26.677  1.00  0.00    -0.206 F 
ATOM     56  C   UNL A   1      43.508  24.820  25.572  1.00  0.00     0.022 A 
BRANCH  53  57
ATOM     57  S   UNL A   1      42.693  22.394  26.677  1.00  0.00     0.124 S 
ATOM     58  O   UNL A   1      43.975  21.987  26.113  1.00  0.00    -0.237 OA
ATOM     59  O   UNL A   1      42.514  22.150  28.104  1.00  0.00    -0.237 OA
ATOM     60  O   UNL A   1      41.526  22.108  25.846  1.00  0.00    -0.744 OA
ENDBRANCH  53  57
ENDBRANCH  26  50
BRANCH  38  61
ATOM     61  C   UNL A   1      44.973  27.671  34.091  1.00  0.00     0.023 A 
ATOM     62  C   UNL A   1      44.927  26.532  34.914  1.00  0.00     0.031 A 
ATOM     63  C   UNL A   1      46.188  28.373  33.999  1.00  0.00     0.131 A 
ATOM     64  C   UNL A   1      46.049  26.171  35.673  1.00  0.00     0.055 A 
ATOM     65  C   UNL A   1      47.321  27.971  34.706  1.00  0.00     0.041 A 
ATOM     66  F   UNL A   1      46.289  29.468  33.230  1.00  0.00    -0.206 F 
ATOM     67  C   UNL A   1      47.251  26.875  35.564  1.00  0.00     0.022 A 
BRANCH  64  68
ATOM     68  S   UNL A   1      45.879  24.843  36.897  1.00  0.00     0.124 S 
ATOM     69  O   UNL A   1      47.000  25.111  37.792  1.00  0.00    -0.237 OA
ATOM     70  O   UNL A   1      44.551  25.094  37.446  1.00  0.00    -0.237 OA
ATOM     71  O   UNL A   1      46.000  23.625  36.099  1.00  0.00    -0.744 OA
ENDBRANCH  64  68
ENDBRANCH  38  61
ENDBRANCH  12  13
ENDBRANCH   5   7
ENDBRANCH   2   3
ENDBRANCH   1   2
BRANCH   1  72
ATOM     72  C   UNL A   1      33.922  26.858  25.922  1.00  0.00     0.023 C 
BRANCH  72  73
ATOM     73  C   UNL A   1      33.756  25.471  25.303  1.00  0.00     0.116 C 
BRANCH  73  74
ATOM     74  N   UNL A   1      32.522  24.835  25.720  1.00  0.00    -0.355 N 
ATOM     75  C   UNL A   1      31.561  24.199  24.994  1.00  0.00     0.233 C 
ATOM     76  H   UNL A   1      32.350  24.866  26.689  1.00  0.00     0.163 HD
ATOM     77  O   UNL A   1      30.622  23.729  25.637  1.00  0.00    -0.274 OA
BRANCH  75  78
ATOM     78  C   UNL A   1      31.621  24.174  23.465  1.00  0.00     0.140 C 
BRANCH  78  79
ATOM     79  S   UNL A   1      31.368  25.823  22.669  1.00  0.00    -0.141 SA
BRANCH  79  80
ATOM     80  C   UNL A   1      29.981  26.589  23.567  1.00  0.00     0.137 C 
BRANCH  80  81
ATOM     81  C   UNL A   1      29.479  27.905  23.073  1.00  0.00     0.102 A 
ATOM     82  N   UNL A   1      28.212  28.265  22.989  1.00  0.00    -0.249 NA
ATOM     83  S   UNL A   1      30.605  29.043  22.427  1.00  0.00    -0.126 S 
ATOM     84  C   UNL A   1      28.125  29.536  22.453  1.00  0.00     0.123 A 
ATOM     85  C   UNL A   1      29.322  30.122  22.105  1.00  0.00     0.087 A 
ENDBRANCH  80  81
ENDBRANCH  79  80
ENDBRANCH  78  79
BRANCH  78  86
ATOM     86  C   UNL A   1      32.746  23.292  22.870  1.00  0.00     0.060 C 
BRANCH  86  87
ATOM     87  C   UNL A   1      33.142  22.011  23.564  1.00  0.00    -0.046 A 
ATOM     88  C   UNL A   1      34.357  21.922  24.257  1.00  0.00     0.004 A 
ATOM     89  C   UNL A   1      32.298  20.893  23.553  1.00  0.00     0.004 A 
ATOM     90  C   UNL A   1      34.762  20.725  24.849  1.00  0.00     0.000 A 
ATOM     91  C   UNL A   1      32.704  19.691  24.142  1.00  0.00     0.000 A 
ATOM     92  C   UNL A   1      33.941  19.604  24.777  1.00  0.00     0.000 A 
ENDBRANCH  86  87
ENDBRANCH  78  86
ENDBRANCH  75  78
ENDBRANCH  73  74
ENDBRANCH  72  73
ENDBRANCH   1  72
TORSDOF 19
ENDMDL
MODEL 3
REMARK VINA RESULT:      -9.8      4.132      8.443
REMARK SMILES O=C(NCCCCNC(=O)[C@H](Cc1ccccc1)SCc1nccs1)c1ccc(-c2c3nc(c(-c4cc(S(=O)(=O)[O-])ccc4F)c4ccc([nH]4)c(-c4cc(S(=O)(=O)[O-])ccc4F)c4nc(c(-c5cc(S(=O)(=O)[O-])ccc5F)c5ccc2[nH]5)C=C4)C=C3)cc1
REMARK SMILES IDX 5 1 4 2 3 3 1 4 2 5 26 7 27 8 88 9 28 10 87 11 29 12 30 13
REMARK SMILES IDX 31 14 81 15 32 16 86 17 80 18 82 19 33 20 85 21 79 22 78 23
REMARK SMILES IDX 34 25 66 26 46 27 65 28 47 29 50 30 64 31 83 32 48 33 49 34
REMARK SMILES IDX 63 36 84 37 51 38 35 39 36 40 44 41 37 42 43 43 45 44 42 45
REMARK SMILES IDX 38 46 39 47 40 48 41 49 67 50 68 51 76 52 69 53 75 54 77 55
REMARK SMILES IDX 74 56 70 57 71 58 72 59 73 60 52 61 53 62 61 63 54 64 60 65
REMARK SMILES IDX 62 66 59 67 55 68 56 69 57 70 58 71 6 72 7 73 8 74 9 75
REMARK SMILES IDX 10 77 11 78 19 79 20 80 21 81 22 82 25 83 23 84 24 85 12 86
REMARK SMILES IDX 13 87 14 88 18 89 15 90 17 91 16 92
REMARK H PARENT 3 6 82 24 50 35 8 76
REMARK Flexibility Score: inf
ROOT
ATOM      1  C   UNL A   1      32.490  27.763  25.677  1.00  0.00     0.023 C 
ENDROOT
BRANCH   1   2
ATOM      2  C   UNL A   1      33.373  28.983  25.458  1.00  0.00     0.116 C 
BRANCH   2   3
ATOM      3  N   UNL A   1      32.761  30.213  25.933  1.00  0.00    -0.352 N 
ATOM      4  O   UNL A   1      32.455  31.970  27.318  1.00  0.00    -0.269 OA
ATOM      5  C   UNL A   1      33.178  31.058  26.938  1.00  0.00     0.251 C 
ATOM      6  H   UNL A   1      31.932  30.479  25.474  1.00  0.00     0.163 HD
BRANCH   5   7
ATOM      7  C   UNL A   1      34.503  30.842  27.567  1.00  0.00     0.039 A 
ATOM      8  C   UNL A   1      34.844  29.586  28.071  1.00  0.00     0.014 A 
ATOM      9  C   UNL A   1      35.405  31.906  27.665  1.00  0.00     0.014 A 
ATOM     10  C   UNL A   1      36.009  29.436  28.813  1.00  0.00     0.010 A 
ATOM     11  C   UNL A   1      36.626  31.723  28.325  1.00  0.00     0.010 A 
ATOM     12  C   UNL A   1      36.926  30.496  28.933  1.00  0.00    -0.014 A 
BRANCH  12  13
ATOM     13  C   UNL A   1      38.207  30.246  29.646  1.00  0.00     0.031 A 
ATOM     14  C   UNL A   1      38.442  30.742  31.047  1.00  0.00     0.074 A 
ATOM     15  C   UNL A   1      39.140  29.494  29.027  1.00  0.00     0.049 A 
ATOM     16  N   UNL A   1      39.474  30.545  31.827  1.00  0.00    -0.248 NA
ATOM     17  C   UNL A   1      37.389  31.574  31.647  1.00  0.00     0.031 C 
ATOM     18  C   UNL A   1      39.027  28.978  27.659  1.00  0.00     0.029 A 
ATOM     19  N   UNL A   1      40.342  29.000  29.466  1.00  0.00    -0.354 N 
ATOM     20  C   UNL A   1      39.203  31.228  33.007  1.00  0.00     0.074 A 
ATOM     21  C   UNL A   1      37.923  31.880  32.823  1.00  0.00     0.031 C 
ATOM     22  C   UNL A   1      40.078  28.189  27.398  1.00  0.00     0.029 A 
ATOM     23  C   UNL A   1      40.977  28.201  28.544  1.00  0.00     0.049 A 
ATOM     24  H   UNL A   1      40.714  29.199  30.356  1.00  0.00     0.167 HD
ATOM     25  C   UNL A   1      39.949  31.296  34.140  1.00  0.00     0.034 A 
ATOM     26  C   UNL A   1      42.158  27.559  28.604  1.00  0.00     0.034 A 
ATOM     27  C   UNL A   1      41.228  30.642  34.303  1.00  0.00     0.049 A 
ATOM     28  C   UNL A   1      42.966  27.659  29.867  1.00  0.00     0.074 A 
ATOM     29  C   UNL A   1      42.066  30.645  35.405  1.00  0.00     0.029 A 
ATOM     30  N   UNL A   1      41.857  29.868  33.335  1.00  0.00    -0.354 N 
ATOM     31  N   UNL A   1      42.688  28.309  30.975  1.00  0.00    -0.248 NA
ATOM     32  C   UNL A   1      44.242  26.936  29.893  1.00  0.00     0.031 C 
ATOM     33  C   UNL A   1      43.222  29.924  35.086  1.00  0.00     0.029 A 
ATOM     34  C   UNL A   1      43.079  29.407  33.809  1.00  0.00     0.049 A 
ATOM     35  H   UNL A   1      41.490  29.673  32.443  1.00  0.00     0.167 HD
ATOM     36  C   UNL A   1      43.756  28.067  31.831  1.00  0.00     0.074 A 
ATOM     37  C   UNL A   1      44.659  27.178  31.127  1.00  0.00     0.031 C 
ATOM     38  C   UNL A   1      43.981  28.546  33.082  1.00  0.00     0.034 A 
BRANCH  25  39
ATOM     39  C   UNL A   1      39.415  32.135  35.278  1.00  0.00     0.023 A 
ATOM     40  C   UNL A   1      39.815  33.469  35.465  1.00  0.00     0.031 A 
ATOM     41  C   UNL A   1      38.491  31.592  36.191  1.00  0.00     0.131 A 
ATOM     42  C   UNL A   1      39.338  34.199  36.566  1.00  0.00     0.055 A 
ATOM     43  C   UNL A   1      37.967  32.344  37.245  1.00  0.00     0.041 A 
ATOM     44  F   UNL A   1      38.086  30.318  36.077  1.00  0.00    -0.206 F 
ATOM     45  C   UNL A   1      38.398  33.653  37.444  1.00  0.00     0.022 A 
BRANCH  42  46
ATOM     46  S   UNL A   1      40.051  35.832  36.901  1.00  0.00     0.124 S 
ATOM     47  O   UNL A   1      41.472  35.516  37.021  1.00  0.00    -0.237 OA
ATOM     48  O   UNL A   1      39.663  36.595  35.722  1.00  0.00    -0.237 OA
ATOM     49  O   UNL A   1      39.405  36.239  38.148  1.00  0.00    -0.744 OA
ENDBRANCH  42  46
ENDBRANCH  25  39
BRANCH  26  50
ATOM     50  C   UNL A   1      42.663  26.802  27.421  1.00  0.00     0.023 A 
ATOM     51  C   UNL A   1      42.661  25.400  27.395  1.00  0.00     0.031 A 
ATOM     52  C   UNL A   1      43.185  27.482  26.306  1.00  0.00     0.131 A 
ATOM     53  C   UNL A   1      43.212  24.721  26.298  1.00  0.00     0.055 A 
ATOM     54  C   UNL A   1      43.676  26.804  25.190  1.00  0.00     0.041 A 
ATOM     55  F   UNL A   1      43.207  28.824  26.277  1.00  0.00    -0.206 F 
ATOM     56  C   UNL A   1      43.705  25.413  25.189  1.00  0.00     0.022 A 
BRANCH  53  57
ATOM     57  S   UNL A   1      43.364  22.916  26.378  1.00  0.00     0.124 S 
ATOM     58  O   UNL A   1      44.811  22.739  26.405  1.00  0.00    -0.237 OA
ATOM     59  O   UNL A   1      42.658  22.609  27.618  1.00  0.00    -0.237 OA
ATOM     60  O   UNL A   1      42.701  22.465  25.157  1.00  0.00    -0.744 OA
ENDBRANCH  53  57
ENDBRANCH  26  50
BRANCH  38  61
ATOM     61  C   UNL A   1      45.253  28.092  33.754  1.00  0.00     0.023 A 
ATOM     62  C   UNL A   1      45.292  26.922  34.534  1.00  0.00     0.031 A 
ATOM     63  C   UNL A   1      46.423  28.866  33.662  1.00  0.00     0.131 A 
ATOM     64  C   UNL A   1      46.451  26.600  35.254  1.00  0.00     0.055 A 
ATOM     65  C   UNL A   1      47.594  28.505  34.329  1.00  0.00     0.041 A 
ATOM     66  F   UNL A   1      46.441  29.994  32.934  1.00  0.00    -0.206 F 
ATOM     67  C   UNL A   1      47.607  27.377  35.146  1.00  0.00     0.022 A 
BRANCH  64  68
ATOM     68  S   UNL A   1      46.387  25.220  36.429  1.00  0.00     0.124 S 
ATOM     69  O   UNL A   1      47.095  24.170  35.703  1.00  0.00    -0.237 OA
ATOM     70  O   UNL A   1      47.077  25.768  37.591  1.00  0.00    -0.237 OA
ATOM     71  O   UNL A   1      44.955  24.991  36.610  1.00  0.00    -0.744 OA
ENDBRANCH  64  68
ENDBRANCH  38  61
ENDBRANCH  12  13
ENDBRANCH   5   7
ENDBRANCH   2   3
ENDBRANCH   1   2
BRANCH   1  72
ATOM     72  C   UNL A   1      33.239  26.453  25.918  1.00  0.00     0.023 C 
BRANCH  72  73
ATOM     73  C   UNL A   1      32.582  25.204  25.333  1.00  0.00     0.116 C 
BRANCH  73  74
ATOM     74  N   UNL A   1      33.007  24.953  23.970  1.00  0.00    -0.355 N 
ATOM     75  C   UNL A   1      33.498  23.825  23.387  1.00  0.00     0.233 C 
ATOM     76  H   UNL A   1      32.928  25.727  23.366  1.00  0.00     0.163 HD
ATOM     77  O   UNL A   1      33.755  23.908  22.185  1.00  0.00    -0.274 OA
BRANCH  75  78
ATOM     78  C   UNL A   1      33.797  22.577  24.219  1.00  0.00     0.140 C 
BRANCH  78  79
ATOM     79  S   UNL A   1      34.648  22.922  25.824  1.00  0.00    -0.141 SA
BRANCH  79  80
ATOM     80  C   UNL A   1      36.152  23.850  25.386  1.00  0.00     0.137 C 
BRANCH  80  81
ATOM     81  C   UNL A   1      37.462  23.306  25.854  1.00  0.00     0.102 A 
ATOM     82  N   UNL A   1      38.381  23.978  26.522  1.00  0.00    -0.249 NA
ATOM     83  S   UNL A   1      37.916  21.704  25.399  1.00  0.00    -0.126 S 
ATOM     84  C   UNL A   1      39.474  23.163  26.753  1.00  0.00     0.123 A 
ATOM     85  C   UNL A   1      39.394  21.891  26.232  1.00  0.00     0.087 A 
ENDBRANCH  80  81
ENDBRANCH  79  80
ENDBRANCH  78  79
BRANCH  78  86
ATOM     86  C   UNL A   1      32.655  21.531  24.261  1.00  0.00     0.060 C 
BRANCH  86  87
ATOM     87  C   UNL A   1      32.946  20.089  23.923  1.00  0.00    -0.046 A 
ATOM     88  C   UNL A   1      32.274  19.454  22.870  1.00  0.00     0.004 A 
ATOM     89  C   UNL A   1      33.908  19.360  24.634  1.00  0.00     0.004 A 
ATOM     90  C   UNL A   1      32.489  18.104  22.589  1.00  0.00     0.000 A 
ATOM     91  C   UNL A   1      34.123  18.007  24.356  1.00  0.00     0.000 A 
ATOM     92  C   UNL A   1      33.403  17.376  23.344  1.00  0.00     0.000 A 
ENDBRANCH  86  87
ENDBRANCH  78  86
ENDBRANCH  75  78
ENDBRANCH  73  74
ENDBRANCH  72  73
ENDBRANCH   1  72
TORSDOF 19
ENDMDL
