MODEL 1
REMARK VINA RESULT:     -10.6      0.000      0.000
REMARK SMILES CC(C)C[C@H](NC(=O)[C@@H](NC(=O)[C@H](C)NC(=O)CNC(=O)OCc1ccccc1)C(C)C)C(=O)NCCCCNC(=O)c1ccc(-c2c3nc(c(-c4cc(S(=O)(=O)[O-])ccc4F)c4ccc([nH]4)c(-c4cc(S(=O)(=O)[O-])ccc4F)c4nc(c(-c5cc(S(=O)(=O)[O-])ccc5F)c5ccc2[nH]5)C=C4)C=C3)cc1
REMARK SMILES IDX 5 1 4 2 2 3 1 4 3 5 33 6 34 7 35 8 36 10 37 11 38 12 39 13
REMARK SMILES IDX 40 14 41 15 42 17 43 18 44 19 105 20 45 21 104 22 46 23
REMARK SMILES IDX 47 24 48 25 98 26 49 27 103 28 97 29 99 30 50 31 102 32
REMARK SMILES IDX 96 33 95 34 51 36 83 37 63 38 82 39 64 40 67 41 81 42 100 43
REMARK SMILES IDX 65 44 66 45 80 47 101 48 68 49 52 50 53 51 61 52 54 53 60 54
REMARK SMILES IDX 62 55 59 56 55 57 56 58 57 59 58 60 84 61 85 62 93 63 86 64
REMARK SMILES IDX 92 65 94 66 91 67 87 68 88 69 89 70 90 71 69 72 70 73 78 74
REMARK SMILES IDX 71 75 77 76 79 77 76 78 72 79 73 80 74 81 75 82 6 83 7 84
REMARK SMILES IDX 8 86 9 87 10 88 11 89 12 91 13 92 14 93 15 94 16 95 17 97
REMARK SMILES IDX 18 98 19 99 20 100 21 102 22 103 23 104 24 105 25 106 29 107
REMARK SMILES IDX 26 108 28 109 27 110 30 111 31 112 32 113
REMARK H PARENT 35 9 40 16 99 35 67 46 6 85 10 90 15 96 19 101
REMARK Flexibility Score: inf
ROOT
ATOM      1  C   UNL A   1      34.055  22.998  25.270  1.00  0.00     0.171 C 
ENDROOT
BRANCH   1   2
ATOM      2  C   UNL A   1      34.109  22.167  23.986  1.00  0.00     0.038 C 
BRANCH   2   3
ATOM      3  C   UNL A   1      32.896  22.466  23.078  1.00  0.00    -0.015 C 
ATOM      4  C   UNL A   1      33.338  23.172  21.794  1.00  0.00     0.007 C 
ATOM      5  C   UNL A   1      32.149  21.179  22.743  1.00  0.00     0.007 C 
ENDBRANCH   2   3
ENDBRANCH   1   2
BRANCH   1   6
ATOM      6  C   UNL A   1      34.880  22.409  26.425  1.00  0.00     0.242 C 
ATOM      7  O   UNL A   1      34.377  22.307  27.545  1.00  0.00    -0.273 OA
ATOM      8  N   UNL A   1      36.177  22.042  26.320  1.00  0.00    -0.354 N 
ATOM      9  H   UNL A   1      36.521  21.585  27.121  1.00  0.00     0.163 HD
BRANCH   8  10
ATOM     10  C   UNL A   1      37.165  22.182  25.267  1.00  0.00     0.116 C 
BRANCH  10  11
ATOM     11  C   UNL A   1      37.324  20.889  24.464  1.00  0.00     0.023 C 
BRANCH  11  12
ATOM     12  C   UNL A   1      38.072  19.759  25.179  1.00  0.00     0.023 C 
BRANCH  12  13
ATOM     13  C   UNL A   1      39.227  20.203  26.065  1.00  0.00     0.116 C 
BRANCH  13  14
ATOM     14  N   UNL A   1      40.324  19.253  26.035  1.00  0.00    -0.352 N 
ATOM     15  C   UNL A   1      41.678  19.487  26.023  1.00  0.00     0.251 C 
ATOM     16  H   UNL A   1      40.059  18.306  26.020  1.00  0.00     0.163 HD
ATOM     17  O   UNL A   1      42.439  18.568  25.730  1.00  0.00    -0.269 OA
BRANCH  15  18
ATOM     18  C   UNL A   1      42.214  20.828  26.347  1.00  0.00     0.039 A 
ATOM     19  C   UNL A   1      42.511  21.711  25.305  1.00  0.00     0.014 A 
ATOM     20  C   UNL A   1      42.465  21.208  27.669  1.00  0.00     0.014 A 
ATOM     21  C   UNL A   1      43.021  22.981  25.591  1.00  0.00     0.010 A 
ATOM     22  C   UNL A   1      42.883  22.503  27.956  1.00  0.00     0.010 A 
ATOM     23  C   UNL A   1      43.189  23.398  26.921  1.00  0.00    -0.014 A 
BRANCH  23  24
ATOM     24  C   UNL A   1      43.743  24.739  27.252  1.00  0.00     0.031 A 
ATOM     25  C   UNL A   1      42.829  25.810  27.793  1.00  0.00     0.074 A 
ATOM     26  C   UNL A   1      45.041  25.013  27.014  1.00  0.00     0.049 A 
ATOM     27  N   UNL A   1      43.081  27.069  28.045  1.00  0.00    -0.248 NA
ATOM     28  C   UNL A   1      41.435  25.417  28.045  1.00  0.00     0.031 C 
ATOM     29  C   UNL A   1      46.014  24.072  26.452  1.00  0.00     0.029 A 
ATOM     30  N   UNL A   1      45.765  26.162  27.204  1.00  0.00    -0.354 N 
ATOM     31  C   UNL A   1      41.873  27.622  28.459  1.00  0.00     0.074 A 
ATOM     32  C   UNL A   1      40.877  26.577  28.352  1.00  0.00     0.031 C 
ATOM     33  C   UNL A   1      47.210  24.676  26.367  1.00  0.00     0.029 A 
ATOM     34  C   UNL A   1      47.082  26.057  26.822  1.00  0.00     0.049 A 
ATOM     35  H   UNL A   1      45.377  26.987  27.579  1.00  0.00     0.167 HD
ATOM     36  C   UNL A   1      41.621  28.876  28.913  1.00  0.00     0.034 A 
ATOM     37  C   UNL A   1      48.071  26.974  26.825  1.00  0.00     0.034 A 
ATOM     38  C   UNL A   1      42.634  29.896  29.037  1.00  0.00     0.049 A 
ATOM     39  C   UNL A   1      47.773  28.361  27.335  1.00  0.00     0.074 A 
ATOM     40  C   UNL A   1      42.508  31.182  29.531  1.00  0.00     0.029 A 
ATOM     41  N   UNL A   1      43.963  29.743  28.661  1.00  0.00    -0.354 N 
ATOM     42  N   UNL A   1      46.633  28.856  27.762  1.00  0.00    -0.248 NA
ATOM     43  C   UNL A   1      48.894  29.306  27.376  1.00  0.00     0.031 C 
ATOM     44  C   UNL A   1      43.744  31.825  29.400  1.00  0.00     0.029 A 
ATOM     45  C   UNL A   1      44.662  30.918  28.893  1.00  0.00     0.049 A 
ATOM     46  H   UNL A   1      44.353  28.921  28.285  1.00  0.00     0.167 HD
ATOM     47  C   UNL A   1      46.910  30.164  28.149  1.00  0.00     0.074 A 
ATOM     48  C   UNL A   1      48.325  30.372  27.920  1.00  0.00     0.031 C 
ATOM     49  C   UNL A   1      46.073  31.109  28.649  1.00  0.00     0.034 A 
BRANCH  36  50
ATOM     50  C   UNL A   1      40.193  29.205  29.286  1.00  0.00     0.023 A 
ATOM     51  C   UNL A   1      39.776  29.262  30.628  1.00  0.00     0.031 A 
ATOM     52  C   UNL A   1      39.225  29.424  28.290  1.00  0.00     0.131 A 
ATOM     53  C   UNL A   1      38.417  29.435  30.934  1.00  0.00     0.055 A 
ATOM     54  C   UNL A   1      37.889  29.688  28.605  1.00  0.00     0.041 A 
ATOM     55  F   UNL A   1      39.555  29.365  26.990  1.00  0.00    -0.206 F 
ATOM     56  C   UNL A   1      37.475  29.676  29.933  1.00  0.00     0.022 A 
BRANCH  53  57
ATOM     57  S   UNL A   1      37.878  29.179  32.648  1.00  0.00     0.124 S 
ATOM     58  O   UNL A   1      37.897  27.720  32.746  1.00  0.00    -0.237 OA
ATOM     59  O   UNL A   1      38.903  29.883  33.410  1.00  0.00    -0.237 OA
ATOM     60  O   UNL A   1      36.548  29.781  32.683  1.00  0.00    -0.744 OA
ENDBRANCH  53  57
ENDBRANCH  36  50
BRANCH  37  61
ATOM     61  C   UNL A   1      49.431  26.617  26.329  1.00  0.00     0.023 A 
ATOM     62  C   UNL A   1      49.905  27.104  25.100  1.00  0.00     0.031 A 
ATOM     63  C   UNL A   1      50.268  25.757  27.062  1.00  0.00     0.131 A 
ATOM     64  C   UNL A   1      51.160  26.695  24.621  1.00  0.00     0.055 A 
ATOM     65  C   UNL A   1      51.536  25.394  26.606  1.00  0.00     0.041 A 
ATOM     66  F   UNL A   1      49.867  25.269  28.246  1.00  0.00    -0.206 F 
ATOM     67  C   UNL A   1      51.983  25.853  25.372  1.00  0.00     0.022 A 
BRANCH  64  68
ATOM     68  S   UNL A   1      51.668  27.219  22.960  1.00  0.00     0.124 S 
ATOM     69  O   UNL A   1      52.015  28.618  23.183  1.00  0.00    -0.237 OA
ATOM     70  O   UNL A   1      52.781  26.318  22.685  1.00  0.00    -0.237 OA
ATOM     71  O   UNL A   1      50.472  26.994  22.151  1.00  0.00    -0.744 OA
ENDBRANCH  64  68
ENDBRANCH  37  61
BRANCH  49  72
ATOM     72  C   UNL A   1      46.685  32.436  29.024  1.00  0.00     0.023 A 
ATOM     73  C   UNL A   1      46.753  33.504  28.114  1.00  0.00     0.031 A 
ATOM     74  C   UNL A   1      47.217  32.628  30.313  1.00  0.00     0.131 A 
ATOM     75  C   UNL A   1      47.388  34.698  28.485  1.00  0.00     0.055 A 
ATOM     76  C   UNL A   1      47.794  33.839  30.695  1.00  0.00     0.041 A 
ATOM     77  F   UNL A   1      47.180  31.641  31.222  1.00  0.00    -0.206 F 
ATOM     78  C   UNL A   1      47.894  34.878  29.775  1.00  0.00     0.022 A 
BRANCH  75  79
ATOM     79  S   UNL A   1      47.626  35.985  27.229  1.00  0.00     0.124 S 
ATOM     80  O   UNL A   1      47.296  37.197  27.970  1.00  0.00    -0.237 OA
ATOM     81  O   UNL A   1      49.031  35.817  26.872  1.00  0.00    -0.237 OA
ATOM     82  O   UNL A   1      46.674  35.620  26.181  1.00  0.00    -0.744 OA
ENDBRANCH  75  79
ENDBRANCH  49  72
ENDBRANCH  23  24
ENDBRANCH  15  18
ENDBRANCH  13  14
ENDBRANCH  12  13
ENDBRANCH  11  12
ENDBRANCH  10  11
ENDBRANCH   8  10
ENDBRANCH   1   6
BRANCH   1  83
ATOM     83  N   UNL A   1      34.412  24.391  25.050  1.00  0.00    -0.343 N 
ATOM     84  C   UNL A   1      33.724  25.554  25.148  1.00  0.00     0.243 C 
ATOM     85  H   UNL A   1      35.349  24.514  24.772  1.00  0.00     0.164 HD
ATOM     86  O   UNL A   1      34.400  26.549  24.850  1.00  0.00    -0.273 OA
BRANCH  84  87
ATOM     87  C   UNL A   1      32.190  25.703  25.453  1.00  0.00     0.174 C 
BRANCH  87  88
ATOM     88  N   UNL A   1      31.745  26.392  26.678  1.00  0.00    -0.342 N 
ATOM     89  C   UNL A   1      31.839  27.671  27.151  1.00  0.00     0.242 C 
ATOM     90  H   UNL A   1      31.270  25.793  27.299  1.00  0.00     0.164 HD
ATOM     91  O   UNL A   1      31.121  27.933  28.123  1.00  0.00    -0.273 OA
BRANCH  89  92
ATOM     92  C   UNL A   1      32.689  28.763  26.461  1.00  0.00     0.168 C 
ATOM     93  C   UNL A   1      33.910  29.061  27.335  1.00  0.00     0.041 C 
BRANCH  92  94
ATOM     94  N   UNL A   1      31.884  29.987  26.382  1.00  0.00    -0.343 N 
ATOM     95  C   UNL A   1      32.095  31.244  26.861  1.00  0.00     0.240 C 
ATOM     96  H   UNL A   1      31.036  29.880  25.893  1.00  0.00     0.164 HD
ATOM     97  O   UNL A   1      31.264  32.104  26.553  1.00  0.00    -0.273 OA
BRANCH  95  98
ATOM     98  C   UNL A   1      33.394  31.645  27.575  1.00  0.00     0.219 C 
BRANCH  98  99
ATOM     99  N   UNL A   1      33.588  33.069  27.727  1.00  0.00    -0.312 N 
ATOM    100  C   UNL A   1      34.668  33.698  28.266  1.00  0.00     0.407 C 
ATOM    101  H   UNL A   1      32.860  33.647  27.404  1.00  0.00     0.167 HD
ATOM    102  O   UNL A   1      34.696  34.917  28.375  1.00  0.00    -0.225 OA
BRANCH 100 103
ATOM    103  O   UNL A   1      35.628  32.845  28.695  1.00  0.00    -0.445 OA
BRANCH 103 104
ATOM    104  C   UNL A   1      35.827  32.833  30.109  1.00  0.00     0.270 C 
BRANCH 104 105
ATOM    105  C   UNL A   1      37.248  33.088  30.534  1.00  0.00    -0.011 A 
ATOM    106  C   UNL A   1      37.593  33.057  31.893  1.00  0.00     0.007 A 
ATOM    107  C   UNL A   1      38.257  33.287  29.583  1.00  0.00     0.007 A 
ATOM    108  C   UNL A   1      38.925  33.162  32.291  1.00  0.00     0.000 A 
ATOM    109  C   UNL A   1      39.590  33.406  29.984  1.00  0.00     0.000 A 
ATOM    110  C   UNL A   1      39.924  33.330  31.336  1.00  0.00     0.000 A 
ENDBRANCH 104 105
ENDBRANCH 103 104
ENDBRANCH 100 103
ENDBRANCH  98  99
ENDBRANCH  95  98
ENDBRANCH  92  94
ENDBRANCH  89  92
ENDBRANCH  87  88
BRANCH  87 111
ATOM    111  C   UNL A   1      31.328  26.130  24.230  1.00  0.00     0.015 C 
ATOM    112  C   UNL A   1      32.079  26.492  22.947  1.00  0.00     0.010 C 
ATOM    113  C   UNL A   1      30.276  25.067  23.866  1.00  0.00     0.010 C 
ENDBRANCH  87 111
ENDBRANCH  84  87
ENDBRANCH   1  83
TORSDOF 27
ENDMDL
MODEL 2
REMARK VINA RESULT:     -10.5      3.428      8.813
REMARK SMILES CC(C)C[C@H](NC(=O)[C@@H](NC(=O)[C@H](C)NC(=O)CNC(=O)OCc1ccccc1)C(C)C)C(=O)NCCCCNC(=O)c1ccc(-c2c3nc(c(-c4cc(S(=O)(=O)[O-])ccc4F)c4ccc([nH]4)c(-c4cc(S(=O)(=O)[O-])ccc4F)c4nc(c(-c5cc(S(=O)(=O)[O-])ccc5F)c5ccc2[nH]5)C=C4)C=C3)cc1
REMARK SMILES IDX 5 1 4 2 2 3 1 4 3 5 33 6 34 7 35 8 36 10 37 11 38 12 39 13
REMARK SMILES IDX 40 14 41 15 42 17 43 18 44 19 105 20 45 21 104 22 46 23
REMARK SMILES IDX 47 24 48 25 98 26 49 27 103 28 97 29 99 30 50 31 102 32
REMARK SMILES IDX 96 33 95 34 51 36 83 37 63 38 82 39 64 40 67 41 81 42 100 43
REMARK SMILES IDX 65 44 66 45 80 47 101 48 68 49 52 50 53 51 61 52 54 53 60 54
REMARK SMILES IDX 62 55 59 56 55 57 56 58 57 59 58 60 84 61 85 62 93 63 86 64
REMARK SMILES IDX 92 65 94 66 91 67 87 68 88 69 89 70 90 71 69 72 70 73 78 74
REMARK SMILES IDX 71 75 77 76 79 77 76 78 72 79 73 80 74 81 75 82 6 83 7 84
REMARK SMILES IDX 8 86 9 87 10 88 11 89 12 91 13 92 14 93 15 94 16 95 17 97
REMARK SMILES IDX 18 98 19 99 20 100 21 102 22 103 23 104 24 105 25 106 29 107
REMARK SMILES IDX 26 108 28 109 27 110 30 111 31 112 32 113
REMARK H PARENT 35 9 40 16 99 35 67 46 6 85 10 90 15 96 19 101
REMARK Flexibility Score: inf
ROOT
ATOM      1  C   UNL A   1      31.680  26.752  26.227  1.00  0.00     0.171 C 
ENDROOT
BRANCH   1   2
ATOM      2  C   UNL A   1      30.680  27.156  25.142  1.00  0.00     0.038 C 
BRANCH   2   3
ATOM      3  C   UNL A   1      31.307  28.166  24.155  1.00  0.00    -0.015 C 
ATOM      4  C   UNL A   1      30.924  27.827  22.712  1.00  0.00     0.007 C 
ATOM      5  C   UNL A   1      30.873  29.587  24.498  1.00  0.00     0.007 C 
ENDBRANCH   2   3
ENDBRANCH   1   2
BRANCH   1   6
ATOM      6  C   UNL A   1      31.787  27.765  27.379  1.00  0.00     0.242 C 
ATOM      7  O   UNL A   1      30.839  27.913  28.152  1.00  0.00    -0.273 OA
ATOM      8  N   UNL A   1      32.849  28.577  27.577  1.00  0.00    -0.354 N 
ATOM      9  H   UNL A   1      32.802  29.085  28.419  1.00  0.00     0.163 HD
BRANCH   8  10
ATOM     10  C   UNL A   1      34.044  28.854  26.803  1.00  0.00     0.116 C 
BRANCH  10  11
ATOM     11  C   UNL A   1      34.632  30.226  27.139  1.00  0.00     0.023 C 
BRANCH  11  12
ATOM     12  C   UNL A   1      33.668  31.205  27.819  1.00  0.00     0.023 C 
BRANCH  12  13
ATOM     13  C   UNL A   1      34.318  32.443  28.420  1.00  0.00     0.116 C 
BRANCH  13  14
ATOM     14  N   UNL A   1      34.044  32.557  29.841  1.00  0.00    -0.352 N 
ATOM     15  C   UNL A   1      34.896  32.396  30.908  1.00  0.00     0.251 C 
ATOM     16  H   UNL A   1      33.115  32.782  30.074  1.00  0.00     0.163 HD
ATOM     17  O   UNL A   1      34.423  32.272  32.035  1.00  0.00    -0.269 OA
BRANCH  15  18
ATOM     18  C   UNL A   1      36.362  32.361  30.703  1.00  0.00     0.039 A 
ATOM     19  C   UNL A   1      37.206  32.582  31.795  1.00  0.00     0.014 A 
ATOM     20  C   UNL A   1      36.911  32.153  29.434  1.00  0.00     0.014 A 
ATOM     21  C   UNL A   1      38.593  32.556  31.621  1.00  0.00     0.010 A 
ATOM     22  C   UNL A   1      38.289  32.034  29.280  1.00  0.00     0.010 A 
ATOM     23  C   UNL A   1      39.148  32.258  30.367  1.00  0.00    -0.014 A 
BRANCH  23  24
ATOM     24  C   UNL A   1      40.620  32.238  30.151  1.00  0.00     0.031 A 
ATOM     25  C   UNL A   1      41.329  33.501  29.733  1.00  0.00     0.074 A 
ATOM     26  C   UNL A   1      41.306  31.084  30.270  1.00  0.00     0.049 A 
ATOM     27  N   UNL A   1      42.580  33.679  29.391  1.00  0.00    -0.248 NA
ATOM     28  C   UNL A   1      40.508  34.719  29.651  1.00  0.00     0.031 C 
ATOM     29  C   UNL A   1      40.723  29.788  30.627  1.00  0.00     0.029 A 
ATOM     30  N   UNL A   1      42.639  30.810  30.096  1.00  0.00    -0.354 N 
ATOM     31  C   UNL A   1      42.688  35.019  29.029  1.00  0.00     0.074 A 
ATOM     32  C   UNL A   1      41.359  35.585  29.124  1.00  0.00     0.031 C 
ATOM     33  C   UNL A   1      41.697  28.865  30.668  1.00  0.00     0.029 A 
ATOM     34  C   UNL A   1      42.963  29.489  30.297  1.00  0.00     0.049 A 
ATOM     35  H   UNL A   1      43.301  31.496  29.850  1.00  0.00     0.167 HD
ATOM     36  C   UNL A   1      43.795  35.719  28.678  1.00  0.00     0.034 A 
ATOM     37  C   UNL A   1      44.145  28.850  30.182  1.00  0.00     0.034 A 
ATOM     38  C   UNL A   1      45.116  35.142  28.615  1.00  0.00     0.049 A 
ATOM     39  C   UNL A   1      45.365  29.646  29.793  1.00  0.00     0.074 A 
ATOM     40  C   UNL A   1      46.317  35.764  28.323  1.00  0.00     0.029 A 
ATOM     41  N   UNL A   1      45.409  33.804  28.849  1.00  0.00    -0.354 N 
ATOM     42  N   UNL A   1      45.458  30.922  29.493  1.00  0.00    -0.248 NA
ATOM     43  C   UNL A   1      46.640  28.921  29.738  1.00  0.00     0.031 C 
ATOM     44  C   UNL A   1      47.325  34.793  28.322  1.00  0.00     0.029 A 
ATOM     45  C   UNL A   1      46.767  33.578  28.686  1.00  0.00     0.049 A 
ATOM     46  H   UNL A   1      44.748  33.116  29.094  1.00  0.00     0.167 HD
ATOM     47  C   UNL A   1      46.807  31.156  29.243  1.00  0.00     0.074 A 
ATOM     48  C   UNL A   1      47.489  29.894  29.443  1.00  0.00     0.031 C 
ATOM     49  C   UNL A   1      47.428  32.308  28.882  1.00  0.00     0.034 A 
BRANCH  36  50
ATOM     50  C   UNL A   1      43.610  37.177  28.320  1.00  0.00     0.023 A 
ATOM     51  C   UNL A   1      43.842  38.202  29.255  1.00  0.00     0.031 A 
ATOM     52  C   UNL A   1      43.154  37.548  27.043  1.00  0.00     0.131 A 
ATOM     53  C   UNL A   1      43.529  39.531  28.933  1.00  0.00     0.055 A 
ATOM     54  C   UNL A   1      42.934  38.884  26.697  1.00  0.00     0.041 A 
ATOM     55  F   UNL A   1      42.897  36.617  26.111  1.00  0.00    -0.206 F 
ATOM     56  C   UNL A   1      43.103  39.883  27.651  1.00  0.00     0.022 A 
BRANCH  53  57
ATOM     57  S   UNL A   1      43.534  40.767  30.261  1.00  0.00     0.124 S 
ATOM     58  O   UNL A   1      44.321  40.088  31.290  1.00  0.00    -0.237 OA
ATOM     59  O   UNL A   1      44.171  41.914  29.624  1.00  0.00    -0.237 OA
ATOM     60  O   UNL A   1      42.119  40.934  30.580  1.00  0.00    -0.744 OA
ENDBRANCH  53  57
ENDBRANCH  36  50
BRANCH  37  61
ATOM     61  C   UNL A   1      44.237  27.383  30.432  1.00  0.00     0.023 A 
ATOM     62  C   UNL A   1      44.323  26.874  31.737  1.00  0.00     0.031 A 
ATOM     63  C   UNL A   1      44.272  26.467  29.365  1.00  0.00     0.131 A 
ATOM     64  C   UNL A   1      44.483  25.494  31.943  1.00  0.00     0.055 A 
ATOM     65  C   UNL A   1      44.378  25.091  29.576  1.00  0.00     0.041 A 
ATOM     66  F   UNL A   1      44.186  26.899  28.097  1.00  0.00    -0.206 F 
ATOM     67  C   UNL A   1      44.498  24.599  30.871  1.00  0.00     0.022 A 
BRANCH  64  68
ATOM     68  S   UNL A   1      44.748  24.892  33.633  1.00  0.00     0.124 S 
ATOM     69  O   UNL A   1      45.855  25.732  34.077  1.00  0.00    -0.237 OA
ATOM     70  O   UNL A   1      43.455  25.153  34.255  1.00  0.00    -0.237 OA
ATOM     71  O   UNL A   1      45.073  23.480  33.444  1.00  0.00    -0.744 OA
ENDBRANCH  64  68
ENDBRANCH  37  61
BRANCH  49  72
ATOM     72  C   UNL A   1      48.928  32.257  28.728  1.00  0.00     0.023 A 
ATOM     73  C   UNL A   1      49.537  31.998  27.489  1.00  0.00     0.031 A 
ATOM     74  C   UNL A   1      49.758  32.464  29.845  1.00  0.00     0.131 A 
ATOM     75  C   UNL A   1      50.933  31.896  27.405  1.00  0.00     0.055 A 
ATOM     76  C   UNL A   1      51.149  32.421  29.743  1.00  0.00     0.041 A 
ATOM     77  F   UNL A   1      49.230  32.714  31.053  1.00  0.00    -0.206 F 
ATOM     78  C   UNL A   1      51.744  32.123  28.520  1.00  0.00     0.022 A 
BRANCH  75  79
ATOM     79  S   UNL A   1      51.675  31.374  25.834  1.00  0.00     0.124 S 
ATOM     80  O   UNL A   1      51.045  30.076  25.618  1.00  0.00    -0.237 OA
ATOM     81  O   UNL A   1      51.267  32.440  24.926  1.00  0.00    -0.237 OA
ATOM     82  O   UNL A   1      53.106  31.327  26.130  1.00  0.00    -0.744 OA
ENDBRANCH  75  79
ENDBRANCH  49  72
ENDBRANCH  23  24
ENDBRANCH  15  18
ENDBRANCH  13  14
ENDBRANCH  12  13
ENDBRANCH  11  12
ENDBRANCH  10  11
ENDBRANCH   8  10
ENDBRANCH   1   6
BRANCH   1  83
ATOM     83  N   UNL A   1      31.434  25.417  26.747  1.00  0.00    -0.343 N 
ATOM     84  C   UNL A   1      31.927  24.193  26.438  1.00  0.00     0.243 C 
ATOM     85  H   UNL A   1      30.771  25.398  27.474  1.00  0.00     0.164 HD
ATOM     86  O   UNL A   1      31.435  23.282  27.118  1.00  0.00    -0.273 OA
BRANCH  84  87
ATOM     87  C   UNL A   1      32.909  23.857  25.258  1.00  0.00     0.174 C 
BRANCH  87  88
ATOM     88  N   UNL A   1      33.178  22.453  24.898  1.00  0.00    -0.342 N 
ATOM     89  C   UNL A   1      34.307  21.713  24.689  1.00  0.00     0.242 C 
ATOM     90  H   UNL A   1      32.354  21.928  24.780  1.00  0.00     0.164 HD
ATOM     91  O   UNL A   1      34.140  20.489  24.642  1.00  0.00    -0.273 OA
BRANCH  89  92
ATOM     92  C   UNL A   1      35.722  22.335  24.632  1.00  0.00     0.168 C 
ATOM     93  C   UNL A   1      35.938  22.939  23.242  1.00  0.00     0.041 C 
BRANCH  92  94
ATOM     94  N   UNL A   1      36.702  21.258  24.810  1.00  0.00    -0.343 N 
ATOM     95  C   UNL A   1      37.970  21.258  25.304  1.00  0.00     0.240 C 
ATOM     96  H   UNL A   1      36.384  20.373  24.518  1.00  0.00     0.164 HD
ATOM     97  O   UNL A   1      38.526  20.160  25.413  1.00  0.00    -0.273 OA
BRANCH  95  98
ATOM     98  C   UNL A   1      38.624  22.517  25.893  1.00  0.00     0.219 C 
BRANCH  98  99
ATOM     99  N   UNL A   1      39.548  22.270  26.977  1.00  0.00    -0.312 N 
ATOM    100  C   UNL A   1      40.536  23.096  27.419  1.00  0.00     0.407 C 
ATOM    101  H   UNL A   1      39.453  21.410  27.447  1.00  0.00     0.167 HD
ATOM    102  O   UNL A   1      41.283  22.753  28.326  1.00  0.00    -0.225 OA
BRANCH 100 103
ATOM    103  O   UNL A   1      40.615  24.257  26.726  1.00  0.00    -0.445 OA
BRANCH 103 104
ATOM    104  C   UNL A   1      41.392  25.275  27.358  1.00  0.00     0.270 C 
BRANCH 104 105
ATOM    105  C   UNL A   1      40.671  26.587  27.523  1.00  0.00    -0.011 A 
ATOM    106  C   UNL A   1      41.144  27.736  26.873  1.00  0.00     0.007 A 
ATOM    107  C   UNL A   1      39.485  26.666  28.264  1.00  0.00     0.007 A 
ATOM    108  C   UNL A   1      40.416  28.925  26.912  1.00  0.00     0.000 A 
ATOM    109  C   UNL A   1      38.764  27.862  28.314  1.00  0.00     0.000 A 
ATOM    110  C   UNL A   1      39.223  28.985  27.627  1.00  0.00     0.000 A 
ENDBRANCH 104 105
ENDBRANCH 103 104
ENDBRANCH 100 103
ENDBRANCH  98  99
ENDBRANCH  95  98
ENDBRANCH  92  94
ENDBRANCH  89  92
ENDBRANCH  87  88
BRANCH  87 111
ATOM    111  C   UNL A   1      32.710  24.731  23.986  1.00  0.00     0.015 C 
ATOM    112  C   UNL A   1      33.856  25.671  23.606  1.00  0.00     0.010 C 
ATOM    113  C   UNL A   1      32.380  23.879  22.747  1.00  0.00     0.010 C 
ENDBRANCH  87 111
ENDBRANCH  84  87
ENDBRANCH   1  83
TORSDOF 27
ENDMDL
MODEL 3
REMARK VINA RESULT:      -9.9      3.460      9.230
REMARK SMILES CC(C)C[C@H](NC(=O)[C@@H](NC(=O)[C@H](C)NC(=O)CNC(=O)OCc1ccccc1)C(C)C)C(=O)NCCCCNC(=O)c1ccc(-c2c3nc(c(-c4cc(S(=O)(=O)[O-])ccc4F)c4ccc([nH]4)c(-c4cc(S(=O)(=O)[O-])ccc4F)c4nc(c(-c5cc(S(=O)(=O)[O-])ccc5F)c5ccc2[nH]5)C=C4)C=C3)cc1
REMARK SMILES IDX 5 1 4 2 2 3 1 4 3 5 33 6 34 7 35 8 36 10 37 11 38 12 39 13
REMARK SMILES IDX 40 14 41 15 42 17 43 18 44 19 105 20 45 21 104 22 46 23
REMARK SMILES IDX 47 24 48 25 98 26 49 27 103 28 97 29 99 30 50 31 102 32
REMARK SMILES IDX 96 33 95 34 51 36 83 37 63 38 82 39 64 40 67 41 81 42 100 43
REMARK SMILES IDX 65 44 66 45 80 47 101 48 68 49 52 50 53 51 61 52 54 53 60 54
REMARK SMILES IDX 62 55 59 56 55 57 56 58 57 59 58 60 84 61 85 62 93 63 86 64
REMARK SMILES IDX 92 65 94 66 91 67 87 68 88 69 89 70 90 71 69 72 70 73 78 74
REMARK SMILES IDX 71 75 77 76 79 77 76 78 72 79 73 80 74 81 75 82 6 83 7 84
REMARK SMILES IDX 8 86 9 87 10 88 11 89 12 91 13 92 14 93 15 94 16 95 17 97
REMARK SMILES IDX 18 98 19 99 20 100 21 102 22 103 23 104 24 105 25 106 29 107
REMARK SMILES IDX 26 108 28 109 27 110 30 111 31 112 32 113
REMARK H PARENT 35 9 40 16 99 35 67 46 6 85 10 90 15 96 19 101
REMARK Flexibility Score: inf
ROOT
ATOM      1  C   UNL A   1      31.908  26.743  26.283  1.00  0.00     0.171 C 
ENDROOT
BRANCH   1   2
ATOM      2  C   UNL A   1      30.976  27.049  25.109  1.00  0.00     0.038 C 
BRANCH   2   3
ATOM      3  C   UNL A   1      31.628  28.047  24.127  1.00  0.00    -0.015 C 
ATOM      4  C   UNL A   1      33.117  27.743  23.949  1.00  0.00     0.007 C 
ATOM      5  C   UNL A   1      30.916  28.012  22.778  1.00  0.00     0.007 C 
ENDBRANCH   2   3
ENDBRANCH   1   2
BRANCH   1   6
ATOM      6  C   UNL A   1      31.898  27.819  27.380  1.00  0.00     0.242 C 
ATOM      7  O   UNL A   1      30.867  28.029  28.022  1.00  0.00    -0.273 OA
ATOM      8  N   UNL A   1      32.947  28.624  27.661  1.00  0.00    -0.354 N 
ATOM      9  H   UNL A   1      32.810  29.181  28.461  1.00  0.00     0.163 HD
BRANCH   8  10
ATOM     10  C   UNL A   1      34.234  28.833  27.026  1.00  0.00     0.116 C 
BRANCH  10  11
ATOM     11  C   UNL A   1      34.766  30.246  27.277  1.00  0.00     0.023 C 
BRANCH  11  12
ATOM     12  C   UNL A   1      33.707  31.292  27.640  1.00  0.00     0.023 C 
BRANCH  12  13
ATOM     13  C   UNL A   1      34.247  32.580  28.245  1.00  0.00     0.116 C 
BRANCH  13  14
ATOM     14  N   UNL A   1      33.966  32.665  29.666  1.00  0.00    -0.352 N 
ATOM     15  C   UNL A   1      34.811  32.481  30.734  1.00  0.00     0.251 C 
ATOM     16  H   UNL A   1      33.036  32.887  29.898  1.00  0.00     0.163 HD
ATOM     17  O   UNL A   1      34.332  32.335  31.855  1.00  0.00    -0.269 OA
BRANCH  15  18
ATOM     18  C   UNL A   1      36.278  32.448  30.536  1.00  0.00     0.039 A 
ATOM     19  C   UNL A   1      37.116  32.690  31.629  1.00  0.00     0.014 A 
ATOM     20  C   UNL A   1      36.834  32.220  29.274  1.00  0.00     0.014 A 
ATOM     21  C   UNL A   1      38.504  32.665  31.462  1.00  0.00     0.010 A 
ATOM     22  C   UNL A   1      38.213  32.103  29.129  1.00  0.00     0.010 A 
ATOM     23  C   UNL A   1      39.066  32.348  30.216  1.00  0.00    -0.014 A 
BRANCH  23  24
ATOM     24  C   UNL A   1      40.539  32.329  30.008  1.00  0.00     0.031 A 
ATOM     25  C   UNL A   1      41.258  33.607  29.653  1.00  0.00     0.074 A 
ATOM     26  C   UNL A   1      41.217  31.167  30.077  1.00  0.00     0.049 A 
ATOM     27  N   UNL A   1      42.512  33.792  29.326  1.00  0.00    -0.248 NA
ATOM     28  C   UNL A   1      40.444  34.831  29.622  1.00  0.00     0.031 C 
ATOM     29  C   UNL A   1      40.625  29.859  30.370  1.00  0.00     0.029 A 
ATOM     30  N   UNL A   1      42.550  30.894  29.898  1.00  0.00    -0.354 N 
ATOM     31  C   UNL A   1      42.629  35.147  29.028  1.00  0.00     0.074 A 
ATOM     32  C   UNL A   1      41.303  35.716  29.141  1.00  0.00     0.031 C 
ATOM     33  C   UNL A   1      41.594  28.930  30.374  1.00  0.00     0.029 A 
ATOM     34  C   UNL A   1      42.866  29.563  30.039  1.00  0.00     0.049 A 
ATOM     35  H   UNL A   1      43.218  31.586  29.688  1.00  0.00     0.167 HD
ATOM     36  C   UNL A   1      43.742  35.856  28.715  1.00  0.00     0.034 A 
ATOM     37  C   UNL A   1      44.045  28.923  29.901  1.00  0.00     0.034 A 
ATOM     38  C   UNL A   1      45.061  35.275  28.633  1.00  0.00     0.049 A 
ATOM     39  C   UNL A   1      45.271  29.729  29.556  1.00  0.00     0.074 A 
ATOM     40  C   UNL A   1      46.267  35.902  28.377  1.00  0.00     0.029 A 
ATOM     41  N   UNL A   1      45.344  33.925  28.806  1.00  0.00    -0.354 N 
ATOM     42  N   UNL A   1      45.373  31.017  29.317  1.00  0.00    -0.248 NA
ATOM     43  C   UNL A   1      46.542  28.999  29.475  1.00  0.00     0.031 C 
ATOM     44  C   UNL A   1      47.269  34.926  28.336  1.00  0.00     0.029 A 
ATOM     45  C   UNL A   1      46.702  33.699  28.641  1.00  0.00     0.049 A 
ATOM     46  H   UNL A   1      44.678  33.231  29.015  1.00  0.00     0.167 HD
ATOM     47  C   UNL A   1      46.725  31.254  29.085  1.00  0.00     0.074 A 
ATOM     48  C   UNL A   1      47.399  29.980  29.230  1.00  0.00     0.031 C 
ATOM     49  C   UNL A   1      47.354  32.418  28.781  1.00  0.00     0.034 A 
BRANCH  36  50
ATOM     50  C   UNL A   1      43.567  37.330  28.424  1.00  0.00     0.023 A 
ATOM     51  C   UNL A   1      43.774  38.308  29.414  1.00  0.00     0.031 A 
ATOM     52  C   UNL A   1      43.147  37.764  27.154  1.00  0.00     0.131 A 
ATOM     53  C   UNL A   1      43.470  39.652  29.149  1.00  0.00     0.055 A 
ATOM     54  C   UNL A   1      42.937  39.116  26.869  1.00  0.00     0.041 A 
ATOM     55  F   UNL A   1      42.915  36.880  26.171  1.00  0.00    -0.206 F 
ATOM     56  C   UNL A   1      43.080  40.066  27.875  1.00  0.00     0.022 A 
BRANCH  53  57
ATOM     57  S   UNL A   1      43.439  40.821  30.536  1.00  0.00     0.124 S 
ATOM     58  O   UNL A   1      44.280  40.135  31.516  1.00  0.00    -0.237 OA
ATOM     59  O   UNL A   1      44.004  42.028  29.945  1.00  0.00    -0.237 OA
ATOM     60  O   UNL A   1      42.023  40.899  30.888  1.00  0.00    -0.744 OA
ENDBRANCH  53  57
ENDBRANCH  36  50
BRANCH  37  61
ATOM     61  C   UNL A   1      44.127  27.445  30.083  1.00  0.00     0.023 A 
ATOM     62  C   UNL A   1      44.324  26.881  31.354  1.00  0.00     0.031 A 
ATOM     63  C   UNL A   1      44.040  26.573  28.982  1.00  0.00     0.131 A 
ATOM     64  C   UNL A   1      44.471  25.491  31.489  1.00  0.00     0.055 A 
ATOM     65  C   UNL A   1      44.135  25.188  29.128  1.00  0.00     0.041 A 
ATOM     66  F   UNL A   1      43.845  27.060  27.747  1.00  0.00    -0.206 F 
ATOM     67  C   UNL A   1      44.366  24.641  30.385  1.00  0.00     0.022 A 
BRANCH  64  68
ATOM     68  S   UNL A   1      44.881  24.816  33.121  1.00  0.00     0.124 S 
ATOM     69  O   UNL A   1      46.261  25.257  33.288  1.00  0.00    -0.237 OA
ATOM     70  O   UNL A   1      43.893  25.464  33.975  1.00  0.00    -0.237 OA
ATOM     71  O   UNL A   1      44.703  23.375  32.947  1.00  0.00    -0.744 OA
ENDBRANCH  64  68
ENDBRANCH  37  61
BRANCH  49  72
ATOM     72  C   UNL A   1      48.855  32.366  28.633  1.00  0.00     0.023 A 
ATOM     73  C   UNL A   1      49.473  32.282  27.374  1.00  0.00     0.031 A 
ATOM     74  C   UNL A   1      49.677  32.391  29.775  1.00  0.00     0.131 A 
ATOM     75  C   UNL A   1      50.868  32.170  27.287  1.00  0.00     0.055 A 
ATOM     76  C   UNL A   1      51.068  32.340  29.679  1.00  0.00     0.041 A 
ATOM     77  F   UNL A   1      49.140  32.469  31.003  1.00  0.00    -0.206 F 
ATOM     78  C   UNL A   1      51.670  32.216  28.430  1.00  0.00     0.022 A 
BRANCH  75  79
ATOM     79  S   UNL A   1      51.618  31.873  25.662  1.00  0.00     0.124 S 
ATOM     80  O   UNL A   1      51.301  30.468  25.434  1.00  0.00    -0.237 OA
ATOM     81  O   UNL A   1      50.917  32.832  24.814  1.00  0.00    -0.237 OA
ATOM     82  O   UNL A   1      53.035  32.162  25.881  1.00  0.00    -0.744 OA
ENDBRANCH  75  79
ENDBRANCH  49  72
ENDBRANCH  23  24
ENDBRANCH  15  18
ENDBRANCH  13  14
ENDBRANCH  12  13
ENDBRANCH  11  12
ENDBRANCH  10  11
ENDBRANCH   8  10
ENDBRANCH   1   6
BRANCH   1  83
ATOM     83  N   UNL A   1      31.669  25.429  26.859  1.00  0.00    -0.343 N 
ATOM     84  C   UNL A   1      32.005  24.172  26.481  1.00  0.00     0.243 C 
ATOM     85  H   UNL A   1      31.156  25.459  27.699  1.00  0.00     0.164 HD
ATOM     86  O   UNL A   1      31.586  23.300  27.254  1.00  0.00    -0.273 OA
BRANCH  84  87
ATOM     87  C   UNL A   1      32.720  23.765  25.142  1.00  0.00     0.174 C 
BRANCH  87  88
ATOM     88  N   UNL A   1      33.302  22.418  24.996  1.00  0.00    -0.342 N 
ATOM     89  C   UNL A   1      34.572  21.927  24.885  1.00  0.00     0.242 C 
ATOM     90  H   UNL A   1      32.619  21.710  24.973  1.00  0.00     0.164 HD
ATOM     91  O   UNL A   1      34.684  20.704  25.028  1.00  0.00    -0.273 OA
BRANCH  89  92
ATOM     92  C   UNL A   1      35.813  22.833  24.712  1.00  0.00     0.168 C 
ATOM     93  C   UNL A   1      35.864  23.325  23.263  1.00  0.00     0.041 C 
BRANCH  92  94
ATOM     94  N   UNL A   1      37.010  22.019  24.951  1.00  0.00    -0.343 N 
ATOM     95  C   UNL A   1      38.142  22.259  25.668  1.00  0.00     0.240 C 
ATOM     96  H   UNL A   1      36.991  21.138  24.512  1.00  0.00     0.164 HD
ATOM     97  O   UNL A   1      38.952  21.330  25.760  1.00  0.00    -0.273 OA
BRANCH  95  98
ATOM     98  C   UNL A   1      38.334  23.536  26.499  1.00  0.00     0.219 C 
BRANCH  98  99
ATOM     99  N   UNL A   1      39.547  24.270  26.214  1.00  0.00    -0.312 N 
ATOM    100  C   UNL A   1      40.764  24.104  26.799  1.00  0.00     0.407 C 
ATOM    101  H   UNL A   1      39.485  24.965  25.519  1.00  0.00     0.167 HD
ATOM    102  O   UNL A   1      41.710  24.820  26.495  1.00  0.00    -0.225 OA
BRANCH 100 103
ATOM    103  O   UNL A   1      40.778  23.138  27.747  1.00  0.00    -0.445 OA
BRANCH 103 104
ATOM    104  C   UNL A   1      42.061  22.561  27.991  1.00  0.00     0.270 C 
BRANCH 104 105
ATOM    105  C   UNL A   1      42.396  21.401  27.091  1.00  0.00    -0.011 A 
ATOM    106  C   UNL A   1      43.401  21.529  26.123  1.00  0.00     0.007 A 
ATOM    107  C   UNL A   1      41.764  20.161  27.253  1.00  0.00     0.007 A 
ATOM    108  C   UNL A   1      43.810  20.427  25.371  1.00  0.00     0.000 A 
ATOM    109  C   UNL A   1      42.165  19.062  26.490  1.00  0.00     0.000 A 
ATOM    110  C   UNL A   1      43.196  19.192  25.561  1.00  0.00     0.000 A 
ENDBRANCH 104 105
ENDBRANCH 103 104
ENDBRANCH 100 103
ENDBRANCH  98  99
ENDBRANCH  95  98
ENDBRANCH  92  94
ENDBRANCH  89  92
ENDBRANCH  87  88
BRANCH  87 111
ATOM    111  C   UNL A   1      31.958  24.185  23.851  1.00  0.00     0.015 C 
ATOM    112  C   UNL A   1      32.808  24.668  22.674  1.00  0.00     0.010 C 
ATOM    113  C   UNL A   1      31.041  23.064  23.332  1.00  0.00     0.010 C 
ENDBRANCH  87 111
ENDBRANCH  84  87
ENDBRANCH   1  83
TORSDOF 27
ENDMDL
