MODEL 1
REMARK VINA RESULT:     -12.2      0.000      0.000
REMARK SMILES O=C(Cc1c[nH]c(=O)n(Cc2ccccc2)c1=O)NCCCCNC(=O)c1ccc(-c2c3nc(c(-c4cc(S(=O)(=O)[O-])ccc4F)c4ccc([nH]4)c(-c4cc(S(=O)(=O)[O-])ccc4F)c4nc(c(-c5cc(S(=O)(=O)[O-])ccc5F)c5ccc2[nH]5)C=C4)C=C3)cc1
REMARK SMILES IDX 21 1 20 2 19 3 1 4 2 5 3 7 4 8 5 9 17 10 6 11 9 12 18 13
REMARK SMILES IDX 7 14 8 16 10 17 11 18 12 19 16 20 13 21 15 22 14 23 22 24
REMARK SMILES IDX 23 25 24 26 25 27 26 29 27 30 28 31 89 32 29 33 88 34 30 35
REMARK SMILES IDX 31 36 32 37 82 38 33 39 87 40 81 41 83 42 34 43 86 44 80 45
REMARK SMILES IDX 79 46 35 48 67 49 47 50 66 51 48 52 51 53 65 54 84 55 49 56
REMARK SMILES IDX 50 57 64 59 85 60 52 61 36 62 37 63 45 64 38 65 44 66 46 67
REMARK SMILES IDX 43 68 39 69 40 70 41 71 42 72 68 73 69 74 77 75 70 76 76 77
REMARK SMILES IDX 78 78 75 79 71 80 72 81 73 82 74 83 53 84 54 85 62 86 55 87
REMARK SMILES IDX 61 88 63 89 60 90 56 91 57 92 58 93 59 94
REMARK H PARENT 19 6 6 15 24 28 83 47 51 58
REMARK Flexibility Score: inf
ROOT
ATOM      1  C   UNL A   1      35.537  22.792  23.546  1.00  0.00     0.023 C 
ENDROOT
BRANCH   1   2
ATOM      2  C   UNL A   1      34.486  22.557  24.628  1.00  0.00     0.116 C 
BRANCH   2   3
ATOM      3  N   UNL A   1      33.272  23.307  24.386  1.00  0.00    -0.356 N 
ATOM      4  O   UNL A   1      31.954  21.483  23.898  1.00  0.00    -0.275 OA
ATOM      5  C   UNL A   1      32.074  22.688  24.104  1.00  0.00     0.224 C 
ATOM      6  H   UNL A   1      33.303  24.291  24.424  1.00  0.00     0.163 HD
BRANCH   5   7
ATOM      7  C   UNL A   1      30.891  23.641  23.963  1.00  0.00     0.142 C 
BRANCH   7   8
ATOM      8  C   UNL A   1      30.985  25.027  24.540  1.00  0.00     0.043 A 
ATOM      9  C   UNL A   1      30.826  25.200  25.859  1.00  0.00     0.097 A 
ATOM     10  C   UNL A   1      31.272  26.244  23.720  1.00  0.00     0.260 A 
ATOM     11  N   UNL A   1      30.971  26.417  26.444  1.00  0.00    -0.314 N 
ATOM     12  N   UNL A   1      31.280  27.461  24.388  1.00  0.00    -0.256 N 
ATOM     13  O   UNL A   1      31.494  26.146  22.517  1.00  0.00    -0.269 OA
ATOM     14  C   UNL A   1      31.252  27.569  25.766  1.00  0.00     0.328 A 
ATOM     15  H   UNL A   1      30.867  26.473  27.422  1.00  0.00     0.171 HD
ATOM     16  O   UNL A   1      31.478  28.596  26.401  1.00  0.00    -0.248 OA
BRANCH  12  17
ATOM     17  C   UNL A   1      31.414  28.687  23.612  1.00  0.00     0.166 C 
BRANCH  17  18
ATOM     18  C   UNL A   1      30.083  29.396  23.431  1.00  0.00    -0.028 A 
ATOM     19  C   UNL A   1      29.873  30.666  23.992  1.00  0.00     0.005 A 
ATOM     20  C   UNL A   1      29.034  28.795  22.719  1.00  0.00     0.005 A 
ATOM     21  C   UNL A   1      28.646  31.317  23.854  1.00  0.00     0.000 A 
ATOM     22  C   UNL A   1      27.810  29.456  22.567  1.00  0.00     0.000 A 
ATOM     23  C   UNL A   1      27.616  30.713  23.140  1.00  0.00     0.000 A 
ENDBRANCH  17  18
ENDBRANCH  12  17
ENDBRANCH   7   8
ENDBRANCH   5   7
ENDBRANCH   2   3
ENDBRANCH   1   2
BRANCH   1  24
ATOM     24  C   UNL A   1      36.949  22.325  23.905  1.00  0.00     0.023 C 
BRANCH  24  25
ATOM     25  C   UNL A   1      37.198  22.048  25.382  1.00  0.00     0.116 C 
BRANCH  25  26
ATOM     26  N   UNL A   1      38.230  21.048  25.616  1.00  0.00    -0.352 N 
ATOM     27  C   UNL A   1      39.456  21.192  26.228  1.00  0.00     0.251 C 
ATOM     28  H   UNL A   1      38.022  20.142  25.291  1.00  0.00     0.163 HD
ATOM     29  O   UNL A   1      40.252  20.257  26.231  1.00  0.00    -0.269 OA
BRANCH  27  30
ATOM     30  C   UNL A   1      39.826  22.491  26.837  1.00  0.00     0.039 A 
ATOM     31  C   UNL A   1      39.218  23.676  26.418  1.00  0.00     0.014 A 
ATOM     32  C   UNL A   1      40.831  22.525  27.807  1.00  0.00     0.014 A 
ATOM     33  C   UNL A   1      39.739  24.899  26.828  1.00  0.00     0.010 A 
ATOM     34  C   UNL A   1      41.297  23.756  28.282  1.00  0.00     0.010 A 
ATOM     35  C   UNL A   1      40.798  24.956  27.752  1.00  0.00    -0.014 A 
BRANCH  35  36
ATOM     36  C   UNL A   1      41.371  26.276  28.132  1.00  0.00     0.031 A 
ATOM     37  C   UNL A   1      42.776  26.649  27.731  1.00  0.00     0.074 A 
ATOM     38  C   UNL A   1      40.600  27.168  28.784  1.00  0.00     0.049 A 
ATOM     39  N   UNL A   1      43.416  27.775  27.930  1.00  0.00    -0.248 NA
ATOM     40  C   UNL A   1      43.568  25.633  27.018  1.00  0.00     0.031 C 
ATOM     41  C   UNL A   1      39.222  26.922  29.211  1.00  0.00     0.029 A 
ATOM     42  N   UNL A   1      40.844  28.461  29.174  1.00  0.00    -0.354 N 
ATOM     43  C   UNL A   1      44.682  27.599  27.382  1.00  0.00     0.074 A 
ATOM     44  C   UNL A   1      44.735  26.247  26.873  1.00  0.00     0.031 C 
ATOM     45  C   UNL A   1      38.723  28.045  29.746  1.00  0.00     0.029 A 
ATOM     46  C   UNL A   1      39.761  29.072  29.765  1.00  0.00     0.049 A 
ATOM     47  H   UNL A   1      41.712  28.908  29.046  1.00  0.00     0.167 HD
ATOM     48  C   UNL A   1      45.699  28.490  27.297  1.00  0.00     0.034 A 
ATOM     49  C   UNL A   1      39.617  30.315  30.270  1.00  0.00     0.034 A 
ATOM     50  C   UNL A   1      45.626  29.844  27.785  1.00  0.00     0.049 A 
ATOM     51  C   UNL A   1      40.779  31.272  30.196  1.00  0.00     0.074 A 
ATOM     52  C   UNL A   1      46.598  30.828  27.716  1.00  0.00     0.029 A 
ATOM     53  N   UNL A   1      44.532  30.409  28.423  1.00  0.00    -0.354 N 
ATOM     54  N   UNL A   1      41.953  31.101  29.636  1.00  0.00    -0.248 NA
ATOM     55  C   UNL A   1      40.602  32.588  30.824  1.00  0.00     0.031 C 
ATOM     56  C   UNL A   1      46.114  31.966  28.361  1.00  0.00     0.029 A 
ATOM     57  C   UNL A   1      44.815  31.719  28.775  1.00  0.00     0.049 A 
ATOM     58  H   UNL A   1      43.681  29.947  28.599  1.00  0.00     0.167 HD
ATOM     59  C   UNL A   1      42.646  32.294  29.826  1.00  0.00     0.074 A 
ATOM     60  C   UNL A   1      41.749  33.187  30.529  1.00  0.00     0.031 C 
ATOM     61  C   UNL A   1      43.911  32.613  29.457  1.00  0.00     0.034 A 
BRANCH  48  62
ATOM     62  C   UNL A   1      46.987  28.064  26.635  1.00  0.00     0.023 A 
ATOM     63  C   UNL A   1      47.112  28.125  25.234  1.00  0.00     0.031 A 
ATOM     64  C   UNL A   1      48.021  27.460  27.370  1.00  0.00     0.131 A 
ATOM     65  C   UNL A   1      48.229  27.556  24.609  1.00  0.00     0.055 A 
ATOM     66  C   UNL A   1      49.151  26.928  26.746  1.00  0.00     0.041 A 
ATOM     67  F   UNL A   1      47.948  27.377  28.709  1.00  0.00    -0.206 F 
ATOM     68  C   UNL A   1      49.251  26.962  25.358  1.00  0.00     0.022 A 
BRANCH  65  69
ATOM     69  S   UNL A   1      48.369  27.503  22.802  1.00  0.00     0.124 S 
ATOM     70  O   UNL A   1      47.166  28.220  22.387  1.00  0.00    -0.237 OA
ATOM     71  O   UNL A   1      49.627  28.209  22.574  1.00  0.00    -0.237 OA
ATOM     72  O   UNL A   1      48.380  26.077  22.492  1.00  0.00    -0.744 OA
ENDBRANCH  65  69
ENDBRANCH  48  62
BRANCH  49  73
ATOM     73  C   UNL A   1      38.298  30.726  30.834  1.00  0.00     0.023 A 
ATOM     74  C   UNL A   1      37.326  31.349  30.031  1.00  0.00     0.031 A 
ATOM     75  C   UNL A   1      38.033  30.592  32.207  1.00  0.00     0.131 A 
ATOM     76  C   UNL A   1      36.172  31.880  30.620  1.00  0.00     0.055 A 
ATOM     77  C   UNL A   1      36.847  31.057  32.778  1.00  0.00     0.041 A 
ATOM     78  F   UNL A   1      38.935  30.015  33.017  1.00  0.00    -0.206 F 
ATOM     79  C   UNL A   1      35.917  31.722  31.985  1.00  0.00     0.022 A 
BRANCH  76  80
ATOM     80  S   UNL A   1      35.034  32.918  29.660  1.00  0.00     0.124 S 
ATOM     81  O   UNL A   1      35.945  33.880  29.047  1.00  0.00    -0.237 OA
ATOM     82  O   UNL A   1      34.438  31.944  28.750  1.00  0.00    -0.237 OA
ATOM     83  O   UNL A   1      34.128  33.458  30.668  1.00  0.00    -0.744 OA
ENDBRANCH  76  80
ENDBRANCH  49  73
BRANCH  61  84
ATOM     84  C   UNL A   1      44.435  33.990  29.784  1.00  0.00     0.023 A 
ATOM     85  C   UNL A   1      44.316  35.032  28.844  1.00  0.00     0.031 A 
ATOM     86  C   UNL A   1      45.188  34.228  30.947  1.00  0.00     0.131 A 
ATOM     87  C   UNL A   1      44.973  36.248  29.062  1.00  0.00     0.055 A 
ATOM     88  C   UNL A   1      45.804  35.458  31.181  1.00  0.00     0.041 A 
ATOM     89  F   UNL A   1      45.340  33.264  31.869  1.00  0.00    -0.206 F 
ATOM     90  C   UNL A   1      45.712  36.469  30.230  1.00  0.00     0.022 A 
BRANCH  87  91
ATOM     91  S   UNL A   1      44.974  37.552  27.800  1.00  0.00     0.124 S 
ATOM     92  O   UNL A   1      44.952  38.762  28.617  1.00  0.00    -0.237 OA
ATOM     93  O   UNL A   1      46.228  37.298  27.096  1.00  0.00    -0.237 OA
ATOM     94  O   UNL A   1      43.760  37.298  27.030  1.00  0.00    -0.744 OA
ENDBRANCH  87  91
ENDBRANCH  61  84
ENDBRANCH  35  36
ENDBRANCH  27  30
ENDBRANCH  25  26
ENDBRANCH  24  25
ENDBRANCH   1  24
TORSDOF 17
ENDMDL
MODEL 2
REMARK VINA RESULT:     -12.1      5.585     10.590
REMARK SMILES O=C(Cc1c[nH]c(=O)n(Cc2ccccc2)c1=O)NCCCCNC(=O)c1ccc(-c2c3nc(c(-c4cc(S(=O)(=O)[O-])ccc4F)c4ccc([nH]4)c(-c4cc(S(=O)(=O)[O-])ccc4F)c4nc(c(-c5cc(S(=O)(=O)[O-])ccc5F)c5ccc2[nH]5)C=C4)C=C3)cc1
REMARK SMILES IDX 21 1 20 2 19 3 1 4 2 5 3 7 4 8 5 9 17 10 6 11 9 12 18 13
REMARK SMILES IDX 7 14 8 16 10 17 11 18 12 19 16 20 13 21 15 22 14 23 22 24
REMARK SMILES IDX 23 25 24 26 25 27 26 29 27 30 28 31 89 32 29 33 88 34 30 35
REMARK SMILES IDX 31 36 32 37 82 38 33 39 87 40 81 41 83 42 34 43 86 44 80 45
REMARK SMILES IDX 79 46 35 48 67 49 47 50 66 51 48 52 51 53 65 54 84 55 49 56
REMARK SMILES IDX 50 57 64 59 85 60 52 61 36 62 37 63 45 64 38 65 44 66 46 67
REMARK SMILES IDX 43 68 39 69 40 70 41 71 42 72 68 73 69 74 77 75 70 76 76 77
REMARK SMILES IDX 78 78 75 79 71 80 72 81 73 82 74 83 53 84 54 85 62 86 55 87
REMARK SMILES IDX 61 88 63 89 60 90 56 91 57 92 58 93 59 94
REMARK H PARENT 19 6 6 15 24 28 83 47 51 58
REMARK Flexibility Score: inf
ROOT
ATOM      1  C   UNL A   1      32.339  29.952  26.643  1.00  0.00     0.023 C 
ENDROOT
BRANCH   1   2
ATOM      2  C   UNL A   1      32.684  29.532  25.217  1.00  0.00     0.116 C 
BRANCH   2   3
ATOM      3  N   UNL A   1      31.877  28.420  24.762  1.00  0.00    -0.356 N 
ATOM      4  O   UNL A   1      30.161  29.699  23.912  1.00  0.00    -0.275 OA
ATOM      5  C   UNL A   1      30.697  28.606  24.075  1.00  0.00     0.224 C 
ATOM      6  H   UNL A   1      32.180  27.502  24.949  1.00  0.00     0.163 HD
BRANCH   5   7
ATOM      7  C   UNL A   1      30.032  27.316  23.606  1.00  0.00     0.142 C 
BRANCH   7   8
ATOM      8  C   UNL A   1      30.329  26.028  24.324  1.00  0.00     0.043 A 
ATOM      9  C   UNL A   1      29.837  25.835  25.555  1.00  0.00     0.097 A 
ATOM     10  C   UNL A   1      31.137  24.919  23.729  1.00  0.00     0.260 A 
ATOM     11  N   UNL A   1      30.012  24.665  26.221  1.00  0.00    -0.314 N 
ATOM     12  N   UNL A   1      31.367  23.811  24.533  1.00  0.00    -0.256 N 
ATOM     13  O   UNL A   1      31.560  25.005  22.580  1.00  0.00    -0.269 OA
ATOM     14  C   UNL A   1      30.720  23.602  25.737  1.00  0.00     0.328 A 
ATOM     15  H   UNL A   1      29.603  24.577  27.112  1.00  0.00     0.171 HD
ATOM     16  O   UNL A   1      30.721  22.547  26.368  1.00  0.00    -0.248 OA
BRANCH  12  17
ATOM     17  C   UNL A   1      32.264  22.769  24.052  1.00  0.00     0.166 C 
BRANCH  17  18
ATOM     18  C   UNL A   1      33.723  23.123  24.280  1.00  0.00    -0.028 A 
ATOM     19  C   UNL A   1      34.679  22.871  23.282  1.00  0.00     0.005 A 
ATOM     20  C   UNL A   1      34.150  23.689  25.490  1.00  0.00     0.005 A 
ATOM     21  C   UNL A   1      36.027  23.169  23.489  1.00  0.00     0.000 A 
ATOM     22  C   UNL A   1      35.499  24.002  25.689  1.00  0.00     0.000 A 
ATOM     23  C   UNL A   1      36.436  23.736  24.692  1.00  0.00     0.000 A 
ENDBRANCH  17  18
ENDBRANCH  12  17
ENDBRANCH   7   8
ENDBRANCH   5   7
ENDBRANCH   2   3
ENDBRANCH   1   2
BRANCH   1  24
ATOM     24  C   UNL A   1      31.991  31.432  26.815  1.00  0.00     0.023 C 
BRANCH  24  25
ATOM     25  C   UNL A   1      33.114  32.318  27.341  1.00  0.00     0.116 C 
BRANCH  25  26
ATOM     26  N   UNL A   1      32.681  33.671  27.659  1.00  0.00    -0.352 N 
ATOM     27  C   UNL A   1      33.167  34.536  28.614  1.00  0.00     0.251 C 
ATOM     28  H   UNL A   1      31.936  34.015  27.114  1.00  0.00     0.163 HD
ATOM     29  O   UNL A   1      32.596  35.604  28.820  1.00  0.00    -0.269 OA
BRANCH  27  30
ATOM     30  C   UNL A   1      34.348  34.153  29.422  1.00  0.00     0.039 A 
ATOM     31  C   UNL A   1      35.639  34.468  28.994  1.00  0.00     0.014 A 
ATOM     32  C   UNL A   1      34.159  33.426  30.600  1.00  0.00     0.014 A 
ATOM     33  C   UNL A   1      36.735  33.901  29.638  1.00  0.00     0.010 A 
ATOM     34  C   UNL A   1      35.267  32.926  31.294  1.00  0.00     0.010 A 
ATOM     35  C   UNL A   1      36.563  33.108  30.786  1.00  0.00    -0.014 A 
BRANCH  35  36
ATOM     36  C   UNL A   1      37.747  32.470  31.422  1.00  0.00     0.031 A 
ATOM     37  C   UNL A   1      38.190  32.875  32.806  1.00  0.00     0.074 A 
ATOM     38  C   UNL A   1      38.389  31.477  30.777  1.00  0.00     0.049 A 
ATOM     39  N   UNL A   1      39.164  32.387  33.532  1.00  0.00    -0.248 NA
ATOM     40  C   UNL A   1      37.448  33.964  33.461  1.00  0.00     0.031 C 
ATOM     41  C   UNL A   1      38.042  30.993  29.440  1.00  0.00     0.029 A 
ATOM     42  N   UNL A   1      39.437  30.677  31.159  1.00  0.00    -0.354 N 
ATOM     43  C   UNL A   1      39.162  33.115  34.717  1.00  0.00     0.074 A 
ATOM     44  C   UNL A   1      38.111  34.101  34.602  1.00  0.00     0.031 C 
ATOM     45  C   UNL A   1      38.819  29.942  29.140  1.00  0.00     0.029 A 
ATOM     46  C   UNL A   1      39.765  29.717  30.229  1.00  0.00     0.049 A 
ATOM     47  H   UNL A   1      39.910  30.782  32.016  1.00  0.00     0.167 HD
ATOM     48  C   UNL A   1      39.951  32.961  35.808  1.00  0.00     0.034 A 
ATOM     49  C   UNL A   1      40.720  28.764  30.245  1.00  0.00     0.034 A 
ATOM     50  C   UNL A   1      40.979  31.958  35.922  1.00  0.00     0.049 A 
ATOM     51  C   UNL A   1      41.611  28.643  31.455  1.00  0.00     0.074 A 
ATOM     52  C   UNL A   1      41.810  31.709  37.002  1.00  0.00     0.029 A 
ATOM     53  N   UNL A   1      41.315  31.038  34.940  1.00  0.00    -0.354 N 
ATOM     54  N   UNL A   1      41.564  29.312  32.582  1.00  0.00    -0.248 NA
ATOM     55  C   UNL A   1      42.684  27.642  31.398  1.00  0.00     0.031 C 
ATOM     56  C   UNL A   1      42.684  30.679  36.652  1.00  0.00     0.029 A 
ATOM     57  C   UNL A   1      42.358  30.238  35.380  1.00  0.00     0.049 A 
ATOM     58  H   UNL A   1      40.878  30.965  34.062  1.00  0.00     0.167 HD
ATOM     59  C   UNL A   1      42.587  28.799  33.375  1.00  0.00     0.074 A 
ATOM     60  C   UNL A   1      43.218  27.746  32.608  1.00  0.00     0.031 C 
ATOM     61  C   UNL A   1      42.970  29.175  34.621  1.00  0.00     0.034 A 
BRANCH  48  62
ATOM     62  C   UNL A   1      39.744  33.874  36.992  1.00  0.00     0.023 A 
ATOM     63  C   UNL A   1      40.653  34.919  37.243  1.00  0.00     0.031 A 
ATOM     64  C   UNL A   1      38.744  33.618  37.946  1.00  0.00     0.131 A 
ATOM     65  C   UNL A   1      40.569  35.643  38.439  1.00  0.00     0.055 A 
ATOM     66  C   UNL A   1      38.641  34.368  39.119  1.00  0.00     0.041 A 
ATOM     67  F   UNL A   1      37.853  32.632  37.752  1.00  0.00    -0.206 F 
ATOM     68  C   UNL A   1      39.565  35.376  39.376  1.00  0.00     0.022 A 
BRANCH  65  69
ATOM     69  S   UNL A   1      41.795  36.912  38.858  1.00  0.00     0.124 S 
ATOM     70  O   UNL A   1      40.945  38.059  39.168  1.00  0.00    -0.237 OA
ATOM     71  O   UNL A   1      42.476  36.312  40.002  1.00  0.00    -0.237 OA
ATOM     72  O   UNL A   1      42.594  37.042  37.644  1.00  0.00    -0.744 OA
ENDBRANCH  65  69
ENDBRANCH  48  62
BRANCH  49  73
ATOM     73  C   UNL A   1      40.833  27.823  29.091  1.00  0.00     0.023 A 
ATOM     74  C   UNL A   1      41.778  28.035  28.070  1.00  0.00     0.031 A 
ATOM     75  C   UNL A   1      39.930  26.758  28.944  1.00  0.00     0.131 A 
ATOM     76  C   UNL A   1      41.747  27.242  26.917  1.00  0.00     0.055 A 
ATOM     77  C   UNL A   1      39.951  25.923  27.827  1.00  0.00     0.041 A 
ATOM     78  F   UNL A   1      39.003  26.523  29.886  1.00  0.00    -0.206 F 
ATOM     79  C   UNL A   1      40.852  26.175  26.796  1.00  0.00     0.022 A 
BRANCH  76  80
ATOM     80  S   UNL A   1      42.770  27.658  25.477  1.00  0.00     0.124 S 
ATOM     81  O   UNL A   1      42.110  28.859  24.974  1.00  0.00    -0.237 OA
ATOM     82  O   UNL A   1      44.079  27.866  26.092  1.00  0.00    -0.237 OA
ATOM     83  O   UNL A   1      42.666  26.476  24.629  1.00  0.00    -0.744 OA
ENDBRANCH  76  80
ENDBRANCH  49  73
BRANCH  61  84
ATOM     84  C   UNL A   1      44.124  28.452  35.272  1.00  0.00     0.023 A 
ATOM     85  C   UNL A   1      43.878  27.454  36.235  1.00  0.00     0.031 A 
ATOM     86  C   UNL A   1      45.453  28.858  35.061  1.00  0.00     0.131 A 
ATOM     87  C   UNL A   1      44.938  26.926  36.981  1.00  0.00     0.055 A 
ATOM     88  C   UNL A   1      46.512  28.296  35.775  1.00  0.00     0.041 A 
ATOM     89  F   UNL A   1      45.739  29.813  34.162  1.00  0.00    -0.206 F 
ATOM     90  C   UNL A   1      46.256  27.338  36.750  1.00  0.00     0.022 A 
BRANCH  87  91
ATOM     91  S   UNL A   1      44.640  25.759  38.337  1.00  0.00     0.124 S 
ATOM     92  O   UNL A   1      46.000  25.416  38.744  1.00  0.00    -0.237 OA
ATOM     93  O   UNL A   1      43.892  26.577  39.288  1.00  0.00    -0.237 OA
ATOM     94  O   UNL A   1      43.886  24.677  37.712  1.00  0.00    -0.744 OA
ENDBRANCH  87  91
ENDBRANCH  61  84
ENDBRANCH  35  36
ENDBRANCH  27  30
ENDBRANCH  25  26
ENDBRANCH  24  25
ENDBRANCH   1  24
TORSDOF 17
ENDMDL
MODEL 3
REMARK VINA RESULT:     -12.1      1.313      1.848
REMARK SMILES O=C(Cc1c[nH]c(=O)n(Cc2ccccc2)c1=O)NCCCCNC(=O)c1ccc(-c2c3nc(c(-c4cc(S(=O)(=O)[O-])ccc4F)c4ccc([nH]4)c(-c4cc(S(=O)(=O)[O-])ccc4F)c4nc(c(-c5cc(S(=O)(=O)[O-])ccc5F)c5ccc2[nH]5)C=C4)C=C3)cc1
REMARK SMILES IDX 21 1 20 2 19 3 1 4 2 5 3 7 4 8 5 9 17 10 6 11 9 12 18 13
REMARK SMILES IDX 7 14 8 16 10 17 11 18 12 19 16 20 13 21 15 22 14 23 22 24
REMARK SMILES IDX 23 25 24 26 25 27 26 29 27 30 28 31 89 32 29 33 88 34 30 35
REMARK SMILES IDX 31 36 32 37 82 38 33 39 87 40 81 41 83 42 34 43 86 44 80 45
REMARK SMILES IDX 79 46 35 48 67 49 47 50 66 51 48 52 51 53 65 54 84 55 49 56
REMARK SMILES IDX 50 57 64 59 85 60 52 61 36 62 37 63 45 64 38 65 44 66 46 67
REMARK SMILES IDX 43 68 39 69 40 70 41 71 42 72 68 73 69 74 77 75 70 76 76 77
REMARK SMILES IDX 78 78 75 79 71 80 72 81 73 82 74 83 53 84 54 85 62 86 55 87
REMARK SMILES IDX 61 88 63 89 60 90 56 91 57 92 58 93 59 94
REMARK H PARENT 19 6 6 15 24 28 83 47 51 58
REMARK Flexibility Score: inf
ROOT
ATOM      1  C   UNL A   1      34.857  20.706  25.536  1.00  0.00     0.023 C 
ENDROOT
BRANCH   1   2
ATOM      2  C   UNL A   1      33.651  20.005  24.917  1.00  0.00     0.116 C 
BRANCH   2   3
ATOM      3  N   UNL A   1      32.948  20.851  23.975  1.00  0.00    -0.356 N 
ATOM      4  O   UNL A   1      31.656  21.935  25.543  1.00  0.00    -0.275 OA
ATOM      5  C   UNL A   1      32.045  21.808  24.385  1.00  0.00     0.224 C 
ATOM      6  H   UNL A   1      33.122  20.740  23.013  1.00  0.00     0.163 HD
BRANCH   5   7
ATOM      7  C   UNL A   1      31.471  22.656  23.254  1.00  0.00     0.142 C 
BRANCH   7   8
ATOM      8  C   UNL A   1      31.946  24.072  23.077  1.00  0.00     0.043 A 
ATOM      9  C   UNL A   1      33.216  24.297  22.714  1.00  0.00     0.097 A 
ATOM     10  C   UNL A   1      31.067  25.267  23.265  1.00  0.00     0.260 A 
ATOM     11  N   UNL A   1      33.680  25.549  22.469  1.00  0.00    -0.314 N 
ATOM     12  N   UNL A   1      31.662  26.512  23.114  1.00  0.00    -0.256 N 
ATOM     13  O   UNL A   1      29.877  25.128  23.533  1.00  0.00    -0.269 OA
ATOM     14  C   UNL A   1      32.934  26.686  22.600  1.00  0.00     0.328 A 
ATOM     15  H   UNL A   1      34.616  25.645  22.179  1.00  0.00     0.171 HD
ATOM     16  O   UNL A   1      33.413  27.760  22.243  1.00  0.00    -0.248 OA
BRANCH  12  17
ATOM     17  C   UNL A   1      30.884  27.705  23.425  1.00  0.00     0.166 C 
BRANCH  17  18
ATOM     18  C   UNL A   1      31.266  28.299  24.769  1.00  0.00    -0.028 A 
ATOM     19  C   UNL A   1      31.482  29.681  24.898  1.00  0.00     0.005 A 
ATOM     20  C   UNL A   1      31.426  27.487  25.901  1.00  0.00     0.005 A 
ATOM     21  C   UNL A   1      31.857  30.237  26.122  1.00  0.00     0.000 A 
ATOM     22  C   UNL A   1      31.786  28.048  27.131  1.00  0.00     0.000 A 
ATOM     23  C   UNL A   1      32.007  29.421  27.238  1.00  0.00     0.000 A 
ENDBRANCH  17  18
ENDBRANCH  12  17
ENDBRANCH   7   8
ENDBRANCH   5   7
ENDBRANCH   2   3
ENDBRANCH   1   2
BRANCH   1  24
ATOM     24  C   UNL A   1      35.772  21.419  24.539  1.00  0.00     0.023 C 
BRANCH  24  25
ATOM     25  C   UNL A   1      37.079  21.955  25.110  1.00  0.00     0.116 C 
BRANCH  25  26
ATOM     26  N   UNL A   1      38.059  20.914  25.384  1.00  0.00    -0.352 N 
ATOM     27  C   UNL A   1      39.283  21.016  26.010  1.00  0.00     0.251 C 
ATOM     28  H   UNL A   1      37.812  20.011  25.081  1.00  0.00     0.163 HD
ATOM     29  O   UNL A   1      40.033  20.044  26.048  1.00  0.00    -0.269 OA
BRANCH  27  30
ATOM     30  C   UNL A   1      39.708  22.311  26.589  1.00  0.00     0.039 A 
ATOM     31  C   UNL A   1      39.163  23.512  26.129  1.00  0.00     0.014 A 
ATOM     32  C   UNL A   1      40.701  22.323  27.572  1.00  0.00     0.014 A 
ATOM     33  C   UNL A   1      39.738  24.720  26.514  1.00  0.00     0.010 A 
ATOM     34  C   UNL A   1      41.220  23.543  28.020  1.00  0.00     0.010 A 
ATOM     35  C   UNL A   1      40.786  24.751  27.451  1.00  0.00    -0.014 A 
BRANCH  35  36
ATOM     36  C   UNL A   1      41.418  26.051  27.803  1.00  0.00     0.031 A 
ATOM     37  C   UNL A   1      42.798  26.399  27.302  1.00  0.00     0.074 A 
ATOM     38  C   UNL A   1      40.721  26.951  28.524  1.00  0.00     0.049 A 
ATOM     39  N   UNL A   1      43.477  27.506  27.466  1.00  0.00    -0.248 NA
ATOM     40  C   UNL A   1      43.508  25.376  26.517  1.00  0.00     0.031 C 
ATOM     41  C   UNL A   1      39.374  26.730  29.052  1.00  0.00     0.029 A 
ATOM     42  N   UNL A   1      41.025  28.232  28.912  1.00  0.00    -0.354 N 
ATOM     43  C   UNL A   1      44.693  27.309  26.821  1.00  0.00     0.074 A 
ATOM     44  C   UNL A   1      44.675  25.965  26.291  1.00  0.00     0.031 C 
ATOM     45  C   UNL A   1      38.944  27.856  29.638  1.00  0.00     0.029 A 
ATOM     46  C   UNL A   1      40.005  28.859  29.592  1.00  0.00     0.049 A 
ATOM     47  H   UNL A   1      41.891  28.661  28.723  1.00  0.00     0.167 HD
ATOM     48  C   UNL A   1      45.722  28.178  26.670  1.00  0.00     0.034 A 
ATOM     49  C   UNL A   1      39.929  30.097  30.122  1.00  0.00     0.034 A 
ATOM     50  C   UNL A   1      45.719  29.526  27.181  1.00  0.00     0.049 A 
ATOM     51  C   UNL A   1      41.105  31.028  29.973  1.00  0.00     0.074 A 
ATOM     52  C   UNL A   1      46.706  30.488  27.051  1.00  0.00     0.029 A 
ATOM     53  N   UNL A   1      44.690  30.106  27.907  1.00  0.00    -0.354 N 
ATOM     54  N   UNL A   1      42.228  30.839  29.323  1.00  0.00    -0.248 NA
ATOM     55  C   UNL A   1      41.008  32.338  30.630  1.00  0.00     0.031 C 
ATOM     56  C   UNL A   1      46.300  31.628  27.745  1.00  0.00     0.029 A 
ATOM     57  C   UNL A   1      45.030  31.404  28.254  1.00  0.00     0.049 A 
ATOM     58  H   UNL A   1      43.844  29.661  28.142  1.00  0.00     0.167 HD
ATOM     59  C   UNL A   1      42.962  32.013  29.475  1.00  0.00     0.074 A 
ATOM     60  C   UNL A   1      42.143  32.915  30.257  1.00  0.00     0.031 C 
ATOM     61  C   UNL A   1      44.203  32.308  29.015  1.00  0.00     0.034 A 
BRANCH  48  62
ATOM     62  C   UNL A   1      46.945  27.733  25.906  1.00  0.00     0.023 A 
ATOM     63  C   UNL A   1      47.091  28.075  24.548  1.00  0.00     0.031 A 
ATOM     64  C   UNL A   1      47.880  26.851  26.474  1.00  0.00     0.131 A 
ATOM     65  C   UNL A   1      48.124  27.506  23.794  1.00  0.00     0.055 A 
ATOM     66  C   UNL A   1      48.932  26.317  25.727  1.00  0.00     0.041 A 
ATOM     67  F   UNL A   1      47.785  26.494  27.765  1.00  0.00    -0.206 F 
ATOM     68  C   UNL A   1      49.049  26.633  24.377  1.00  0.00     0.022 A 
BRANCH  65  69
ATOM     69  S   UNL A   1      48.273  27.823  22.014  1.00  0.00     0.124 S 
ATOM     70  O   UNL A   1      48.307  26.467  21.471  1.00  0.00    -0.237 OA
ATOM     71  O   UNL A   1      47.053  28.575  21.736  1.00  0.00    -0.237 OA
ATOM     72  O   UNL A   1      49.520  28.571  21.893  1.00  0.00    -0.744 OA
ENDBRANCH  65  69
ENDBRANCH  48  62
BRANCH  49  73
ATOM     73  C   UNL A   1      38.667  30.529  30.792  1.00  0.00     0.023 A 
ATOM     74  C   UNL A   1      37.612  31.099  30.056  1.00  0.00     0.031 A 
ATOM     75  C   UNL A   1      38.541  30.471  32.190  1.00  0.00     0.131 A 
ATOM     76  C   UNL A   1      36.515  31.653  30.726  1.00  0.00     0.055 A 
ATOM     77  C   UNL A   1      37.411  30.959  32.848  1.00  0.00     0.041 A 
ATOM     78  F   UNL A   1      39.526  29.948  32.936  1.00  0.00    -0.206 F 
ATOM     79  C   UNL A   1      36.399  31.572  32.116  1.00  0.00     0.022 A 
BRANCH  76  80
ATOM     80  S   UNL A   1      35.275  32.627  29.827  1.00  0.00     0.124 S 
ATOM     81  O   UNL A   1      34.294  32.907  30.871  1.00  0.00    -0.237 OA
ATOM     82  O   UNL A   1      36.064  33.771  29.376  1.00  0.00    -0.237 OA
ATOM     83  O   UNL A   1      34.833  31.725  28.768  1.00  0.00    -0.744 OA
ENDBRANCH  76  80
ENDBRANCH  49  73
BRANCH  61  84
ATOM     84  C   UNL A   1      44.783  33.667  29.320  1.00  0.00     0.023 A 
ATOM     85  C   UNL A   1      44.462  34.770  28.503  1.00  0.00     0.031 A 
ATOM     86  C   UNL A   1      45.768  33.837  30.307  1.00  0.00     0.131 A 
ATOM     87  C   UNL A   1      45.149  35.979  28.661  1.00  0.00     0.055 A 
ATOM     88  C   UNL A   1      46.418  35.057  30.491  1.00  0.00     0.041 A 
ATOM     89  F   UNL A   1      46.117  32.813  31.103  1.00  0.00    -0.206 F 
ATOM     90  C   UNL A   1      46.122  36.130  29.656  1.00  0.00     0.022 A 
BRANCH  87  91
ATOM     91  S   UNL A   1      44.877  37.367  27.526  1.00  0.00     0.124 S 
ATOM     92  O   UNL A   1      44.776  38.496  28.447  1.00  0.00    -0.237 OA
ATOM     93  O   UNL A   1      46.085  37.336  26.706  1.00  0.00    -0.237 OA
ATOM     94  O   UNL A   1      43.640  37.018  26.833  1.00  0.00    -0.744 OA
ENDBRANCH  87  91
ENDBRANCH  61  84
ENDBRANCH  35  36
ENDBRANCH  27  30
ENDBRANCH  25  26
ENDBRANCH  24  25
ENDBRANCH   1  24
TORSDOF 17
ENDMDL
