MODEL 1
REMARK VINA RESULT:     -12.3      0.000      0.000
REMARK SMILES Cc1ccnc(C(=O)c2[nH]c3ccc(F)cc3c2CC(=O)NCCCCNC(=O)c2ccc(-c3c4nc(c(-c5cc(S(=O)(=O)[O-])ccc5F)c5ccc([nH]5)c(-c5cc(S(=O)(=O)[O-])ccc5F)c5nc(c(-c6cc(S(=O)(=O)[O-])ccc6F)c6ccc3[nH]6)C=C5)C=C4)cc2)c1
REMARK SMILES IDX 24 1 23 2 22 3 20 4 21 5 19 7 18 8 9 9 10 10 11 11 17 13
REMARK SMILES IDX 12 14 16 15 13 16 14 17 15 18 7 19 8 20 6 21 1 22 2 23 3 24
REMARK SMILES IDX 93 25 4 26 5 27 25 28 26 29 27 30 28 31 29 33 30 34 31 35
REMARK SMILES IDX 92 36 32 37 91 38 33 39 34 40 35 41 85 42 36 43 90 44 84 45
REMARK SMILES IDX 86 46 37 47 89 48 83 49 82 50 38 52 70 53 50 54 69 55 51 56
REMARK SMILES IDX 54 57 68 58 87 59 52 60 53 61 67 63 88 64 55 65 39 66 40 67
REMARK SMILES IDX 48 68 41 69 47 70 49 71 46 72 42 73 43 74 44 75 45 76 71 77
REMARK SMILES IDX 72 78 80 79 73 80 79 81 81 82 78 83 74 84 75 85 76 86 77 87
REMARK SMILES IDX 56 88 57 89 65 90 58 91 64 92 66 93 63 94 59 95 60 96 61 97
REMARK SMILES IDX 62 98
REMARK H PARENT 22 6 10 12 27 32 86 51 54 62
REMARK Flexibility Score: inf
ROOT
ATOM      1  C   UNL A   1      36.567  20.249  24.945  1.00  0.00     0.023 C 
ENDROOT
BRANCH   1   2
ATOM      2  C   UNL A   1      36.215  21.694  25.306  1.00  0.00     0.116 C 
BRANCH   2   3
ATOM      3  N   UNL A   1      35.606  22.456  24.234  1.00  0.00    -0.356 N 
ATOM      4  C   UNL A   1      35.184  23.752  24.191  1.00  0.00     0.224 C 
ATOM      5  O   UNL A   1      34.896  24.208  23.079  1.00  0.00    -0.275 OA
ATOM      6  H   UNL A   1      35.476  21.954  23.398  1.00  0.00     0.163 HD
BRANCH   4   7
ATOM      7  C   UNL A   1      35.124  24.646  25.415  1.00  0.00     0.138 C 
BRANCH   7   8
ATOM      8  C   UNL A   1      33.759  25.009  25.926  1.00  0.00    -0.002 A 
ATOM      9  C   UNL A   1      32.773  24.196  26.493  1.00  0.00     0.093 A 
ATOM     10  N   UNL A   1      31.666  24.997  26.698  1.00  0.00    -0.352 N 
ATOM     11  C   UNL A   1      31.908  26.297  26.346  1.00  0.00     0.046 A 
ATOM     12  H   UNL A   1      30.808  24.672  27.052  1.00  0.00     0.167 HD
ATOM     13  C   UNL A   1      33.181  26.329  25.787  1.00  0.00     0.007 A 
ATOM     14  C   UNL A   1      31.090  27.430  26.462  1.00  0.00     0.030 A 
ATOM     15  C   UNL A   1      33.642  27.556  25.261  1.00  0.00     0.049 A 
ATOM     16  C   UNL A   1      31.593  28.641  25.983  1.00  0.00     0.041 A 
ATOM     17  C   UNL A   1      32.843  28.692  25.383  1.00  0.00     0.123 A 
ATOM     18  F   UNL A   1      33.301  29.864  24.922  1.00  0.00    -0.207 F 
BRANCH   9  19
ATOM     19  C   UNL A   1      32.648  22.769  26.785  1.00  0.00     0.227 C 
ATOM     20  O   UNL A   1      32.680  22.395  27.958  1.00  0.00    -0.285 OA
BRANCH  19  21
ATOM     21  C   UNL A   1      32.622  21.722  25.707  1.00  0.00     0.113 A 
ATOM     22  C   UNL A   1      32.997  17.982  25.165  1.00  0.00     0.044 C 
ATOM     23  C   UNL A   1      32.738  19.442  24.943  1.00  0.00    -0.047 A 
ATOM     24  C   UNL A   1      32.421  19.900  23.665  1.00  0.00     0.023 A 
ATOM     25  C   UNL A   1      32.784  20.370  25.991  1.00  0.00     0.036 A 
ATOM     26  C   UNL A   1      32.215  21.256  23.480  1.00  0.00     0.112 A 
ATOM     27  N   UNL A   1      32.319  22.175  24.462  1.00  0.00    -0.253 NA
ENDBRANCH  19  21
ENDBRANCH   9  19
ENDBRANCH   7   8
ENDBRANCH   4   7
ENDBRANCH   2   3
ENDBRANCH   1   2
BRANCH   1  28
ATOM     28  C   UNL A   1      38.044  19.920  24.718  1.00  0.00     0.023 C 
BRANCH  28  29
ATOM     29  C   UNL A   1      38.987  20.242  25.866  1.00  0.00     0.116 C 
BRANCH  29  30
ATOM     30  N   UNL A   1      40.071  19.286  25.971  1.00  0.00    -0.352 N 
ATOM     31  C   UNL A   1      41.410  19.514  26.172  1.00  0.00     0.251 C 
ATOM     32  H   UNL A   1      39.810  18.340  25.887  1.00  0.00     0.163 HD
ATOM     33  O   UNL A   1      42.198  18.580  26.067  1.00  0.00    -0.269 OA
BRANCH  31  34
ATOM     34  C   UNL A   1      41.903  20.879  26.478  1.00  0.00     0.039 A 
ATOM     35  C   UNL A   1      42.086  21.771  25.418  1.00  0.00     0.014 A 
ATOM     36  C   UNL A   1      42.205  21.275  27.785  1.00  0.00     0.014 A 
ATOM     37  C   UNL A   1      42.522  23.074  25.673  1.00  0.00     0.010 A 
ATOM     38  C   UNL A   1      42.587  22.593  28.043  1.00  0.00     0.010 A 
ATOM     39  C   UNL A   1      42.752  23.504  26.989  1.00  0.00    -0.014 A 
BRANCH  39  40
ATOM     40  C   UNL A   1      43.154  24.908  27.269  1.00  0.00     0.031 A 
ATOM     41  C   UNL A   1      42.194  25.860  27.928  1.00  0.00     0.074 A 
ATOM     42  C   UNL A   1      44.375  25.333  26.892  1.00  0.00     0.049 A 
ATOM     43  N   UNL A   1      42.359  27.122  28.233  1.00  0.00    -0.248 NA
ATOM     44  C   UNL A   1      40.866  25.327  28.267  1.00  0.00     0.031 C 
ATOM     45  C   UNL A   1      45.378  24.515  26.205  1.00  0.00     0.029 A 
ATOM     46  N   UNL A   1      44.982  26.555  27.028  1.00  0.00    -0.354 N 
ATOM     47  C   UNL A   1      41.156  27.539  28.794  1.00  0.00     0.074 A 
ATOM     48  C   UNL A   1      40.254  26.407  28.732  1.00  0.00     0.031 C 
ATOM     49  C   UNL A   1      46.480  25.253  25.999  1.00  0.00     0.029 A 
ATOM     50  C   UNL A   1      46.254  26.602  26.508  1.00  0.00     0.049 A 
ATOM     51  H   UNL A   1      44.547  27.327  27.458  1.00  0.00     0.167 HD
ATOM     52  C   UNL A   1      40.841  28.745  29.330  1.00  0.00     0.034 A 
ATOM     53  C   UNL A   1      47.138  27.617  26.442  1.00  0.00     0.034 A 
ATOM     54  C   UNL A   1      41.753  29.863  29.390  1.00  0.00     0.049 A 
ATOM     55  C   UNL A   1      46.762  28.950  27.036  1.00  0.00     0.074 A 
ATOM     56  C   UNL A   1      41.556  31.109  29.960  1.00  0.00     0.029 A 
ATOM     57  N   UNL A   1      43.034  29.875  28.852  1.00  0.00    -0.354 N 
ATOM     58  N   UNL A   1      45.640  29.310  27.614  1.00  0.00    -0.248 NA
ATOM     59  C   UNL A   1      47.780  30.006  26.980  1.00  0.00     0.031 C 
ATOM     60  C   UNL A   1      42.690  31.893  29.712  1.00  0.00     0.029 A 
ATOM     61  C   UNL A   1      43.625  31.115  29.048  1.00  0.00     0.049 A 
ATOM     62  H   UNL A   1      43.461  29.114  28.396  1.00  0.00     0.167 HD
ATOM     63  C   UNL A   1      45.827  30.632  28.010  1.00  0.00     0.074 A 
ATOM     64  C   UNL A   1      47.176  30.992  27.626  1.00  0.00     0.031 C 
ATOM     65  C   UNL A   1      44.962  31.472  28.635  1.00  0.00     0.034 A 
BRANCH  52  66
ATOM     66  C   UNL A   1      39.440  28.919  29.869  1.00  0.00     0.023 A 
ATOM     67  C   UNL A   1      38.415  29.489  29.092  1.00  0.00     0.031 A 
ATOM     68  C   UNL A   1      39.129  28.536  31.185  1.00  0.00     0.131 A 
ATOM     69  C   UNL A   1      37.155  29.727  29.660  1.00  0.00     0.055 A 
ATOM     70  C   UNL A   1      37.850  28.702  31.719  1.00  0.00     0.041 A 
ATOM     71  F   UNL A   1      40.070  28.005  31.983  1.00  0.00    -0.206 F 
ATOM     72  C   UNL A   1      36.857  29.316  30.960  1.00  0.00     0.022 A 
BRANCH  69  73
ATOM     73  S   UNL A   1      35.954  30.710  28.721  1.00  0.00     0.124 S 
ATOM     74  O   UNL A   1      36.831  31.576  27.938  1.00  0.00    -0.237 OA
ATOM     75  O   UNL A   1      35.227  29.691  27.973  1.00  0.00    -0.237 OA
ATOM     76  O   UNL A   1      35.183  31.393  29.759  1.00  0.00    -0.744 OA
ENDBRANCH  69  73
ENDBRANCH  52  66
BRANCH  53  77
ATOM     77  C   UNL A   1      48.461  27.422  25.787  1.00  0.00     0.023 A 
ATOM     78  C   UNL A   1      48.607  27.555  24.397  1.00  0.00     0.031 A 
ATOM     79  C   UNL A   1      49.593  27.062  26.540  1.00  0.00     0.131 A 
ATOM     80  C   UNL A   1      49.845  27.285  23.796  1.00  0.00     0.055 A 
ATOM     81  C   UNL A   1      50.834  26.840  25.942  1.00  0.00     0.041 A 
ATOM     82  F   UNL A   1      49.508  26.931  27.873  1.00  0.00    -0.206 F 
ATOM     83  C   UNL A   1      50.962  26.939  24.560  1.00  0.00     0.022 A 
BRANCH  80  84
ATOM     84  S   UNL A   1      49.957  27.319  21.986  1.00  0.00     0.124 S 
ATOM     85  O   UNL A   1      51.323  26.858  21.763  1.00  0.00    -0.237 OA
ATOM     86  O   UNL A   1      48.897  26.394  21.602  1.00  0.00    -0.237 OA
ATOM     87  O   UNL A   1      49.708  28.721  21.656  1.00  0.00    -0.744 OA
ENDBRANCH  80  84
ENDBRANCH  53  77
BRANCH  65  88
ATOM     88  C   UNL A   1      45.475  32.855  28.956  1.00  0.00     0.023 A 
ATOM     89  C   UNL A   1      45.327  33.923  28.052  1.00  0.00     0.031 A 
ATOM     90  C   UNL A   1      46.159  33.098  30.160  1.00  0.00     0.131 A 
ATOM     91  C   UNL A   1      45.913  35.165  28.335  1.00  0.00     0.055 A 
ATOM     92  C   UNL A   1      46.686  34.354  30.464  1.00  0.00     0.041 A 
ATOM     93  F   UNL A   1      46.332  32.116  31.058  1.00  0.00    -0.206 F 
ATOM     94  C   UNL A   1      46.580  35.391  29.542  1.00  0.00     0.022 A 
BRANCH  91  95
ATOM     95  S   UNL A   1      45.891  36.449  27.054  1.00  0.00     0.124 S 
ATOM     96  O   UNL A   1      46.650  37.523  27.687  1.00  0.00    -0.237 OA
ATOM     97  O   UNL A   1      46.545  35.782  25.934  1.00  0.00    -0.237 OA
ATOM     98  O   UNL A   1      44.467  36.723  26.867  1.00  0.00    -0.744 OA
ENDBRANCH  91  95
ENDBRANCH  65  88
ENDBRANCH  39  40
ENDBRANCH  31  34
ENDBRANCH  29  30
ENDBRANCH  28  29
ENDBRANCH   1  28
TORSDOF 17
ENDMDL
MODEL 2
REMARK VINA RESULT:     -12.3      5.384      8.938
REMARK SMILES Cc1ccnc(C(=O)c2[nH]c3ccc(F)cc3c2CC(=O)NCCCCNC(=O)c2ccc(-c3c4nc(c(-c5cc(S(=O)(=O)[O-])ccc5F)c5ccc([nH]5)c(-c5cc(S(=O)(=O)[O-])ccc5F)c5nc(c(-c6cc(S(=O)(=O)[O-])ccc6F)c6ccc3[nH]6)C=C5)C=C4)cc2)c1
REMARK SMILES IDX 24 1 23 2 22 3 20 4 21 5 19 7 18 8 9 9 10 10 11 11 17 13
REMARK SMILES IDX 12 14 16 15 13 16 14 17 15 18 7 19 8 20 6 21 1 22 2 23 3 24
REMARK SMILES IDX 93 25 4 26 5 27 25 28 26 29 27 30 28 31 29 33 30 34 31 35
REMARK SMILES IDX 92 36 32 37 91 38 33 39 34 40 35 41 85 42 36 43 90 44 84 45
REMARK SMILES IDX 86 46 37 47 89 48 83 49 82 50 38 52 70 53 50 54 69 55 51 56
REMARK SMILES IDX 54 57 68 58 87 59 52 60 53 61 67 63 88 64 55 65 39 66 40 67
REMARK SMILES IDX 48 68 41 69 47 70 49 71 46 72 42 73 43 74 44 75 45 76 71 77
REMARK SMILES IDX 72 78 80 79 73 80 79 81 81 82 78 83 74 84 75 85 76 86 77 87
REMARK SMILES IDX 56 88 57 89 65 90 58 91 64 92 66 93 63 94 59 95 60 96 61 97
REMARK SMILES IDX 62 98
REMARK H PARENT 22 6 10 12 27 32 86 51 54 62
REMARK Flexibility Score: inf
ROOT
ATOM      1  C   UNL A   1      31.829  28.063  27.466  1.00  0.00     0.023 C 
ENDROOT
BRANCH   1   2
ATOM      2  C   UNL A   1      31.828  26.982  26.383  1.00  0.00     0.116 C 
BRANCH   2   3
ATOM      3  N   UNL A   1      31.269  25.710  26.797  1.00  0.00    -0.356 N 
ATOM      4  C   UNL A   1      31.750  24.441  26.666  1.00  0.00     0.224 C 
ATOM      5  O   UNL A   1      31.167  23.555  27.300  1.00  0.00    -0.275 OA
ATOM      6  H   UNL A   1      30.397  25.774  27.249  1.00  0.00     0.163 HD
BRANCH   4   7
ATOM      7  C   UNL A   1      32.982  24.101  25.846  1.00  0.00     0.138 C 
BRANCH   7   8
ATOM      8  C   UNL A   1      32.756  23.386  24.544  1.00  0.00    -0.002 A 
ATOM      9  C   UNL A   1      32.559  23.908  23.262  1.00  0.00     0.093 A 
ATOM     10  N   UNL A   1      32.296  22.835  22.433  1.00  0.00    -0.352 N 
ATOM     11  C   UNL A   1      32.372  21.644  23.102  1.00  0.00     0.046 A 
ATOM     12  H   UNL A   1      32.079  22.917  21.477  1.00  0.00     0.167 HD
ATOM     13  C   UNL A   1      32.583  21.952  24.442  1.00  0.00     0.007 A 
ATOM     14  C   UNL A   1      32.249  20.332  22.625  1.00  0.00     0.030 A 
ATOM     15  C   UNL A   1      32.615  20.888  25.369  1.00  0.00     0.049 A 
ATOM     16  C   UNL A   1      32.340  19.295  23.557  1.00  0.00     0.041 A 
ATOM     17  C   UNL A   1      32.508  19.578  24.904  1.00  0.00     0.123 A 
ATOM     18  F   UNL A   1      32.583  18.567  25.781  1.00  0.00    -0.207 F 
BRANCH   9  19
ATOM     19  C   UNL A   1      32.470  25.251  22.692  1.00  0.00     0.227 C 
ATOM     20  O   UNL A   1      33.441  25.706  22.085  1.00  0.00    -0.285 OA
BRANCH  19  21
ATOM     21  C   UNL A   1      31.297  26.157  22.935  1.00  0.00     0.113 A 
ATOM     22  C   UNL A   1      30.013  29.651  22.179  1.00  0.00     0.044 C 
ATOM     23  C   UNL A   1      30.106  28.231  22.650  1.00  0.00    -0.047 A 
ATOM     24  C   UNL A   1      29.039  27.662  23.344  1.00  0.00     0.023 A 
ATOM     25  C   UNL A   1      31.233  27.439  22.397  1.00  0.00     0.036 A 
ATOM     26  C   UNL A   1      29.160  26.359  23.794  1.00  0.00     0.112 A 
ATOM     27  N   UNL A   1      30.262  25.601  23.619  1.00  0.00    -0.253 NA
ENDBRANCH  19  21
ENDBRANCH   9  19
ENDBRANCH   7   8
ENDBRANCH   4   7
ENDBRANCH   2   3
ENDBRANCH   1   2
BRANCH   1  28
ATOM     28  C   UNL A   1      31.997  29.514  27.011  1.00  0.00     0.023 C 
BRANCH  28  29
ATOM     29  C   UNL A   1      33.417  30.059  27.018  1.00  0.00     0.116 C 
BRANCH  29  30
ATOM     30  N   UNL A   1      33.467  31.458  27.396  1.00  0.00    -0.352 N 
ATOM     31  C   UNL A   1      34.385  32.109  28.182  1.00  0.00     0.251 C 
ATOM     32  H   UNL A   1      32.740  32.019  27.039  1.00  0.00     0.163 HD
ATOM     33  O   UNL A   1      34.165  33.266  28.524  1.00  0.00    -0.269 OA
BRANCH  31  34
ATOM     34  C   UNL A   1      35.611  31.413  28.640  1.00  0.00     0.039 A 
ATOM     35  C   UNL A   1      36.848  32.008  28.381  1.00  0.00     0.014 A 
ATOM     36  C   UNL A   1      35.555  30.179  29.297  1.00  0.00     0.014 A 
ATOM     37  C   UNL A   1      38.023  31.395  28.822  1.00  0.00     0.010 A 
ATOM     38  C   UNL A   1      36.724  29.595  29.786  1.00  0.00     0.010 A 
ATOM     39  C   UNL A   1      37.970  30.196  29.551  1.00  0.00    -0.014 A 
BRANCH  39  40
ATOM     40  C   UNL A   1      39.213  29.573  30.077  1.00  0.00     0.031 A 
ATOM     41  C   UNL A   1      39.871  30.113  31.318  1.00  0.00     0.074 A 
ATOM     42  C   UNL A   1      39.769  28.542  29.412  1.00  0.00     0.049 A 
ATOM     43  N   UNL A   1      40.966  29.715  31.913  1.00  0.00    -0.248 NA
ATOM     44  C   UNL A   1      39.224  31.267  31.957  1.00  0.00     0.031 C 
ATOM     45  C   UNL A   1      39.248  27.960  28.173  1.00  0.00     0.029 A 
ATOM     46  N   UNL A   1      40.894  27.804  29.677  1.00  0.00    -0.354 N 
ATOM     47  C   UNL A   1      41.145  30.571  32.995  1.00  0.00     0.074 A 
ATOM     48  C   UNL A   1      40.074  31.545  32.935  1.00  0.00     0.031 C 
ATOM     49  C   UNL A   1      40.040  26.943  27.799  1.00  0.00     0.029 A 
ATOM     50  C   UNL A   1      41.141  26.820  28.749  1.00  0.00     0.049 A 
ATOM     51  H   UNL A   1      41.470  27.964  30.460  1.00  0.00     0.167 HD
ATOM     52  C   UNL A   1      42.100  30.536  33.959  1.00  0.00     0.034 A 
ATOM     53  C   UNL A   1      42.143  25.922  28.669  1.00  0.00     0.034 A 
ATOM     54  C   UNL A   1      43.158  29.554  34.008  1.00  0.00     0.049 A 
ATOM     55  C   UNL A   1      43.197  25.907  29.746  1.00  0.00     0.074 A 
ATOM     56  C   UNL A   1      44.142  29.393  34.968  1.00  0.00     0.029 A 
ATOM     57  N   UNL A   1      43.379  28.572  33.050  1.00  0.00    -0.354 N 
ATOM     58  N   UNL A   1      43.318  26.689  30.794  1.00  0.00    -0.248 NA
ATOM     59  C   UNL A   1      44.238  24.879  29.634  1.00  0.00     0.031 C 
ATOM     60  C   UNL A   1      44.992  28.357  34.560  1.00  0.00     0.029 A 
ATOM     61  C   UNL A   1      44.500  27.824  33.380  1.00  0.00     0.049 A 
ATOM     62  H   UNL A   1      42.821  28.428  32.252  1.00  0.00     0.167 HD
ATOM     63  C   UNL A   1      44.441  26.231  31.478  1.00  0.00     0.074 A 
ATOM     64  C   UNL A   1      44.941  25.092  30.737  1.00  0.00     0.031 C 
ATOM     65  C   UNL A   1      45.006  26.708  32.617  1.00  0.00     0.034 A 
BRANCH  52  66
ATOM     66  C   UNL A   1      42.052  31.609  35.022  1.00  0.00     0.023 A 
ATOM     67  C   UNL A   1      41.059  31.617  36.018  1.00  0.00     0.031 A 
ATOM     68  C   UNL A   1      42.994  32.652  35.025  1.00  0.00     0.131 A 
ATOM     69  C   UNL A   1      40.986  32.683  36.926  1.00  0.00     0.055 A 
ATOM     70  C   UNL A   1      42.964  33.668  35.982  1.00  0.00     0.041 A 
ATOM     71  F   UNL A   1      43.954  32.709  34.088  1.00  0.00    -0.206 F 
ATOM     72  C   UNL A   1      41.946  33.697  36.931  1.00  0.00     0.022 A 
BRANCH  69  73
ATOM     73  S   UNL A   1      39.536  32.801  38.009  1.00  0.00     0.124 S 
ATOM     74  O   UNL A   1      39.054  34.147  37.711  1.00  0.00    -0.237 OA
ATOM     75  O   UNL A   1      38.701  31.702  37.538  1.00  0.00    -0.237 OA
ATOM     76  O   UNL A   1      40.094  32.630  39.350  1.00  0.00    -0.744 OA
ENDBRANCH  69  73
ENDBRANCH  52  66
BRANCH  53  77
ATOM     77  C   UNL A   1      42.207  24.966  27.529  1.00  0.00     0.023 A 
ATOM     78  C   UNL A   1      41.507  23.750  27.565  1.00  0.00     0.031 A 
ATOM     79  C   UNL A   1      43.002  25.239  26.401  1.00  0.00     0.131 A 
ATOM     80  C   UNL A   1      41.650  22.831  26.515  1.00  0.00     0.055 A 
ATOM     81  C   UNL A   1      43.103  24.341  25.338  1.00  0.00     0.041 A 
ATOM     82  F   UNL A   1      43.684  26.392  26.314  1.00  0.00    -0.206 F 
ATOM     83  C   UNL A   1      42.435  23.122  25.397  1.00  0.00     0.022 A 
BRANCH  80  84
ATOM     84  S   UNL A   1      40.852  21.209  26.667  1.00  0.00     0.124 S 
ATOM     85  O   UNL A   1      39.596  21.428  25.957  1.00  0.00    -0.237 OA
ATOM     86  O   UNL A   1      41.817  20.336  26.009  1.00  0.00    -0.237 OA
ATOM     87  O   UNL A   1      40.730  21.023  28.111  1.00  0.00    -0.744 OA
ENDBRANCH  80  84
ENDBRANCH  53  77
BRANCH  65  88
ATOM     88  C   UNL A   1      46.219  25.969  33.130  1.00  0.00     0.023 A 
ATOM     89  C   UNL A   1      46.099  24.875  34.005  1.00  0.00     0.031 A 
ATOM     90  C   UNL A   1      47.512  26.392  32.773  1.00  0.00     0.131 A 
ATOM     91  C   UNL A   1      47.249  24.284  34.549  1.00  0.00     0.055 A 
ATOM     92  C   UNL A   1      48.654  25.759  33.269  1.00  0.00     0.041 A 
ATOM     93  F   UNL A   1      47.687  27.432  31.943  1.00  0.00    -0.206 F 
ATOM     94  C   UNL A   1      48.526  24.711  34.175  1.00  0.00     0.022 A 
BRANCH  91  95
ATOM     95  S   UNL A   1      47.053  23.025  35.839  1.00  0.00     0.124 S 
ATOM     96  O   UNL A   1      47.818  23.597  36.942  1.00  0.00    -0.237 OA
ATOM     97  O   UNL A   1      45.606  22.987  36.020  1.00  0.00    -0.237 OA
ATOM     98  O   UNL A   1      47.634  21.825  35.239  1.00  0.00    -0.744 OA
ENDBRANCH  91  95
ENDBRANCH  65  88
ENDBRANCH  39  40
ENDBRANCH  31  34
ENDBRANCH  29  30
ENDBRANCH  28  29
ENDBRANCH   1  28
TORSDOF 17
ENDMDL
MODEL 3
REMARK VINA RESULT:     -12.2      2.188      7.700
REMARK SMILES Cc1ccnc(C(=O)c2[nH]c3ccc(F)cc3c2CC(=O)NCCCCNC(=O)c2ccc(-c3c4nc(c(-c5cc(S(=O)(=O)[O-])ccc5F)c5ccc([nH]5)c(-c5cc(S(=O)(=O)[O-])ccc5F)c5nc(c(-c6cc(S(=O)(=O)[O-])ccc6F)c6ccc3[nH]6)C=C5)C=C4)cc2)c1
REMARK SMILES IDX 24 1 23 2 22 3 20 4 21 5 19 7 18 8 9 9 10 10 11 11 17 13
REMARK SMILES IDX 12 14 16 15 13 16 14 17 15 18 7 19 8 20 6 21 1 22 2 23 3 24
REMARK SMILES IDX 93 25 4 26 5 27 25 28 26 29 27 30 28 31 29 33 30 34 31 35
REMARK SMILES IDX 92 36 32 37 91 38 33 39 34 40 35 41 85 42 36 43 90 44 84 45
REMARK SMILES IDX 86 46 37 47 89 48 83 49 82 50 38 52 70 53 50 54 69 55 51 56
REMARK SMILES IDX 54 57 68 58 87 59 52 60 53 61 67 63 88 64 55 65 39 66 40 67
REMARK SMILES IDX 48 68 41 69 47 70 49 71 46 72 42 73 43 74 44 75 45 76 71 77
REMARK SMILES IDX 72 78 80 79 73 80 79 81 81 82 78 83 74 84 75 85 76 86 77 87
REMARK SMILES IDX 56 88 57 89 65 90 58 91 64 92 66 93 63 94 59 95 60 96 61 97
REMARK SMILES IDX 62 98
REMARK H PARENT 22 6 10 12 27 32 86 51 54 62
REMARK Flexibility Score: inf
ROOT
ATOM      1  C   UNL A   1      35.321  22.836  25.949  1.00  0.00     0.023 C 
ENDROOT
BRANCH   1   2
ATOM      2  C   UNL A   1      35.079  24.286  25.522  1.00  0.00     0.116 C 
BRANCH   2   3
ATOM      3  N   UNL A   1      34.683  24.452  24.138  1.00  0.00    -0.356 N 
ATOM      4  C   UNL A   1      33.924  25.414  23.538  1.00  0.00     0.224 C 
ATOM      5  O   UNL A   1      33.919  25.430  22.302  1.00  0.00    -0.275 OA
ATOM      6  H   UNL A   1      35.017  23.755  23.529  1.00  0.00     0.163 HD
BRANCH   4   7
ATOM      7  C   UNL A   1      33.164  26.474  24.313  1.00  0.00     0.138 C 
BRANCH   7   8
ATOM      8  C   UNL A   1      31.667  26.346  24.352  1.00  0.00    -0.002 A 
ATOM      9  C   UNL A   1      30.872  25.335  24.900  1.00  0.00     0.093 A 
ATOM     10  N   UNL A   1      29.564  25.641  24.580  1.00  0.00    -0.352 N 
ATOM     11  C   UNL A   1      29.470  26.827  23.904  1.00  0.00     0.046 A 
ATOM     12  H   UNL A   1      28.793  25.074  24.808  1.00  0.00     0.167 HD
ATOM     13  C   UNL A   1      30.771  27.260  23.676  1.00  0.00     0.007 A 
ATOM     14  C   UNL A   1      28.338  27.528  23.466  1.00  0.00     0.030 A 
ATOM     15  C   UNL A   1      30.953  28.435  22.914  1.00  0.00     0.049 A 
ATOM     16  C   UNL A   1      28.547  28.716  22.761  1.00  0.00     0.041 A 
ATOM     17  C   UNL A   1      29.835  29.147  22.484  1.00  0.00     0.123 A 
ATOM     18  F   UNL A   1      30.011  30.286  21.798  1.00  0.00    -0.207 F 
BRANCH   9  19
ATOM     19  C   UNL A   1      31.131  24.071  25.587  1.00  0.00     0.227 C 
ATOM     20  O   UNL A   1      31.062  24.036  26.817  1.00  0.00    -0.285 OA
BRANCH  19  21
ATOM     21  C   UNL A   1      31.614  22.844  24.868  1.00  0.00     0.113 A 
ATOM     22  C   UNL A   1      32.749  19.271  25.485  1.00  0.00     0.044 C 
ATOM     23  C   UNL A   1      32.335  20.547  24.813  1.00  0.00    -0.047 A 
ATOM     24  C   UNL A   1      32.361  20.634  23.422  1.00  0.00     0.023 A 
ATOM     25  C   UNL A   1      31.900  21.660  25.542  1.00  0.00     0.036 A 
ATOM     26  C   UNL A   1      32.003  21.831  22.827  1.00  0.00     0.112 A 
ATOM     27  N   UNL A   1      31.644  22.936  23.513  1.00  0.00    -0.253 NA
ENDBRANCH  19  21
ENDBRANCH   9  19
ENDBRANCH   7   8
ENDBRANCH   4   7
ENDBRANCH   2   3
ENDBRANCH   1   2
BRANCH   1  28
ATOM     28  C   UNL A   1      35.721  21.839  24.860  1.00  0.00     0.023 C 
BRANCH  28  29
ATOM     29  C   UNL A   1      37.194  21.810  24.486  1.00  0.00     0.116 C 
BRANCH  29  30
ATOM     30  N   UNL A   1      37.901  20.715  25.121  1.00  0.00    -0.352 N 
ATOM     31  C   UNL A   1      39.021  20.753  25.914  1.00  0.00     0.251 C 
ATOM     32  H   UNL A   1      37.525  19.819  24.961  1.00  0.00     0.163 HD
ATOM     33  O   UNL A   1      39.570  19.700  26.224  1.00  0.00    -0.269 OA
BRANCH  31  34
ATOM     34  C   UNL A   1      39.582  22.050  26.363  1.00  0.00     0.039 A 
ATOM     35  C   UNL A   1      40.712  22.035  27.184  1.00  0.00     0.014 A 
ATOM     36  C   UNL A   1      38.995  23.268  26.005  1.00  0.00     0.014 A 
ATOM     37  C   UNL A   1      41.283  23.239  27.604  1.00  0.00     0.010 A 
ATOM     38  C   UNL A   1      39.599  24.469  26.378  1.00  0.00     0.010 A 
ATOM     39  C   UNL A   1      40.748  24.467  27.183  1.00  0.00    -0.014 A 
BRANCH  39  40
ATOM     40  C   UNL A   1      41.390  25.749  27.575  1.00  0.00     0.031 A 
ATOM     41  C   UNL A   1      42.810  26.044  27.175  1.00  0.00     0.074 A 
ATOM     42  C   UNL A   1      40.703  26.630  28.327  1.00  0.00     0.049 A 
ATOM     43  N   UNL A   1      43.542  27.095  27.441  1.00  0.00    -0.248 NA
ATOM     44  C   UNL A   1      43.503  25.010  26.394  1.00  0.00     0.031 C 
ATOM     45  C   UNL A   1      39.335  26.436  28.814  1.00  0.00     0.029 A 
ATOM     46  N   UNL A   1      41.057  27.862  28.816  1.00  0.00    -0.354 N 
ATOM     47  C   UNL A   1      44.785  26.850  26.866  1.00  0.00     0.074 A 
ATOM     48  C   UNL A   1      44.720  25.523  26.288  1.00  0.00     0.031 C 
ATOM     49  C   UNL A   1      38.961  27.519  29.514  1.00  0.00     0.029 A 
ATOM     50  C   UNL A   1      40.068  28.469  29.554  1.00  0.00     0.049 A 
ATOM     51  H   UNL A   1      41.937  28.272  28.654  1.00  0.00     0.167 HD
ATOM     52  C   UNL A   1      45.871  27.663  26.807  1.00  0.00     0.034 A 
ATOM     53  C   UNL A   1      40.055  29.653  30.196  1.00  0.00     0.034 A 
ATOM     54  C   UNL A   1      45.918  28.986  27.383  1.00  0.00     0.049 A 
ATOM     55  C   UNL A   1      41.275  30.535  30.124  1.00  0.00     0.074 A 
ATOM     56  C   UNL A   1      46.945  29.914  27.333  1.00  0.00     0.029 A 
ATOM     57  N   UNL A   1      44.898  29.569  28.125  1.00  0.00    -0.354 N 
ATOM     58  N   UNL A   1      42.423  30.311  29.526  1.00  0.00    -0.248 NA
ATOM     59  C   UNL A   1      41.190  31.834  30.800  1.00  0.00     0.031 C 
ATOM     60  C   UNL A   1      46.571  31.028  28.095  1.00  0.00     0.029 A 
ATOM     61  C   UNL A   1      45.283  30.827  28.564  1.00  0.00     0.049 A 
ATOM     62  H   UNL A   1      44.027  29.149  28.313  1.00  0.00     0.167 HD
ATOM     63  C   UNL A   1      43.189  31.454  29.739  1.00  0.00     0.074 A 
ATOM     64  C   UNL A   1      42.362  32.371  30.496  1.00  0.00     0.031 C 
ATOM     65  C   UNL A   1      44.460  31.722  29.344  1.00  0.00     0.034 A 
BRANCH  52  66
ATOM     66  C   UNL A   1      47.102  27.126  26.114  1.00  0.00     0.023 A 
ATOM     67  C   UNL A   1      48.095  26.419  26.816  1.00  0.00     0.031 A 
ATOM     68  C   UNL A   1      47.300  27.345  24.740  1.00  0.00     0.131 A 
ATOM     69  C   UNL A   1      49.270  26.024  26.161  1.00  0.00     0.055 A 
ATOM     70  C   UNL A   1      48.436  26.878  24.075  1.00  0.00     0.041 A 
ATOM     71  F   UNL A   1      46.397  28.030  24.020  1.00  0.00    -0.206 F 
ATOM     72  C   UNL A   1      49.438  26.227  24.790  1.00  0.00     0.022 A 
BRANCH  69  73
ATOM     73  S   UNL A   1      50.637  25.367  27.155  1.00  0.00     0.124 S 
ATOM     74  O   UNL A   1      49.994  24.247  27.837  1.00  0.00    -0.237 OA
ATOM     75  O   UNL A   1      51.626  25.018  26.142  1.00  0.00    -0.237 OA
ATOM     76  O   UNL A   1      51.001  26.488  28.022  1.00  0.00    -0.744 OA
ENDBRANCH  69  73
ENDBRANCH  52  66
BRANCH  53  77
ATOM     77  C   UNL A   1      38.855  30.078  30.968  1.00  0.00     0.023 A 
ATOM     78  C   UNL A   1      37.823  30.809  30.356  1.00  0.00     0.031 A 
ATOM     79  C   UNL A   1      38.739  29.792  32.339  1.00  0.00     0.131 A 
ATOM     80  C   UNL A   1      36.743  31.269  31.124  1.00  0.00     0.055 A 
ATOM     81  C   UNL A   1      37.639  30.210  33.088  1.00  0.00     0.041 A 
ATOM     82  F   UNL A   1      39.693  29.088  32.969  1.00  0.00    -0.206 F 
ATOM     83  C   UNL A   1      36.638  30.965  32.484  1.00  0.00     0.022 A 
BRANCH  80  84
ATOM     84  S   UNL A   1      35.509  32.337  30.334  1.00  0.00     0.124 S 
ATOM     85  O   UNL A   1      35.223  31.603  29.105  1.00  0.00    -0.237 OA
ATOM     86  O   UNL A   1      34.445  32.356  31.331  1.00  0.00    -0.237 OA
ATOM     87  O   UNL A   1      36.217  33.603  30.156  1.00  0.00    -0.744 OA
ENDBRANCH  80  84
ENDBRANCH  53  77
BRANCH  65  88
ATOM     88  C   UNL A   1      45.011  33.078  29.713  1.00  0.00     0.023 A 
ATOM     89  C   UNL A   1      44.808  34.203  28.894  1.00  0.00     0.031 A 
ATOM     90  C   UNL A   1      45.785  33.238  30.876  1.00  0.00     0.131 A 
ATOM     91  C   UNL A   1      45.428  35.420  29.211  1.00  0.00     0.055 A 
ATOM     92  C   UNL A   1      46.348  34.468  31.219  1.00  0.00     0.041 A 
ATOM     93  F   UNL A   1      46.014  32.198  31.694  1.00  0.00    -0.206 F 
ATOM     94  C   UNL A   1      46.186  35.564  30.376  1.00  0.00     0.022 A 
BRANCH  91  95
ATOM     95  S   UNL A   1      45.325  36.784  28.020  1.00  0.00     0.124 S 
ATOM     96  O   UNL A   1      46.443  37.629  28.427  1.00  0.00    -0.237 OA
ATOM     97  O   UNL A   1      45.479  36.096  26.743  1.00  0.00    -0.237 OA
ATOM     98  O   UNL A   1      44.000  37.352  28.261  1.00  0.00    -0.744 OA
ENDBRANCH  91  95
ENDBRANCH  65  88
ENDBRANCH  39  40
ENDBRANCH  31  34
ENDBRANCH  29  30
ENDBRANCH  28  29
ENDBRANCH   1  28
TORSDOF 17
ENDMDL
