MODEL 1
REMARK VINA RESULT:     -12.5      0.000      0.000
REMARK SMILES Cc1ccc(O[C@H](C)C(=O)Nc2ccsc2C(=O)NCCCCNC(=O)c2ccc(-c3c4nc(c(-c5cc(S(=O)(=O)[O-])ccc5F)c5ccc([nH]5)c(-c5cc(S(=O)(=O)[O-])ccc5F)c5nc(c(-c6cc(S(=O)(=O)[O-])ccc6F)c6ccc3[nH]6)C=C5)C=C4)cc2)cc1
REMARK SMILES IDX 21 1 20 2 19 3 17 4 18 5 16 7 12 8 13 9 14 10 15 11 11 12
REMARK SMILES IDX 9 13 10 14 7 16 8 17 6 18 5 19 1 20 2 21 3 22 91 23 4 24
REMARK SMILES IDX 90 25 22 26 23 27 24 28 25 29 26 31 27 32 28 33 89 34 29 35
REMARK SMILES IDX 88 36 30 37 31 38 32 39 82 40 33 41 87 42 81 43 83 44 34 45
REMARK SMILES IDX 86 46 80 47 79 48 35 50 67 51 47 52 66 53 48 54 51 55 65 56
REMARK SMILES IDX 84 57 49 58 50 59 64 61 85 62 52 63 36 64 37 65 45 66 38 67
REMARK SMILES IDX 44 68 46 69 43 70 39 71 40 72 41 73 42 74 68 75 69 76 77 77
REMARK SMILES IDX 70 78 76 79 78 80 75 81 71 82 72 83 73 84 74 85 53 86 54 87
REMARK SMILES IDX 62 88 55 89 61 90 63 91 60 92 56 93 57 94 58 95 59 96
REMARK H PARENT 19 6 11 15 24 30 83 49 51 60
REMARK Flexibility Score: inf
ROOT
ATOM      1  C   UNL A   1      33.674  28.458  26.932  1.00  0.00     0.023 C 
ENDROOT
BRANCH   1   2
ATOM      2  C   UNL A   1      32.357  27.746  26.655  1.00  0.00     0.116 C 
BRANCH   2   3
ATOM      3  N   UNL A   1      31.497  28.398  25.703  1.00  0.00    -0.351 N 
ATOM      4  C   UNL A   1      30.977  28.001  24.493  1.00  0.00     0.263 C 
ATOM      5  O   UNL A   1      30.258  28.886  23.999  1.00  0.00    -0.268 OA
ATOM      6  H   UNL A   1      31.227  29.306  25.969  1.00  0.00     0.163 HD
BRANCH   4   7
ATOM      7  C   UNL A   1      31.224  26.722  23.799  1.00  0.00     0.115 A 
ATOM      8  C   UNL A   1      31.049  25.343  23.997  1.00  0.00     0.065 A 
ATOM      9  C   UNL A   1      31.394  24.592  22.819  1.00  0.00     0.038 A 
ATOM     10  C   UNL A   1      31.998  25.333  21.841  1.00  0.00     0.068 A 
ATOM     11  S   UNL A   1      32.051  26.969  22.259  1.00  0.00    -0.137 S 
BRANCH   8  12
ATOM     12  N   UNL A   1      30.543  24.677  25.119  1.00  0.00    -0.321 N 
ATOM     13  C   UNL A   1      31.354  24.067  26.072  1.00  0.00     0.265 C 
ATOM     14  O   UNL A   1      31.025  24.064  27.261  1.00  0.00    -0.270 OA
ATOM     15  H   UNL A   1      29.567  24.637  25.239  1.00  0.00     0.170 HD
BRANCH  13  16
ATOM     16  C   UNL A   1      32.687  23.414  25.707  1.00  0.00     0.259 C 
ATOM     17  C   UNL A   1      33.805  24.298  26.247  1.00  0.00     0.064 C 
BRANCH  16  18
ATOM     18  O   UNL A   1      32.587  22.057  26.115  1.00  0.00    -0.481 OA
BRANCH  18  19
ATOM     19  C   UNL A   1      32.473  21.006  25.270  1.00  0.00     0.120 A 
ATOM     20  C   UNL A   1      33.038  17.522  22.814  1.00  0.00     0.044 C 
ATOM     21  C   UNL A   1      32.738  18.698  23.691  1.00  0.00    -0.051 A 
ATOM     22  C   UNL A   1      32.344  19.915  23.123  1.00  0.00     0.007 A 
ATOM     23  C   UNL A   1      32.945  18.632  25.069  1.00  0.00     0.007 A 
ATOM     24  C   UNL A   1      32.190  21.057  23.914  1.00  0.00     0.047 A 
ATOM     25  C   UNL A   1      32.816  19.781  25.849  1.00  0.00     0.047 A 
ENDBRANCH  18  19
ENDBRANCH  16  18
ENDBRANCH  13  16
ENDBRANCH   8  12
ENDBRANCH   4   7
ENDBRANCH   2   3
ENDBRANCH   1   2
BRANCH   1  26
ATOM     26  C   UNL A   1      33.563  29.800  27.631  1.00  0.00     0.023 C 
BRANCH  26  27
ATOM     27  C   UNL A   1      34.667  30.790  27.287  1.00  0.00     0.116 C 
BRANCH  27  28
ATOM     28  N   UNL A   1      35.206  31.559  28.398  1.00  0.00    -0.352 N 
ATOM     29  C   UNL A   1      36.162  31.175  29.334  1.00  0.00     0.251 C 
ATOM     30  H   UNL A   1      34.848  32.470  28.500  1.00  0.00     0.163 HD
ATOM     31  O   UNL A   1      36.414  31.871  30.300  1.00  0.00    -0.269 OA
BRANCH  29  32
ATOM     32  C   UNL A   1      36.967  29.948  29.076  1.00  0.00     0.039 A 
ATOM     33  C   UNL A   1      37.146  29.055  30.141  1.00  0.00     0.014 A 
ATOM     34  C   UNL A   1      37.715  29.797  27.914  1.00  0.00     0.014 A 
ATOM     35  C   UNL A   1      38.239  28.188  30.136  1.00  0.00     0.010 A 
ATOM     36  C   UNL A   1      38.863  29.031  27.958  1.00  0.00     0.010 A 
ATOM     37  C   UNL A   1      39.161  28.272  29.095  1.00  0.00    -0.014 A 
BRANCH  37  38
ATOM     38  C   UNL A   1      40.514  27.726  29.159  1.00  0.00     0.031 A 
ATOM     39  C   UNL A   1      40.806  26.347  28.720  1.00  0.00     0.074 A 
ATOM     40  C   UNL A   1      41.539  28.535  29.505  1.00  0.00     0.049 A 
ATOM     41  N   UNL A   1      41.861  25.679  29.050  1.00  0.00    -0.248 NA
ATOM     42  C   UNL A   1      39.886  25.588  27.887  1.00  0.00     0.031 C 
ATOM     43  C   UNL A   1      42.967  28.285  29.331  1.00  0.00     0.029 A 
ATOM     44  N   UNL A   1      41.482  29.647  30.342  1.00  0.00    -0.354 N 
ATOM     45  C   UNL A   1      41.916  24.560  28.250  1.00  0.00     0.074 A 
ATOM     46  C   UNL A   1      40.625  24.514  27.601  1.00  0.00     0.031 C 
ATOM     47  C   UNL A   1      43.644  29.010  30.232  1.00  0.00     0.029 A 
ATOM     48  C   UNL A   1      42.669  29.638  31.103  1.00  0.00     0.049 A 
ATOM     49  H   UNL A   1      40.754  30.308  30.392  1.00  0.00     0.167 HD
ATOM     50  C   UNL A   1      43.093  23.880  28.126  1.00  0.00     0.034 A 
ATOM     51  C   UNL A   1      42.615  29.520  32.464  1.00  0.00     0.034 A 
ATOM     52  C   UNL A   1      44.126  24.401  29.026  1.00  0.00     0.049 A 
ATOM     53  C   UNL A   1      43.275  28.277  33.006  1.00  0.00     0.074 A 
ATOM     54  C   UNL A   1      45.234  25.217  28.866  1.00  0.00     0.029 A 
ATOM     55  N   UNL A   1      43.938  24.285  30.393  1.00  0.00    -0.354 N 
ATOM     56  N   UNL A   1      43.862  27.373  32.272  1.00  0.00    -0.248 NA
ATOM     57  C   UNL A   1      43.238  27.907  34.421  1.00  0.00     0.031 C 
ATOM     58  C   UNL A   1      45.669  25.634  30.161  1.00  0.00     0.029 A 
ATOM     59  C   UNL A   1      44.842  25.052  31.105  1.00  0.00     0.049 A 
ATOM     60  H   UNL A   1      43.244  23.725  30.809  1.00  0.00     0.167 HD
ATOM     61  C   UNL A   1      44.186  26.299  33.053  1.00  0.00     0.074 A 
ATOM     62  C   UNL A   1      43.790  26.684  34.396  1.00  0.00     0.031 C 
ATOM     63  C   UNL A   1      44.702  25.141  32.549  1.00  0.00     0.034 A 
BRANCH  50  64
ATOM     64  C   UNL A   1      43.395  22.905  27.005  1.00  0.00     0.023 A 
ATOM     65  C   UNL A   1      42.841  21.608  27.057  1.00  0.00     0.031 A 
ATOM     66  C   UNL A   1      44.236  23.147  25.902  1.00  0.00     0.131 A 
ATOM     67  C   UNL A   1      43.206  20.611  26.132  1.00  0.00     0.055 A 
ATOM     68  C   UNL A   1      44.657  22.141  25.022  1.00  0.00     0.041 A 
ATOM     69  F   UNL A   1      44.636  24.382  25.573  1.00  0.00    -0.206 F 
ATOM     70  C   UNL A   1      44.152  20.857  25.143  1.00  0.00     0.022 A 
BRANCH  67  71
ATOM     71  S   UNL A   1      42.411  18.985  26.227  1.00  0.00     0.124 S 
ATOM     72  O   UNL A   1      43.251  18.177  25.348  1.00  0.00    -0.237 OA
ATOM     73  O   UNL A   1      42.492  18.687  27.653  1.00  0.00    -0.237 OA
ATOM     74  O   UNL A   1      41.060  19.238  25.727  1.00  0.00    -0.744 OA
ENDBRANCH  67  71
ENDBRANCH  50  64
BRANCH  51  75
ATOM     75  C   UNL A   1      41.421  30.203  33.041  1.00  0.00     0.023 A 
ATOM     76  C   UNL A   1      41.503  31.607  33.094  1.00  0.00     0.031 A 
ATOM     77  C   UNL A   1      40.151  29.614  33.078  1.00  0.00     0.131 A 
ATOM     78  C   UNL A   1      40.351  32.371  32.897  1.00  0.00     0.055 A 
ATOM     79  C   UNL A   1      38.989  30.396  33.040  1.00  0.00     0.041 A 
ATOM     80  F   UNL A   1      40.007  28.283  33.006  1.00  0.00    -0.206 F 
ATOM     81  C   UNL A   1      39.087  31.780  32.882  1.00  0.00     0.022 A 
BRANCH  78  82
ATOM     82  S   UNL A   1      40.588  34.072  32.292  1.00  0.00     0.124 S 
ATOM     83  O   UNL A   1      39.431  34.216  31.416  1.00  0.00    -0.237 OA
ATOM     84  O   UNL A   1      40.561  34.855  33.535  1.00  0.00    -0.237 OA
ATOM     85  O   UNL A   1      41.895  34.011  31.646  1.00  0.00    -0.744 OA
ENDBRANCH  78  82
ENDBRANCH  51  75
BRANCH  63  86
ATOM     86  C   UNL A   1      45.076  23.993  33.441  1.00  0.00     0.023 A 
ATOM     87  C   UNL A   1      46.409  23.782  33.830  1.00  0.00     0.031 A 
ATOM     88  C   UNL A   1      44.129  23.049  33.886  1.00  0.00     0.131 A 
ATOM     89  C   UNL A   1      46.745  22.728  34.691  1.00  0.00     0.055 A 
ATOM     90  C   UNL A   1      44.482  21.946  34.667  1.00  0.00     0.041 A 
ATOM     91  F   UNL A   1      42.821  23.189  33.622  1.00  0.00    -0.206 F 
ATOM     92  C   UNL A   1      45.795  21.788  35.088  1.00  0.00     0.022 A 
BRANCH  89  93
ATOM     93  S   UNL A   1      48.423  22.669  35.367  1.00  0.00     0.124 S 
ATOM     94  O   UNL A   1      48.325  23.522  36.546  1.00  0.00    -0.237 OA
ATOM     95  O   UNL A   1      48.586  21.241  35.628  1.00  0.00    -0.237 OA
ATOM     96  O   UNL A   1      49.250  23.198  34.284  1.00  0.00    -0.744 OA
ENDBRANCH  89  93
ENDBRANCH  63  86
ENDBRANCH  37  38
ENDBRANCH  29  32
ENDBRANCH  27  28
ENDBRANCH  26  27
ENDBRANCH   1  26
TORSDOF 18
ENDMDL
MODEL 2
REMARK VINA RESULT:     -12.5      4.089     10.232
REMARK SMILES Cc1ccc(O[C@H](C)C(=O)Nc2ccsc2C(=O)NCCCCNC(=O)c2ccc(-c3c4nc(c(-c5cc(S(=O)(=O)[O-])ccc5F)c5ccc([nH]5)c(-c5cc(S(=O)(=O)[O-])ccc5F)c5nc(c(-c6cc(S(=O)(=O)[O-])ccc6F)c6ccc3[nH]6)C=C5)C=C4)cc2)cc1
REMARK SMILES IDX 21 1 20 2 19 3 17 4 18 5 16 7 12 8 13 9 14 10 15 11 11 12
REMARK SMILES IDX 9 13 10 14 7 16 8 17 6 18 5 19 1 20 2 21 3 22 91 23 4 24
REMARK SMILES IDX 90 25 22 26 23 27 24 28 25 29 26 31 27 32 28 33 89 34 29 35
REMARK SMILES IDX 88 36 30 37 31 38 32 39 82 40 33 41 87 42 81 43 83 44 34 45
REMARK SMILES IDX 86 46 80 47 79 48 35 50 67 51 47 52 66 53 48 54 51 55 65 56
REMARK SMILES IDX 84 57 49 58 50 59 64 61 85 62 52 63 36 64 37 65 45 66 38 67
REMARK SMILES IDX 44 68 46 69 43 70 39 71 40 72 41 73 42 74 68 75 69 76 77 77
REMARK SMILES IDX 70 78 76 79 78 80 75 81 71 82 72 83 73 84 74 85 53 86 54 87
REMARK SMILES IDX 62 88 55 89 61 90 63 91 60 92 56 93 57 94 58 95 59 96
REMARK H PARENT 19 6 11 15 24 30 83 49 51 60
REMARK Flexibility Score: inf
ROOT
ATOM      1  C   UNL A   1      36.452  21.749  25.549  1.00  0.00     0.023 C 
ENDROOT
BRANCH   1   2
ATOM      2  C   UNL A   1      35.807  23.128  25.507  1.00  0.00     0.116 C 
BRANCH   2   3
ATOM      3  N   UNL A   1      34.592  23.259  26.267  1.00  0.00    -0.351 N 
ATOM      4  C   UNL A   1      33.559  24.165  26.222  1.00  0.00     0.263 C 
ATOM      5  O   UNL A   1      32.686  23.896  27.064  1.00  0.00    -0.268 OA
ATOM      6  H   UNL A   1      34.478  22.565  26.955  1.00  0.00     0.163 HD
BRANCH   4   7
ATOM      7  C   UNL A   1      33.450  25.342  25.337  1.00  0.00     0.115 A 
ATOM      8  C   UNL A   1      33.588  25.682  23.983  1.00  0.00     0.065 A 
ATOM      9  C   UNL A   1      33.194  27.044  23.737  1.00  0.00     0.038 A 
ATOM     10  C   UNL A   1      32.965  27.773  24.871  1.00  0.00     0.068 A 
ATOM     11  S   UNL A   1      33.093  26.809  26.253  1.00  0.00    -0.137 S 
BRANCH   8  12
ATOM     12  N   UNL A   1      33.976  24.870  22.911  1.00  0.00    -0.321 N 
ATOM     13  C   UNL A   1      33.131  23.935  22.320  1.00  0.00     0.265 C 
ATOM     14  O   UNL A   1      33.194  23.716  21.107  1.00  0.00    -0.270 OA
ATOM     15  H   UNL A   1      34.889  24.966  22.558  1.00  0.00     0.170 HD
BRANCH  13  16
ATOM     16  C   UNL A   1      32.078  23.171  23.122  1.00  0.00     0.259 C 
ATOM     17  C   UNL A   1      30.794  23.993  23.110  1.00  0.00     0.064 C 
BRANCH  16  18
ATOM     18  O   UNL A   1      32.082  21.843  22.617  1.00  0.00    -0.481 OA
BRANCH  18  19
ATOM     19  C   UNL A   1      32.410  20.747  23.339  1.00  0.00     0.120 A 
ATOM     20  C   UNL A   1      32.566  16.966  25.382  1.00  0.00     0.044 C 
ATOM     21  C   UNL A   1      32.619  18.269  24.646  1.00  0.00    -0.051 A 
ATOM     22  C   UNL A   1      32.775  19.468  25.351  1.00  0.00     0.007 A 
ATOM     23  C   UNL A   1      32.412  18.319  23.267  1.00  0.00     0.007 A 
ATOM     24  C   UNL A   1      32.694  20.699  24.695  1.00  0.00     0.047 A 
ATOM     25  C   UNL A   1      32.305  19.552  22.623  1.00  0.00     0.047 A 
ENDBRANCH  18  19
ENDBRANCH  16  18
ENDBRANCH  13  16
ENDBRANCH   8  12
ENDBRANCH   4   7
ENDBRANCH   2   3
ENDBRANCH   1   2
BRANCH   1  26
ATOM     26  C   UNL A   1      37.968  21.733  25.617  1.00  0.00     0.023 C 
BRANCH  26  27
ATOM     27  C   UNL A   1      38.603  23.067  25.984  1.00  0.00     0.116 C 
BRANCH  27  28
ATOM     28  N   UNL A   1      39.993  23.021  26.406  1.00  0.00    -0.352 N 
ATOM     29  C   UNL A   1      40.810  24.073  26.811  1.00  0.00     0.251 C 
ATOM     30  H   UNL A   1      40.412  22.130  26.405  1.00  0.00     0.163 HD
ATOM     31  O   UNL A   1      42.002  23.910  26.999  1.00  0.00    -0.269 OA
BRANCH  29  32
ATOM     32  C   UNL A   1      40.184  25.386  27.133  1.00  0.00     0.039 A 
ATOM     33  C   UNL A   1      40.590  26.498  26.384  1.00  0.00     0.014 A 
ATOM     34  C   UNL A   1      39.412  25.566  28.275  1.00  0.00     0.014 A 
ATOM     35  C   UNL A   1      40.443  27.779  26.918  1.00  0.00     0.010 A 
ATOM     36  C   UNL A   1      39.374  26.816  28.861  1.00  0.00     0.010 A 
ATOM     37  C   UNL A   1      39.945  27.916  28.212  1.00  0.00    -0.014 A 
BRANCH  37  38
ATOM     38  C   UNL A   1      40.104  29.120  29.022  1.00  0.00     0.031 A 
ATOM     39  C   UNL A   1      39.060  30.164  29.058  1.00  0.00     0.074 A 
ATOM     40  C   UNL A   1      41.165  29.227  29.852  1.00  0.00     0.049 A 
ATOM     41  N   UNL A   1      39.249  31.379  29.452  1.00  0.00    -0.248 NA
ATOM     42  C   UNL A   1      37.700  29.914  28.604  1.00  0.00     0.031 C 
ATOM     43  C   UNL A   1      41.345  30.171  30.949  1.00  0.00     0.029 A 
ATOM     44  N   UNL A   1      42.422  28.653  29.679  1.00  0.00    -0.354 N 
ATOM     45  C   UNL A   1      38.014  31.969  29.600  1.00  0.00     0.074 A 
ATOM     46  C   UNL A   1      37.092  31.040  28.986  1.00  0.00     0.031 C 
ATOM     47  C   UNL A   1      42.657  30.330  31.171  1.00  0.00     0.029 A 
ATOM     48  C   UNL A   1      43.362  29.602  30.133  1.00  0.00     0.049 A 
ATOM     49  H   UNL A   1      42.617  27.760  29.311  1.00  0.00     0.167 HD
ATOM     50  C   UNL A   1      37.897  33.108  30.343  1.00  0.00     0.034 A 
ATOM     51  C   UNL A   1      44.285  30.125  29.271  1.00  0.00     0.034 A 
ATOM     52  C   UNL A   1      39.203  33.621  30.769  1.00  0.00     0.049 A 
ATOM     53  C   UNL A   1      44.167  31.615  29.064  1.00  0.00     0.074 A 
ATOM     54  C   UNL A   1      39.919  33.596  31.955  1.00  0.00     0.029 A 
ATOM     55  N   UNL A   1      40.089  34.068  29.804  1.00  0.00    -0.354 N 
ATOM     56  N   UNL A   1      43.277  32.372  29.642  1.00  0.00    -0.248 NA
ATOM     57  C   UNL A   1      44.988  32.353  28.104  1.00  0.00     0.031 C 
ATOM     58  C   UNL A   1      41.264  33.979  31.669  1.00  0.00     0.029 A 
ATOM     59  C   UNL A   1      41.358  34.260  30.318  1.00  0.00     0.049 A 
ATOM     60  H   UNL A   1      39.845  34.229  28.863  1.00  0.00     0.167 HD
ATOM     61  C   UNL A   1      43.328  33.624  29.097  1.00  0.00     0.074 A 
ATOM     62  C   UNL A   1      44.427  33.571  28.147  1.00  0.00     0.031 C 
ATOM     63  C   UNL A   1      42.438  34.609  29.409  1.00  0.00     0.034 A 
BRANCH  50  64
ATOM     64  C   UNL A   1      36.587  33.622  30.907  1.00  0.00     0.023 A 
ATOM     65  C   UNL A   1      35.644  34.201  30.032  1.00  0.00     0.031 A 
ATOM     66  C   UNL A   1      36.216  33.626  32.266  1.00  0.00     0.131 A 
ATOM     67  C   UNL A   1      34.482  34.834  30.512  1.00  0.00     0.055 A 
ATOM     68  C   UNL A   1      35.098  34.316  32.753  1.00  0.00     0.041 A 
ATOM     69  F   UNL A   1      36.873  32.904  33.181  1.00  0.00    -0.206 F 
ATOM     70  C   UNL A   1      34.229  34.939  31.875  1.00  0.00     0.022 A 
BRANCH  67  71
ATOM     71  S   UNL A   1      33.289  35.507  29.325  1.00  0.00     0.124 S 
ATOM     72  O   UNL A   1      32.572  34.311  28.894  1.00  0.00    -0.237 OA
ATOM     73  O   UNL A   1      32.539  36.452  30.145  1.00  0.00    -0.237 OA
ATOM     74  O   UNL A   1      34.137  36.119  28.302  1.00  0.00    -0.744 OA
ENDBRANCH  67  71
ENDBRANCH  50  64
BRANCH  51  75
ATOM     75  C   UNL A   1      44.735  29.130  28.256  1.00  0.00     0.023 A 
ATOM     76  C   UNL A   1      45.565  28.105  28.748  1.00  0.00     0.031 A 
ATOM     77  C   UNL A   1      44.047  28.903  27.056  1.00  0.00     0.131 A 
ATOM     78  C   UNL A   1      45.468  26.821  28.208  1.00  0.00     0.055 A 
ATOM     79  C   UNL A   1      44.081  27.651  26.429  1.00  0.00     0.041 A 
ATOM     80  F   UNL A   1      43.223  29.831  26.550  1.00  0.00    -0.206 F 
ATOM     81  C   UNL A   1      44.741  26.583  27.041  1.00  0.00     0.022 A 
BRANCH  78  82
ATOM     82  S   UNL A   1      45.995  25.441  29.272  1.00  0.00     0.124 S 
ATOM     83  O   UNL A   1      46.973  26.110  30.124  1.00  0.00    -0.237 OA
ATOM     84  O   UNL A   1      44.737  25.044  29.919  1.00  0.00    -0.237 OA
ATOM     85  O   UNL A   1      46.516  24.470  28.315  1.00  0.00    -0.744 OA
ENDBRANCH  78  82
ENDBRANCH  51  75
BRANCH  63  86
ATOM     86  C   UNL A   1      42.543  35.983  28.814  1.00  0.00     0.023 A 
ATOM     87  C   UNL A   1      43.061  37.056  29.557  1.00  0.00     0.031 A 
ATOM     88  C   UNL A   1      42.086  36.274  27.514  1.00  0.00     0.131 A 
ATOM     89  C   UNL A   1      43.189  38.329  28.983  1.00  0.00     0.055 A 
ATOM     90  C   UNL A   1      42.128  37.564  26.977  1.00  0.00     0.041 A 
ATOM     91  F   UNL A   1      41.629  35.313  26.698  1.00  0.00    -0.206 F 
ATOM     92  C   UNL A   1      42.696  38.599  27.707  1.00  0.00     0.022 A 
BRANCH  89  93
ATOM     93  S   UNL A   1      44.105  39.597  29.893  1.00  0.00     0.124 S 
ATOM     94  O   UNL A   1      45.489  39.319  29.527  1.00  0.00    -0.237 OA
ATOM     95  O   UNL A   1      43.537  40.824  29.341  1.00  0.00    -0.237 OA
ATOM     96  O   UNL A   1      43.765  39.332  31.290  1.00  0.00    -0.744 OA
ENDBRANCH  89  93
ENDBRANCH  63  86
ENDBRANCH  37  38
ENDBRANCH  29  32
ENDBRANCH  27  28
ENDBRANCH  26  27
ENDBRANCH   1  26
TORSDOF 18
ENDMDL
MODEL 3
REMARK VINA RESULT:     -12.3      4.179     10.636
REMARK SMILES Cc1ccc(O[C@H](C)C(=O)Nc2ccsc2C(=O)NCCCCNC(=O)c2ccc(-c3c4nc(c(-c5cc(S(=O)(=O)[O-])ccc5F)c5ccc([nH]5)c(-c5cc(S(=O)(=O)[O-])ccc5F)c5nc(c(-c6cc(S(=O)(=O)[O-])ccc6F)c6ccc3[nH]6)C=C5)C=C4)cc2)cc1
REMARK SMILES IDX 21 1 20 2 19 3 17 4 18 5 16 7 12 8 13 9 14 10 15 11 11 12
REMARK SMILES IDX 9 13 10 14 7 16 8 17 6 18 5 19 1 20 2 21 3 22 91 23 4 24
REMARK SMILES IDX 90 25 22 26 23 27 24 28 25 29 26 31 27 32 28 33 89 34 29 35
REMARK SMILES IDX 88 36 30 37 31 38 32 39 82 40 33 41 87 42 81 43 83 44 34 45
REMARK SMILES IDX 86 46 80 47 79 48 35 50 67 51 47 52 66 53 48 54 51 55 65 56
REMARK SMILES IDX 84 57 49 58 50 59 64 61 85 62 52 63 36 64 37 65 45 66 38 67
REMARK SMILES IDX 44 68 46 69 43 70 39 71 40 72 41 73 42 74 68 75 69 76 77 77
REMARK SMILES IDX 70 78 76 79 78 80 75 81 71 82 72 83 73 84 74 85 53 86 54 87
REMARK SMILES IDX 62 88 55 89 61 90 63 91 60 92 56 93 57 94 58 95 59 96
REMARK H PARENT 19 6 11 15 24 30 83 49 51 60
REMARK Flexibility Score: inf
ROOT
ATOM      1  C   UNL A   1      36.545  21.703  24.792  1.00  0.00     0.023 C 
ENDROOT
BRANCH   1   2
ATOM      2  C   UNL A   1      36.213  22.843  23.839  1.00  0.00     0.116 C 
BRANCH   2   3
ATOM      3  N   UNL A   1      35.822  24.076  24.471  1.00  0.00    -0.351 N 
ATOM      4  C   UNL A   1      34.600  24.585  24.843  1.00  0.00     0.263 C 
ATOM      5  O   UNL A   1      34.720  25.699  25.380  1.00  0.00    -0.268 OA
ATOM      6  H   UNL A   1      36.578  24.672  24.678  1.00  0.00     0.163 HD
BRANCH   4   7
ATOM      7  C   UNL A   1      33.279  23.960  24.635  1.00  0.00     0.115 A 
ATOM      8  C   UNL A   1      32.357  23.719  23.605  1.00  0.00     0.065 A 
ATOM      9  C   UNL A   1      31.263  22.900  24.056  1.00  0.00     0.038 A 
ATOM     10  C   UNL A   1      31.237  22.697  25.409  1.00  0.00     0.068 A 
ATOM     11  S   UNL A   1      32.593  23.376  26.153  1.00  0.00    -0.137 S 
BRANCH   8  12
ATOM     12  N   UNL A   1      32.423  24.106  22.262  1.00  0.00    -0.321 N 
ATOM     13  C   UNL A   1      32.696  25.409  21.858  1.00  0.00     0.265 C 
ATOM     14  O   UNL A   1      33.349  25.620  20.832  1.00  0.00    -0.270 OA
ATOM     15  H   UNL A   1      32.268  23.423  21.570  1.00  0.00     0.170 HD
BRANCH  13  16
ATOM     16  C   UNL A   1      32.242  26.623  22.668  1.00  0.00     0.259 C 
ATOM     17  C   UNL A   1      33.431  27.568  22.801  1.00  0.00     0.064 C 
BRANCH  16  18
ATOM     18  O   UNL A   1      31.036  27.072  22.066  1.00  0.00    -0.481 OA
BRANCH  18  19
ATOM     19  C   UNL A   1      30.326  28.148  22.477  1.00  0.00     0.120 A 
ATOM     20  C   UNL A   1      27.374  31.182  23.230  1.00  0.00     0.044 C 
ATOM     21  C   UNL A   1      28.434  30.137  23.074  1.00  0.00    -0.051 A 
ATOM     22  C   UNL A   1      29.670  30.469  22.508  1.00  0.00     0.007 A 
ATOM     23  C   UNL A   1      28.173  28.803  23.391  1.00  0.00     0.007 A 
ATOM     24  C   UNL A   1      30.620  29.481  22.234  1.00  0.00     0.047 A 
ATOM     25  C   UNL A   1      29.113  27.818  23.089  1.00  0.00     0.047 A 
ENDBRANCH  18  19
ENDBRANCH  16  18
ENDBRANCH  13  16
ENDBRANCH   8  12
ENDBRANCH   4   7
ENDBRANCH   2   3
ENDBRANCH   1   2
BRANCH   1  26
ATOM     26  C   UNL A   1      37.996  21.610  25.226  1.00  0.00     0.023 C 
BRANCH  26  27
ATOM     27  C   UNL A   1      38.517  22.830  25.972  1.00  0.00     0.116 C 
BRANCH  27  28
ATOM     28  N   UNL A   1      39.926  22.809  26.331  1.00  0.00    -0.352 N 
ATOM     29  C   UNL A   1      40.750  23.880  26.665  1.00  0.00     0.251 C 
ATOM     30  H   UNL A   1      40.352  21.922  26.340  1.00  0.00     0.163 HD
ATOM     31  O   UNL A   1      41.950  23.733  26.803  1.00  0.00    -0.269 OA
BRANCH  29  32
ATOM     32  C   UNL A   1      40.127  25.198  26.972  1.00  0.00     0.039 A 
ATOM     33  C   UNL A   1      40.582  26.313  26.255  1.00  0.00     0.014 A 
ATOM     34  C   UNL A   1      39.305  25.377  28.078  1.00  0.00     0.014 A 
ATOM     35  C   UNL A   1      40.427  27.589  26.797  1.00  0.00     0.010 A 
ATOM     36  C   UNL A   1      39.256  26.621  28.676  1.00  0.00     0.010 A 
ATOM     37  C   UNL A   1      39.871  27.719  28.067  1.00  0.00    -0.014 A 
BRANCH  37  38
ATOM     38  C   UNL A   1      40.008  28.913  28.898  1.00  0.00     0.031 A 
ATOM     39  C   UNL A   1      38.968  29.961  28.911  1.00  0.00     0.074 A 
ATOM     40  C   UNL A   1      41.041  29.003  29.764  1.00  0.00     0.049 A 
ATOM     41  N   UNL A   1      39.149  31.170  29.327  1.00  0.00    -0.248 NA
ATOM     42  C   UNL A   1      37.623  29.724  28.408  1.00  0.00     0.031 C 
ATOM     43  C   UNL A   1      41.187  29.933  30.879  1.00  0.00     0.029 A 
ATOM     44  N   UNL A   1      42.300  28.426  29.628  1.00  0.00    -0.354 N 
ATOM     45  C   UNL A   1      37.912  31.764  29.440  1.00  0.00     0.074 A 
ATOM     46  C   UNL A   1      37.008  30.847  28.783  1.00  0.00     0.031 C 
ATOM     47  C   UNL A   1      42.492  30.082  31.148  1.00  0.00     0.029 A 
ATOM     48  C   UNL A   1      43.228  29.364  30.125  1.00  0.00     0.049 A 
ATOM     49  H   UNL A   1      42.503  27.537  29.255  1.00  0.00     0.167 HD
ATOM     50  C   UNL A   1      37.775  32.894  30.193  1.00  0.00     0.034 A 
ATOM     51  C   UNL A   1      44.183  29.893  29.302  1.00  0.00     0.034 A 
ATOM     52  C   UNL A   1      39.068  33.396  30.670  1.00  0.00     0.049 A 
ATOM     53  C   UNL A   1      44.078  31.386  29.110  1.00  0.00     0.074 A 
ATOM     54  C   UNL A   1      39.743  33.352  31.879  1.00  0.00     0.029 A 
ATOM     55  N   UNL A   1      39.989  33.850  29.741  1.00  0.00    -0.354 N 
ATOM     56  N   UNL A   1      43.173  32.140  29.667  1.00  0.00    -0.248 NA
ATOM     57  C   UNL A   1      44.935  32.132  28.188  1.00  0.00     0.031 C 
ATOM     58  C   UNL A   1      41.099  33.732  31.644  1.00  0.00     0.029 A 
ATOM     59  C   UNL A   1      41.240  34.029  30.301  1.00  0.00     0.049 A 
ATOM     60  H   UNL A   1      39.778  34.024  28.795  1.00  0.00     0.167 HD
ATOM     61  C   UNL A   1      43.248  33.399  29.140  1.00  0.00     0.074 A 
ATOM     62  C   UNL A   1      44.378  33.352  28.228  1.00  0.00     0.031 C 
ATOM     63  C   UNL A   1      42.352  34.384  29.434  1.00  0.00     0.034 A 
BRANCH  50  64
ATOM     64  C   UNL A   1      36.449  33.408  30.719  1.00  0.00     0.023 A 
ATOM     65  C   UNL A   1      35.594  34.114  29.847  1.00  0.00     0.031 A 
ATOM     66  C   UNL A   1      35.983  33.292  32.043  1.00  0.00     0.131 A 
ATOM     67  C   UNL A   1      34.425  34.748  30.311  1.00  0.00     0.055 A 
ATOM     68  C   UNL A   1      34.861  33.979  32.523  1.00  0.00     0.041 A 
ATOM     69  F   UNL A   1      36.545  32.452  32.920  1.00  0.00    -0.206 F 
ATOM     70  C   UNL A   1      34.080  34.726  31.658  1.00  0.00     0.022 A 
BRANCH  67  71
ATOM     71  S   UNL A   1      33.346  35.590  29.123  1.00  0.00     0.124 S 
ATOM     72  O   UNL A   1      32.524  36.428  29.990  1.00  0.00    -0.237 OA
ATOM     73  O   UNL A   1      34.308  36.284  28.274  1.00  0.00    -0.237 OA
ATOM     74  O   UNL A   1      32.634  34.490  28.474  1.00  0.00    -0.744 OA
ENDBRANCH  67  71
ENDBRANCH  50  64
BRANCH  51  75
ATOM     75  C   UNL A   1      44.662  28.908  28.290  1.00  0.00     0.023 A 
ATOM     76  C   UNL A   1      45.548  27.931  28.779  1.00  0.00     0.031 A 
ATOM     77  C   UNL A   1      43.966  28.635  27.106  1.00  0.00     0.131 A 
ATOM     78  C   UNL A   1      45.504  26.637  28.255  1.00  0.00     0.055 A 
ATOM     79  C   UNL A   1      44.049  27.378  26.491  1.00  0.00     0.041 A 
ATOM     80  F   UNL A   1      43.089  29.516  26.603  1.00  0.00    -0.206 F 
ATOM     81  C   UNL A   1      44.770  26.351  27.104  1.00  0.00     0.022 A 
BRANCH  78  82
ATOM     82  S   UNL A   1      46.116  25.297  29.325  1.00  0.00     0.124 S 
ATOM     83  O   UNL A   1      46.174  25.979  30.613  1.00  0.00    -0.237 OA
ATOM     84  O   UNL A   1      45.069  24.276  29.180  1.00  0.00    -0.237 OA
ATOM     85  O   UNL A   1      47.392  24.945  28.711  1.00  0.00    -0.744 OA
ENDBRANCH  78  82
ENDBRANCH  51  75
BRANCH  63  86
ATOM     86  C   UNL A   1      42.484  35.765  28.860  1.00  0.00     0.023 A 
ATOM     87  C   UNL A   1      43.030  36.814  29.617  1.00  0.00     0.031 A 
ATOM     88  C   UNL A   1      42.025  36.087  27.568  1.00  0.00     0.131 A 
ATOM     89  C   UNL A   1      43.183  38.093  29.063  1.00  0.00     0.055 A 
ATOM     90  C   UNL A   1      42.092  37.384  27.052  1.00  0.00     0.041 A 
ATOM     91  F   UNL A   1      41.542  35.149  26.740  1.00  0.00    -0.206 F 
ATOM     92  C   UNL A   1      42.688  38.395  27.794  1.00  0.00     0.022 A 
BRANCH  89  93
ATOM     93  S   UNL A   1      44.132  39.326  29.987  1.00  0.00     0.124 S 
ATOM     94  O   UNL A   1      45.465  39.207  29.406  1.00  0.00    -0.237 OA
ATOM     95  O   UNL A   1      43.409  40.554  29.669  1.00  0.00    -0.237 OA
ATOM     96  O   UNL A   1      44.016  38.881  31.374  1.00  0.00    -0.744 OA
ENDBRANCH  89  93
ENDBRANCH  63  86
ENDBRANCH  37  38
ENDBRANCH  29  32
ENDBRANCH  27  28
ENDBRANCH  26  27
ENDBRANCH   1  26
TORSDOF 18
ENDMDL
