MODEL 1
REMARK VINA RESULT:     -11.1      0.000      0.000
REMARK SMILES O=C(NCCCCNC(=O)c1ccc(C[NH2+]Cc2cc(F)ccc2F)nc1)c1ccc(-c2c3nc(c(-c4cc(S(=O)(=O)[O-])ccc4F)c4ccc([nH]4)c(-c4cc(S(=O)(=O)[O-])ccc4F)c4nc(c(-c5cc(S(=O)(=O)[O-])ccc5F)c5ccc2[nH]5)C=C4)C=C3)cc1
REMARK SMILES IDX 6 1 5 2 4 3 3 4 1 5 2 6 28 8 29 9 90 10 30 11 89 12 31 13
REMARK SMILES IDX 32 14 33 15 83 16 34 17 88 18 82 19 84 20 35 21 87 22 81 23
REMARK SMILES IDX 80 24 36 26 68 27 48 28 67 29 49 30 52 31 66 32 85 33 50 34
REMARK SMILES IDX 51 35 65 37 86 38 53 39 37 40 38 41 46 42 39 43 45 44 47 45
REMARK SMILES IDX 44 46 40 47 41 48 42 49 43 50 69 51 70 52 78 53 71 54 77 55
REMARK SMILES IDX 79 56 76 57 72 58 73 59 74 60 75 61 54 62 55 63 63 64 56 65
REMARK SMILES IDX 62 66 64 67 61 68 57 69 58 70 59 71 60 72 7 73 8 74 9 75
REMARK SMILES IDX 10 77 11 78 12 79 27 80 13 81 26 82 14 83 15 84 16 85 17 88
REMARK SMILES IDX 18 89 19 90 24 91 20 92 23 93 25 94 21 95 22 96
REMARK H PARENT 3 7 84 25 52 36 8 76 16 86 16 87
REMARK Flexibility Score: inf
ROOT
ATOM      1  C   UNL A   1      35.098  21.839  26.873  1.00  0.00     0.023 C 
ENDROOT
BRANCH   1   2
ATOM      2  C   UNL A   1      35.257  23.279  26.387  1.00  0.00     0.023 C 
BRANCH   2   3
ATOM      3  C   UNL A   1      36.576  23.590  25.694  1.00  0.00     0.116 C 
BRANCH   3   4
ATOM      4  N   UNL A   1      37.590  22.570  25.910  1.00  0.00    -0.352 N 
ATOM      5  O   UNL A   1      39.644  21.765  26.385  1.00  0.00    -0.269 OA
ATOM      6  C   UNL A   1      38.874  22.722  26.379  1.00  0.00     0.251 C 
ATOM      7  H   UNL A   1      37.322  21.648  25.692  1.00  0.00     0.163 HD
BRANCH   6   8
ATOM      8  C   UNL A   1      39.326  24.049  26.849  1.00  0.00     0.039 A 
ATOM      9  C   UNL A   1      39.903  24.958  25.957  1.00  0.00     0.014 A 
ATOM     10  C   UNL A   1      39.180  24.384  28.198  1.00  0.00     0.014 A 
ATOM     11  C   UNL A   1      40.449  26.142  26.436  1.00  0.00     0.010 A 
ATOM     12  C   UNL A   1      39.659  25.613  28.663  1.00  0.00     0.010 A 
ATOM     13  C   UNL A   1      40.317  26.492  27.790  1.00  0.00    -0.014 A 
BRANCH  13  14
ATOM     14  C   UNL A   1      40.797  27.823  28.244  1.00  0.00     0.031 A 
ATOM     15  C   UNL A   1      42.254  28.188  28.193  1.00  0.00     0.074 A 
ATOM     16  C   UNL A   1      39.884  28.712  28.685  1.00  0.00     0.049 A 
ATOM     17  N   UNL A   1      42.834  29.307  28.546  1.00  0.00    -0.248 NA
ATOM     18  C   UNL A   1      43.183  27.166  27.689  1.00  0.00     0.031 C 
ATOM     19  C   UNL A   1      38.444  28.456  28.785  1.00  0.00     0.029 A 
ATOM     20  N   UNL A   1      40.019  30.004  29.120  1.00  0.00    -0.354 N 
ATOM     21  C   UNL A   1      44.194  29.123  28.326  1.00  0.00     0.074 A 
ATOM     22  C   UNL A   1      44.356  27.773  27.825  1.00  0.00     0.031 C 
ATOM     23  C   UNL A   1      37.827  29.565  29.213  1.00  0.00     0.029 A 
ATOM     24  C   UNL A   1      38.828  30.589  29.487  1.00  0.00     0.049 A 
ATOM     25  H   UNL A   1      40.885  30.471  29.166  1.00  0.00     0.167 HD
ATOM     26  C   UNL A   1      45.207  30.002  28.522  1.00  0.00     0.034 A 
ATOM     27  C   UNL A   1      38.571  31.801  30.012  1.00  0.00     0.034 A 
ATOM     28  C   UNL A   1      45.022  31.350  29.011  1.00  0.00     0.049 A 
ATOM     29  C   UNL A   1      39.721  32.742  30.244  1.00  0.00     0.074 A 
ATOM     30  C   UNL A   1      45.974  32.339  29.191  1.00  0.00     0.029 A 
ATOM     31  N   UNL A   1      43.807  31.895  29.407  1.00  0.00    -0.354 N 
ATOM     32  N   UNL A   1      40.998  32.561  29.996  1.00  0.00    -0.248 NA
ATOM     33  C   UNL A   1      39.397  34.050  30.826  1.00  0.00     0.031 C 
ATOM     34  C   UNL A   1      45.349  33.455  29.759  1.00  0.00     0.029 A 
ATOM     35  C   UNL A   1      43.993  33.190  29.868  1.00  0.00     0.049 A 
ATOM     36  H   UNL A   1      42.941  31.429  29.369  1.00  0.00     0.167 HD
ATOM     37  C   UNL A   1      41.626  33.740  30.379  1.00  0.00     0.074 A 
ATOM     38  C   UNL A   1      40.586  34.633  30.847  1.00  0.00     0.031 C 
ATOM     39  C   UNL A   1      42.946  34.057  30.352  1.00  0.00     0.034 A 
BRANCH  26  40
ATOM     40  C   UNL A   1      46.615  29.530  28.255  1.00  0.00     0.023 A 
ATOM     41  C   UNL A   1      47.417  28.965  29.261  1.00  0.00     0.031 A 
ATOM     42  C   UNL A   1      47.153  29.623  26.958  1.00  0.00     0.131 A 
ATOM     43  C   UNL A   1      48.725  28.551  28.963  1.00  0.00     0.055 A 
ATOM     44  C   UNL A   1      48.432  29.155  26.654  1.00  0.00     0.041 A 
ATOM     45  F   UNL A   1      46.439  30.170  25.962  1.00  0.00    -0.206 F 
ATOM     46  C   UNL A   1      49.230  28.621  27.661  1.00  0.00     0.022 A 
BRANCH  43  47
ATOM     47  S   UNL A   1      49.796  28.000  30.318  1.00  0.00     0.124 S 
ATOM     48  O   UNL A   1      49.452  26.583  30.411  1.00  0.00    -0.237 OA
ATOM     49  O   UNL A   1      51.129  28.301  29.810  1.00  0.00    -0.237 OA
ATOM     50  O   UNL A   1      49.362  28.813  31.452  1.00  0.00    -0.744 OA
ENDBRANCH  43  47
ENDBRANCH  26  40
BRANCH  27  51
ATOM     51  C   UNL A   1      37.181  32.175  30.398  1.00  0.00     0.023 A 
ATOM     52  C   UNL A   1      36.288  32.717  29.462  1.00  0.00     0.031 A 
ATOM     53  C   UNL A   1      36.740  32.036  31.727  1.00  0.00     0.131 A 
ATOM     54  C   UNL A   1      35.017  33.143  29.876  1.00  0.00     0.055 A 
ATOM     55  C   UNL A   1      35.455  32.405  32.122  1.00  0.00     0.041 A 
ATOM     56  F   UNL A   1      37.554  31.521  32.662  1.00  0.00    -0.206 F 
ATOM     57  C   UNL A   1      34.589  32.978  31.196  1.00  0.00     0.022 A 
BRANCH  54  58
ATOM     58  S   UNL A   1      33.962  34.012  28.683  1.00  0.00     0.124 S 
ATOM     59  O   UNL A   1      33.548  32.924  27.804  1.00  0.00    -0.237 OA
ATOM     60  O   UNL A   1      32.928  34.570  29.547  1.00  0.00    -0.237 OA
ATOM     61  O   UNL A   1      34.866  34.990  28.080  1.00  0.00    -0.744 OA
ENDBRANCH  54  58
ENDBRANCH  27  51
BRANCH  39  62
ATOM     62  C   UNL A   1      43.315  35.440  30.823  1.00  0.00     0.023 A 
ATOM     63  C   UNL A   1      43.478  35.730  32.190  1.00  0.00     0.031 A 
ATOM     64  C   UNL A   1      43.467  36.489  29.899  1.00  0.00     0.131 A 
ATOM     65  C   UNL A   1      43.723  37.048  32.598  1.00  0.00     0.055 A 
ATOM     66  C   UNL A   1      43.769  37.787  30.308  1.00  0.00     0.041 A 
ATOM     67  F   UNL A   1      43.318  36.266  28.583  1.00  0.00    -0.206 F 
ATOM     68  C   UNL A   1      43.884  38.076  31.665  1.00  0.00     0.022 A 
BRANCH  65  69
ATOM     69  S   UNL A   1      43.733  37.421  34.373  1.00  0.00     0.124 S 
ATOM     70  O   UNL A   1      43.955  36.103  34.958  1.00  0.00    -0.237 OA
ATOM     71  O   UNL A   1      44.841  38.364  34.489  1.00  0.00    -0.237 OA
ATOM     72  O   UNL A   1      42.408  37.990  34.612  1.00  0.00    -0.744 OA
ENDBRANCH  65  69
ENDBRANCH  39  62
ENDBRANCH  13  14
ENDBRANCH   6   8
ENDBRANCH   3   4
ENDBRANCH   2   3
ENDBRANCH   1   2
BRANCH   1  73
ATOM     73  C   UNL A   1      33.678  21.446  27.272  1.00  0.00     0.116 C 
BRANCH  73  74
ATOM     74  N   UNL A   1      33.170  20.330  26.490  1.00  0.00    -0.352 N 
ATOM     75  C   UNL A   1      32.538  20.341  25.272  1.00  0.00     0.252 C 
ATOM     76  H   UNL A   1      33.299  19.441  26.891  1.00  0.00     0.163 HD
ATOM     77  O   UNL A   1      32.019  19.326  24.822  1.00  0.00    -0.269 OA
BRANCH  75  78
ATOM     78  C   UNL A   1      32.476  21.585  24.500  1.00  0.00     0.058 A 
ATOM     79  C   UNL A   1      31.494  22.544  24.730  1.00  0.00     0.017 A 
ATOM     80  C   UNL A   1      33.434  21.830  23.530  1.00  0.00     0.125 A 
ATOM     81  C   UNL A   1      31.470  23.684  23.935  1.00  0.00     0.030 A 
ATOM     82  N   UNL A   1      33.429  22.931  22.738  1.00  0.00    -0.255 NA
ATOM     83  C   UNL A   1      32.443  23.842  22.944  1.00  0.00     0.094 A 
BRANCH  83  84
ATOM     84  C   UNL A   1      32.461  25.111  22.112  1.00  0.00     0.318 C 
BRANCH  84  85
ATOM     85  N   UNL A   1      33.234  26.169  22.769  1.00  0.00    -0.337 N 
ATOM     86  H   UNL A   1      33.930  26.519  22.111  1.00  0.00     0.346 HD
ATOM     87  H   UNL A   1      33.662  25.758  23.600  1.00  0.00     0.346 HD
BRANCH  85  88
ATOM     88  C   UNL A   1      32.418  27.288  23.217  1.00  0.00     0.300 C 
BRANCH  88  89
ATOM     89  C   UNL A   1      32.518  27.655  24.682  1.00  0.00     0.045 A 
ATOM     90  C   UNL A   1      33.733  28.171  25.162  1.00  0.00     0.051 A 
ATOM     91  C   UNL A   1      31.493  27.434  25.614  1.00  0.00     0.132 A 
ATOM     92  C   UNL A   1      33.885  28.481  26.513  1.00  0.00     0.123 A 
ATOM     93  C   UNL A   1      31.642  27.762  26.962  1.00  0.00     0.043 A 
ATOM     94  F   UNL A   1      30.328  26.893  25.230  1.00  0.00    -0.206 F 
ATOM     95  F   UNL A   1      35.056  28.962  26.948  1.00  0.00    -0.207 F 
ATOM     96  C   UNL A   1      32.847  28.291  27.415  1.00  0.00     0.042 A 
ENDBRANCH  88  89
ENDBRANCH  85  88
ENDBRANCH  84  85
ENDBRANCH  83  84
ENDBRANCH  75  78
ENDBRANCH  73  74
ENDBRANCH   1  73
TORSDOF 18
ENDMDL
MODEL 2
REMARK VINA RESULT:     -10.9      5.008      9.599
REMARK SMILES O=C(NCCCCNC(=O)c1ccc(C[NH2+]Cc2cc(F)ccc2F)nc1)c1ccc(-c2c3nc(c(-c4cc(S(=O)(=O)[O-])ccc4F)c4ccc([nH]4)c(-c4cc(S(=O)(=O)[O-])ccc4F)c4nc(c(-c5cc(S(=O)(=O)[O-])ccc5F)c5ccc2[nH]5)C=C4)C=C3)cc1
REMARK SMILES IDX 6 1 5 2 4 3 3 4 1 5 2 6 28 8 29 9 90 10 30 11 89 12 31 13
REMARK SMILES IDX 32 14 33 15 83 16 34 17 88 18 82 19 84 20 35 21 87 22 81 23
REMARK SMILES IDX 80 24 36 26 68 27 48 28 67 29 49 30 52 31 66 32 85 33 50 34
REMARK SMILES IDX 51 35 65 37 86 38 53 39 37 40 38 41 46 42 39 43 45 44 47 45
REMARK SMILES IDX 44 46 40 47 41 48 42 49 43 50 69 51 70 52 78 53 71 54 77 55
REMARK SMILES IDX 79 56 76 57 72 58 73 59 74 60 75 61 54 62 55 63 63 64 56 65
REMARK SMILES IDX 62 66 64 67 61 68 57 69 58 70 59 71 60 72 7 73 8 74 9 75
REMARK SMILES IDX 10 77 11 78 12 79 27 80 13 81 26 82 14 83 15 84 16 85 17 88
REMARK SMILES IDX 18 89 19 90 24 91 20 92 23 93 25 94 21 95 22 96
REMARK H PARENT 3 7 84 25 52 36 8 76 16 86 16 87
REMARK Flexibility Score: inf
ROOT
ATOM      1  C   UNL A   1      31.611  31.117  25.906  1.00  0.00     0.023 C 
ENDROOT
BRANCH   1   2
ATOM      2  C   UNL A   1      31.364  32.432  26.644  1.00  0.00     0.023 C 
BRANCH   2   3
ATOM      3  C   UNL A   1      32.570  33.007  27.372  1.00  0.00     0.116 C 
BRANCH   3   4
ATOM      4  N   UNL A   1      32.375  34.382  27.805  1.00  0.00    -0.352 N 
ATOM      5  O   UNL A   1      32.654  36.194  29.121  1.00  0.00    -0.269 OA
ATOM      6  C   UNL A   1      33.029  35.069  28.801  1.00  0.00     0.251 C 
ATOM      7  H   UNL A   1      31.683  34.888  27.321  1.00  0.00     0.163 HD
BRANCH   6   8
ATOM      8  C   UNL A   1      34.168  34.433  29.498  1.00  0.00     0.039 A 
ATOM      9  C   UNL A   1      35.475  34.623  29.039  1.00  0.00     0.014 A 
ATOM     10  C   UNL A   1      33.926  33.630  30.616  1.00  0.00     0.014 A 
ATOM     11  C   UNL A   1      36.519  33.911  29.615  1.00  0.00     0.010 A 
ATOM     12  C   UNL A   1      34.990  32.977  31.245  1.00  0.00     0.010 A 
ATOM     13  C   UNL A   1      36.292  33.095  30.736  1.00  0.00    -0.014 A 
BRANCH  13  14
ATOM     14  C   UNL A   1      37.450  32.449  31.407  1.00  0.00     0.031 A 
ATOM     15  C   UNL A   1      37.937  32.918  32.750  1.00  0.00     0.074 A 
ATOM     16  C   UNL A   1      38.045  31.410  30.788  1.00  0.00     0.049 A 
ATOM     17  N   UNL A   1      38.929  32.458  33.470  1.00  0.00    -0.248 NA
ATOM     18  C   UNL A   1      37.227  34.050  33.362  1.00  0.00     0.031 C 
ATOM     19  C   UNL A   1      37.657  30.881  29.477  1.00  0.00     0.029 A 
ATOM     20  N   UNL A   1      39.086  30.605  31.172  1.00  0.00    -0.354 N 
ATOM     21  C   UNL A   1      38.978  33.252  34.610  1.00  0.00     0.074 A 
ATOM     22  C   UNL A   1      37.924  34.238  34.477  1.00  0.00     0.031 C 
ATOM     23  C   UNL A   1      38.421  29.820  29.185  1.00  0.00     0.029 A 
ATOM     24  C   UNL A   1      39.399  29.633  30.249  1.00  0.00     0.049 A 
ATOM     25  H   UNL A   1      39.563  30.712  32.027  1.00  0.00     0.167 HD
ATOM     26  C   UNL A   1      39.822  33.161  35.667  1.00  0.00     0.034 A 
ATOM     27  C   UNL A   1      40.382  28.713  30.245  1.00  0.00     0.034 A 
ATOM     28  C   UNL A   1      40.859  32.161  35.787  1.00  0.00     0.049 A 
ATOM     29  C   UNL A   1      41.320  28.657  31.419  1.00  0.00     0.074 A 
ATOM     30  C   UNL A   1      41.730  31.946  36.840  1.00  0.00     0.029 A 
ATOM     31  N   UNL A   1      41.172  31.217  34.816  1.00  0.00    -0.354 N 
ATOM     32  N   UNL A   1      41.326  29.396  32.505  1.00  0.00    -0.248 NA
ATOM     33  C   UNL A   1      42.381  27.645  31.369  1.00  0.00     0.031 C 
ATOM     34  C   UNL A   1      42.612  30.920  36.481  1.00  0.00     0.029 A 
ATOM     35  C   UNL A   1      42.247  30.446  35.232  1.00  0.00     0.049 A 
ATOM     36  H   UNL A   1      40.701  31.112  33.958  1.00  0.00     0.167 HD
ATOM     37  C   UNL A   1      42.385  28.925  33.273  1.00  0.00     0.074 A 
ATOM     38  C   UNL A   1      42.973  27.823  32.540  1.00  0.00     0.031 C 
ATOM     39  C   UNL A   1      42.835  29.366  34.475  1.00  0.00     0.034 A 
BRANCH  26  40
ATOM     40  C   UNL A   1      39.698  34.191  36.762  1.00  0.00     0.023 A 
ATOM     41  C   UNL A   1      39.262  33.858  38.055  1.00  0.00     0.031 A 
ATOM     42  C   UNL A   1      40.051  35.530  36.510  1.00  0.00     0.131 A 
ATOM     43  C   UNL A   1      39.154  34.857  39.036  1.00  0.00     0.055 A 
ATOM     44  C   UNL A   1      39.999  36.508  37.505  1.00  0.00     0.041 A 
ATOM     45  F   UNL A   1      40.457  35.909  35.288  1.00  0.00    -0.206 F 
ATOM     46  C   UNL A   1      39.540  36.175  38.776  1.00  0.00     0.022 A 
BRANCH  43  47
ATOM     47  S   UNL A   1      38.414  34.432  40.636  1.00  0.00     0.124 S 
ATOM     48  O   UNL A   1      37.227  33.685  40.225  1.00  0.00    -0.237 OA
ATOM     49  O   UNL A   1      39.469  33.654  41.275  1.00  0.00    -0.237 OA
ATOM     50  O   UNL A   1      38.142  35.732  41.246  1.00  0.00    -0.744 OA
ENDBRANCH  43  47
ENDBRANCH  26  40
BRANCH  27  51
ATOM     51  C   UNL A   1      40.560  27.808  29.075  1.00  0.00     0.023 A 
ATOM     52  C   UNL A   1      41.480  28.107  28.059  1.00  0.00     0.031 A 
ATOM     53  C   UNL A   1      39.776  26.648  28.934  1.00  0.00     0.131 A 
ATOM     54  C   UNL A   1      41.561  27.283  26.926  1.00  0.00     0.055 A 
ATOM     55  C   UNL A   1      39.901  25.799  27.835  1.00  0.00     0.041 A 
ATOM     56  F   UNL A   1      38.882  26.314  29.879  1.00  0.00    -0.206 F 
ATOM     57  C   UNL A   1      40.788  26.124  26.813  1.00  0.00     0.022 A 
BRANCH  54  58
ATOM     58  S   UNL A   1      42.621  27.803  25.549  1.00  0.00     0.124 S 
ATOM     59  O   UNL A   1      43.889  28.047  26.226  1.00  0.00    -0.237 OA
ATOM     60  O   UNL A   1      42.572  26.636  24.675  1.00  0.00    -0.237 OA
ATOM     61  O   UNL A   1      41.949  28.995  25.034  1.00  0.00    -0.744 OA
ENDBRANCH  54  58
ENDBRANCH  27  51
BRANCH  39  62
ATOM     62  C   UNL A   1      44.007  28.626  35.067  1.00  0.00     0.023 A 
ATOM     63  C   UNL A   1      43.827  27.620  36.033  1.00  0.00     0.031 A 
ATOM     64  C   UNL A   1      45.321  28.958  34.690  1.00  0.00     0.131 A 
ATOM     65  C   UNL A   1      44.943  27.023  36.635  1.00  0.00     0.055 A 
ATOM     66  C   UNL A   1      46.426  28.318  35.251  1.00  0.00     0.041 A 
ATOM     67  F   UNL A   1      45.548  29.914  33.775  1.00  0.00    -0.206 F 
ATOM     68  C   UNL A   1      46.242  27.355  36.239  1.00  0.00     0.022 A 
BRANCH  65  69
ATOM     69  S   UNL A   1      44.679  25.873  38.012  1.00  0.00     0.124 S 
ATOM     70  O   UNL A   1      44.306  24.647  37.315  1.00  0.00    -0.237 OA
ATOM     71  O   UNL A   1      45.982  25.863  38.667  1.00  0.00    -0.237 OA
ATOM     72  O   UNL A   1      43.604  26.500  38.781  1.00  0.00    -0.744 OA
ENDBRANCH  65  69
ENDBRANCH  39  62
ENDBRANCH  13  14
ENDBRANCH   6   8
ENDBRANCH   3   4
ENDBRANCH   2   3
ENDBRANCH   1   2
BRANCH   1  73
ATOM     73  C   UNL A   1      32.808  30.312  26.405  1.00  0.00     0.116 C 
BRANCH  73  74
ATOM     74  N   UNL A   1      32.448  29.379  27.461  1.00  0.00    -0.352 N 
ATOM     75  C   UNL A   1      32.122  28.049  27.370  1.00  0.00     0.252 C 
ATOM     76  H   UNL A   1      32.438  29.755  28.371  1.00  0.00     0.163 HD
ATOM     77  O   UNL A   1      31.677  27.442  28.337  1.00  0.00    -0.269 OA
BRANCH  75  78
ATOM     78  C   UNL A   1      32.301  27.346  26.097  1.00  0.00     0.058 A 
ATOM     79  C   UNL A   1      33.563  27.014  25.612  1.00  0.00     0.017 A 
ATOM     80  C   UNL A   1      31.185  26.975  25.364  1.00  0.00     0.125 A 
ATOM     81  C   UNL A   1      33.662  26.381  24.378  1.00  0.00     0.030 A 
ATOM     82  N   UNL A   1      31.256  26.362  24.157  1.00  0.00    -0.255 NA
ATOM     83  C   UNL A   1      32.493  26.078  23.674  1.00  0.00     0.094 A 
BRANCH  83  84
ATOM     84  C   UNL A   1      32.589  25.333  22.355  1.00  0.00     0.318 C 
BRANCH  84  85
ATOM     85  N   UNL A   1      33.530  24.213  22.443  1.00  0.00    -0.337 N 
ATOM     86  H   UNL A   1      34.043  24.289  23.321  1.00  0.00     0.346 HD
ATOM     87  H   UNL A   1      34.145  24.271  21.631  1.00  0.00     0.346 HD
BRANCH  85  88
ATOM     88  C   UNL A   1      32.883  22.909  22.397  1.00  0.00     0.300 C 
BRANCH  88  89
ATOM     89  C   UNL A   1      32.961  22.071  23.655  1.00  0.00     0.045 A 
ATOM     90  C   UNL A   1      33.522  22.644  24.808  1.00  0.00     0.051 A 
ATOM     91  C   UNL A   1      32.580  20.723  23.720  1.00  0.00     0.132 A 
ATOM     92  C   UNL A   1      33.655  21.896  25.977  1.00  0.00     0.123 A 
ATOM     93  C   UNL A   1      32.697  19.981  24.896  1.00  0.00     0.043 A 
ATOM     94  F   UNL A   1      32.088  20.101  22.639  1.00  0.00    -0.206 F 
ATOM     95  F   UNL A   1      34.202  22.461  27.060  1.00  0.00    -0.207 F 
ATOM     96  C   UNL A   1      33.238  20.573  26.034  1.00  0.00     0.042 A 
ENDBRANCH  88  89
ENDBRANCH  85  88
ENDBRANCH  84  85
ENDBRANCH  83  84
ENDBRANCH  75  78
ENDBRANCH  73  74
ENDBRANCH   1  73
TORSDOF 18
ENDMDL
MODEL 3
REMARK VINA RESULT:     -10.9      4.845      9.499
REMARK SMILES O=C(NCCCCNC(=O)c1ccc(C[NH2+]Cc2cc(F)ccc2F)nc1)c1ccc(-c2c3nc(c(-c4cc(S(=O)(=O)[O-])ccc4F)c4ccc([nH]4)c(-c4cc(S(=O)(=O)[O-])ccc4F)c4nc(c(-c5cc(S(=O)(=O)[O-])ccc5F)c5ccc2[nH]5)C=C4)C=C3)cc1
REMARK SMILES IDX 6 1 5 2 4 3 3 4 1 5 2 6 28 8 29 9 90 10 30 11 89 12 31 13
REMARK SMILES IDX 32 14 33 15 83 16 34 17 88 18 82 19 84 20 35 21 87 22 81 23
REMARK SMILES IDX 80 24 36 26 68 27 48 28 67 29 49 30 52 31 66 32 85 33 50 34
REMARK SMILES IDX 51 35 65 37 86 38 53 39 37 40 38 41 46 42 39 43 45 44 47 45
REMARK SMILES IDX 44 46 40 47 41 48 42 49 43 50 69 51 70 52 78 53 71 54 77 55
REMARK SMILES IDX 79 56 76 57 72 58 73 59 74 60 75 61 54 62 55 63 63 64 56 65
REMARK SMILES IDX 62 66 64 67 61 68 57 69 58 70 59 71 60 72 7 73 8 74 9 75
REMARK SMILES IDX 10 77 11 78 12 79 27 80 13 81 26 82 14 83 15 84 16 85 17 88
REMARK SMILES IDX 18 89 19 90 24 91 20 92 23 93 25 94 21 95 22 96
REMARK H PARENT 3 7 84 25 52 36 8 76 16 86 16 87
REMARK Flexibility Score: inf
ROOT
ATOM      1  C   UNL A   1      31.630  30.343  26.564  1.00  0.00     0.023 C 
ENDROOT
BRANCH   1   2
ATOM      2  C   UNL A   1      31.514  31.862  26.684  1.00  0.00     0.023 C 
BRANCH   2   3
ATOM      3  C   UNL A   1      32.780  32.578  27.133  1.00  0.00     0.116 C 
BRANCH   3   4
ATOM      4  N   UNL A   1      32.535  33.935  27.597  1.00  0.00    -0.352 N 
ATOM      5  O   UNL A   1      32.741  35.722  28.959  1.00  0.00    -0.269 OA
ATOM      6  C   UNL A   1      33.156  34.619  28.616  1.00  0.00     0.251 C 
ATOM      7  H   UNL A   1      31.832  34.430  27.118  1.00  0.00     0.163 HD
BRANCH   6   8
ATOM      8  C   UNL A   1      34.308  34.003  29.310  1.00  0.00     0.039 A 
ATOM      9  C   UNL A   1      35.612  34.409  29.014  1.00  0.00     0.014 A 
ATOM     10  C   UNL A   1      34.082  33.002  30.259  1.00  0.00     0.014 A 
ATOM     11  C   UNL A   1      36.689  33.729  29.569  1.00  0.00     0.010 A 
ATOM     12  C   UNL A   1      35.167  32.374  30.876  1.00  0.00     0.010 A 
ATOM     13  C   UNL A   1      36.480  32.716  30.520  1.00  0.00    -0.014 A 
BRANCH  13  14
ATOM     14  C   UNL A   1      37.653  32.098  31.189  1.00  0.00     0.031 A 
ATOM     15  C   UNL A   1      38.146  32.593  32.521  1.00  0.00     0.074 A 
ATOM     16  C   UNL A   1      38.258  31.059  30.579  1.00  0.00     0.049 A 
ATOM     17  N   UNL A   1      39.151  32.159  33.237  1.00  0.00    -0.248 NA
ATOM     18  C   UNL A   1      37.425  33.723  33.123  1.00  0.00     0.031 C 
ATOM     19  C   UNL A   1      37.866  30.505  29.279  1.00  0.00     0.029 A 
ATOM     20  N   UNL A   1      39.315  30.276  30.964  1.00  0.00    -0.354 N 
ATOM     21  C   UNL A   1      39.199  32.969  34.365  1.00  0.00     0.074 A 
ATOM     22  C   UNL A   1      38.129  33.937  34.228  1.00  0.00     0.031 C 
ATOM     23  C   UNL A   1      38.644  29.452  28.995  1.00  0.00     0.029 A 
ATOM     24  C   UNL A   1      39.635  29.296  30.052  1.00  0.00     0.049 A 
ATOM     25  H   UNL A   1      39.798  30.401  31.812  1.00  0.00     0.167 HD
ATOM     26  C   UNL A   1      40.054  32.906  35.415  1.00  0.00     0.034 A 
ATOM     27  C   UNL A   1      40.631  28.390  30.051  1.00  0.00     0.034 A 
ATOM     28  C   UNL A   1      41.107  31.923  35.539  1.00  0.00     0.049 A 
ATOM     29  C   UNL A   1      41.580  28.365  31.217  1.00  0.00     0.074 A 
ATOM     30  C   UNL A   1      41.992  31.736  36.587  1.00  0.00     0.029 A 
ATOM     31  N   UNL A   1      41.426  30.971  34.579  1.00  0.00    -0.354 N 
ATOM     32  N   UNL A   1      41.586  29.119  32.292  1.00  0.00    -0.248 NA
ATOM     33  C   UNL A   1      42.657  27.369  31.171  1.00  0.00     0.031 C 
ATOM     34  C   UNL A   1      42.885  30.720  36.234  1.00  0.00     0.029 A 
ATOM     35  C   UNL A   1      42.516  30.222  34.995  1.00  0.00     0.049 A 
ATOM     36  H   UNL A   1      40.948  30.847  33.727  1.00  0.00     0.167 HD
ATOM     37  C   UNL A   1      42.659  28.676  33.057  1.00  0.00     0.074 A 
ATOM     38  C   UNL A   1      43.257  27.572  32.334  1.00  0.00     0.031 C 
ATOM     39  C   UNL A   1      43.114  29.140  34.248  1.00  0.00     0.034 A 
BRANCH  26  40
ATOM     40  C   UNL A   1      39.925  33.950  36.497  1.00  0.00     0.023 A 
ATOM     41  C   UNL A   1      39.449  33.639  37.781  1.00  0.00     0.031 A 
ATOM     42  C   UNL A   1      40.314  35.278  36.241  1.00  0.00     0.131 A 
ATOM     43  C   UNL A   1      39.337  34.650  38.750  1.00  0.00     0.055 A 
ATOM     44  C   UNL A   1      40.258  36.267  37.226  1.00  0.00     0.041 A 
ATOM     45  F   UNL A   1      40.760  35.636  35.026  1.00  0.00    -0.206 F 
ATOM     46  C   UNL A   1      39.760  35.957  38.487  1.00  0.00     0.022 A 
BRANCH  43  47
ATOM     47  S   UNL A   1      38.547  34.258  40.334  1.00  0.00     0.124 S 
ATOM     48  O   UNL A   1      39.584  33.466  40.994  1.00  0.00    -0.237 OA
ATOM     49  O   UNL A   1      38.297  35.579  40.898  1.00  0.00    -0.237 OA
ATOM     50  O   UNL A   1      37.354  33.509  39.947  1.00  0.00    -0.744 OA
ENDBRANCH  43  47
ENDBRANCH  26  40
BRANCH  27  51
ATOM     51  C   UNL A   1      40.812  27.471  28.892  1.00  0.00     0.023 A 
ATOM     52  C   UNL A   1      41.809  27.700  27.933  1.00  0.00     0.031 A 
ATOM     53  C   UNL A   1      39.955  26.370  28.704  1.00  0.00     0.131 A 
ATOM     54  C   UNL A   1      41.896  26.869  26.805  1.00  0.00     0.055 A 
ATOM     55  C   UNL A   1      40.084  25.512  27.613  1.00  0.00     0.041 A 
ATOM     56  F   UNL A   1      38.986  26.105  29.594  1.00  0.00    -0.206 F 
ATOM     57  C   UNL A   1      41.050  25.769  26.646  1.00  0.00     0.022 A 
BRANCH  54  58
ATOM     58  S   UNL A   1      43.070  27.308  25.494  1.00  0.00     0.124 S 
ATOM     59  O   UNL A   1      43.333  26.010  24.883  1.00  0.00    -0.237 OA
ATOM     60  O   UNL A   1      42.292  28.248  24.696  1.00  0.00    -0.237 OA
ATOM     61  O   UNL A   1      44.193  27.892  26.225  1.00  0.00    -0.744 OA
ENDBRANCH  54  58
ENDBRANCH  27  51
BRANCH  39  62
ATOM     62  C   UNL A   1      44.302  28.426  34.839  1.00  0.00     0.023 A 
ATOM     63  C   UNL A   1      44.144  27.313  35.683  1.00  0.00     0.031 A 
ATOM     64  C   UNL A   1      45.606  28.889  34.587  1.00  0.00     0.131 A 
ATOM     65  C   UNL A   1      45.265  26.737  36.295  1.00  0.00     0.055 A 
ATOM     66  C   UNL A   1      46.723  28.273  35.152  1.00  0.00     0.041 A 
ATOM     67  F   UNL A   1      45.812  29.950  33.791  1.00  0.00    -0.206 F 
ATOM     68  C   UNL A   1      46.556  27.200  36.023  1.00  0.00     0.022 A 
BRANCH  65  69
ATOM     69  S   UNL A   1      45.009  25.431  37.527  1.00  0.00     0.124 S 
ATOM     70  O   UNL A   1      46.266  25.462  38.267  1.00  0.00    -0.237 OA
ATOM     71  O   UNL A   1      43.834  25.907  38.249  1.00  0.00    -0.237 OA
ATOM     72  O   UNL A   1      44.795  24.232  36.718  1.00  0.00    -0.744 OA
ENDBRANCH  65  69
ENDBRANCH  39  62
ENDBRANCH  13  14
ENDBRANCH   6   8
ENDBRANCH   3   4
ENDBRANCH   2   3
ENDBRANCH   1   2
BRANCH   1  73
ATOM     73  C   UNL A   1      32.572  29.852  25.468  1.00  0.00     0.116 C 
BRANCH  73  74
ATOM     74  N   UNL A   1      31.883  29.619  24.208  1.00  0.00    -0.352 N 
ATOM     75  C   UNL A   1      31.435  28.439  23.670  1.00  0.00     0.252 C 
ATOM     76  H   UNL A   1      31.714  30.422  23.665  1.00  0.00     0.163 HD
ATOM     77  O   UNL A   1      31.022  28.388  22.517  1.00  0.00    -0.269 OA
BRANCH  75  78
ATOM     78  C   UNL A   1      31.455  27.219  24.482  1.00  0.00     0.058 A 
ATOM     79  C   UNL A   1      30.291  26.672  25.017  1.00  0.00     0.017 A 
ATOM     80  C   UNL A   1      32.660  26.573  24.706  1.00  0.00     0.125 A 
ATOM     81  C   UNL A   1      30.388  25.535  25.811  1.00  0.00     0.030 A 
ATOM     82  N   UNL A   1      32.780  25.466  25.479  1.00  0.00    -0.255 NA
ATOM     83  C   UNL A   1      31.645  24.964  26.029  1.00  0.00     0.094 A 
BRANCH  83  84
ATOM     84  C   UNL A   1      31.752  23.687  26.844  1.00  0.00     0.318 C 
BRANCH  84  85
ATOM     85  N   UNL A   1      31.853  22.509  25.977  1.00  0.00    -0.337 N 
ATOM     86  H   UNL A   1      31.796  22.815  25.006  1.00  0.00     0.346 HD
ATOM     87  H   UNL A   1      31.087  21.883  26.230  1.00  0.00     0.346 HD
BRANCH  85  88
ATOM     88  C   UNL A   1      33.092  21.764  26.155  1.00  0.00     0.300 C 
BRANCH  88  89
ATOM     89  C   UNL A   1      34.324  22.331  25.484  1.00  0.00     0.045 A 
ATOM     90  C   UNL A   1      35.330  22.888  26.292  1.00  0.00     0.051 A 
ATOM     91  C   UNL A   1      34.490  22.409  24.094  1.00  0.00     0.132 A 
ATOM     92  C   UNL A   1      36.462  23.462  25.715  1.00  0.00     0.123 A 
ATOM     93  C   UNL A   1      35.633  22.967  23.520  1.00  0.00     0.043 A 
ATOM     94  F   UNL A   1      33.543  21.945  23.267  1.00  0.00    -0.206 F 
ATOM     95  F   UNL A   1      37.402  23.996  26.506  1.00  0.00    -0.207 F 
ATOM     96  C   UNL A   1      36.628  23.497  24.337  1.00  0.00     0.042 A 
ENDBRANCH  88  89
ENDBRANCH  85  88
ENDBRANCH  84  85
ENDBRANCH  83  84
ENDBRANCH  75  78
ENDBRANCH  73  74
ENDBRANCH   1  73
TORSDOF 18
ENDMDL
