MODEL 1
REMARK VINA RESULT:     -13.9      0.000      0.000
REMARK SMILES CN1C(=O)/C(=C\c2cccc(Cl)c2)Sc2ccc(C(=O)NCCCCNC(=O)c3ccc(-c4c5nc(c(-c6cc(S(=O)(=O)[O-])ccc6F)c6ccc([nH]6)c(-c6cc(S(=O)(=O)[O-])ccc6F)c6nc(c(-c7cc(S(=O)(=O)[O-])ccc7F)c7ccc4[nH]7)C=C6)C=C5)cc3)cc21
REMARK SMILES IDX 24 1 23 2 22 3 21 4 19 5 20 6 18 8 1 9 2 10 3 11 93 12 4 13
REMARK SMILES IDX 5 14 15 15 92 16 6 17 14 18 16 19 17 20 7 21 8 22 13 23 9 24
REMARK SMILES IDX 11 25 10 26 12 27 25 28 26 29 27 30 28 32 29 33 30 34 91 35
REMARK SMILES IDX 31 36 90 37 32 38 33 39 34 40 84 41 35 42 89 43 83 44 85 45
REMARK SMILES IDX 36 46 88 47 82 48 81 49 37 51 69 52 49 53 68 54 50 55 53 56
REMARK SMILES IDX 67 57 86 58 51 59 52 60 66 62 87 63 54 64 38 65 39 66 47 67
REMARK SMILES IDX 40 68 46 69 48 70 45 71 41 72 42 73 43 74 44 75 70 76 71 77
REMARK SMILES IDX 79 78 72 79 78 80 80 81 77 82 73 83 74 84 75 85 76 86 55 87
REMARK SMILES IDX 56 88 64 89 57 90 63 91 65 92 62 93 58 94 59 95 60 96 61 97
REMARK H PARENT 21 7 26 31 85 50 53 61
REMARK Flexibility Score: inf
ROOT
ATOM      1  C   UNL A   1      35.950  22.837  25.927  1.00  0.00     0.023 C 
ENDROOT
BRANCH   1   2
ATOM      2  C   UNL A   1      35.490  21.464  26.421  1.00  0.00     0.023 C 
BRANCH   2   3
ATOM      3  C   UNL A   1      34.121  21.450  27.109  1.00  0.00     0.116 C 
BRANCH   3   4
ATOM      4  N   UNL A   1      33.164  20.654  26.368  1.00  0.00    -0.352 N 
ATOM      5  C   UNL A   1      32.488  20.869  25.196  1.00  0.00     0.251 C 
ATOM      6  O   UNL A   1      31.780  19.948  24.782  1.00  0.00    -0.269 OA
ATOM      7  H   UNL A   1      32.957  19.789  26.791  1.00  0.00     0.163 HD
BRANCH   5   8
ATOM      8  C   UNL A   1      32.559  22.128  24.390  1.00  0.00     0.041 A 
ATOM      9  C   UNL A   1      30.650  25.467  26.215  1.00  0.00     0.153 C 
ATOM     10  N   UNL A   1      31.231  25.621  24.885  1.00  0.00    -0.310 N 
ATOM     11  C   UNL A   1      31.230  26.903  24.343  1.00  0.00     0.264 C 
ATOM     12  C   UNL A   1      31.853  24.493  24.257  1.00  0.00     0.058 A 
ATOM     13  O   UNL A   1      31.015  27.908  25.023  1.00  0.00    -0.268 OA
ATOM     14  C   UNL A   1      31.430  27.021  22.864  1.00  0.00     0.078 C 
ATOM     15  C   UNL A   1      32.611  24.638  23.089  1.00  0.00     0.036 A 
ATOM     16  C   UNL A   1      31.805  23.220  24.861  1.00  0.00     0.041 A 
ATOM     17  C   UNL A   1      30.666  27.825  22.099  1.00  0.00     0.029 C 
ATOM     18  S   UNL A   1      32.733  26.146  22.161  1.00  0.00    -0.082 SA
ATOM     19  C   UNL A   1      33.368  23.560  22.614  1.00  0.00     0.018 A 
ATOM     20  C   UNL A   1      33.367  22.331  23.276  1.00  0.00     0.015 A 
BRANCH  17  21
ATOM     21  C   UNL A   1      29.579  28.676  22.595  1.00  0.00    -0.023 A 
ATOM     22  C   UNL A   1      28.353  28.092  22.937  1.00  0.00     0.008 A 
ATOM     23  C   UNL A   1      29.735  30.062  22.682  1.00  0.00     0.028 A 
ATOM     24  C   UNL A   1      27.277  28.885  23.333  1.00  0.00     0.002 A 
ATOM     25  C   UNL A   1      28.657  30.849  23.090  1.00  0.00     0.041 A 
ATOM     26  C   UNL A   1      27.429  30.269  23.408  1.00  0.00     0.020 A 
ATOM     27  Cl  UNL A   1      28.837  32.559  23.190  1.00  0.00    -0.084 Cl
ENDBRANCH  17  21
ENDBRANCH   5   8
ENDBRANCH   3   4
ENDBRANCH   2   3
ENDBRANCH   1   2
BRANCH   1  28
ATOM     28  C   UNL A   1      37.191  22.819  25.045  1.00  0.00     0.116 C 
BRANCH  28  29
ATOM     29  N   UNL A   1      38.081  21.693  25.296  1.00  0.00    -0.352 N 
ATOM     30  C   UNL A   1      39.213  21.673  26.085  1.00  0.00     0.251 C 
ATOM     31  H   UNL A   1      37.847  20.848  24.849  1.00  0.00     0.163 HD
ATOM     32  O   UNL A   1      39.922  20.679  26.127  1.00  0.00    -0.269 OA
BRANCH  30  33
ATOM     33  C   UNL A   1      39.582  22.904  26.820  1.00  0.00     0.039 A 
ATOM     34  C   UNL A   1      39.040  24.133  26.448  1.00  0.00     0.014 A 
ATOM     35  C   UNL A   1      40.558  22.836  27.817  1.00  0.00     0.014 A 
ATOM     36  C   UNL A   1      39.614  25.304  26.923  1.00  0.00     0.010 A 
ATOM     37  C   UNL A   1      41.068  24.017  28.366  1.00  0.00     0.010 A 
ATOM     38  C   UNL A   1      40.649  25.261  27.873  1.00  0.00    -0.014 A 
BRANCH  38  39
ATOM     39  C   UNL A   1      41.278  26.539  28.306  1.00  0.00     0.031 A 
ATOM     40  C   UNL A   1      42.690  26.880  27.910  1.00  0.00     0.074 A 
ATOM     41  C   UNL A   1      40.530  27.436  28.978  1.00  0.00     0.049 A 
ATOM     42  N   UNL A   1      43.349  27.995  28.102  1.00  0.00    -0.248 NA
ATOM     43  C   UNL A   1      43.467  25.842  27.215  1.00  0.00     0.031 C 
ATOM     44  C   UNL A   1      39.153  27.208  29.416  1.00  0.00     0.029 A 
ATOM     45  N   UNL A   1      40.795  28.724  29.372  1.00  0.00    -0.354 N 
ATOM     46  C   UNL A   1      44.617  27.788  27.568  1.00  0.00     0.074 A 
ATOM     47  C   UNL A   1      44.649  26.429  27.077  1.00  0.00     0.031 C 
ATOM     48  C   UNL A   1      38.668  28.338  29.944  1.00  0.00     0.029 A 
ATOM     49  C   UNL A   1      39.716  29.356  29.946  1.00  0.00     0.049 A 
ATOM     50  H   UNL A   1      41.673  29.154  29.255  1.00  0.00     0.167 HD
ATOM     51  C   UNL A   1      45.652  28.658  27.482  1.00  0.00     0.034 A 
ATOM     52  C   UNL A   1      39.577  30.613  30.414  1.00  0.00     0.034 A 
ATOM     53  C   UNL A   1      45.599  30.018  27.958  1.00  0.00     0.049 A 
ATOM     54  C   UNL A   1      40.738  31.566  30.293  1.00  0.00     0.074 A 
ATOM     55  C   UNL A   1      46.595  30.978  27.915  1.00  0.00     0.029 A 
ATOM     56  N   UNL A   1      44.494  30.616  28.548  1.00  0.00    -0.354 N 
ATOM     57  N   UNL A   1      41.916  31.362  29.752  1.00  0.00    -0.248 NA
ATOM     58  C   UNL A   1      40.553  32.919  30.833  1.00  0.00     0.031 C 
ATOM     59  C   UNL A   1      46.109  32.139  28.520  1.00  0.00     0.029 A 
ATOM     60  C   UNL A   1      44.788  31.927  28.881  1.00  0.00     0.049 A 
ATOM     61  H   UNL A   1      43.629  30.173  28.705  1.00  0.00     0.167 HD
ATOM     62  C   UNL A   1      42.604  32.565  29.867  1.00  0.00     0.074 A 
ATOM     63  C   UNL A   1      41.700  33.500  30.504  1.00  0.00     0.031 C 
ATOM     64  C   UNL A   1      43.872  32.864  29.487  1.00  0.00     0.034 A 
BRANCH  51  65
ATOM     65  C   UNL A   1      46.936  28.194  26.840  1.00  0.00     0.023 A 
ATOM     66  C   UNL A   1      47.061  28.185  25.437  1.00  0.00     0.031 A 
ATOM     67  C   UNL A   1      47.980  27.642  27.603  1.00  0.00     0.131 A 
ATOM     68  C   UNL A   1      48.189  27.607  24.842  1.00  0.00     0.055 A 
ATOM     69  C   UNL A   1      49.120  27.102  27.005  1.00  0.00     0.041 A 
ATOM     70  F   UNL A   1      47.910  27.628  28.945  1.00  0.00    -0.206 F 
ATOM     71  C   UNL A   1      49.221  27.070  25.618  1.00  0.00     0.022 A 
BRANCH  68  72
ATOM     72  S   UNL A   1      48.333  27.469  23.039  1.00  0.00     0.124 S 
ATOM     73  O   UNL A   1      48.279  26.021  22.845  1.00  0.00    -0.237 OA
ATOM     74  O   UNL A   1      47.158  28.203  22.581  1.00  0.00    -0.237 OA
ATOM     75  O   UNL A   1      49.620  28.087  22.740  1.00  0.00    -0.744 OA
ENDBRANCH  68  72
ENDBRANCH  51  65
BRANCH  52  76
ATOM     76  C   UNL A   1      38.256  31.038  30.965  1.00  0.00     0.023 A 
ATOM     77  C   UNL A   1      37.270  31.594  30.129  1.00  0.00     0.031 A 
ATOM     78  C   UNL A   1      38.010  31.010  32.348  1.00  0.00     0.131 A 
ATOM     79  C   UNL A   1      36.124  32.171  30.690  1.00  0.00     0.055 A 
ATOM     80  C   UNL A   1      36.831  31.518  32.896  1.00  0.00     0.041 A 
ATOM     81  F   UNL A   1      38.927  30.505  33.188  1.00  0.00    -0.206 F 
ATOM     82  C   UNL A   1      35.891  32.121  32.068  1.00  0.00     0.022 A 
BRANCH  79  83
ATOM     83  S   UNL A   1      34.983  33.146  29.669  1.00  0.00     0.124 S 
ATOM     84  O   UNL A   1      34.478  32.143  28.739  1.00  0.00    -0.237 OA
ATOM     85  O   UNL A   1      34.027  33.625  30.664  1.00  0.00    -0.237 OA
ATOM     86  O   UNL A   1      35.837  34.176  29.088  1.00  0.00    -0.744 OA
ENDBRANCH  79  83
ENDBRANCH  52  76
BRANCH  64  87
ATOM     87  C   UNL A   1      44.387  34.264  29.718  1.00  0.00     0.023 A 
ATOM     88  C   UNL A   1      44.128  35.270  28.768  1.00  0.00     0.031 A 
ATOM     89  C   UNL A   1      45.254  34.560  30.783  1.00  0.00     0.131 A 
ATOM     90  C   UNL A   1      44.759  36.515  28.882  1.00  0.00     0.055 A 
ATOM     91  C   UNL A   1      45.847  35.817  30.916  1.00  0.00     0.041 A 
ATOM     92  F   UNL A   1      45.542  33.629  31.707  1.00  0.00    -0.206 F 
ATOM     93  C   UNL A   1      45.612  36.796  29.955  1.00  0.00     0.022 A 
BRANCH  90  94
ATOM     94  S   UNL A   1      44.572  37.781  27.596  1.00  0.00     0.124 S 
ATOM     95  O   UNL A   1      43.390  37.308  26.878  1.00  0.00    -0.237 OA
ATOM     96  O   UNL A   1      44.376  38.996  28.385  1.00  0.00    -0.237 OA
ATOM     97  O   UNL A   1      45.823  37.714  26.849  1.00  0.00    -0.744 OA
ENDBRANCH  90  94
ENDBRANCH  64  87
ENDBRANCH  38  39
ENDBRANCH  30  33
ENDBRANCH  28  29
ENDBRANCH   1  28
TORSDOF 15
ENDMDL
MODEL 2
REMARK VINA RESULT:     -13.4      5.253     10.602
REMARK SMILES CN1C(=O)/C(=C\c2cccc(Cl)c2)Sc2ccc(C(=O)NCCCCNC(=O)c3ccc(-c4c5nc(c(-c6cc(S(=O)(=O)[O-])ccc6F)c6ccc([nH]6)c(-c6cc(S(=O)(=O)[O-])ccc6F)c6nc(c(-c7cc(S(=O)(=O)[O-])ccc7F)c7ccc4[nH]7)C=C6)C=C5)cc3)cc21
REMARK SMILES IDX 24 1 23 2 22 3 21 4 19 5 20 6 18 8 1 9 2 10 3 11 93 12 4 13
REMARK SMILES IDX 5 14 15 15 92 16 6 17 14 18 16 19 17 20 7 21 8 22 13 23 9 24
REMARK SMILES IDX 11 25 10 26 12 27 25 28 26 29 27 30 28 32 29 33 30 34 91 35
REMARK SMILES IDX 31 36 90 37 32 38 33 39 34 40 84 41 35 42 89 43 83 44 85 45
REMARK SMILES IDX 36 46 88 47 82 48 81 49 37 51 69 52 49 53 68 54 50 55 53 56
REMARK SMILES IDX 67 57 86 58 51 59 52 60 66 62 87 63 54 64 38 65 39 66 47 67
REMARK SMILES IDX 40 68 46 69 48 70 45 71 41 72 42 73 43 74 44 75 70 76 71 77
REMARK SMILES IDX 79 78 72 79 78 80 80 81 77 82 73 83 74 84 75 85 76 86 55 87
REMARK SMILES IDX 56 88 64 89 57 90 63 91 65 92 62 93 58 94 59 95 60 96 61 97
REMARK H PARENT 21 7 26 31 85 50 53 61
REMARK Flexibility Score: inf
ROOT
ATOM      1  C   UNL A   1      32.026  28.846  25.931  1.00  0.00     0.023 C 
ENDROOT
BRANCH   1   2
ATOM      2  C   UNL A   1      31.738  29.751  24.730  1.00  0.00     0.023 C 
BRANCH   2   3
ATOM      3  C   UNL A   1      31.192  29.028  23.494  1.00  0.00     0.116 C 
BRANCH   3   4
ATOM      4  N   UNL A   1      32.263  28.530  22.656  1.00  0.00    -0.352 N 
ATOM      5  C   UNL A   1      32.836  27.293  22.519  1.00  0.00     0.251 C 
ATOM      6  O   UNL A   1      33.701  27.170  21.649  1.00  0.00    -0.269 OA
ATOM      7  H   UNL A   1      32.658  29.215  22.069  1.00  0.00     0.163 HD
BRANCH   5   8
ATOM      8  C   UNL A   1      32.478  26.093  23.338  1.00  0.00     0.041 A 
ATOM      9  C   UNL A   1      35.287  22.905  23.065  1.00  0.00     0.153 C 
ATOM     10  N   UNL A   1      34.076  22.718  23.857  1.00  0.00    -0.310 N 
ATOM     11  C   UNL A   1      33.976  21.535  24.583  1.00  0.00     0.264 C 
ATOM     12  C   UNL A   1      33.116  23.780  23.932  1.00  0.00     0.058 A 
ATOM     13  O   UNL A   1      34.944  20.799  24.784  1.00  0.00    -0.268 OA
ATOM     14  C   UNL A   1      32.613  21.135  25.058  1.00  0.00     0.078 C 
ATOM     15  C   UNL A   1      32.055  23.737  24.845  1.00  0.00     0.036 A 
ATOM     16  C   UNL A   1      33.278  24.948  23.159  1.00  0.00     0.041 A 
ATOM     17  C   UNL A   1      32.151  19.877  24.932  1.00  0.00     0.029 C 
ATOM     18  S   UNL A   1      31.662  22.329  25.851  1.00  0.00    -0.082 SA
ATOM     19  C   UNL A   1      31.256  24.872  25.034  1.00  0.00     0.018 A 
ATOM     20  C   UNL A   1      31.487  26.044  24.313  1.00  0.00     0.015 A 
BRANCH  17  21
ATOM     21  C   UNL A   1      32.898  18.759  24.346  1.00  0.00    -0.023 A 
ATOM     22  C   UNL A   1      32.710  18.443  22.994  1.00  0.00     0.008 A 
ATOM     23  C   UNL A   1      33.752  17.977  25.128  1.00  0.00     0.028 A 
ATOM     24  C   UNL A   1      33.344  17.336  22.432  1.00  0.00     0.002 A 
ATOM     25  C   UNL A   1      34.391  16.877  24.555  1.00  0.00     0.041 A 
ATOM     26  C   UNL A   1      34.186  16.549  23.215  1.00  0.00     0.020 A 
ATOM     27  Cl  UNL A   1      35.438  15.901  25.515  1.00  0.00    -0.084 Cl
ENDBRANCH  17  21
ENDBRANCH   5   8
ENDBRANCH   3   4
ENDBRANCH   2   3
ENDBRANCH   1   2
BRANCH   1  28
ATOM     28  C   UNL A   1      32.401  29.580  27.211  1.00  0.00     0.116 C 
BRANCH  28  29
ATOM     29  N   UNL A   1      32.212  31.023  27.145  1.00  0.00    -0.352 N 
ATOM     30  C   UNL A   1      33.141  32.008  27.411  1.00  0.00     0.251 C 
ATOM     31  H   UNL A   1      31.315  31.331  26.881  1.00  0.00     0.163 HD
ATOM     32  O   UNL A   1      32.814  33.186  27.409  1.00  0.00    -0.269 OA
BRANCH  30  33
ATOM     33  C   UNL A   1      34.520  31.601  27.763  1.00  0.00     0.039 A 
ATOM     34  C   UNL A   1      34.811  30.263  28.025  1.00  0.00     0.014 A 
ATOM     35  C   UNL A   1      35.499  32.583  27.935  1.00  0.00     0.014 A 
ATOM     36  C   UNL A   1      36.006  29.935  28.650  1.00  0.00     0.010 A 
ATOM     37  C   UNL A   1      36.741  32.233  28.474  1.00  0.00     0.010 A 
ATOM     38  C   UNL A   1      36.979  30.918  28.901  1.00  0.00    -0.014 A 
BRANCH  38  39
ATOM     39  C   UNL A   1      38.218  30.532  29.629  1.00  0.00     0.031 A 
ATOM     40  C   UNL A   1      38.440  30.953  31.057  1.00  0.00     0.074 A 
ATOM     41  C   UNL A   1      39.100  29.713  29.022  1.00  0.00     0.049 A 
ATOM     42  N   UNL A   1      39.403  30.609  31.874  1.00  0.00    -0.248 NA
ATOM     43  C   UNL A   1      37.463  31.881  31.648  1.00  0.00     0.031 C 
ATOM     44  C   UNL A   1      38.986  29.248  27.639  1.00  0.00     0.029 A 
ATOM     45  N   UNL A   1      40.232  29.094  29.489  1.00  0.00    -0.354 N 
ATOM     46  C   UNL A   1      39.159  31.287  33.064  1.00  0.00     0.074 A 
ATOM     47  C   UNL A   1      37.977  32.091  32.853  1.00  0.00     0.031 C 
ATOM     48  C   UNL A   1      39.956  28.358  27.395  1.00  0.00     0.029 A 
ATOM     49  C   UNL A   1      40.804  28.236  28.578  1.00  0.00     0.049 A 
ATOM     50  H   UNL A   1      40.599  29.249  30.389  1.00  0.00     0.167 HD
ATOM     51  C   UNL A   1      39.848  31.228  34.229  1.00  0.00     0.034 A 
ATOM     52  C   UNL A   1      41.883  27.433  28.681  1.00  0.00     0.034 A 
ATOM     53  C   UNL A   1      41.014  30.405  34.431  1.00  0.00     0.049 A 
ATOM     54  C   UNL A   1      42.624  27.375  29.992  1.00  0.00     0.074 A 
ATOM     55  C   UNL A   1      41.781  30.276  35.575  1.00  0.00     0.029 A 
ATOM     56  N   UNL A   1      41.572  29.562  33.480  1.00  0.00    -0.354 N 
ATOM     57  N   UNL A   1      42.356  27.996  31.116  1.00  0.00    -0.248 NA
ATOM     58  C   UNL A   1      43.805  26.505  30.056  1.00  0.00     0.031 C 
ATOM     59  C   UNL A   1      42.829  29.395  35.302  1.00  0.00     0.029 A 
ATOM     60  C   UNL A   1      42.678  28.919  34.010  1.00  0.00     0.049 A 
ATOM     61  H   UNL A   1      41.231  29.440  32.564  1.00  0.00     0.167 HD
ATOM     62  C   UNL A   1      43.319  27.575  32.027  1.00  0.00     0.074 A 
ATOM     63  C   UNL A   1      44.161  26.625  31.329  1.00  0.00     0.031 C 
ATOM     64  C   UNL A   1      43.495  27.950  33.319  1.00  0.00     0.034 A 
BRANCH  51  65
ATOM     65  C   UNL A   1      39.370  32.059  35.395  1.00  0.00     0.023 A 
ATOM     66  C   UNL A   1      38.660  31.453  36.448  1.00  0.00     0.031 A 
ATOM     67  C   UNL A   1      39.502  33.459  35.401  1.00  0.00     0.131 A 
ATOM     68  C   UNL A   1      38.082  32.248  37.446  1.00  0.00     0.055 A 
ATOM     69  C   UNL A   1      38.957  34.243  36.419  1.00  0.00     0.041 A 
ATOM     70  F   UNL A   1      40.173  34.084  34.419  1.00  0.00    -0.206 F 
ATOM     71  C   UNL A   1      38.231  33.638  37.441  1.00  0.00     0.022 A 
BRANCH  68  72
ATOM     72  S   UNL A   1      37.059  31.517  38.755  1.00  0.00     0.124 S 
ATOM     73  O   UNL A   1      35.882  32.382  38.732  1.00  0.00    -0.237 OA
ATOM     74  O   UNL A   1      36.847  30.162  38.256  1.00  0.00    -0.237 OA
ATOM     75  O   UNL A   1      37.887  31.626  39.951  1.00  0.00    -0.744 OA
ENDBRANCH  68  72
ENDBRANCH  51  65
BRANCH  52  76
ATOM     76  C   UNL A   1      42.259  26.575  27.519  1.00  0.00     0.023 A 
ATOM     77  C   UNL A   1      41.850  25.230  27.452  1.00  0.00     0.031 A 
ATOM     78  C   UNL A   1      43.133  27.049  26.526  1.00  0.00     0.131 A 
ATOM     79  C   UNL A   1      42.378  24.388  26.465  1.00  0.00     0.055 A 
ATOM     80  C   UNL A   1      43.596  26.225  25.498  1.00  0.00     0.041 A 
ATOM     81  F   UNL A   1      43.564  28.320  26.555  1.00  0.00    -0.206 F 
ATOM     82  C   UNL A   1      43.235  24.882  25.477  1.00  0.00     0.022 A 
BRANCH  79  83
ATOM     83  S   UNL A   1      42.097  22.596  26.529  1.00  0.00     0.124 S 
ATOM     84  O   UNL A   1      43.095  22.168  27.502  1.00  0.00    -0.237 OA
ATOM     85  O   UNL A   1      40.708  22.527  26.975  1.00  0.00    -0.237 OA
ATOM     86  O   UNL A   1      42.326  22.164  25.154  1.00  0.00    -0.744 OA
ENDBRANCH  79  83
ENDBRANCH  52  76
BRANCH  64  87
ATOM     87  C   UNL A   1      44.626  27.332  34.105  1.00  0.00     0.023 A 
ATOM     88  C   UNL A   1      44.430  26.104  34.765  1.00  0.00     0.031 A 
ATOM     89  C   UNL A   1      45.828  28.024  34.328  1.00  0.00     0.131 A 
ATOM     90  C   UNL A   1      45.407  25.622  35.645  1.00  0.00     0.055 A 
ATOM     91  C   UNL A   1      46.817  27.519  35.173  1.00  0.00     0.041 A 
ATOM     92  F   UNL A   1      46.055  29.205  33.732  1.00  0.00    -0.206 F 
ATOM     93  C   UNL A   1      46.602  26.320  35.847  1.00  0.00     0.022 A 
BRANCH  90  94
ATOM     94  S   UNL A   1      45.124  24.124  36.630  1.00  0.00     0.124 S 
ATOM     95  O   UNL A   1      44.106  23.435  35.841  1.00  0.00    -0.237 OA
ATOM     96  O   UNL A   1      46.444  23.499  36.626  1.00  0.00    -0.237 OA
ATOM     97  O   UNL A   1      44.674  24.630  37.921  1.00  0.00    -0.744 OA
ENDBRANCH  90  94
ENDBRANCH  64  87
ENDBRANCH  38  39
ENDBRANCH  30  33
ENDBRANCH  28  29
ENDBRANCH   1  28
TORSDOF 15
ENDMDL
MODEL 3
REMARK VINA RESULT:     -13.2      2.071      2.415
REMARK SMILES CN1C(=O)/C(=C\c2cccc(Cl)c2)Sc2ccc(C(=O)NCCCCNC(=O)c3ccc(-c4c5nc(c(-c6cc(S(=O)(=O)[O-])ccc6F)c6ccc([nH]6)c(-c6cc(S(=O)(=O)[O-])ccc6F)c6nc(c(-c7cc(S(=O)(=O)[O-])ccc7F)c7ccc4[nH]7)C=C6)C=C5)cc3)cc21
REMARK SMILES IDX 24 1 23 2 22 3 21 4 19 5 20 6 18 8 1 9 2 10 3 11 93 12 4 13
REMARK SMILES IDX 5 14 15 15 92 16 6 17 14 18 16 19 17 20 7 21 8 22 13 23 9 24
REMARK SMILES IDX 11 25 10 26 12 27 25 28 26 29 27 30 28 32 29 33 30 34 91 35
REMARK SMILES IDX 31 36 90 37 32 38 33 39 34 40 84 41 35 42 89 43 83 44 85 45
REMARK SMILES IDX 36 46 88 47 82 48 81 49 37 51 69 52 49 53 68 54 50 55 53 56
REMARK SMILES IDX 67 57 86 58 51 59 52 60 66 62 87 63 54 64 38 65 39 66 47 67
REMARK SMILES IDX 40 68 46 69 48 70 45 71 41 72 42 73 43 74 44 75 70 76 71 77
REMARK SMILES IDX 79 78 72 79 78 80 80 81 77 82 73 83 74 84 75 85 76 86 55 87
REMARK SMILES IDX 56 88 64 89 57 90 63 91 65 92 62 93 58 94 59 95 60 96 61 97
REMARK H PARENT 21 7 26 31 85 50 53 61
REMARK Flexibility Score: inf
ROOT
ATOM      1  C   UNL A   1      35.800  23.401  26.187  1.00  0.00     0.023 C 
ENDROOT
BRANCH   1   2
ATOM      2  C   UNL A   1      35.431  21.927  26.377  1.00  0.00     0.023 C 
BRANCH   2   3
ATOM      3  C   UNL A   1      34.175  21.679  27.218  1.00  0.00     0.116 C 
BRANCH   3   4
ATOM      4  N   UNL A   1      33.215  20.860  26.507  1.00  0.00    -0.352 N 
ATOM      5  C   UNL A   1      32.526  21.041  25.337  1.00  0.00     0.251 C 
ATOM      6  O   UNL A   1      31.820  20.107  24.953  1.00  0.00    -0.269 OA
ATOM      7  H   UNL A   1      33.018  20.004  26.953  1.00  0.00     0.163 HD
BRANCH   5   8
ATOM      8  C   UNL A   1      32.582  22.280  24.499  1.00  0.00     0.041 A 
ATOM      9  C   UNL A   1      30.674  25.654  26.261  1.00  0.00     0.153 C 
ATOM     10  N   UNL A   1      31.240  25.777  24.922  1.00  0.00    -0.310 N 
ATOM     11  C   UNL A   1      31.226  27.046  24.348  1.00  0.00     0.264 C 
ATOM     12  C   UNL A   1      31.861  24.637  24.315  1.00  0.00     0.058 A 
ATOM     13  O   UNL A   1      31.013  28.066  25.005  1.00  0.00    -0.268 OA
ATOM     14  C   UNL A   1      31.409  27.128  22.864  1.00  0.00     0.078 C 
ATOM     15  C   UNL A   1      32.606  24.758  23.135  1.00  0.00     0.036 A 
ATOM     16  C   UNL A   1      31.827  23.379  24.951  1.00  0.00     0.041 A 
ATOM     17  C   UNL A   1      30.632  27.909  22.089  1.00  0.00     0.029 C 
ATOM     18  S   UNL A   1      32.709  26.242  22.169  1.00  0.00    -0.082 SA
ATOM     19  C   UNL A   1      33.363  23.671  22.679  1.00  0.00     0.018 A 
ATOM     20  C   UNL A   1      33.376  22.460  23.372  1.00  0.00     0.015 A 
BRANCH  17  21
ATOM     21  C   UNL A   1      29.547  28.766  22.576  1.00  0.00    -0.023 A 
ATOM     22  C   UNL A   1      28.303  28.194  22.874  1.00  0.00     0.008 A 
ATOM     23  C   UNL A   1      29.721  30.148  22.696  1.00  0.00     0.028 A 
ATOM     24  C   UNL A   1      27.230  28.996  23.260  1.00  0.00     0.002 A 
ATOM     25  C   UNL A   1      28.645  30.943  23.092  1.00  0.00     0.041 A 
ATOM     26  C   UNL A   1      27.401  30.375  23.368  1.00  0.00     0.020 A 
ATOM     27  Cl  UNL A   1      28.848  32.647  23.233  1.00  0.00    -0.084 Cl
ENDBRANCH  17  21
ENDBRANCH   5   8
ENDBRANCH   3   4
ENDBRANCH   2   3
ENDBRANCH   1   2
BRANCH   1  28
ATOM     28  C   UNL A   1      37.293  23.679  26.078  1.00  0.00     0.116 C 
BRANCH  28  29
ATOM     29  N   UNL A   1      38.125  22.485  26.132  1.00  0.00    -0.352 N 
ATOM     30  C   UNL A   1      39.464  22.404  26.455  1.00  0.00     0.251 C 
ATOM     31  H   UNL A   1      37.679  21.636  25.909  1.00  0.00     0.163 HD
ATOM     32  O   UNL A   1      40.061  21.341  26.365  1.00  0.00    -0.269 OA
BRANCH  30  33
ATOM     33  C   UNL A   1      40.172  23.644  26.847  1.00  0.00     0.039 A 
ATOM     34  C   UNL A   1      40.884  23.697  28.043  1.00  0.00     0.014 A 
ATOM     35  C   UNL A   1      40.028  24.789  26.059  1.00  0.00     0.014 A 
ATOM     36  C   UNL A   1      41.275  24.929  28.550  1.00  0.00     0.010 A 
ATOM     37  C   UNL A   1      40.511  26.015  26.528  1.00  0.00     0.010 A 
ATOM     38  C   UNL A   1      41.076  26.106  27.809  1.00  0.00    -0.014 A 
BRANCH  38  39
ATOM     39  C   UNL A   1      41.454  27.410  28.419  1.00  0.00     0.031 A 
ATOM     40  C   UNL A   1      42.879  27.895  28.387  1.00  0.00     0.074 A 
ATOM     41  C   UNL A   1      40.482  28.200  28.915  1.00  0.00     0.049 A 
ATOM     42  N   UNL A   1      43.359  29.053  28.765  1.00  0.00    -0.248 NA
ATOM     43  C   UNL A   1      43.898  26.969  27.870  1.00  0.00     0.031 C 
ATOM     44  C   UNL A   1      39.070  27.828  29.000  1.00  0.00     0.029 A 
ATOM     45  N   UNL A   1      40.517  29.485  29.399  1.00  0.00    -0.354 N 
ATOM     46  C   UNL A   1      44.732  28.988  28.549  1.00  0.00     0.074 A 
ATOM     47  C   UNL A   1      45.014  27.665  28.040  1.00  0.00     0.031 C 
ATOM     48  C   UNL A   1      38.363  28.882  29.428  1.00  0.00     0.029 A 
ATOM     49  C   UNL A   1      39.275  29.987  29.713  1.00  0.00     0.049 A 
ATOM     50  H   UNL A   1      41.350  29.996  29.511  1.00  0.00     0.167 HD
ATOM     51  C   UNL A   1      45.666  29.950  28.742  1.00  0.00     0.034 A 
ATOM     52  C   UNL A   1      38.904  31.201  30.170  1.00  0.00     0.034 A 
ATOM     53  C   UNL A   1      45.367  31.273  29.230  1.00  0.00     0.049 A 
ATOM     54  C   UNL A   1      39.961  32.258  30.362  1.00  0.00     0.074 A 
ATOM     55  C   UNL A   1      46.244  32.319  29.458  1.00  0.00     0.029 A 
ATOM     56  N   UNL A   1      44.100  31.738  29.552  1.00  0.00    -0.354 N 
ATOM     57  N   UNL A   1      41.248  32.188  30.117  1.00  0.00    -0.248 NA
ATOM     58  C   UNL A   1      39.520  33.559  30.880  1.00  0.00     0.031 C 
ATOM     59  C   UNL A   1      45.516  33.398  29.961  1.00  0.00     0.029 A 
ATOM     60  C   UNL A   1      44.175  33.052  29.984  1.00  0.00     0.049 A 
ATOM     61  H   UNL A   1      43.270  31.213  29.482  1.00  0.00     0.167 HD
ATOM     62  C   UNL A   1      41.767  33.441  30.430  1.00  0.00     0.074 A 
ATOM     63  C   UNL A   1      40.649  34.257  30.856  1.00  0.00     0.031 C 
ATOM     64  C   UNL A   1      43.052  33.870  30.378  1.00  0.00     0.034 A 
BRANCH  51  65
ATOM     65  C   UNL A   1      47.106  29.636  28.416  1.00  0.00     0.023 A 
ATOM     66  C   UNL A   1      47.947  29.082  29.400  1.00  0.00     0.031 A 
ATOM     67  C   UNL A   1      47.676  30.002  27.184  1.00  0.00     0.131 A 
ATOM     68  C   UNL A   1      49.317  28.940  29.146  1.00  0.00     0.055 A 
ATOM     69  C   UNL A   1      49.035  29.822  26.922  1.00  0.00     0.041 A 
ATOM     70  F   UNL A   1      46.916  30.533  26.212  1.00  0.00    -0.206 F 
ATOM     71  C   UNL A   1      49.865  29.301  27.911  1.00  0.00     0.022 A 
BRANCH  68  72
ATOM     72  S   UNL A   1      50.454  28.342  30.427  1.00  0.00     0.124 S 
ATOM     73  O   UNL A   1      49.876  27.040  30.754  1.00  0.00    -0.237 OA
ATOM     74  O   UNL A   1      51.726  28.298  29.712  1.00  0.00    -0.237 OA
ATOM     75  O   UNL A   1      50.357  29.346  31.481  1.00  0.00    -0.744 OA
ENDBRANCH  68  72
ENDBRANCH  51  65
BRANCH  52  76
ATOM     76  C   UNL A   1      37.455  31.477  30.397  1.00  0.00     0.023 A 
ATOM     77  C   UNL A   1      36.628  31.904  29.341  1.00  0.00     0.031 A 
ATOM     78  C   UNL A   1      36.909  31.439  31.690  1.00  0.00     0.131 A 
ATOM     79  C   UNL A   1      35.329  32.352  29.611  1.00  0.00     0.055 A 
ATOM     80  C   UNL A   1      35.588  31.813  31.943  1.00  0.00     0.041 A 
ATOM     81  F   UNL A   1      37.662  31.054  32.732  1.00  0.00    -0.206 F 
ATOM     82  C   UNL A   1      34.798  32.293  30.903  1.00  0.00     0.022 A 
BRANCH  79  83
ATOM     83  S   UNL A   1      34.347  33.175  28.325  1.00  0.00     0.124 S 
ATOM     84  O   UNL A   1      35.382  33.766  27.485  1.00  0.00    -0.237 OA
ATOM     85  O   UNL A   1      33.621  32.051  27.739  1.00  0.00    -0.237 OA
ATOM     86  O   UNL A   1      33.523  34.118  29.074  1.00  0.00    -0.744 OA
ENDBRANCH  79  83
ENDBRANCH  52  76
BRANCH  64  87
ATOM     87  C   UNL A   1      43.356  35.297  30.768  1.00  0.00     0.023 A 
ATOM     88  C   UNL A   1      43.365  36.304  29.784  1.00  0.00     0.031 A 
ATOM     89  C   UNL A   1      43.785  35.627  32.064  1.00  0.00     0.131 A 
ATOM     90  C   UNL A   1      43.829  37.586  30.104  1.00  0.00     0.055 A 
ATOM     91  C   UNL A   1      44.206  36.918  32.389  1.00  0.00     0.041 A 
ATOM     92  F   UNL A   1      43.808  34.698  33.033  1.00  0.00    -0.206 F 
ATOM     93  C   UNL A   1      44.243  37.900  31.403  1.00  0.00     0.022 A 
BRANCH  90  94
ATOM     94  S   UNL A   1      44.000  38.865  28.828  1.00  0.00     0.124 S 
ATOM     95  O   UNL A   1      44.750  39.899  29.538  1.00  0.00    -0.237 OA
ATOM     96  O   UNL A   1      44.743  38.162  27.784  1.00  0.00    -0.237 OA
ATOM     97  O   UNL A   1      42.624  39.214  28.491  1.00  0.00    -0.744 OA
ENDBRANCH  90  94
ENDBRANCH  64  87
ENDBRANCH  38  39
ENDBRANCH  30  33
ENDBRANCH  28  29
ENDBRANCH   1  28
TORSDOF 15
ENDMDL
