MODEL 1
REMARK VINA RESULT:     -11.4      0.000      0.000
REMARK SMILES C[C@H]1OCC[C@H]1c1nnnn1CC(=O)NCCCCNC(=O)c1ccc(-c2c3nc(c(-c4cc(S(=O)(=O)[O-])ccc4F)c4ccc([nH]4)c(-c4cc(S(=O)(=O)[O-])ccc4F)c4nc(c(-c5cc(S(=O)(=O)[O-])ccc5F)c5ccc2[nH]5)C=C4)C=C3)cc1
REMARK SMILES IDX 18 1 17 2 16 3 15 4 13 5 14 6 12 8 11 9 7 10 8 11 9 12 10 13
REMARK SMILES IDX 6 14 1 15 2 16 3 17 4 18 5 19 19 20 20 21 21 22 22 24 23 25
REMARK SMILES IDX 24 26 85 27 25 28 84 29 26 30 27 31 28 32 78 33 29 34 83 35
REMARK SMILES IDX 77 36 79 37 30 38 82 39 76 40 75 41 31 43 63 44 43 45 62 46
REMARK SMILES IDX 44 47 47 48 61 49 80 50 45 51 46 52 60 54 81 55 48 56 32 57
REMARK SMILES IDX 33 58 41 59 34 60 40 61 42 62 39 63 35 64 36 65 37 66 38 67
REMARK SMILES IDX 64 68 65 69 73 70 66 71 72 72 74 73 71 74 67 75 68 76 69 77
REMARK SMILES IDX 70 78 49 79 50 80 58 81 51 82 57 83 59 84 56 85 52 86 53 87
REMARK SMILES IDX 54 88 55 89
REMARK H PARENT 15 7 20 23 79 42 47 53
REMARK Flexibility Score: inf
ROOT
ATOM      1  C   UNL A   1      33.921  29.696  26.749  1.00  0.00     0.023 C 
ENDROOT
BRANCH   1   2
ATOM      2  C   UNL A   1      32.680  29.024  27.349  1.00  0.00     0.023 C 
BRANCH   2   3
ATOM      3  C   UNL A   1      32.000  28.012  26.428  1.00  0.00     0.116 C 
BRANCH   3   4
ATOM      4  N   UNL A   1      32.857  27.594  25.341  1.00  0.00    -0.354 N 
ATOM      5  C   UNL A   1      32.757  26.488  24.545  1.00  0.00     0.241 C 
ATOM      6  O   UNL A   1      33.626  26.303  23.691  1.00  0.00    -0.273 OA
ATOM      7  H   UNL A   1      33.617  28.189  25.147  1.00  0.00     0.163 HD
BRANCH   5   8
ATOM      8  C   UNL A   1      31.546  25.591  24.635  1.00  0.00     0.248 C 
BRANCH   8   9
ATOM      9  N   UNL A   1      31.676  24.509  25.582  1.00  0.00    -0.220 N 
ATOM     10  C   UNL A   1      32.417  23.347  25.508  1.00  0.00     0.157 A 
ATOM     11  N   UNL A   1      32.264  22.718  26.659  1.00  0.00    -0.113 NA
ATOM     12  N   UNL A   1      31.452  23.500  27.436  1.00  0.00    -0.024 NA
ATOM     13  N   UNL A   1      31.104  24.603  26.795  1.00  0.00    -0.044 NA
BRANCH  10  14
ATOM     14  C   UNL A   1      33.150  22.837  24.303  1.00  0.00     0.090 C 
ATOM     15  C   UNL A   1      35.378  23.798  25.320  1.00  0.00     0.039 C 
ATOM     16  C   UNL A   1      34.686  22.868  24.340  1.00  0.00     0.126 C 
ATOM     17  O   UNL A   1      35.154  21.531  24.598  1.00  0.00    -0.378 OA
ATOM     18  C   UNL A   1      34.024  20.671  24.749  1.00  0.00     0.161 C 
ATOM     19  C   UNL A   1      32.873  21.358  24.053  1.00  0.00     0.043 C 
ENDBRANCH  10  14
ENDBRANCH   8   9
ENDBRANCH   5   8
ENDBRANCH   3   4
ENDBRANCH   2   3
ENDBRANCH   1   2
BRANCH   1  20
ATOM     20  C   UNL A   1      35.244  29.288  27.392  1.00  0.00     0.116 C 
BRANCH  20  21
ATOM     21  N   UNL A   1      35.491  29.977  28.652  1.00  0.00    -0.352 N 
ATOM     22  C   UNL A   1      36.481  29.712  29.581  1.00  0.00     0.251 C 
ATOM     23  H   UNL A   1      34.880  30.719  28.869  1.00  0.00     0.163 HD
ATOM     24  O   UNL A   1      36.312  30.007  30.754  1.00  0.00    -0.269 OA
BRANCH  22  25
ATOM     25  C   UNL A   1      37.741  29.080  29.134  1.00  0.00     0.039 A 
ATOM     26  C   UNL A   1      38.392  29.520  27.980  1.00  0.00     0.014 A 
ATOM     27  C   UNL A   1      38.269  28.024  29.879  1.00  0.00     0.014 A 
ATOM     28  C   UNL A   1      39.617  28.947  27.638  1.00  0.00     0.010 A 
ATOM     29  C   UNL A   1      39.525  27.527  29.599  1.00  0.00     0.010 A 
ATOM     30  C   UNL A   1      40.201  27.968  28.468  1.00  0.00    -0.014 A 
BRANCH  30  31
ATOM     31  C   UNL A   1      41.607  27.588  28.285  1.00  0.00     0.031 A 
ATOM     32  C   UNL A   1      41.751  26.300  27.560  1.00  0.00     0.074 A 
ATOM     33  C   UNL A   1      42.681  28.372  28.540  1.00  0.00     0.049 A 
ATOM     34  N   UNL A   1      42.042  25.152  28.076  1.00  0.00    -0.248 NA
ATOM     35  C   UNL A   1      41.302  26.218  26.159  1.00  0.00     0.031 C 
ATOM     36  C   UNL A   1      42.682  29.759  29.010  1.00  0.00     0.029 A 
ATOM     37  N   UNL A   1      44.014  28.123  28.353  1.00  0.00    -0.354 N 
ATOM     38  C   UNL A   1      42.137  24.278  27.001  1.00  0.00     0.074 A 
ATOM     39  C   UNL A   1      41.411  24.906  25.932  1.00  0.00     0.031 C 
ATOM     40  C   UNL A   1      43.919  30.291  28.864  1.00  0.00     0.029 A 
ATOM     41  C   UNL A   1      44.839  29.252  28.429  1.00  0.00     0.049 A 
ATOM     42  H   UNL A   1      44.365  27.221  28.177  1.00  0.00     0.167 HD
ATOM     43  C   UNL A   1      43.086  23.301  26.998  1.00  0.00     0.034 A 
ATOM     44  C   UNL A   1      46.176  29.342  28.162  1.00  0.00     0.034 A 
ATOM     45  C   UNL A   1      43.606  23.093  28.340  1.00  0.00     0.049 A 
ATOM     46  C   UNL A   1      46.732  27.979  28.325  1.00  0.00     0.074 A 
ATOM     47  C   UNL A   1      43.032  22.839  29.575  1.00  0.00     0.029 A 
ATOM     48  N   UNL A   1      44.878  23.545  28.622  1.00  0.00    -0.354 N 
ATOM     49  N   UNL A   1      46.783  27.369  29.476  1.00  0.00    -0.248 NA
ATOM     50  C   UNL A   1      46.773  27.111  27.160  1.00  0.00     0.031 C 
ATOM     51  C   UNL A   1      43.781  23.626  30.500  1.00  0.00     0.029 A 
ATOM     52  C   UNL A   1      44.837  24.224  29.813  1.00  0.00     0.049 A 
ATOM     53  H   UNL A   1      45.677  23.404  28.064  1.00  0.00     0.167 HD
ATOM     54  C   UNL A   1      46.383  26.071  29.202  1.00  0.00     0.074 A 
ATOM     55  C   UNL A   1      46.498  25.943  27.749  1.00  0.00     0.031 C 
ATOM     56  C   UNL A   1      45.721  25.329  30.140  1.00  0.00     0.034 A 
BRANCH  43  57
ATOM     57  C   UNL A   1      43.870  22.880  25.765  1.00  0.00     0.023 A 
ATOM     58  C   UNL A   1      43.989  21.495  25.546  1.00  0.00     0.031 A 
ATOM     59  C   UNL A   1      44.751  23.690  25.010  1.00  0.00     0.131 A 
ATOM     60  C   UNL A   1      45.041  20.972  24.777  1.00  0.00     0.055 A 
ATOM     61  C   UNL A   1      45.751  23.165  24.185  1.00  0.00     0.041 A 
ATOM     62  F   UNL A   1      44.760  25.025  25.074  1.00  0.00    -0.206 F 
ATOM     63  C   UNL A   1      45.931  21.797  24.101  1.00  0.00     0.022 A 
BRANCH  60  64
ATOM     64  S   UNL A   1      45.347  19.192  24.871  1.00  0.00     0.124 S 
ATOM     65  O   UNL A   1      44.098  18.726  25.463  1.00  0.00    -0.237 OA
ATOM     66  O   UNL A   1      45.563  18.853  23.468  1.00  0.00    -0.237 OA
ATOM     67  O   UNL A   1      46.527  19.097  25.727  1.00  0.00    -0.744 OA
ENDBRANCH  60  64
ENDBRANCH  43  57
BRANCH  44  68
ATOM     68  C   UNL A   1      46.951  30.460  27.535  1.00  0.00     0.023 A 
ATOM     69  C   UNL A   1      46.342  31.577  26.906  1.00  0.00     0.031 A 
ATOM     70  C   UNL A   1      48.334  30.571  27.797  1.00  0.00     0.131 A 
ATOM     71  C   UNL A   1      47.107  32.731  26.585  1.00  0.00     0.055 A 
ATOM     72  C   UNL A   1      49.079  31.712  27.486  1.00  0.00     0.041 A 
ATOM     73  F   UNL A   1      48.995  29.606  28.454  1.00  0.00    -0.206 F 
ATOM     74  C   UNL A   1      48.468  32.801  26.890  1.00  0.00     0.022 A 
BRANCH  71  75
ATOM     75  S   UNL A   1      46.332  34.216  25.850  1.00  0.00     0.124 S 
ATOM     76  O   UNL A   1      47.432  34.800  25.093  1.00  0.00    -0.237 OA
ATOM     77  O   UNL A   1      45.235  33.650  25.074  1.00  0.00    -0.237 OA
ATOM     78  O   UNL A   1      45.912  34.995  27.016  1.00  0.00    -0.744 OA
ENDBRANCH  71  75
ENDBRANCH  44  68
BRANCH  56  79
ATOM     79  C   UNL A   1      45.766  25.781  31.587  1.00  0.00     0.023 A 
ATOM     80  C   UNL A   1      46.810  25.514  32.505  1.00  0.00     0.031 A 
ATOM     81  C   UNL A   1      44.710  26.597  32.030  1.00  0.00     0.131 A 
ATOM     82  C   UNL A   1      46.753  26.042  33.812  1.00  0.00     0.055 A 
ATOM     83  C   UNL A   1      44.669  27.138  33.313  1.00  0.00     0.041 A 
ATOM     84  F   UNL A   1      43.695  26.907  31.205  1.00  0.00    -0.206 F 
ATOM     85  C   UNL A   1      45.688  26.854  34.213  1.00  0.00     0.022 A 
BRANCH  82  86
ATOM     86  S   UNL A   1      48.047  25.652  35.035  1.00  0.00     0.124 S 
ATOM     87  O   UNL A   1      47.320  24.978  36.105  1.00  0.00    -0.237 OA
ATOM     88  O   UNL A   1      48.967  24.818  34.266  1.00  0.00    -0.237 OA
ATOM     89  O   UNL A   1      48.580  26.967  35.396  1.00  0.00    -0.744 OA
ENDBRANCH  82  86
ENDBRANCH  56  79
ENDBRANCH  30  31
ENDBRANCH  22  25
ENDBRANCH  20  21
ENDBRANCH   1  20
TORSDOF 16
ENDMDL
MODEL 2
REMARK VINA RESULT:     -11.4      3.364      8.232
REMARK SMILES C[C@H]1OCC[C@H]1c1nnnn1CC(=O)NCCCCNC(=O)c1ccc(-c2c3nc(c(-c4cc(S(=O)(=O)[O-])ccc4F)c4ccc([nH]4)c(-c4cc(S(=O)(=O)[O-])ccc4F)c4nc(c(-c5cc(S(=O)(=O)[O-])ccc5F)c5ccc2[nH]5)C=C4)C=C3)cc1
REMARK SMILES IDX 18 1 17 2 16 3 15 4 13 5 14 6 12 8 11 9 7 10 8 11 9 12 10 13
REMARK SMILES IDX 6 14 1 15 2 16 3 17 4 18 5 19 19 20 20 21 21 22 22 24 23 25
REMARK SMILES IDX 24 26 85 27 25 28 84 29 26 30 27 31 28 32 78 33 29 34 83 35
REMARK SMILES IDX 77 36 79 37 30 38 82 39 76 40 75 41 31 43 63 44 43 45 62 46
REMARK SMILES IDX 44 47 47 48 61 49 80 50 45 51 46 52 60 54 81 55 48 56 32 57
REMARK SMILES IDX 33 58 41 59 34 60 40 61 42 62 39 63 35 64 36 65 37 66 38 67
REMARK SMILES IDX 64 68 65 69 73 70 66 71 72 72 74 73 71 74 67 75 68 76 69 77
REMARK SMILES IDX 70 78 49 79 50 80 58 81 51 82 57 83 59 84 56 85 52 86 53 87
REMARK SMILES IDX 54 88 55 89
REMARK H PARENT 15 7 20 23 79 42 47 53
REMARK Flexibility Score: inf
ROOT
ATOM      1  C   UNL A   1      36.908  20.556  24.914  1.00  0.00     0.023 C 
ENDROOT
BRANCH   1   2
ATOM      2  C   UNL A   1      35.893  21.700  25.014  1.00  0.00     0.023 C 
BRANCH   2   3
ATOM      3  C   UNL A   1      34.869  21.542  26.137  1.00  0.00     0.116 C 
BRANCH   3   4
ATOM      4  N   UNL A   1      33.921  20.483  25.874  1.00  0.00    -0.354 N 
ATOM      5  C   UNL A   1      32.697  20.557  25.269  1.00  0.00     0.241 C 
ATOM      6  O   UNL A   1      32.030  19.525  25.178  1.00  0.00    -0.273 OA
ATOM      7  H   UNL A   1      34.195  19.586  26.170  1.00  0.00     0.163 HD
BRANCH   5   8
ATOM      8  C   UNL A   1      32.241  21.844  24.624  1.00  0.00     0.248 C 
BRANCH   8   9
ATOM      9  N   UNL A   1      31.772  22.841  25.556  1.00  0.00    -0.220 N 
ATOM     10  C   UNL A   1      32.075  24.185  25.648  1.00  0.00     0.157 A 
ATOM     11  N   UNL A   1      31.331  24.683  26.619  1.00  0.00    -0.113 NA
ATOM     12  N   UNL A   1      30.565  23.656  27.101  1.00  0.00    -0.024 NA
ATOM     13  N   UNL A   1      30.813  22.534  26.447  1.00  0.00    -0.044 NA
BRANCH  10  14
ATOM     14  C   UNL A   1      33.139  24.910  24.878  1.00  0.00     0.090 C 
ATOM     15  C   UNL A   1      31.301  25.665  23.155  1.00  0.00     0.039 C 
ATOM     16  C   UNL A   1      32.685  25.849  23.750  1.00  0.00     0.126 C 
ATOM     17  O   UNL A   1      32.781  27.203  24.229  1.00  0.00    -0.378 OA
ATOM     18  C   UNL A   1      33.238  27.178  25.581  1.00  0.00     0.161 C 
ATOM     19  C   UNL A   1      33.941  25.854  25.768  1.00  0.00     0.043 C 
ENDBRANCH  10  14
ENDBRANCH   8   9
ENDBRANCH   5   8
ENDBRANCH   3   4
ENDBRANCH   2   3
ENDBRANCH   1   2
BRANCH   1  20
ATOM     20  C   UNL A   1      38.342  20.940  25.268  1.00  0.00     0.116 C 
BRANCH  20  21
ATOM     21  N   UNL A   1      39.185  19.780  25.531  1.00  0.00    -0.352 N 
ATOM     22  C   UNL A   1      40.531  19.768  25.850  1.00  0.00     0.251 C 
ATOM     23  H   UNL A   1      38.744  18.901  25.474  1.00  0.00     0.163 HD
ATOM     24  O   UNL A   1      41.212  18.789  25.587  1.00  0.00    -0.269 OA
BRANCH  22  25
ATOM     25  C   UNL A   1      41.126  20.946  26.519  1.00  0.00     0.039 A 
ATOM     26  C   UNL A   1      41.740  21.955  25.776  1.00  0.00     0.014 A 
ATOM     27  C   UNL A   1      41.074  21.030  27.911  1.00  0.00     0.014 A 
ATOM     28  C   UNL A   1      42.220  23.084  26.442  1.00  0.00     0.010 A 
ATOM     29  C   UNL A   1      41.456  22.186  28.560  1.00  0.00     0.010 A 
ATOM     30  C   UNL A   1      42.049  23.213  27.835  1.00  0.00    -0.014 A 
BRANCH  30  31
ATOM     31  C   UNL A   1      42.270  24.509  28.489  1.00  0.00     0.031 A 
ATOM     32  C   UNL A   1      41.187  25.481  28.189  1.00  0.00     0.074 A 
ATOM     33  C   UNL A   1      43.213  24.778  29.422  1.00  0.00     0.049 A 
ATOM     34  N   UNL A   1      41.244  26.469  27.359  1.00  0.00    -0.248 NA
ATOM     35  C   UNL A   1      39.825  25.200  28.677  1.00  0.00     0.031 C 
ATOM     36  C   UNL A   1      44.180  23.848  30.007  1.00  0.00     0.029 A 
ATOM     37  N   UNL A   1      43.456  25.932  30.118  1.00  0.00    -0.354 N 
ATOM     38  C   UNL A   1      40.026  27.124  27.481  1.00  0.00     0.074 A 
ATOM     39  C   UNL A   1      39.130  26.162  28.062  1.00  0.00     0.031 C 
ATOM     40  C   UNL A   1      44.748  24.405  31.102  1.00  0.00     0.029 A 
ATOM     41  C   UNL A   1      44.302  25.784  31.224  1.00  0.00     0.049 A 
ATOM     42  H   UNL A   1      43.066  26.798  29.860  1.00  0.00     0.167 HD
ATOM     43  C   UNL A   1      39.973  28.484  27.415  1.00  0.00     0.034 A 
ATOM     44  C   UNL A   1      44.621  26.713  32.173  1.00  0.00     0.034 A 
ATOM     45  C   UNL A   1      41.192  29.010  26.822  1.00  0.00     0.049 A 
ATOM     46  C   UNL A   1      44.397  28.041  31.558  1.00  0.00     0.074 A 
ATOM     47  C   UNL A   1      41.890  28.759  25.652  1.00  0.00     0.029 A 
ATOM     48  N   UNL A   1      42.093  29.650  27.647  1.00  0.00    -0.354 N 
ATOM     49  N   UNL A   1      45.113  28.492  30.566  1.00  0.00    -0.248 NA
ATOM     50  C   UNL A   1      43.087  28.653  31.705  1.00  0.00     0.031 C 
ATOM     51  C   UNL A   1      43.267  28.787  26.031  1.00  0.00     0.029 A 
ATOM     52  C   UNL A   1      43.346  29.165  27.371  1.00  0.00     0.049 A 
ATOM     53  H   UNL A   1      41.874  30.335  28.320  1.00  0.00     0.167 HD
ATOM     54  C   UNL A   1      44.194  29.068  29.704  1.00  0.00     0.074 A 
ATOM     55  C   UNL A   1      42.982  29.236  30.506  1.00  0.00     0.031 C 
ATOM     56  C   UNL A   1      44.410  29.078  28.354  1.00  0.00     0.034 A 
BRANCH  43  57
ATOM     57  C   UNL A   1      39.073  29.345  28.287  1.00  0.00     0.023 A 
ATOM     58  C   UNL A   1      39.320  29.299  29.672  1.00  0.00     0.031 A 
ATOM     59  C   UNL A   1      37.836  29.917  27.911  1.00  0.00     0.131 A 
ATOM     60  C   UNL A   1      38.315  29.625  30.596  1.00  0.00     0.055 A 
ATOM     61  C   UNL A   1      36.866  30.313  28.839  1.00  0.00     0.041 A 
ATOM     62  F   UNL A   1      37.448  30.063  26.640  1.00  0.00    -0.206 F 
ATOM     63  C   UNL A   1      37.084  30.125  30.190  1.00  0.00     0.022 A 
BRANCH  60  64
ATOM     64  S   UNL A   1      38.583  29.168  32.325  1.00  0.00     0.124 S 
ATOM     65  O   UNL A   1      39.250  30.363  32.830  1.00  0.00    -0.237 OA
ATOM     66  O   UNL A   1      37.217  28.946  32.789  1.00  0.00    -0.237 OA
ATOM     67  O   UNL A   1      39.414  27.971  32.233  1.00  0.00    -0.744 OA
ENDBRANCH  60  64
ENDBRANCH  43  57
BRANCH  44  68
ATOM     68  C   UNL A   1      44.862  26.534  33.642  1.00  0.00     0.023 A 
ATOM     69  C   UNL A   1      43.844  26.663  34.622  1.00  0.00     0.031 A 
ATOM     70  C   UNL A   1      46.073  25.953  34.074  1.00  0.00     0.131 A 
ATOM     71  C   UNL A   1      44.061  26.209  35.951  1.00  0.00     0.055 A 
ATOM     72  C   UNL A   1      46.278  25.502  35.382  1.00  0.00     0.041 A 
ATOM     73  F   UNL A   1      47.076  25.716  33.215  1.00  0.00    -0.206 F 
ATOM     74  C   UNL A   1      45.269  25.616  36.323  1.00  0.00     0.022 A 
BRANCH  71  75
ATOM     75  S   UNL A   1      42.739  26.287  37.213  1.00  0.00     0.124 S 
ATOM     76  O   UNL A   1      42.017  27.496  36.835  1.00  0.00    -0.237 OA
ATOM     77  O   UNL A   1      42.039  25.023  37.019  1.00  0.00    -0.237 OA
ATOM     78  O   UNL A   1      43.476  26.386  38.474  1.00  0.00    -0.744 OA
ENDBRANCH  71  75
ENDBRANCH  44  68
BRANCH  56  79
ATOM     79  C   UNL A   1      45.813  28.810  27.842  1.00  0.00     0.023 A 
ATOM     80  C   UNL A   1      46.321  27.551  27.441  1.00  0.00     0.031 A 
ATOM     81  C   UNL A   1      46.655  29.926  27.685  1.00  0.00     0.131 A 
ATOM     82  C   UNL A   1      47.631  27.449  26.930  1.00  0.00     0.055 A 
ATOM     83  C   UNL A   1      47.939  29.825  27.156  1.00  0.00     0.041 A 
ATOM     84  F   UNL A   1      46.230  31.154  28.028  1.00  0.00    -0.206 F 
ATOM     85  C   UNL A   1      48.437  28.583  26.785  1.00  0.00     0.022 A 
BRANCH  82  86
ATOM     86  S   UNL A   1      48.335  25.830  26.476  1.00  0.00     0.124 S 
ATOM     87  O   UNL A   1      49.775  26.040  26.569  1.00  0.00    -0.237 OA
ATOM     88  O   UNL A   1      47.756  24.941  27.481  1.00  0.00    -0.237 OA
ATOM     89  O   UNL A   1      47.838  25.612  25.117  1.00  0.00    -0.744 OA
ENDBRANCH  82  86
ENDBRANCH  56  79
ENDBRANCH  30  31
ENDBRANCH  22  25
ENDBRANCH  20  21
ENDBRANCH   1  20
TORSDOF 16
ENDMDL
MODEL 3
REMARK VINA RESULT:     -11.3      4.575     10.855
REMARK SMILES C[C@H]1OCC[C@H]1c1nnnn1CC(=O)NCCCCNC(=O)c1ccc(-c2c3nc(c(-c4cc(S(=O)(=O)[O-])ccc4F)c4ccc([nH]4)c(-c4cc(S(=O)(=O)[O-])ccc4F)c4nc(c(-c5cc(S(=O)(=O)[O-])ccc5F)c5ccc2[nH]5)C=C4)C=C3)cc1
REMARK SMILES IDX 18 1 17 2 16 3 15 4 13 5 14 6 12 8 11 9 7 10 8 11 9 12 10 13
REMARK SMILES IDX 6 14 1 15 2 16 3 17 4 18 5 19 19 20 20 21 21 22 22 24 23 25
REMARK SMILES IDX 24 26 85 27 25 28 84 29 26 30 27 31 28 32 78 33 29 34 83 35
REMARK SMILES IDX 77 36 79 37 30 38 82 39 76 40 75 41 31 43 63 44 43 45 62 46
REMARK SMILES IDX 44 47 47 48 61 49 80 50 45 51 46 52 60 54 81 55 48 56 32 57
REMARK SMILES IDX 33 58 41 59 34 60 40 61 42 62 39 63 35 64 36 65 37 66 38 67
REMARK SMILES IDX 64 68 65 69 73 70 66 71 72 72 74 73 71 74 67 75 68 76 69 77
REMARK SMILES IDX 70 78 49 79 50 80 58 81 51 82 57 83 59 84 56 85 52 86 53 87
REMARK SMILES IDX 54 88 55 89
REMARK H PARENT 15 7 20 23 79 42 47 53
REMARK Flexibility Score: inf
ROOT
ATOM      1  C   UNL A   1      44.867  19.508  24.413  1.00  0.00     0.023 C 
ENDROOT
BRANCH   1   2
ATOM      2  C   UNL A   1      46.027  20.409  24.850  1.00  0.00     0.023 C 
BRANCH   2   3
ATOM      3  C   UNL A   1      45.896  21.867  24.413  1.00  0.00     0.116 C 
BRANCH   3   4
ATOM      4  N   UNL A   1      45.732  22.766  25.534  1.00  0.00    -0.354 N 
ATOM      5  C   UNL A   1      46.415  23.914  25.821  1.00  0.00     0.241 C 
ATOM      6  O   UNL A   1      46.136  24.515  26.859  1.00  0.00    -0.273 OA
ATOM      7  H   UNL A   1      45.033  22.515  26.180  1.00  0.00     0.163 HD
BRANCH   5   8
ATOM      8  C   UNL A   1      47.394  24.489  24.824  1.00  0.00     0.248 C 
BRANCH   8   9
ATOM      9  N   UNL A   1      47.198  25.890  24.539  1.00  0.00    -0.220 N 
ATOM     10  C   UNL A   1      48.071  26.821  24.014  1.00  0.00     0.157 A 
ATOM     11  N   UNL A   1      47.396  27.947  23.874  1.00  0.00    -0.113 NA
ATOM     12  N   UNL A   1      46.116  27.700  24.290  1.00  0.00    -0.024 NA
ATOM     13  N   UNL A   1      45.981  26.443  24.680  1.00  0.00    -0.044 NA
BRANCH  10  14
ATOM     14  C   UNL A   1      49.539  26.624  23.772  1.00  0.00     0.090 C 
ATOM     15  C   UNL A   1      49.295  27.981  21.532  1.00  0.00     0.039 C 
ATOM     16  C   UNL A   1      50.183  27.423  22.629  1.00  0.00     0.126 C 
ATOM     17  O   UNL A   1      50.913  28.521  23.206  1.00  0.00    -0.378 OA
ATOM     18  C   UNL A   1      50.752  28.483  24.624  1.00  0.00     0.161 C 
ATOM     19  C   UNL A   1      50.376  27.061  24.970  1.00  0.00     0.043 C 
ENDBRANCH  10  14
ENDBRANCH   8   9
ENDBRANCH   5   8
ENDBRANCH   3   4
ENDBRANCH   2   3
ENDBRANCH   1   2
BRANCH   1  20
ATOM     20  C   UNL A   1      44.014  18.963  25.556  1.00  0.00     0.116 C 
BRANCH  20  21
ATOM     21  N   UNL A   1      42.586  19.023  25.267  1.00  0.00    -0.352 N 
ATOM     22  C   UNL A   1      41.631  19.809  25.886  1.00  0.00     0.251 C 
ATOM     23  H   UNL A   1      42.264  18.434  24.547  1.00  0.00     0.163 HD
ATOM     24  O   UNL A   1      40.464  19.451  25.903  1.00  0.00    -0.269 OA
BRANCH  22  25
ATOM     25  C   UNL A   1      42.040  21.085  26.513  1.00  0.00     0.039 A 
ATOM     26  C   UNL A   1      42.176  22.245  25.750  1.00  0.00     0.014 A 
ATOM     27  C   UNL A   1      42.299  21.112  27.884  1.00  0.00     0.014 A 
ATOM     28  C   UNL A   1      42.489  23.443  26.394  1.00  0.00     0.010 A 
ATOM     29  C   UNL A   1      42.509  22.309  28.536  1.00  0.00     0.010 A 
ATOM     30  C   UNL A   1      42.626  23.480  27.797  1.00  0.00    -0.014 A 
BRANCH  30  31
ATOM     31  C   UNL A   1      42.649  24.767  28.502  1.00  0.00     0.031 A 
ATOM     32  C   UNL A   1      41.442  25.585  28.220  1.00  0.00     0.074 A 
ATOM     33  C   UNL A   1      43.532  25.132  29.461  1.00  0.00     0.049 A 
ATOM     34  N   UNL A   1      41.365  26.603  27.429  1.00  0.00    -0.248 NA
ATOM     35  C   UNL A   1      40.128  25.093  28.673  1.00  0.00     0.031 C 
ATOM     36  C   UNL A   1      44.617  24.328  30.028  1.00  0.00     0.029 A 
ATOM     37  N   UNL A   1      43.599  26.280  30.204  1.00  0.00    -0.354 N 
ATOM     38  C   UNL A   1      40.064  27.071  27.554  1.00  0.00     0.074 A 
ATOM     39  C   UNL A   1      39.310  25.969  28.083  1.00  0.00     0.031 C 
ATOM     40  C   UNL A   1      45.085  24.917  31.153  1.00  0.00     0.029 A 
ATOM     41  C   UNL A   1      44.444  26.212  31.318  1.00  0.00     0.049 A 
ATOM     42  H   UNL A   1      43.092  27.091  29.972  1.00  0.00     0.167 HD
ATOM     43  C   UNL A   1      39.817  28.411  27.537  1.00  0.00     0.034 A 
ATOM     44  C   UNL A   1      44.615  27.138  32.307  1.00  0.00     0.034 A 
ATOM     45  C   UNL A   1      40.955  29.130  26.986  1.00  0.00     0.049 A 
ATOM     46  C   UNL A   1      44.209  28.444  31.738  1.00  0.00     0.074 A 
ATOM     47  C   UNL A   1      41.696  29.028  25.820  1.00  0.00     0.029 A 
ATOM     48  N   UNL A   1      41.744  29.859  27.851  1.00  0.00    -0.354 N 
ATOM     49  N   UNL A   1      44.865  29.032  30.776  1.00  0.00    -0.248 NA
ATOM     50  C   UNL A   1      42.823  28.855  31.885  1.00  0.00     0.031 C 
ATOM     51  C   UNL A   1      43.049  29.238  26.224  1.00  0.00     0.029 A 
ATOM     52  C   UNL A   1      43.057  29.570  27.578  1.00  0.00     0.049 A 
ATOM     53  H   UNL A   1      41.421  30.478  28.544  1.00  0.00     0.167 HD
ATOM     54  C   UNL A   1      43.882  29.503  29.920  1.00  0.00     0.074 A 
ATOM     55  C   UNL A   1      42.649  29.464  30.707  1.00  0.00     0.031 C 
ATOM     56  C   UNL A   1      44.111  29.598  28.576  1.00  0.00     0.034 A 
BRANCH  43  57
ATOM     57  C   UNL A   1      38.792  29.098  28.425  1.00  0.00     0.023 A 
ATOM     58  C   UNL A   1      39.079  29.123  29.803  1.00  0.00     0.031 A 
ATOM     59  C   UNL A   1      37.459  29.419  28.079  1.00  0.00     0.131 A 
ATOM     60  C   UNL A   1      38.054  29.267  30.752  1.00  0.00     0.055 A 
ATOM     61  C   UNL A   1      36.456  29.637  29.029  1.00  0.00     0.041 A 
ATOM     62  F   UNL A   1      37.018  29.467  26.818  1.00  0.00    -0.206 F 
ATOM     63  C   UNL A   1      36.741  29.516  30.376  1.00  0.00     0.022 A 
BRANCH  60  64
ATOM     64  S   UNL A   1      38.449  28.897  32.478  1.00  0.00     0.124 S 
ATOM     65  O   UNL A   1      39.468  27.865  32.315  1.00  0.00    -0.237 OA
ATOM     66  O   UNL A   1      38.914  30.193  32.962  1.00  0.00    -0.237 OA
ATOM     67  O   UNL A   1      37.173  28.445  33.026  1.00  0.00    -0.744 OA
ENDBRANCH  60  64
ENDBRANCH  43  57
BRANCH  44  68
ATOM     68  C   UNL A   1      44.861  26.938  33.772  1.00  0.00     0.023 A 
ATOM     69  C   UNL A   1      43.824  26.882  34.739  1.00  0.00     0.031 A 
ATOM     70  C   UNL A   1      46.138  26.518  34.203  1.00  0.00     0.131 A 
ATOM     71  C   UNL A   1      44.088  26.412  36.053  1.00  0.00     0.055 A 
ATOM     72  C   UNL A   1      46.389  26.050  35.496  1.00  0.00     0.041 A 
ATOM     73  F   UNL A   1      47.174  26.459  33.353  1.00  0.00    -0.206 F 
ATOM     74  C   UNL A   1      45.363  25.982  36.423  1.00  0.00     0.022 A 
BRANCH  71  75
ATOM     75  S   UNL A   1      42.753  26.252  37.294  1.00  0.00     0.124 S 
ATOM     76  O   UNL A   1      41.890  27.382  36.972  1.00  0.00    -0.237 OA
ATOM     77  O   UNL A   1      42.219  24.924  37.017  1.00  0.00    -0.237 OA
ATOM     78  O   UNL A   1      43.459  26.368  38.572  1.00  0.00    -0.744 OA
ENDBRANCH  71  75
ENDBRANCH  44  68
BRANCH  56  79
ATOM     79  C   UNL A   1      45.543  29.555  28.079  1.00  0.00     0.023 A 
ATOM     80  C   UNL A   1      46.381  30.676  27.871  1.00  0.00     0.031 A 
ATOM     81  C   UNL A   1      46.107  28.281  27.877  1.00  0.00     0.131 A 
ATOM     82  C   UNL A   1      47.717  30.493  27.456  1.00  0.00     0.055 A 
ATOM     83  C   UNL A   1      47.434  28.103  27.492  1.00  0.00     0.041 A 
ATOM     84  F   UNL A   1      45.374  27.172  28.075  1.00  0.00    -0.206 F 
ATOM     85  C   UNL A   1      48.242  29.210  27.270  1.00  0.00     0.022 A 
BRANCH  82  86
ATOM     86  S   UNL A   1      48.793  31.923  27.109  1.00  0.00     0.124 S 
ATOM     87  O   UNL A   1      49.007  32.521  28.422  1.00  0.00    -0.237 OA
ATOM     88  O   UNL A   1      49.962  31.296  26.497  1.00  0.00    -0.237 OA
ATOM     89  O   UNL A   1      47.993  32.737  26.192  1.00  0.00    -0.744 OA
ENDBRANCH  82  86
ENDBRANCH  56  79
ENDBRANCH  30  31
ENDBRANCH  22  25
ENDBRANCH  20  21
ENDBRANCH   1  20
TORSDOF 16
ENDMDL
