MODEL 1
REMARK VINA RESULT:     -10.5      0.000      0.000
REMARK SMILES C[C@H]([NH2+]CCc1ccco1)[C@@H](C)C(=O)NCCCCNC(=O)c1ccc(-c2c3nc(c(-c4cc(S(=O)(=O)[O-])ccc4F)c4ccc([nH]4)c(-c4cc(S(=O)(=O)[O-])ccc4F)c4nc(c(-c5cc(S(=O)(=O)[O-])ccc5F)c5ccc2[nH]5)C=C4)C=C3)cc1
REMARK SMILES IDX 16 1 15 2 13 3 14 4 11 6 12 7 2 8 1 9 3 10 4 13 5 14 6 15
REMARK SMILES IDX 7 16 10 17 8 18 9 19 17 20 18 21 19 22 20 23 21 24 22 26
REMARK SMILES IDX 23 27 24 28 85 29 25 30 84 31 26 32 27 33 28 34 78 35 29 36
REMARK SMILES IDX 83 37 77 38 79 39 30 40 82 41 76 42 75 43 31 45 63 46 43 47
REMARK SMILES IDX 62 48 44 49 47 50 61 51 80 52 45 53 46 54 60 56 81 57 48 58
REMARK SMILES IDX 32 59 33 60 41 61 34 62 40 63 42 64 39 65 35 66 36 67 37 68
REMARK SMILES IDX 38 69 64 70 65 71 73 72 66 73 72 74 74 75 71 76 67 77 68 78
REMARK SMILES IDX 69 79 70 80 49 81 50 82 58 83 51 84 57 85 59 86 56 87 52 88
REMARK SMILES IDX 53 89 54 90 55 91
REMARK H PARENT 15 5 3 11 3 12 20 25 79 44 47 55
REMARK Flexibility Score: inf
ROOT
ATOM      1  C   UNL A   1      37.233  22.345  25.633  1.00  0.00     0.116 C 
ENDROOT
BRANCH   1   2
ATOM      2  N   UNL A   1      36.077  22.513  26.498  1.00  0.00    -0.356 N 
ATOM      3  C   UNL A   1      34.870  23.108  26.286  1.00  0.00     0.228 C 
ATOM      4  O   UNL A   1      34.057  23.093  27.213  1.00  0.00    -0.275 OA
ATOM      5  H   UNL A   1      36.187  22.127  27.397  1.00  0.00     0.163 HD
BRANCH   3   6
ATOM      6  C   UNL A   1      34.500  23.767  24.954  1.00  0.00     0.133 C 
ATOM      7  C   UNL A   1      33.913  25.159  25.210  1.00  0.00     0.024 C 
BRANCH   6   8
ATOM      8  C   UNL A   1      33.675  22.808  24.064  1.00  0.00     0.191 C 
ATOM      9  C   UNL A   1      33.510  23.371  22.643  1.00  0.00     0.076 C 
BRANCH   8  10
ATOM     10  N   UNL A   1      32.380  22.354  24.569  1.00  0.00    -0.343 N 
ATOM     11  H   UNL A   1      31.679  22.603  23.870  1.00  0.00     0.346 HD
ATOM     12  H   UNL A   1      32.288  22.810  25.476  1.00  0.00     0.346 HD
BRANCH  10  13
ATOM     13  C   UNL A   1      32.210  20.935  24.861  1.00  0.00     0.268 C 
BRANCH  13  14
ATOM     14  C   UNL A   1      33.521  20.175  24.591  1.00  0.00     0.136 C 
BRANCH  14  15
ATOM     15  C   UNL A   1      33.372  18.691  24.598  1.00  0.00     0.109 A 
ATOM     16  C   UNL A   1      34.070  17.663  23.999  1.00  0.00     0.046 A 
ATOM     17  O   UNL A   1      32.376  18.177  25.376  1.00  0.00    -0.469 OA
ATOM     18  C   UNL A   1      33.462  16.459  24.432  1.00  0.00     0.042 A 
ATOM     19  C   UNL A   1      32.435  16.826  25.267  1.00  0.00     0.195 A 
ENDBRANCH  14  15
ENDBRANCH  13  14
ENDBRANCH  10  13
ENDBRANCH   8  10
ENDBRANCH   6   8
ENDBRANCH   3   6
ENDBRANCH   1   2
BRANCH   1  20
ATOM     20  C   UNL A   1      37.094  21.146  24.695  1.00  0.00     0.023 C 
BRANCH  20  21
ATOM     21  C   UNL A   1      38.026  19.975  24.998  1.00  0.00     0.023 C 
BRANCH  21  22
ATOM     22  C   UNL A   1      39.244  20.311  25.850  1.00  0.00     0.116 C 
BRANCH  22  23
ATOM     23  N   UNL A   1      40.217  19.230  25.920  1.00  0.00    -0.352 N 
ATOM     24  C   UNL A   1      41.570  19.300  26.155  1.00  0.00     0.251 C 
ATOM     25  H   UNL A   1      39.856  18.325  25.778  1.00  0.00     0.163 HD
ATOM     26  O   UNL A   1      42.256  18.285  26.069  1.00  0.00    -0.269 OA
BRANCH  24  27
ATOM     27  C   UNL A   1      42.193  20.605  26.462  1.00  0.00     0.039 A 
ATOM     28  C   UNL A   1      42.650  21.397  25.406  1.00  0.00     0.014 A 
ATOM     29  C   UNL A   1      42.285  21.064  27.779  1.00  0.00     0.014 A 
ATOM     30  C   UNL A   1      43.128  22.683  25.666  1.00  0.00     0.010 A 
ATOM     31  C   UNL A   1      42.690  22.373  28.027  1.00  0.00     0.010 A 
ATOM     32  C   UNL A   1      43.110  23.198  26.973  1.00  0.00    -0.014 A 
BRANCH  32  33
ATOM     33  C   UNL A   1      43.506  24.603  27.249  1.00  0.00     0.031 A 
ATOM     34  C   UNL A   1      42.527  25.558  27.875  1.00  0.00     0.074 A 
ATOM     35  C   UNL A   1      44.726  25.036  26.873  1.00  0.00     0.049 A 
ATOM     36  N   UNL A   1      42.666  26.832  28.141  1.00  0.00    -0.248 NA
ATOM     37  C   UNL A   1      41.205  25.014  28.215  1.00  0.00     0.031 C 
ATOM     38  C   UNL A   1      45.742  24.217  26.204  1.00  0.00     0.029 A 
ATOM     39  N   UNL A   1      45.318  26.268  26.987  1.00  0.00    -0.354 N 
ATOM     40  C   UNL A   1      41.447  27.245  28.667  1.00  0.00     0.074 A 
ATOM     41  C   UNL A   1      40.563  26.099  28.620  1.00  0.00     0.031 C 
ATOM     42  C   UNL A   1      46.837  24.963  25.991  1.00  0.00     0.029 A 
ATOM     43  C   UNL A   1      46.591  26.321  26.467  1.00  0.00     0.049 A 
ATOM     44  H   UNL A   1      44.874  27.042  27.402  1.00  0.00     0.167 HD
ATOM     45  C   UNL A   1      41.105  28.460  29.164  1.00  0.00     0.034 A 
ATOM     46  C   UNL A   1      47.459  27.348  26.377  1.00  0.00     0.034 A 
ATOM     47  C   UNL A   1      42.004  29.588  29.211  1.00  0.00     0.049 A 
ATOM     48  C   UNL A   1      47.057  28.690  26.929  1.00  0.00     0.074 A 
ATOM     49  C   UNL A   1      41.787  30.843  29.753  1.00  0.00     0.029 A 
ATOM     50  N   UNL A   1      43.291  29.604  28.683  1.00  0.00    -0.354 N 
ATOM     51  N   UNL A   1      45.923  29.048  27.486  1.00  0.00    -0.248 NA
ATOM     52  C   UNL A   1      48.057  29.762  26.853  1.00  0.00     0.031 C 
ATOM     53  C   UNL A   1      42.912  31.636  29.495  1.00  0.00     0.029 A 
ATOM     54  C   UNL A   1      43.864  30.855  28.857  1.00  0.00     0.049 A 
ATOM     55  H   UNL A   1      43.730  28.838  28.249  1.00  0.00     0.167 HD
ATOM     56  C   UNL A   1      46.084  30.382  27.849  1.00  0.00     0.074 A 
ATOM     57  C   UNL A   1      47.431  30.756  27.465  1.00  0.00     0.031 C 
ATOM     58  C   UNL A   1      45.201  31.221  28.449  1.00  0.00     0.034 A 
BRANCH  45  59
ATOM     59  C   UNL A   1      39.691  28.629  29.669  1.00  0.00     0.023 A 
ATOM     60  C   UNL A   1      38.649  29.055  28.824  1.00  0.00     0.031 A 
ATOM     61  C   UNL A   1      39.384  28.399  31.021  1.00  0.00     0.131 A 
ATOM     62  C   UNL A   1      37.378  29.320  29.355  1.00  0.00     0.055 A 
ATOM     63  C   UNL A   1      38.094  28.581  31.526  1.00  0.00     0.041 A 
ATOM     64  F   UNL A   1      40.338  28.010  31.883  1.00  0.00    -0.206 F 
ATOM     65  C   UNL A   1      37.086  29.060  30.696  1.00  0.00     0.022 A 
BRANCH  62  66
ATOM     66  S   UNL A   1      36.158  30.154  28.304  1.00  0.00     0.124 S 
ATOM     67  O   UNL A   1      35.827  31.326  29.112  1.00  0.00    -0.237 OA
ATOM     68  O   UNL A   1      36.916  30.412  27.085  1.00  0.00    -0.237 OA
ATOM     69  O   UNL A   1      35.085  29.171  28.177  1.00  0.00    -0.744 OA
ENDBRANCH  62  66
ENDBRANCH  45  59
BRANCH  46  70
ATOM     70  C   UNL A   1      48.790  27.153  25.734  1.00  0.00     0.023 A 
ATOM     71  C   UNL A   1      48.992  27.458  24.379  1.00  0.00     0.031 A 
ATOM     72  C   UNL A   1      49.875  26.635  26.464  1.00  0.00     0.131 A 
ATOM     73  C   UNL A   1      50.236  27.203  23.783  1.00  0.00     0.055 A 
ATOM     74  C   UNL A   1      51.125  26.429  25.878  1.00  0.00     0.041 A 
ATOM     75  F   UNL A   1      49.738  26.335  27.765  1.00  0.00    -0.206 F 
ATOM     76  C   UNL A   1      51.308  26.703  24.526  1.00  0.00     0.022 A 
BRANCH  73  77
ATOM     77  S   UNL A   1      50.417  27.472  21.998  1.00  0.00     0.124 S 
ATOM     78  O   UNL A   1      49.927  28.838  21.852  1.00  0.00    -0.237 OA
ATOM     79  O   UNL A   1      51.851  27.281  21.808  1.00  0.00    -0.237 OA
ATOM     80  O   UNL A   1      49.570  26.437  21.411  1.00  0.00    -0.744 OA
ENDBRANCH  73  77
ENDBRANCH  46  70
BRANCH  58  81
ATOM     81  C   UNL A   1      45.687  32.619  28.752  1.00  0.00     0.023 A 
ATOM     82  C   UNL A   1      45.682  33.631  27.776  1.00  0.00     0.031 A 
ATOM     83  C   UNL A   1      46.183  32.933  30.029  1.00  0.00     0.131 A 
ATOM     84  C   UNL A   1      46.220  34.892  28.075  1.00  0.00     0.055 A 
ATOM     85  C   UNL A   1      46.659  34.209  30.340  1.00  0.00     0.041 A 
ATOM     86  F   UNL A   1      46.214  32.005  30.999  1.00  0.00    -0.206 F 
ATOM     87  C   UNL A   1      46.692  35.192  29.355  1.00  0.00     0.022 A 
BRANCH  84  88
ATOM     88  S   UNL A   1      46.387  36.107  26.738  1.00  0.00     0.124 S 
ATOM     89  O   UNL A   1      47.781  36.513  26.870  1.00  0.00    -0.237 OA
ATOM     90  O   UNL A   1      46.062  35.317  25.556  1.00  0.00    -0.237 OA
ATOM     91  O   UNL A   1      45.406  37.134  27.085  1.00  0.00    -0.744 OA
ENDBRANCH  84  88
ENDBRANCH  58  81
ENDBRANCH  32  33
ENDBRANCH  24  27
ENDBRANCH  22  23
ENDBRANCH  21  22
ENDBRANCH  20  21
ENDBRANCH   1  20
TORSDOF 19
ENDMDL
MODEL 2
REMARK VINA RESULT:     -10.4      6.885     12.138
REMARK SMILES C[C@H]([NH2+]CCc1ccco1)[C@@H](C)C(=O)NCCCCNC(=O)c1ccc(-c2c3nc(c(-c4cc(S(=O)(=O)[O-])ccc4F)c4ccc([nH]4)c(-c4cc(S(=O)(=O)[O-])ccc4F)c4nc(c(-c5cc(S(=O)(=O)[O-])ccc5F)c5ccc2[nH]5)C=C4)C=C3)cc1
REMARK SMILES IDX 16 1 15 2 13 3 14 4 11 6 12 7 2 8 1 9 3 10 4 13 5 14 6 15
REMARK SMILES IDX 7 16 10 17 8 18 9 19 17 20 18 21 19 22 20 23 21 24 22 26
REMARK SMILES IDX 23 27 24 28 85 29 25 30 84 31 26 32 27 33 28 34 78 35 29 36
REMARK SMILES IDX 83 37 77 38 79 39 30 40 82 41 76 42 75 43 31 45 63 46 43 47
REMARK SMILES IDX 62 48 44 49 47 50 61 51 80 52 45 53 46 54 60 56 81 57 48 58
REMARK SMILES IDX 32 59 33 60 41 61 34 62 40 63 42 64 39 65 35 66 36 67 37 68
REMARK SMILES IDX 38 69 64 70 65 71 73 72 66 73 72 74 74 75 71 76 67 77 68 78
REMARK SMILES IDX 69 79 70 80 49 81 50 82 58 83 51 84 57 85 59 86 56 87 52 88
REMARK SMILES IDX 53 89 54 90 55 91
REMARK H PARENT 15 5 3 11 3 12 20 25 79 44 47 55
REMARK Flexibility Score: inf
ROOT
ATOM      1  C   UNL A   1      32.132  29.784  26.986  1.00  0.00     0.116 C 
ENDROOT
BRANCH   1   2
ATOM      2  N   UNL A   1      31.458  28.500  27.086  1.00  0.00    -0.356 N 
ATOM      3  C   UNL A   1      31.751  27.284  26.547  1.00  0.00     0.228 C 
ATOM      4  O   UNL A   1      30.995  26.346  26.815  1.00  0.00    -0.275 OA
ATOM      5  H   UNL A   1      30.648  28.512  27.644  1.00  0.00     0.163 HD
BRANCH   3   6
ATOM      6  C   UNL A   1      32.971  27.051  25.651  1.00  0.00     0.133 C 
ATOM      7  C   UNL A   1      34.139  27.918  26.131  1.00  0.00     0.024 C 
BRANCH   6   8
ATOM      8  C   UNL A   1      32.592  27.146  24.154  1.00  0.00     0.191 C 
ATOM      9  C   UNL A   1      33.325  28.311  23.468  1.00  0.00     0.076 C 
BRANCH   8  10
ATOM     10  N   UNL A   1      31.172  27.186  23.811  1.00  0.00    -0.343 N 
ATOM     11  H   UNL A   1      30.652  27.264  24.685  1.00  0.00     0.346 HD
ATOM     12  H   UNL A   1      31.018  26.333  23.274  1.00  0.00     0.346 HD
BRANCH  10  13
ATOM     13  C   UNL A   1      30.702  28.253  22.934  1.00  0.00     0.268 C 
BRANCH  13  14
ATOM     14  C   UNL A   1      29.179  28.422  23.069  1.00  0.00     0.136 C 
BRANCH  14  15
ATOM     15  C   UNL A   1      28.712  29.832  22.930  1.00  0.00     0.109 A 
ATOM     16  C   UNL A   1      27.626  30.526  23.423  1.00  0.00     0.046 A 
ATOM     17  O   UNL A   1      29.506  30.674  22.207  1.00  0.00    -0.469 OA
ATOM     18  C   UNL A   1      27.766  31.861  22.971  1.00  0.00     0.042 A 
ATOM     19  C   UNL A   1      28.924  31.899  22.233  1.00  0.00     0.195 A 
ENDBRANCH  14  15
ENDBRANCH  13  14
ENDBRANCH  10  13
ENDBRANCH   8  10
ENDBRANCH   6   8
ENDBRANCH   3   6
ENDBRANCH   1   2
BRANCH   1  20
ATOM     20  C   UNL A   1      31.409  30.754  26.052  1.00  0.00     0.023 C 
BRANCH  20  21
ATOM     21  C   UNL A   1      31.370  32.205  26.528  1.00  0.00     0.023 C 
BRANCH  21  22
ATOM     22  C   UNL A   1      32.701  32.770  27.011  1.00  0.00     0.116 C 
BRANCH  22  23
ATOM     23  N   UNL A   1      32.576  34.068  27.659  1.00  0.00    -0.352 N 
ATOM     24  C   UNL A   1      33.318  34.594  28.690  1.00  0.00     0.251 C 
ATOM     25  H   UNL A   1      31.861  34.649  27.310  1.00  0.00     0.163 HD
ATOM     26  O   UNL A   1      32.997  35.672  29.184  1.00  0.00    -0.269 OA
BRANCH  24  27
ATOM     27  C   UNL A   1      34.467  33.834  29.226  1.00  0.00     0.039 A 
ATOM     28  C   UNL A   1      35.760  34.258  28.911  1.00  0.00     0.014 A 
ATOM     29  C   UNL A   1      34.271  32.736  30.068  1.00  0.00     0.014 A 
ATOM     30  C   UNL A   1      36.856  33.630  29.505  1.00  0.00     0.010 A 
ATOM     31  C   UNL A   1      35.360  32.162  30.718  1.00  0.00     0.010 A 
ATOM     32  C   UNL A   1      36.664  32.606  30.448  1.00  0.00    -0.014 A 
BRANCH  32  33
ATOM     33  C   UNL A   1      37.813  32.007  31.174  1.00  0.00     0.031 A 
ATOM     34  C   UNL A   1      38.597  30.882  30.558  1.00  0.00     0.074 A 
ATOM     35  C   UNL A   1      38.105  32.433  32.420  1.00  0.00     0.049 A 
ATOM     36  N   UNL A   1      39.591  30.193  31.057  1.00  0.00    -0.248 NA
ATOM     37  C   UNL A   1      38.183  30.452  29.214  1.00  0.00     0.031 C 
ATOM     38  C   UNL A   1      37.380  33.478  33.146  1.00  0.00     0.029 A 
ATOM     39  N   UNL A   1      39.080  32.035  33.299  1.00  0.00    -0.354 N 
ATOM     40  C   UNL A   1      39.915  29.242  30.097  1.00  0.00     0.074 A 
ATOM     41  C   UNL A   1      38.965  29.403  29.014  1.00  0.00     0.031 C 
ATOM     42  C   UNL A   1      37.950  33.655  34.348  1.00  0.00     0.029 A 
ATOM     43  C   UNL A   1      39.052  32.711  34.498  1.00  0.00     0.049 A 
ATOM     44  H   UNL A   1      39.738  31.332  33.093  1.00  0.00     0.167 HD
ATOM     45  C   UNL A   1      40.924  28.335  30.106  1.00  0.00     0.034 A 
ATOM     46  C   UNL A   1      39.823  32.580  35.596  1.00  0.00     0.034 A 
ATOM     47  C   UNL A   1      41.867  28.196  31.190  1.00  0.00     0.049 A 
ATOM     48  C   UNL A   1      40.933  31.562  35.587  1.00  0.00     0.074 A 
ATOM     49  C   UNL A   1      42.967  27.361  31.276  1.00  0.00     0.029 A 
ATOM     50  N   UNL A   1      41.815  28.904  32.386  1.00  0.00    -0.354 N 
ATOM     51  N   UNL A   1      41.270  30.715  34.643  1.00  0.00    -0.248 NA
ATOM     52  C   UNL A   1      41.776  31.495  36.787  1.00  0.00     0.031 C 
ATOM     53  C   UNL A   1      43.538  27.513  32.545  1.00  0.00     0.029 A 
ATOM     54  C   UNL A   1      42.841  28.500  33.226  1.00  0.00     0.049 A 
ATOM     55  H   UNL A   1      41.146  29.593  32.604  1.00  0.00     0.167 HD
ATOM     56  C   UNL A   1      42.380  30.029  35.127  1.00  0.00     0.074 A 
ATOM     57  C   UNL A   1      42.666  30.578  36.438  1.00  0.00     0.031 C 
ATOM     58  C   UNL A   1      43.101  29.039  34.541  1.00  0.00     0.034 A 
BRANCH  45  59
ATOM     59  C   UNL A   1      41.035  27.409  28.916  1.00  0.00     0.023 A 
ATOM     60  C   UNL A   1      42.037  27.574  27.942  1.00  0.00     0.031 A 
ATOM     61  C   UNL A   1      40.106  26.372  28.730  1.00  0.00     0.131 A 
ATOM     62  C   UNL A   1      42.034  26.775  26.789  1.00  0.00     0.055 A 
ATOM     63  C   UNL A   1      40.160  25.523  27.621  1.00  0.00     0.041 A 
ATOM     64  F   UNL A   1      39.113  26.175  29.613  1.00  0.00    -0.206 F 
ATOM     65  C   UNL A   1      41.118  25.732  26.634  1.00  0.00     0.022 A 
BRANCH  62  66
ATOM     66  S   UNL A   1      43.144  27.220  25.425  1.00  0.00     0.124 S 
ATOM     67  O   UNL A   1      42.304  28.127  24.645  1.00  0.00    -0.237 OA
ATOM     68  O   UNL A   1      44.270  27.831  26.121  1.00  0.00    -0.237 OA
ATOM     69  O   UNL A   1      43.427  25.939  24.782  1.00  0.00    -0.744 OA
ENDBRANCH  62  66
ENDBRANCH  45  59
BRANCH  46  70
ATOM     70  C   UNL A   1      39.570  33.426  36.797  1.00  0.00     0.023 A 
ATOM     71  C   UNL A   1      38.913  32.908  37.923  1.00  0.00     0.031 A 
ATOM     72  C   UNL A   1      39.963  34.776  36.825  1.00  0.00     0.131 A 
ATOM     73  C   UNL A   1      38.629  33.744  39.014  1.00  0.00     0.055 A 
ATOM     74  C   UNL A   1      39.722  35.591  37.932  1.00  0.00     0.041 A 
ATOM     75  F   UNL A   1      40.604  35.319  35.777  1.00  0.00    -0.206 F 
ATOM     76  C   UNL A   1      39.041  35.079  39.031  1.00  0.00     0.022 A 
BRANCH  73  77
ATOM     77  S   UNL A   1      37.650  33.079  40.388  1.00  0.00     0.124 S 
ATOM     78  O   UNL A   1      36.374  32.803  39.738  1.00  0.00    -0.237 OA
ATOM     79  O   UNL A   1      38.434  31.913  40.781  1.00  0.00    -0.237 OA
ATOM     80  O   UNL A   1      37.635  34.173  41.356  1.00  0.00    -0.744 OA
ENDBRANCH  73  77
ENDBRANCH  46  70
BRANCH  58  81
ATOM     81  C   UNL A   1      44.290  28.514  35.311  1.00  0.00     0.023 A 
ATOM     82  C   UNL A   1      44.167  27.456  36.228  1.00  0.00     0.031 A 
ATOM     83  C   UNL A   1      45.557  29.098  35.140  1.00  0.00     0.131 A 
ATOM     84  C   UNL A   1      45.279  27.054  36.984  1.00  0.00     0.055 A 
ATOM     85  C   UNL A   1      46.674  28.652  35.849  1.00  0.00     0.041 A 
ATOM     86  F   UNL A   1      45.732  30.114  34.279  1.00  0.00    -0.206 F 
ATOM     87  C   UNL A   1      46.534  27.634  36.788  1.00  0.00     0.022 A 
BRANCH  84  88
ATOM     88  S   UNL A   1      45.040  25.829  38.301  1.00  0.00     0.124 S 
ATOM     89  O   UNL A   1      46.408  25.600  38.753  1.00  0.00    -0.237 OA
ATOM     90  O   UNL A   1      44.170  26.537  39.233  1.00  0.00    -0.237 OA
ATOM     91  O   UNL A   1      44.419  24.700  37.610  1.00  0.00    -0.744 OA
ENDBRANCH  84  88
ENDBRANCH  58  81
ENDBRANCH  32  33
ENDBRANCH  24  27
ENDBRANCH  22  23
ENDBRANCH  21  22
ENDBRANCH  20  21
ENDBRANCH   1  20
TORSDOF 19
ENDMDL
MODEL 3
REMARK VINA RESULT:     -10.3      2.773      4.411
REMARK SMILES C[C@H]([NH2+]CCc1ccco1)[C@@H](C)C(=O)NCCCCNC(=O)c1ccc(-c2c3nc(c(-c4cc(S(=O)(=O)[O-])ccc4F)c4ccc([nH]4)c(-c4cc(S(=O)(=O)[O-])ccc4F)c4nc(c(-c5cc(S(=O)(=O)[O-])ccc5F)c5ccc2[nH]5)C=C4)C=C3)cc1
REMARK SMILES IDX 16 1 15 2 13 3 14 4 11 6 12 7 2 8 1 9 3 10 4 13 5 14 6 15
REMARK SMILES IDX 7 16 10 17 8 18 9 19 17 20 18 21 19 22 20 23 21 24 22 26
REMARK SMILES IDX 23 27 24 28 85 29 25 30 84 31 26 32 27 33 28 34 78 35 29 36
REMARK SMILES IDX 83 37 77 38 79 39 30 40 82 41 76 42 75 43 31 45 63 46 43 47
REMARK SMILES IDX 62 48 44 49 47 50 61 51 80 52 45 53 46 54 60 56 81 57 48 58
REMARK SMILES IDX 32 59 33 60 41 61 34 62 40 63 42 64 39 65 35 66 36 67 37 68
REMARK SMILES IDX 38 69 64 70 65 71 73 72 66 73 72 74 74 75 71 76 67 77 68 78
REMARK SMILES IDX 69 79 70 80 49 81 50 82 58 83 51 84 57 85 59 86 56 87 52 88
REMARK SMILES IDX 53 89 54 90 55 91
REMARK H PARENT 15 5 3 11 3 12 20 25 79 44 47 55
REMARK Flexibility Score: inf
ROOT
ATOM      1  C   UNL A   1      33.521  23.536  25.540  1.00  0.00     0.116 C 
ENDROOT
BRANCH   1   2
ATOM      2  N   UNL A   1      32.474  24.340  26.149  1.00  0.00    -0.356 N 
ATOM      3  C   UNL A   1      32.304  25.690  26.226  1.00  0.00     0.228 C 
ATOM      4  O   UNL A   1      31.296  26.104  26.805  1.00  0.00    -0.275 OA
ATOM      5  H   UNL A   1      31.763  23.816  26.581  1.00  0.00     0.163 HD
BRANCH   3   6
ATOM      6  C   UNL A   1      33.298  26.682  25.616  1.00  0.00     0.133 C 
ATOM      7  C   UNL A   1      33.579  27.812  26.611  1.00  0.00     0.024 C 
BRANCH   6   8
ATOM      8  C   UNL A   1      32.873  27.092  24.186  1.00  0.00     0.191 C 
ATOM      9  C   UNL A   1      33.624  26.269  23.126  1.00  0.00     0.076 C 
BRANCH   8  10
ATOM     10  N   UNL A   1      32.929  28.511  23.838  1.00  0.00    -0.343 N 
ATOM     11  H   UNL A   1      33.885  28.714  23.547  1.00  0.00     0.346 HD
ATOM     12  H   UNL A   1      32.607  28.990  24.679  1.00  0.00     0.346 HD
BRANCH  10  13
ATOM     13  C   UNL A   1      32.045  29.000  22.786  1.00  0.00     0.268 C 
BRANCH  13  14
ATOM     14  C   UNL A   1      30.610  28.492  23.016  1.00  0.00     0.136 C 
BRANCH  14  15
ATOM     15  C   UNL A   1      29.562  29.539  22.838  1.00  0.00     0.109 A 
ATOM     16  C   UNL A   1      29.225  30.676  23.543  1.00  0.00     0.046 A 
ATOM     17  O   UNL A   1      28.760  29.425  21.739  1.00  0.00    -0.469 OA
ATOM     18  C   UNL A   1      28.157  31.283  22.837  1.00  0.00     0.042 A 
ATOM     19  C   UNL A   1      27.910  30.481  21.749  1.00  0.00     0.195 A 
ENDBRANCH  14  15
ENDBRANCH  13  14
ENDBRANCH  10  13
ENDBRANCH   8  10
ENDBRANCH   6   8
ENDBRANCH   3   6
ENDBRANCH   1   2
BRANCH   1  20
ATOM     20  C   UNL A   1      34.497  22.967  26.569  1.00  0.00     0.023 C 
BRANCH  20  21
ATOM     21  C   UNL A   1      35.236  21.704  26.132  1.00  0.00     0.023 C 
BRANCH  21  22
ATOM     22  C   UNL A   1      36.495  21.935  25.306  1.00  0.00     0.116 C 
BRANCH  22  23
ATOM     23  N   UNL A   1      37.464  20.853  25.413  1.00  0.00    -0.352 N 
ATOM     24  C   UNL A   1      38.765  20.899  25.855  1.00  0.00     0.251 C 
ATOM     25  H   UNL A   1      37.142  19.967  25.130  1.00  0.00     0.163 HD
ATOM     26  O   UNL A   1      39.472  19.898  25.773  1.00  0.00    -0.269 OA
BRANCH  24  27
ATOM     27  C   UNL A   1      39.315  22.167  26.380  1.00  0.00     0.039 A 
ATOM     28  C   UNL A   1      40.412  22.117  27.244  1.00  0.00     0.014 A 
ATOM     29  C   UNL A   1      38.781  23.398  25.990  1.00  0.00     0.014 A 
ATOM     30  C   UNL A   1      41.021  23.305  27.653  1.00  0.00     0.010 A 
ATOM     31  C   UNL A   1      39.436  24.576  26.336  1.00  0.00     0.010 A 
ATOM     32  C   UNL A   1      40.567  24.542  27.167  1.00  0.00    -0.014 A 
BRANCH  32  33
ATOM     33  C   UNL A   1      41.276  25.804  27.500  1.00  0.00     0.031 A 
ATOM     34  C   UNL A   1      40.589  26.869  28.310  1.00  0.00     0.074 A 
ATOM     35  C   UNL A   1      42.514  26.018  27.013  1.00  0.00     0.049 A 
ATOM     36  N   UNL A   1      41.019  28.056  28.653  1.00  0.00    -0.248 NA
ATOM     37  C   UNL A   1      39.224  26.569  28.765  1.00  0.00     0.031 C 
ATOM     38  C   UNL A   1      43.261  25.084  26.166  1.00  0.00     0.029 A 
ATOM     39  N   UNL A   1      43.361  27.089  27.148  1.00  0.00    -0.354 N 
ATOM     40  C   UNL A   1      39.975  28.651  29.353  1.00  0.00     0.074 A 
ATOM     41  C   UNL A   1      38.870  27.715  29.326  1.00  0.00     0.031 C 
ATOM     42  C   UNL A   1      44.461  25.613  25.879  1.00  0.00     0.029 A 
ATOM     43  C   UNL A   1      44.556  26.938  26.483  1.00  0.00     0.049 A 
ATOM     44  H   UNL A   1      43.134  27.892  27.671  1.00  0.00     0.167 HD
ATOM     45  C   UNL A   1      39.949  29.854  29.978  1.00  0.00     0.034 A 
ATOM     46  C   UNL A   1      45.606  27.774  26.367  1.00  0.00     0.034 A 
ATOM     47  C   UNL A   1      41.065  30.769  30.002  1.00  0.00     0.049 A 
ATOM     48  C   UNL A   1      45.554  29.108  27.065  1.00  0.00     0.074 A 
ATOM     49  C   UNL A   1      41.174  31.982  30.661  1.00  0.00     0.029 A 
ATOM     50  N   UNL A   1      42.266  30.579  29.325  1.00  0.00    -0.354 N 
ATOM     51  N   UNL A   1      44.585  29.628  27.780  1.00  0.00    -0.248 NA
ATOM     52  C   UNL A   1      46.745  29.959  26.950  1.00  0.00     0.031 C 
ATOM     53  C   UNL A   1      42.408  32.554  30.329  1.00  0.00     0.029 A 
ATOM     54  C   UNL A   1      43.104  31.666  29.524  1.00  0.00     0.049 A 
ATOM     55  H   UNL A   1      42.487  29.787  28.784  1.00  0.00     0.167 HD
ATOM     56  C   UNL A   1      45.059  30.861  28.221  1.00  0.00     0.074 A 
ATOM     57  C   UNL A   1      46.408  30.993  27.707  1.00  0.00     0.031 C 
ATOM     58  C   UNL A   1      44.439  31.796  28.986  1.00  0.00     0.034 A 
BRANCH  45  59
ATOM     59  C   UNL A   1      38.661  30.252  30.663  1.00  0.00     0.023 A 
ATOM     60  C   UNL A   1      37.636  30.927  29.975  1.00  0.00     0.031 A 
ATOM     61  C   UNL A   1      38.469  29.987  32.029  1.00  0.00     0.131 A 
ATOM     62  C   UNL A   1      36.510  31.390  30.671  1.00  0.00     0.055 A 
ATOM     63  C   UNL A   1      37.305  30.375  32.698  1.00  0.00     0.041 A 
ATOM     64  F   UNL A   1      39.418  29.364  32.747  1.00  0.00    -0.206 F 
ATOM     65  C   UNL A   1      36.324  31.095  32.023  1.00  0.00     0.022 A 
BRANCH  62  66
ATOM     66  S   UNL A   1      35.369  32.515  29.821  1.00  0.00     0.124 S 
ATOM     67  O   UNL A   1      34.924  31.690  28.699  1.00  0.00    -0.237 OA
ATOM     68  O   UNL A   1      34.372  32.788  30.849  1.00  0.00    -0.237 OA
ATOM     69  O   UNL A   1      36.215  33.648  29.453  1.00  0.00    -0.744 OA
ENDBRANCH  62  66
ENDBRANCH  45  59
BRANCH  46  70
ATOM     70  C   UNL A   1      46.794  27.381  25.556  1.00  0.00     0.023 A 
ATOM     71  C   UNL A   1      46.945  27.823  24.232  1.00  0.00     0.031 A 
ATOM     72  C   UNL A   1      47.784  26.536  26.087  1.00  0.00     0.131 A 
ATOM     73  C   UNL A   1      48.038  27.385  23.469  1.00  0.00     0.055 A 
ATOM     74  C   UNL A   1      48.895  26.142  25.339  1.00  0.00     0.041 A 
ATOM     75  F   UNL A   1      47.692  26.092  27.351  1.00  0.00    -0.206 F 
ATOM     76  C   UNL A   1      49.021  26.558  24.018  1.00  0.00     0.022 A 
BRANCH  73  77
ATOM     77  S   UNL A   1      48.123  27.858  21.720  1.00  0.00     0.124 S 
ATOM     78  O   UNL A   1      49.245  28.791  21.718  1.00  0.00    -0.237 OA
ATOM     79  O   UNL A   1      48.357  26.573  21.071  1.00  0.00    -0.237 OA
ATOM     80  O   UNL A   1      46.814  28.454  21.465  1.00  0.00    -0.744 OA
ENDBRANCH  73  77
ENDBRANCH  46  70
BRANCH  58  81
ATOM     81  C   UNL A   1      45.236  33.030  29.333  1.00  0.00     0.023 A 
ATOM     82  C   UNL A   1      45.220  34.175  28.517  1.00  0.00     0.031 A 
ATOM     83  C   UNL A   1      46.041  33.051  30.486  1.00  0.00     0.131 A 
ATOM     84  C   UNL A   1      46.040  35.269  28.832  1.00  0.00     0.055 A 
ATOM     85  C   UNL A   1      46.807  34.167  30.828  1.00  0.00     0.041 A 
ATOM     86  F   UNL A   1      46.098  31.985  31.300  1.00  0.00    -0.206 F 
ATOM     87  C   UNL A   1      46.820  35.278  29.991  1.00  0.00     0.022 A 
BRANCH  84  88
ATOM     88  S   UNL A   1      46.150  36.642  27.652  1.00  0.00     0.124 S 
ATOM     89  O   UNL A   1      46.857  37.654  28.430  1.00  0.00    -0.237 OA
ATOM     90  O   UNL A   1      46.898  36.048  26.549  1.00  0.00    -0.237 OA
ATOM     91  O   UNL A   1      44.753  36.952  27.356  1.00  0.00    -0.744 OA
ENDBRANCH  84  88
ENDBRANCH  58  81
ENDBRANCH  32  33
ENDBRANCH  24  27
ENDBRANCH  22  23
ENDBRANCH  21  22
ENDBRANCH  20  21
ENDBRANCH   1  20
TORSDOF 19
ENDMDL
