MODEL 1
REMARK VINA RESULT:     -13.0      0.000      0.000
REMARK SMILES Cc1ccc(-c2nc(C)c(C(=O)N3CCC(C(=O)NCCCCNC(=O)c4ccc(-c5c6nc(c(-c7cc(S(=O)(=O)[O-])ccc7F)c7ccc([nH]7)c(-c7cc(S(=O)(=O)[O-])ccc7F)c7nc(c(-c8cc(S(=O)(=O)[O-])ccc8F)c8ccc5[nH]8)C=C7)C=C6)cc4)CC3)s2)o1
REMARK SMILES IDX 22 1 21 2 20 3 19 4 17 5 18 6 16 8 11 9 12 10 13 11 14 12
REMARK SMILES IDX 91 13 15 14 90 15 10 16 6 17 7 18 92 19 8 20 9 21 5 22 1 23
REMARK SMILES IDX 2 24 3 25 93 26 4 27 23 28 24 29 25 30 26 32 27 33 28 34
REMARK SMILES IDX 89 35 29 36 88 37 30 38 31 39 32 40 82 41 33 42 87 43 81 44
REMARK SMILES IDX 83 45 34 46 86 47 80 48 79 49 35 51 67 52 47 53 66 54 48 55
REMARK SMILES IDX 51 56 65 57 84 58 49 59 50 60 64 62 85 63 52 64 36 65 37 66
REMARK SMILES IDX 45 67 38 68 44 69 46 70 43 71 39 72 40 73 41 74 42 75 68 76
REMARK SMILES IDX 69 77 77 78 70 79 76 80 78 81 75 82 71 83 72 84 73 85 74 86
REMARK SMILES IDX 53 87 54 88 62 89 55 90 61 91 63 92 60 93 56 94 57 95 58 96
REMARK SMILES IDX 59 97
REMARK H PARENT 19 7 24 31 83 50 51 61
REMARK Flexibility Score: inf
ROOT
ATOM      1  C   UNL A   1      31.406  32.360  26.653  1.00  0.00     0.023 C 
ENDROOT
BRANCH   1   2
ATOM      2  C   UNL A   1      31.404  30.878  26.279  1.00  0.00     0.023 C 
BRANCH   2   3
ATOM      3  C   UNL A   1      32.787  30.285  26.024  1.00  0.00     0.116 C 
BRANCH   3   4
ATOM      4  N   UNL A   1      32.934  29.811  24.658  1.00  0.00    -0.356 N 
ATOM      5  C   UNL A   1      33.081  28.551  24.165  1.00  0.00     0.223 C 
ATOM      6  O   UNL A   1      33.194  28.410  22.945  1.00  0.00    -0.275 OA
ATOM      7  H   UNL A   1      32.927  30.520  23.975  1.00  0.00     0.163 HD
BRANCH   5   8
ATOM      8  C   UNL A   1      33.094  27.334  25.078  1.00  0.00     0.082 C 
ATOM      9  C   UNL A   1      31.895  23.418  24.944  1.00  0.00     0.265 C 
ATOM     10  O   UNL A   1      30.791  23.502  24.400  1.00  0.00    -0.268 OA
ATOM     11  N   UNL A   1      32.481  24.564  25.479  1.00  0.00    -0.338 N 
ATOM     12  C   UNL A   1      31.639  25.547  26.138  1.00  0.00     0.120 C 
ATOM     13  C   UNL A   1      33.880  24.924  25.300  1.00  0.00     0.120 C 
ATOM     14  C   UNL A   1      31.671  26.891  25.440  1.00  0.00     0.035 C 
ATOM     15  C   UNL A   1      34.012  26.231  24.527  1.00  0.00     0.035 C 
BRANCH   9  16
ATOM     16  C   UNL A   1      32.559  22.145  25.182  1.00  0.00     0.115 A 
ATOM     17  C   UNL A   1      33.182  19.797  25.037  1.00  0.00     0.159 A 
ATOM     18  N   UNL A   1      33.476  20.263  26.228  1.00  0.00    -0.237 NA
ATOM     19  S   UNL A   1      32.567  20.949  23.932  1.00  0.00    -0.105 S 
ATOM     20  C   UNL A   1      33.109  21.595  26.334  1.00  0.00     0.062 A 
ATOM     21  C   UNL A   1      33.278  22.204  27.679  1.00  0.00     0.068 C 
BRANCH  17  22
ATOM     22  C   UNL A   1      33.310  18.400  24.734  1.00  0.00     0.162 A 
ATOM     23  C   UNL A   1      32.516  15.053  25.751  1.00  0.00     0.087 C 
ATOM     24  C   UNL A   1      33.049  16.217  25.016  1.00  0.00     0.101 A 
ATOM     25  C   UNL A   1      33.788  16.369  23.867  1.00  0.00     0.046 A 
ATOM     26  O   UNL A   1      32.770  17.434  25.551  1.00  0.00    -0.459 OA
ATOM     27  C   UNL A   1      33.943  17.766  23.677  1.00  0.00     0.054 A 
ENDBRANCH  17  22
ENDBRANCH   9  16
ENDBRANCH   5   8
ENDBRANCH   3   4
ENDBRANCH   2   3
ENDBRANCH   1   2
BRANCH   1  28
ATOM     28  C   UNL A   1      32.729  32.887  27.195  1.00  0.00     0.116 C 
BRANCH  28  29
ATOM     29  N   UNL A   1      32.607  34.189  27.833  1.00  0.00    -0.352 N 
ATOM     30  C   UNL A   1      33.348  34.711  28.866  1.00  0.00     0.251 C 
ATOM     31  H   UNL A   1      31.900  34.774  27.478  1.00  0.00     0.163 HD
ATOM     32  O   UNL A   1      33.034  35.786  29.368  1.00  0.00    -0.269 OA
BRANCH  30  33
ATOM     33  C   UNL A   1      34.499  33.945  29.389  1.00  0.00     0.039 A 
ATOM     34  C   UNL A   1      35.783  34.272  28.948  1.00  0.00     0.014 A 
ATOM     35  C   UNL A   1      34.313  32.944  30.346  1.00  0.00     0.014 A 
ATOM     36  C   UNL A   1      36.890  33.644  29.523  1.00  0.00     0.010 A 
ATOM     37  C   UNL A   1      35.419  32.373  30.968  1.00  0.00     0.010 A 
ATOM     38  C   UNL A   1      36.719  32.719  30.566  1.00  0.00    -0.014 A 
BRANCH  38  39
ATOM     39  C   UNL A   1      37.885  32.102  31.252  1.00  0.00     0.031 A 
ATOM     40  C   UNL A   1      38.637  30.981  30.589  1.00  0.00     0.074 A 
ATOM     41  C   UNL A   1      38.216  32.502  32.497  1.00  0.00     0.049 A 
ATOM     42  N   UNL A   1      39.622  30.257  31.055  1.00  0.00    -0.248 NA
ATOM     43  C   UNL A   1      38.205  30.604  29.234  1.00  0.00     0.031 C 
ATOM     44  C   UNL A   1      37.532  33.551  33.259  1.00  0.00     0.029 A 
ATOM     45  N   UNL A   1      39.201  32.068  33.349  1.00  0.00    -0.354 N 
ATOM     46  C   UNL A   1      39.908  29.323  30.064  1.00  0.00     0.074 A 
ATOM     47  C   UNL A   1      38.964  29.546  28.991  1.00  0.00     0.031 C 
ATOM     48  C   UNL A   1      38.132  33.692  34.452  1.00  0.00     0.029 A 
ATOM     49  C   UNL A   1      39.210  32.716  34.564  1.00  0.00     0.049 A 
ATOM     50  H   UNL A   1      39.841  31.359  33.113  1.00  0.00     0.167 HD
ATOM     51  C   UNL A   1      40.880  28.379  30.048  1.00  0.00     0.034 A 
ATOM     52  C   UNL A   1      39.991  32.534  35.648  1.00  0.00     0.034 A 
ATOM     53  C   UNL A   1      41.838  28.195  31.111  1.00  0.00     0.049 A 
ATOM     54  C   UNL A   1      41.065  31.472  35.600  1.00  0.00     0.074 A 
ATOM     55  C   UNL A   1      42.919  27.332  31.153  1.00  0.00     0.029 A 
ATOM     56  N   UNL A   1      41.827  28.879  32.318  1.00  0.00    -0.354 N 
ATOM     57  N   UNL A   1      41.370  30.650  34.622  1.00  0.00    -0.248 NA
ATOM     58  C   UNL A   1      41.905  31.324  36.795  1.00  0.00     0.031 C 
ATOM     59  C   UNL A   1      43.520  27.445  32.411  1.00  0.00     0.029 A 
ATOM     60  C   UNL A   1      42.861  28.432  33.127  1.00  0.00     0.049 A 
ATOM     61  H   UNL A   1      41.180  29.580  32.565  1.00  0.00     0.167 HD
ATOM     62  C   UNL A   1      42.465  29.917  35.074  1.00  0.00     0.074 A 
ATOM     63  C   UNL A   1      42.773  30.403  36.402  1.00  0.00     0.031 C 
ATOM     64  C   UNL A   1      43.157  28.931  34.447  1.00  0.00     0.034 A 
BRANCH  51  65
ATOM     65  C   UNL A   1      40.943  27.453  28.858  1.00  0.00     0.023 A 
ATOM     66  C   UNL A   1      41.898  27.615  27.840  1.00  0.00     0.031 A 
ATOM     67  C   UNL A   1      40.034  26.386  28.747  1.00  0.00     0.131 A 
ATOM     68  C   UNL A   1      41.887  26.756  26.730  1.00  0.00     0.055 A 
ATOM     69  C   UNL A   1      40.076  25.491  27.676  1.00  0.00     0.041 A 
ATOM     70  F   UNL A   1      39.087  26.195  29.680  1.00  0.00    -0.206 F 
ATOM     71  C   UNL A   1      41.000  25.681  26.653  1.00  0.00     0.022 A 
BRANCH  68  72
ATOM     72  S   UNL A   1      42.980  27.132  25.332  1.00  0.00     0.124 S 
ATOM     73  O   UNL A   1      44.203  27.545  26.017  1.00  0.00    -0.237 OA
ATOM     74  O   UNL A   1      43.042  25.857  24.626  1.00  0.00    -0.237 OA
ATOM     75  O   UNL A   1      42.279  28.202  24.626  1.00  0.00    -0.744 OA
ENDBRANCH  68  72
ENDBRANCH  51  65
BRANCH  52  76
ATOM     76  C   UNL A   1      39.797  33.351  36.882  1.00  0.00     0.023 A 
ATOM     77  C   UNL A   1      39.062  32.850  37.968  1.00  0.00     0.031 A 
ATOM     78  C   UNL A   1      40.269  34.672  36.962  1.00  0.00     0.131 A 
ATOM     79  C   UNL A   1      38.761  33.684  39.056  1.00  0.00     0.055 A 
ATOM     80  C   UNL A   1      40.020  35.480  38.075  1.00  0.00     0.041 A 
ATOM     81  F   UNL A   1      40.980  35.203  35.954  1.00  0.00    -0.206 F 
ATOM     82  C   UNL A   1      39.245  34.992  39.122  1.00  0.00     0.022 A 
BRANCH  79  83
ATOM     83  S   UNL A   1      37.618  33.073  40.327  1.00  0.00     0.124 S 
ATOM     84  O   UNL A   1      37.411  34.267  41.138  1.00  0.00    -0.237 OA
ATOM     85  O   UNL A   1      36.482  32.637  39.523  1.00  0.00    -0.237 OA
ATOM     86  O   UNL A   1      38.372  32.001  40.973  1.00  0.00    -0.744 OA
ENDBRANCH  79  83
ENDBRANCH  52  76
BRANCH  64  87
ATOM     87  C   UNL A   1      44.351  28.364  35.173  1.00  0.00     0.023 A 
ATOM     88  C   UNL A   1      44.273  27.167  35.905  1.00  0.00     0.031 A 
ATOM     89  C   UNL A   1      45.582  29.042  35.140  1.00  0.00     0.131 A 
ATOM     90  C   UNL A   1      45.391  26.713  36.621  1.00  0.00     0.055 A 
ATOM     91  C   UNL A   1      46.707  28.553  35.804  1.00  0.00     0.041 A 
ATOM     92  F   UNL A   1      45.712  30.190  34.457  1.00  0.00    -0.206 F 
ATOM     93  C   UNL A   1      46.612  27.389  36.561  1.00  0.00     0.022 A 
BRANCH  90  94
ATOM     94  S   UNL A   1      45.204  25.271  37.705  1.00  0.00     0.124 S 
ATOM     95  O   UNL A   1      45.469  24.166  36.789  1.00  0.00    -0.237 OA
ATOM     96  O   UNL A   1      46.220  25.510  38.724  1.00  0.00    -0.237 OA
ATOM     97  O   UNL A   1      43.823  25.370  38.173  1.00  0.00    -0.744 OA
ENDBRANCH  90  94
ENDBRANCH  64  87
ENDBRANCH  38  39
ENDBRANCH  30  33
ENDBRANCH  28  29
ENDBRANCH   1  28
TORSDOF 16
ENDMDL
MODEL 2
REMARK VINA RESULT:     -12.9      1.806      2.651
REMARK SMILES Cc1ccc(-c2nc(C)c(C(=O)N3CCC(C(=O)NCCCCNC(=O)c4ccc(-c5c6nc(c(-c7cc(S(=O)(=O)[O-])ccc7F)c7ccc([nH]7)c(-c7cc(S(=O)(=O)[O-])ccc7F)c7nc(c(-c8cc(S(=O)(=O)[O-])ccc8F)c8ccc5[nH]8)C=C7)C=C6)cc4)CC3)s2)o1
REMARK SMILES IDX 22 1 21 2 20 3 19 4 17 5 18 6 16 8 11 9 12 10 13 11 14 12
REMARK SMILES IDX 91 13 15 14 90 15 10 16 6 17 7 18 92 19 8 20 9 21 5 22 1 23
REMARK SMILES IDX 2 24 3 25 93 26 4 27 23 28 24 29 25 30 26 32 27 33 28 34
REMARK SMILES IDX 89 35 29 36 88 37 30 38 31 39 32 40 82 41 33 42 87 43 81 44
REMARK SMILES IDX 83 45 34 46 86 47 80 48 79 49 35 51 67 52 47 53 66 54 48 55
REMARK SMILES IDX 51 56 65 57 84 58 49 59 50 60 64 62 85 63 52 64 36 65 37 66
REMARK SMILES IDX 45 67 38 68 44 69 46 70 43 71 39 72 40 73 41 74 42 75 68 76
REMARK SMILES IDX 69 77 77 78 70 79 76 80 78 81 75 82 71 83 72 84 73 85 74 86
REMARK SMILES IDX 53 87 54 88 62 89 55 90 61 91 63 92 60 93 56 94 57 95 58 96
REMARK SMILES IDX 59 97
REMARK H PARENT 19 7 24 31 83 50 51 61
REMARK Flexibility Score: inf
ROOT
ATOM      1  C   UNL A   1      31.787  31.873  26.720  1.00  0.00     0.023 C 
ENDROOT
BRANCH   1   2
ATOM      2  C   UNL A   1      32.122  30.419  26.388  1.00  0.00     0.023 C 
BRANCH   2   3
ATOM      3  C   UNL A   1      31.193  29.771  25.366  1.00  0.00     0.116 C 
BRANCH   3   4
ATOM      4  N   UNL A   1      31.820  29.640  24.061  1.00  0.00    -0.356 N 
ATOM      5  C   UNL A   1      32.451  28.585  23.479  1.00  0.00     0.223 C 
ATOM      6  O   UNL A   1      32.911  28.732  22.344  1.00  0.00    -0.275 OA
ATOM      7  H   UNL A   1      31.782  30.453  23.505  1.00  0.00     0.163 HD
BRANCH   5   8
ATOM      8  C   UNL A   1      32.583  27.245  24.188  1.00  0.00     0.082 C 
ATOM      9  C   UNL A   1      34.599  23.716  23.672  1.00  0.00     0.265 C 
ATOM     10  O   UNL A   1      34.475  23.520  22.460  1.00  0.00    -0.268 OA
ATOM     11  N   UNL A   1      33.767  24.639  24.303  1.00  0.00    -0.338 N 
ATOM     12  C   UNL A   1      32.377  24.735  23.890  1.00  0.00     0.120 C 
ATOM     13  C   UNL A   1      34.228  25.628  25.265  1.00  0.00     0.120 C 
ATOM     14  C   UNL A   1      32.039  26.099  23.326  1.00  0.00     0.035 C 
ATOM     15  C   UNL A   1      34.004  27.042  24.741  1.00  0.00     0.035 C 
BRANCH   9  16
ATOM     16  C   UNL A   1      35.486  22.921  24.509  1.00  0.00     0.115 A 
ATOM     17  C   UNL A   1      37.483  22.060  25.601  1.00  0.00     0.159 A 
ATOM     18  N   UNL A   1      36.569  21.120  25.538  1.00  0.00    -0.237 NA
ATOM     19  S   UNL A   1      36.996  23.593  25.018  1.00  0.00    -0.105 S 
ATOM     20  C   UNL A   1      35.432  21.588  24.902  1.00  0.00     0.062 A 
ATOM     21  C   UNL A   1      34.369  20.579  24.659  1.00  0.00     0.068 C 
BRANCH  17  22
ATOM     22  C   UNL A   1      38.812  21.776  26.063  1.00  0.00     0.162 A 
ATOM     23  C   UNL A   1      41.497  19.397  26.112  1.00  0.00     0.087 C 
ATOM     24  C   UNL A   1      40.668  20.597  26.342  1.00  0.00     0.101 A 
ATOM     25  C   UNL A   1      40.859  21.779  27.019  1.00  0.00     0.046 A 
ATOM     26  O   UNL A   1      39.432  20.582  25.777  1.00  0.00    -0.459 OA
ATOM     27  C   UNL A   1      39.677  22.540  26.829  1.00  0.00     0.054 A 
ENDBRANCH  17  22
ENDBRANCH   9  16
ENDBRANCH   5   8
ENDBRANCH   3   4
ENDBRANCH   2   3
ENDBRANCH   1   2
BRANCH   1  28
ATOM     28  C   UNL A   1      32.889  32.642  27.437  1.00  0.00     0.116 C 
BRANCH  28  29
ATOM     29  N   UNL A   1      32.532  34.023  27.720  1.00  0.00    -0.352 N 
ATOM     30  C   UNL A   1      33.080  34.879  28.645  1.00  0.00     0.251 C 
ATOM     31  H   UNL A   1      31.799  34.395  27.177  1.00  0.00     0.163 HD
ATOM     32  O   UNL A   1      32.576  35.983  28.837  1.00  0.00    -0.269 OA
BRANCH  30  33
ATOM     33  C   UNL A   1      34.253  34.442  29.429  1.00  0.00     0.039 A 
ATOM     34  C   UNL A   1      34.048  33.840  30.672  1.00  0.00     0.014 A 
ATOM     35  C   UNL A   1      35.545  34.581  28.915  1.00  0.00     0.014 A 
ATOM     36  C   UNL A   1      35.135  33.311  31.370  1.00  0.00     0.010 A 
ATOM     37  C   UNL A   1      36.616  33.988  29.577  1.00  0.00     0.010 A 
ATOM     38  C   UNL A   1      36.423  33.344  30.809  1.00  0.00    -0.014 A 
BRANCH  38  39
ATOM     39  C   UNL A   1      37.581  32.710  31.493  1.00  0.00     0.031 A 
ATOM     40  C   UNL A   1      38.310  31.572  30.833  1.00  0.00     0.074 A 
ATOM     41  C   UNL A   1      37.923  33.110  32.735  1.00  0.00     0.049 A 
ATOM     42  N   UNL A   1      39.283  30.832  31.299  1.00  0.00    -0.248 NA
ATOM     43  C   UNL A   1      37.866  31.196  29.482  1.00  0.00     0.031 C 
ATOM     44  C   UNL A   1      37.261  34.175  33.494  1.00  0.00     0.029 A 
ATOM     45  N   UNL A   1      38.904  32.662  33.585  1.00  0.00    -0.354 N 
ATOM     46  C   UNL A   1      39.549  29.888  30.312  1.00  0.00     0.074 A 
ATOM     47  C   UNL A   1      38.605  30.123  29.242  1.00  0.00     0.031 C 
ATOM     48  C   UNL A   1      37.868  34.311  34.684  1.00  0.00     0.029 A 
ATOM     49  C   UNL A   1      38.929  33.317  34.797  1.00  0.00     0.049 A 
ATOM     50  H   UNL A   1      39.530  31.941  33.351  1.00  0.00     0.167 HD
ATOM     51  C   UNL A   1      40.503  28.927  30.297  1.00  0.00     0.034 A 
ATOM     52  C   UNL A   1      39.711  33.126  35.879  1.00  0.00     0.034 A 
ATOM     53  C   UNL A   1      41.462  28.732  31.357  1.00  0.00     0.049 A 
ATOM     54  C   UNL A   1      40.765  32.045  35.832  1.00  0.00     0.074 A 
ATOM     55  C   UNL A   1      42.528  27.849  31.400  1.00  0.00     0.029 A 
ATOM     56  N   UNL A   1      41.468  29.422  32.561  1.00  0.00    -0.354 N 
ATOM     57  N   UNL A   1      41.052  31.212  34.858  1.00  0.00    -0.248 NA
ATOM     58  C   UNL A   1      41.607  31.887  37.025  1.00  0.00     0.031 C 
ATOM     59  C   UNL A   1      43.136  27.958  32.655  1.00  0.00     0.029 A 
ATOM     60  C   UNL A   1      42.497  28.960  33.368  1.00  0.00     0.049 A 
ATOM     61  H   UNL A   1      40.835  30.135  32.807  1.00  0.00     0.167 HD
ATOM     62  C   UNL A   1      42.135  30.462  35.309  1.00  0.00     0.074 A 
ATOM     63  C   UNL A   1      42.457  30.949  36.633  1.00  0.00     0.031 C 
ATOM     64  C   UNL A   1      42.807  29.461  34.685  1.00  0.00     0.034 A 
BRANCH  51  65
ATOM     65  C   UNL A   1      40.545  27.994  29.112  1.00  0.00     0.023 A 
ATOM     66  C   UNL A   1      41.474  28.157  28.070  1.00  0.00     0.031 A 
ATOM     67  C   UNL A   1      39.642  26.919  29.030  1.00  0.00     0.131 A 
ATOM     68  C   UNL A   1      41.443  27.291  26.966  1.00  0.00     0.055 A 
ATOM     69  C   UNL A   1      39.666  26.018  27.963  1.00  0.00     0.041 A 
ATOM     70  F   UNL A   1      38.720  26.727  29.986  1.00  0.00    -0.206 F 
ATOM     71  C   UNL A   1      40.563  26.208  26.917  1.00  0.00     0.022 A 
BRANCH  68  72
ATOM     72  S   UNL A   1      42.500  27.667  25.540  1.00  0.00     0.124 S 
ATOM     73  O   UNL A   1      41.866  28.873  25.014  1.00  0.00    -0.237 OA
ATOM     74  O   UNL A   1      43.810  27.848  26.155  1.00  0.00    -0.237 OA
ATOM     75  O   UNL A   1      42.367  26.483  24.694  1.00  0.00    -0.744 OA
ENDBRANCH  68  72
ENDBRANCH  51  65
BRANCH  52  76
ATOM     76  C   UNL A   1      39.536  33.953  37.110  1.00  0.00     0.023 A 
ATOM     77  C   UNL A   1      38.903  33.426  38.246  1.00  0.00     0.031 A 
ATOM     78  C   UNL A   1      39.922  35.304  37.139  1.00  0.00     0.131 A 
ATOM     79  C   UNL A   1      38.613  34.259  39.338  1.00  0.00     0.055 A 
ATOM     80  C   UNL A   1      39.686  36.115  38.252  1.00  0.00     0.041 A 
ATOM     81  F   UNL A   1      40.534  35.861  36.081  1.00  0.00    -0.206 F 
ATOM     82  C   UNL A   1      39.010  35.598  39.353  1.00  0.00     0.022 A 
BRANCH  79  83
ATOM     83  S   UNL A   1      37.592  33.599  40.685  1.00  0.00     0.124 S 
ATOM     84  O   UNL A   1      37.178  34.819  41.368  1.00  0.00    -0.237 OA
ATOM     85  O   UNL A   1      36.551  32.888  39.952  1.00  0.00    -0.237 OA
ATOM     86  O   UNL A   1      38.520  32.751  41.429  1.00  0.00    -0.744 OA
ENDBRANCH  79  83
ENDBRANCH  52  76
BRANCH  64  87
ATOM     87  C   UNL A   1      43.993  28.876  35.409  1.00  0.00     0.023 A 
ATOM     88  C   UNL A   1      43.862  27.786  36.288  1.00  0.00     0.031 A 
ATOM     89  C   UNL A   1      45.273  29.428  35.224  1.00  0.00     0.131 A 
ATOM     90  C   UNL A   1      44.982  27.319  36.992  1.00  0.00     0.055 A 
ATOM     91  C   UNL A   1      46.394  28.920  35.882  1.00  0.00     0.041 A 
ATOM     92  F   UNL A   1      45.455  30.470  34.398  1.00  0.00    -0.206 F 
ATOM     93  C   UNL A   1      46.249  27.868  36.782  1.00  0.00     0.022 A 
BRANCH  90  94
ATOM     94  S   UNL A   1      44.744  26.040  38.256  1.00  0.00     0.124 S 
ATOM     95  O   UNL A   1      43.707  25.208  37.654  1.00  0.00    -0.237 OA
ATOM     96  O   UNL A   1      46.070  25.438  38.345  1.00  0.00    -0.237 OA
ATOM     97  O   UNL A   1      44.327  26.796  39.435  1.00  0.00    -0.744 OA
ENDBRANCH  90  94
ENDBRANCH  64  87
ENDBRANCH  38  39
ENDBRANCH  30  33
ENDBRANCH  28  29
ENDBRANCH   1  28
TORSDOF 16
ENDMDL
MODEL 3
REMARK VINA RESULT:     -12.9      1.614      1.984
REMARK SMILES Cc1ccc(-c2nc(C)c(C(=O)N3CCC(C(=O)NCCCCNC(=O)c4ccc(-c5c6nc(c(-c7cc(S(=O)(=O)[O-])ccc7F)c7ccc([nH]7)c(-c7cc(S(=O)(=O)[O-])ccc7F)c7nc(c(-c8cc(S(=O)(=O)[O-])ccc8F)c8ccc5[nH]8)C=C7)C=C6)cc4)CC3)s2)o1
REMARK SMILES IDX 22 1 21 2 20 3 19 4 17 5 18 6 16 8 11 9 12 10 13 11 14 12
REMARK SMILES IDX 91 13 15 14 90 15 10 16 6 17 7 18 92 19 8 20 9 21 5 22 1 23
REMARK SMILES IDX 2 24 3 25 93 26 4 27 23 28 24 29 25 30 26 32 27 33 28 34
REMARK SMILES IDX 89 35 29 36 88 37 30 38 31 39 32 40 82 41 33 42 87 43 81 44
REMARK SMILES IDX 83 45 34 46 86 47 80 48 79 49 35 51 67 52 47 53 66 54 48 55
REMARK SMILES IDX 51 56 65 57 84 58 49 59 50 60 64 62 85 63 52 64 36 65 37 66
REMARK SMILES IDX 45 67 38 68 44 69 46 70 43 71 39 72 40 73 41 74 42 75 68 76
REMARK SMILES IDX 69 77 77 78 70 79 76 80 78 81 75 82 71 83 72 84 73 85 74 86
REMARK SMILES IDX 53 87 54 88 62 89 55 90 61 91 63 92 60 93 56 94 57 95 58 96
REMARK SMILES IDX 59 97
REMARK H PARENT 19 7 24 31 83 50 51 61
REMARK Flexibility Score: inf
ROOT
ATOM      1  C   UNL A   1      31.901  31.809  26.645  1.00  0.00     0.023 C 
ENDROOT
BRANCH   1   2
ATOM      2  C   UNL A   1      32.129  30.305  26.506  1.00  0.00     0.023 C 
BRANCH   2   3
ATOM      3  C   UNL A   1      32.224  29.807  25.067  1.00  0.00     0.116 C 
BRANCH   3   4
ATOM      4  N   UNL A   1      31.063  29.021  24.682  1.00  0.00    -0.356 N 
ATOM      5  C   UNL A   1      30.942  27.698  24.387  1.00  0.00     0.223 C 
ATOM      6  O   UNL A   1      29.828  27.267  24.080  1.00  0.00    -0.275 OA
ATOM      7  H   UNL A   1      30.223  29.532  24.627  1.00  0.00     0.163 HD
BRANCH   5   8
ATOM      8  C   UNL A   1      32.136  26.757  24.442  1.00  0.00     0.082 C 
ATOM      9  C   UNL A   1      33.024  23.057  25.963  1.00  0.00     0.265 C 
ATOM     10  O   UNL A   1      32.490  23.097  27.073  1.00  0.00    -0.268 OA
ATOM     11  N   UNL A   1      33.240  24.245  25.266  1.00  0.00    -0.338 N 
ATOM     12  C   UNL A   1      33.636  25.433  26.002  1.00  0.00     0.120 C 
ATOM     13  C   UNL A   1      32.958  24.422  23.849  1.00  0.00     0.120 C 
ATOM     14  C   UNL A   1      32.617  26.547  25.884  1.00  0.00     0.035 C 
ATOM     15  C   UNL A   1      31.874  25.473  23.638  1.00  0.00     0.035 C 
BRANCH   9  16
ATOM     16  C   UNL A   1      33.571  21.832  25.398  1.00  0.00     0.115 A 
ATOM     17  C   UNL A   1      33.847  19.502  24.752  1.00  0.00     0.159 A 
ATOM     18  N   UNL A   1      35.021  20.084  24.834  1.00  0.00    -0.237 NA
ATOM     19  S   UNL A   1      32.503  20.529  25.008  1.00  0.00    -0.105 S 
ATOM     20  C   UNL A   1      34.883  21.407  25.220  1.00  0.00     0.062 A 
ATOM     21  C   UNL A   1      36.151  22.140  25.468  1.00  0.00     0.068 C 
BRANCH  17  22
ATOM     22  C   UNL A   1      33.731  18.088  24.535  1.00  0.00     0.162 A 
ATOM     23  C   UNL A   1      32.379  14.994  25.747  1.00  0.00     0.087 C 
ATOM     24  C   UNL A   1      33.101  16.004  24.946  1.00  0.00     0.101 A 
ATOM     25  C   UNL A   1      33.852  15.956  23.795  1.00  0.00     0.046 A 
ATOM     26  O   UNL A   1      33.037  17.281  25.405  1.00  0.00    -0.459 OA
ATOM     27  C   UNL A   1      34.244  17.292  23.523  1.00  0.00     0.054 A 
ENDBRANCH  17  22
ENDBRANCH   9  16
ENDBRANCH   5   8
ENDBRANCH   3   4
ENDBRANCH   2   3
ENDBRANCH   1   2
BRANCH   1  28
ATOM     28  C   UNL A   1      33.004  32.566  27.373  1.00  0.00     0.116 C 
BRANCH  28  29
ATOM     29  N   UNL A   1      32.655  33.946  27.667  1.00  0.00    -0.352 N 
ATOM     30  C   UNL A   1      33.182  34.781  28.622  1.00  0.00     0.251 C 
ATOM     31  H   UNL A   1      31.945  34.335  27.106  1.00  0.00     0.163 HD
ATOM     32  O   UNL A   1      32.686  35.887  28.816  1.00  0.00    -0.269 OA
BRANCH  30  33
ATOM     33  C   UNL A   1      34.324  34.317  29.437  1.00  0.00     0.039 A 
ATOM     34  C   UNL A   1      34.077  33.502  30.543  1.00  0.00     0.014 A 
ATOM     35  C   UNL A   1      35.635  34.645  29.079  1.00  0.00     0.014 A 
ATOM     36  C   UNL A   1      35.150  32.955  31.250  1.00  0.00     0.010 A 
ATOM     37  C   UNL A   1      36.700  34.041  29.739  1.00  0.00     0.010 A 
ATOM     38  C   UNL A   1      36.470  33.186  30.829  1.00  0.00    -0.014 A 
BRANCH  38  39
ATOM     39  C   UNL A   1      37.623  32.545  31.512  1.00  0.00     0.031 A 
ATOM     40  C   UNL A   1      38.359  31.417  30.843  1.00  0.00     0.074 A 
ATOM     41  C   UNL A   1      37.957  32.929  32.762  1.00  0.00     0.049 A 
ATOM     42  N   UNL A   1      39.329  30.672  31.305  1.00  0.00    -0.248 NA
ATOM     43  C   UNL A   1      37.925  31.058  29.483  1.00  0.00     0.031 C 
ATOM     44  C   UNL A   1      37.289  33.983  33.530  1.00  0.00     0.029 A 
ATOM     45  N   UNL A   1      38.932  32.471  33.613  1.00  0.00    -0.354 N 
ATOM     46  C   UNL A   1      39.603  29.741  30.308  1.00  0.00     0.074 A 
ATOM     47  C   UNL A   1      38.666  29.989  29.234  1.00  0.00     0.031 C 
ATOM     48  C   UNL A   1      37.887  34.104  34.727  1.00  0.00     0.029 A 
ATOM     49  C   UNL A   1      38.948  33.109  34.833  1.00  0.00     0.049 A 
ATOM     50  H   UNL A   1      39.561  31.753  33.373  1.00  0.00     0.167 HD
ATOM     51  C   UNL A   1      40.559  28.781  30.287  1.00  0.00     0.034 A 
ATOM     52  C   UNL A   1      39.723  32.905  35.919  1.00  0.00     0.034 A 
ATOM     53  C   UNL A   1      41.510  28.573  31.351  1.00  0.00     0.049 A 
ATOM     54  C   UNL A   1      40.778  31.826  35.864  1.00  0.00     0.074 A 
ATOM     55  C   UNL A   1      42.577  27.691  31.390  1.00  0.00     0.029 A 
ATOM     56  N   UNL A   1      41.507  29.247  32.564  1.00  0.00    -0.354 N 
ATOM     57  N   UNL A   1      41.073  31.006  34.881  1.00  0.00    -0.248 NA
ATOM     58  C   UNL A   1      41.612  31.653  37.061  1.00  0.00     0.031 C 
ATOM     59  C   UNL A   1      43.175  27.784  32.650  1.00  0.00     0.029 A 
ATOM     60  C   UNL A   1      42.531  28.776  33.372  1.00  0.00     0.049 A 
ATOM     61  H   UNL A   1      40.871  29.956  32.815  1.00  0.00     0.167 HD
ATOM     62  C   UNL A   1      42.154  30.251  35.330  1.00  0.00     0.074 A 
ATOM     63  C   UNL A   1      42.466  30.722  36.663  1.00  0.00     0.031 C 
ATOM     64  C   UNL A   1      42.831  29.259  34.697  1.00  0.00     0.034 A 
BRANCH  51  65
ATOM     65  C   UNL A   1      40.609  27.864  29.090  1.00  0.00     0.023 A 
ATOM     66  C   UNL A   1      41.541  28.045  28.053  1.00  0.00     0.031 A 
ATOM     67  C   UNL A   1      39.713  26.785  28.991  1.00  0.00     0.131 A 
ATOM     68  C   UNL A   1      41.519  27.194  26.938  1.00  0.00     0.055 A 
ATOM     69  C   UNL A   1      39.745  25.898  27.912  1.00  0.00     0.041 A 
ATOM     70  F   UNL A   1      38.788  26.576  29.941  1.00  0.00    -0.206 F 
ATOM     71  C   UNL A   1      40.645  26.107  26.872  1.00  0.00     0.022 A 
BRANCH  68  72
ATOM     72  S   UNL A   1      42.578  27.594  25.521  1.00  0.00     0.124 S 
ATOM     73  O   UNL A   1      42.430  26.397  24.696  1.00  0.00    -0.237 OA
ATOM     74  O   UNL A   1      41.965  28.810  24.999  1.00  0.00    -0.237 OA
ATOM     75  O   UNL A   1      43.899  27.770  26.120  1.00  0.00    -0.744 OA
ENDBRANCH  68  72
ENDBRANCH  51  65
BRANCH  52  76
ATOM     76  C   UNL A   1      39.539  33.716  37.158  1.00  0.00     0.023 A 
ATOM     77  C   UNL A   1      40.325  34.854  37.397  1.00  0.00     0.031 A 
ATOM     78  C   UNL A   1      38.635  33.320  38.159  1.00  0.00     0.131 A 
ATOM     79  C   UNL A   1      40.245  35.516  38.632  1.00  0.00     0.055 A 
ATOM     80  C   UNL A   1      38.513  34.019  39.363  1.00  0.00     0.041 A 
ATOM     81  F   UNL A   1      37.855  32.241  37.984  1.00  0.00    -0.206 F 
ATOM     82  C   UNL A   1      39.335  35.113  39.612  1.00  0.00     0.022 A 
BRANCH  79  83
ATOM     83  S   UNL A   1      41.439  36.836  38.986  1.00  0.00     0.124 S 
ATOM     84  O   UNL A   1      42.190  36.900  37.737  1.00  0.00    -0.237 OA
ATOM     85  O   UNL A   1      40.561  37.967  39.267  1.00  0.00    -0.237 OA
ATOM     86  O   UNL A   1      42.180  36.322  40.136  1.00  0.00    -0.744 OA
ENDBRANCH  79  83
ENDBRANCH  52  76
BRANCH  64  87
ATOM     87  C   UNL A   1      44.013  28.666  35.422  1.00  0.00     0.023 A 
ATOM     88  C   UNL A   1      43.875  27.573  36.294  1.00  0.00     0.031 A 
ATOM     89  C   UNL A   1      45.295  29.214  35.244  1.00  0.00     0.131 A 
ATOM     90  C   UNL A   1      44.991  27.098  37.000  1.00  0.00     0.055 A 
ATOM     91  C   UNL A   1      46.412  28.698  35.902  1.00  0.00     0.041 A 
ATOM     92  F   UNL A   1      45.484  30.260  34.423  1.00  0.00    -0.206 F 
ATOM     93  C   UNL A   1      46.261  27.643  36.796  1.00  0.00     0.022 A 
BRANCH  90  94
ATOM     94  S   UNL A   1      44.745  25.813  38.256  1.00  0.00     0.124 S 
ATOM     95  O   UNL A   1      44.101  26.559  39.332  1.00  0.00    -0.237 OA
ATOM     96  O   UNL A   1      43.901  24.849  37.557  1.00  0.00    -0.237 OA
ATOM     97  O   UNL A   1      46.101  25.352  38.546  1.00  0.00    -0.744 OA
ENDBRANCH  90  94
ENDBRANCH  64  87
ENDBRANCH  38  39
ENDBRANCH  30  33
ENDBRANCH  28  29
ENDBRANCH   1  28
TORSDOF 16
ENDMDL
