MODEL 1
REMARK VINA RESULT:     -11.6      0.000      0.000
REMARK SMILES C[C@@H](CC(=O)NCCCCNC(=O)c1ccc(-c2c3nc(c(-c4cc(S(=O)(=O)[O-])ccc4F)c4ccc([nH]4)c(-c4cc(S(=O)(=O)[O-])ccc4F)c4nc(c(-c5cc(S(=O)(=O)[O-])ccc5F)c5ccc2[nH]5)C=C4)C=C3)cc1)Cc1nnc(C2C(C)(C)C2(C)C)o1
REMARK SMILES IDX 8 1 7 2 6 3 4 4 5 5 3 7 2 8 1 9 77 10 78 11 79 12 89 13
REMARK SMILES IDX 80 14 81 15 82 16 83 17 86 18 84 19 85 20 87 21 88 22 9 23
REMARK SMILES IDX 10 24 11 25 12 26 13 28 14 29 15 30 76 31 16 32 75 33 17 34
REMARK SMILES IDX 18 35 19 36 69 37 20 38 74 39 68 40 70 41 21 42 73 43 67 44
REMARK SMILES IDX 66 45 22 47 54 48 34 49 53 50 35 51 38 52 52 53 71 54 36 55
REMARK SMILES IDX 37 56 51 58 72 59 39 60 23 61 24 62 32 63 25 64 31 65 33 66
REMARK SMILES IDX 30 67 26 68 27 69 28 70 29 71 55 72 56 73 64 74 57 75 63 76
REMARK SMILES IDX 65 77 62 78 58 79 59 80 60 81 61 82 40 83 41 84 49 85 42 86
REMARK SMILES IDX 48 87 50 88 47 89 43 90 44 91 45 92 46 93
REMARK H PARENT 6 6 11 27 70 46 38 57
REMARK Flexibility Score: inf
ROOT
ATOM      1  C   UNL A   1      33.193  29.556  24.643  1.00  0.00     0.023 C 
ENDROOT
BRANCH   1   2
ATOM      2  C   UNL A   1      33.207  28.731  23.355  1.00  0.00     0.116 C 
BRANCH   2   3
ATOM      3  N   UNL A   1      32.129  29.138  22.477  1.00  0.00    -0.356 N 
ATOM      4  C   UNL A   1      30.785  29.017  22.628  1.00  0.00     0.220 C 
ATOM      5  O   UNL A   1      30.058  29.333  21.683  1.00  0.00    -0.275 OA
ATOM      6  H   UNL A   1      32.416  29.570  21.640  1.00  0.00     0.163 HD
BRANCH   4   7
ATOM      7  C   UNL A   1      30.174  28.520  23.928  1.00  0.00     0.103 C 
BRANCH   7   8
ATOM      8  C   UNL A   1      30.191  26.997  24.194  1.00  0.00     0.004 C 
ATOM      9  C   UNL A   1      28.826  26.366  23.917  1.00  0.00     0.009 C 
BRANCH   8  10
ATOM     10  C   UNL A   1      30.803  26.637  25.565  1.00  0.00     0.103 C 
BRANCH  10  11
ATOM     11  C   UNL A   1      31.924  25.657  25.554  1.00  0.00     0.216 A 
ATOM     12  N   UNL A   1      33.109  25.789  26.109  1.00  0.00    -0.113 NA
ATOM     13  O   UNL A   1      31.739  24.418  24.996  1.00  0.00    -0.425 OA
ATOM     14  N   UNL A   1      33.733  24.572  25.982  1.00  0.00    -0.113 NA
ATOM     15  C   UNL A   1      32.893  23.769  25.357  1.00  0.00     0.220 A 
BRANCH  15  16
ATOM     16  C   UNL A   1      33.236  22.301  25.142  1.00  0.00     0.090 C 
ATOM     17  C   UNL A   1      33.033  21.576  23.807  1.00  0.00    -0.017 C 
ATOM     18  C   UNL A   1      34.444  21.835  24.332  1.00  0.00    -0.017 C 
ATOM     19  C   UNL A   1      32.426  20.187  23.897  1.00  0.00     0.012 C 
ATOM     20  C   UNL A   1      32.566  22.276  22.554  1.00  0.00     0.012 C 
ATOM     21  C   UNL A   1      35.350  22.828  23.635  1.00  0.00     0.012 C 
ATOM     22  C   UNL A   1      35.235  20.678  24.908  1.00  0.00     0.012 C 
ENDBRANCH  15  16
ENDBRANCH  10  11
ENDBRANCH   8  10
ENDBRANCH   7   8
ENDBRANCH   4   7
ENDBRANCH   2   3
ENDBRANCH   1   2
BRANCH   1  23
ATOM     23  C   UNL A   1      33.940  28.929  25.815  1.00  0.00     0.023 C 
BRANCH  23  24
ATOM     24  C   UNL A   1      33.368  29.256  27.185  1.00  0.00     0.116 C 
BRANCH  24  25
ATOM     25  N   UNL A   1      33.341  30.681  27.480  1.00  0.00    -0.352 N 
ATOM     26  C   UNL A   1      34.294  31.441  28.115  1.00  0.00     0.251 C 
ATOM     27  H   UNL A   1      32.534  31.163  27.187  1.00  0.00     0.163 HD
ATOM     28  O   UNL A   1      34.060  32.616  28.382  1.00  0.00    -0.269 OA
BRANCH  26  29
ATOM     29  C   UNL A   1      35.577  30.818  28.507  1.00  0.00     0.039 A 
ATOM     30  C   UNL A   1      36.767  31.330  27.986  1.00  0.00     0.014 A 
ATOM     31  C   UNL A   1      35.607  29.757  29.417  1.00  0.00     0.014 A 
ATOM     32  C   UNL A   1      37.988  30.810  28.419  1.00  0.00     0.010 A 
ATOM     33  C   UNL A   1      36.823  29.314  29.924  1.00  0.00     0.010 A 
ATOM     34  C   UNL A   1      38.027  29.817  29.412  1.00  0.00    -0.014 A 
BRANCH  34  35
ATOM     35  C   UNL A   1      39.316  29.250  29.882  1.00  0.00     0.031 A 
ATOM     36  C   UNL A   1      39.991  29.840  31.093  1.00  0.00     0.074 A 
ATOM     37  C   UNL A   1      39.896  28.242  29.201  1.00  0.00     0.049 A 
ATOM     38  N   UNL A   1      41.130  29.516  31.649  1.00  0.00    -0.248 NA
ATOM     39  C   UNL A   1      39.313  30.975  31.739  1.00  0.00     0.031 C 
ATOM     40  C   UNL A   1      39.369  27.636  27.975  1.00  0.00     0.029 A 
ATOM     41  N   UNL A   1      41.054  27.549  29.440  1.00  0.00    -0.354 N 
ATOM     42  C   UNL A   1      41.310  30.416  32.695  1.00  0.00     0.074 A 
ATOM     43  C   UNL A   1      40.207  31.350  32.639  1.00  0.00     0.031 C 
ATOM     44  C   UNL A   1      40.180  26.635  27.597  1.00  0.00     0.029 A 
ATOM     45  C   UNL A   1      41.299  26.549  28.528  1.00  0.00     0.049 A 
ATOM     46  H   UNL A   1      41.654  27.747  30.195  1.00  0.00     0.167 HD
ATOM     47  C   UNL A   1      42.283  30.440  33.639  1.00  0.00     0.034 A 
ATOM     48  C   UNL A   1      42.310  25.660  28.460  1.00  0.00     0.034 A 
ATOM     49  C   UNL A   1      43.359  29.482  33.694  1.00  0.00     0.049 A 
ATOM     50  C   UNL A   1      43.371  25.690  29.531  1.00  0.00     0.074 A 
ATOM     51  C   UNL A   1      44.370  29.370  34.631  1.00  0.00     0.029 A 
ATOM     52  N   UNL A   1      43.564  28.467  32.767  1.00  0.00    -0.354 N 
ATOM     53  N   UNL A   1      43.492  26.508  30.553  1.00  0.00    -0.248 NA
ATOM     54  C   UNL A   1      44.416  24.664  29.451  1.00  0.00     0.031 C 
ATOM     55  C   UNL A   1      45.216  28.326  34.240  1.00  0.00     0.029 A 
ATOM     56  C   UNL A   1      44.695  27.738  33.098  1.00  0.00     0.049 A 
ATOM     57  H   UNL A   1      42.988  28.291  31.988  1.00  0.00     0.167 HD
ATOM     58  C   UNL A   1      44.614  26.073  31.254  1.00  0.00     0.074 A 
ATOM     59  C   UNL A   1      45.113  24.908  30.551  1.00  0.00     0.031 C 
ATOM     60  C   UNL A   1      45.184  26.588  32.374  1.00  0.00     0.034 A 
BRANCH  47  61
ATOM     61  C   UNL A   1      42.222  31.546  34.668  1.00  0.00     0.023 A 
ATOM     62  C   UNL A   1      41.266  31.542  35.702  1.00  0.00     0.031 A 
ATOM     63  C   UNL A   1      43.094  32.646  34.589  1.00  0.00     0.131 A 
ATOM     64  C   UNL A   1      41.143  32.652  36.550  1.00  0.00     0.055 A 
ATOM     65  C   UNL A   1      43.027  33.706  35.495  1.00  0.00     0.041 A 
ATOM     66  F   UNL A   1      44.014  32.721  33.615  1.00  0.00    -0.206 F 
ATOM     67  C   UNL A   1      42.035  33.723  36.472  1.00  0.00     0.022 A 
BRANCH  64  68
ATOM     68  S   UNL A   1      39.701  32.746  37.647  1.00  0.00     0.124 S 
ATOM     69  O   UNL A   1      38.909  31.607  37.189  1.00  0.00    -0.237 OA
ATOM     70  O   UNL A   1      40.301  32.616  38.970  1.00  0.00    -0.237 OA
ATOM     71  O   UNL A   1      39.127  34.056  37.347  1.00  0.00    -0.744 OA
ENDBRANCH  64  68
ENDBRANCH  47  61
BRANCH  48  72
ATOM     72  C   UNL A   1      42.368  24.657  27.356  1.00  0.00     0.023 A 
ATOM     73  C   UNL A   1      41.583  23.493  27.396  1.00  0.00     0.031 A 
ATOM     74  C   UNL A   1      43.240  24.826  26.267  1.00  0.00     0.131 A 
ATOM     75  C   UNL A   1      41.724  22.519  26.396  1.00  0.00     0.055 A 
ATOM     76  C   UNL A   1      43.339  23.878  25.247  1.00  0.00     0.041 A 
ATOM     77  F   UNL A   1      44.007  25.925  26.176  1.00  0.00    -0.206 F 
ATOM     78  C   UNL A   1      42.588  22.709  25.316  1.00  0.00     0.022 A 
BRANCH  75  79
ATOM     79  S   UNL A   1      40.820  20.956  26.572  1.00  0.00     0.124 S 
ATOM     80  O   UNL A   1      39.516  21.300  26.016  1.00  0.00    -0.237 OA
ATOM     81  O   UNL A   1      41.636  20.044  25.776  1.00  0.00    -0.237 OA
ATOM     82  O   UNL A   1      40.841  20.711  28.013  1.00  0.00    -0.744 OA
ENDBRANCH  75  79
ENDBRANCH  48  72
BRANCH  60  83
ATOM     83  C   UNL A   1      46.390  25.861  32.917  1.00  0.00     0.023 A 
ATOM     84  C   UNL A   1      47.679  26.089  32.407  1.00  0.00     0.031 A 
ATOM     85  C   UNL A   1      46.241  24.900  33.933  1.00  0.00     0.131 A 
ATOM     86  C   UNL A   1      48.757  25.314  32.859  1.00  0.00     0.055 A 
ATOM     87  C   UNL A   1      47.329  24.180  34.428  1.00  0.00     0.041 A 
ATOM     88  F   UNL A   1      45.032  24.640  34.457  1.00  0.00    -0.206 F 
ATOM     89  C   UNL A   1      48.594  24.373  33.880  1.00  0.00     0.022 A 
BRANCH  86  90
ATOM     90  S   UNL A   1      50.353  25.468  32.010  1.00  0.00     0.124 S 
ATOM     91  O   UNL A   1      50.048  26.439  30.965  1.00  0.00    -0.237 OA
ATOM     92  O   UNL A   1      51.230  25.934  33.079  1.00  0.00    -0.237 OA
ATOM     93  O   UNL A   1      50.621  24.110  31.537  1.00  0.00    -0.744 OA
ENDBRANCH  86  90
ENDBRANCH  60  83
ENDBRANCH  34  35
ENDBRANCH  26  29
ENDBRANCH  24  25
ENDBRANCH  23  24
ENDBRANCH   1  23
TORSDOF 18
ENDMDL
MODEL 2
REMARK VINA RESULT:     -11.4      1.998      2.401
REMARK SMILES C[C@@H](CC(=O)NCCCCNC(=O)c1ccc(-c2c3nc(c(-c4cc(S(=O)(=O)[O-])ccc4F)c4ccc([nH]4)c(-c4cc(S(=O)(=O)[O-])ccc4F)c4nc(c(-c5cc(S(=O)(=O)[O-])ccc5F)c5ccc2[nH]5)C=C4)C=C3)cc1)Cc1nnc(C2C(C)(C)C2(C)C)o1
REMARK SMILES IDX 8 1 7 2 6 3 4 4 5 5 3 7 2 8 1 9 77 10 78 11 79 12 89 13
REMARK SMILES IDX 80 14 81 15 82 16 83 17 86 18 84 19 85 20 87 21 88 22 9 23
REMARK SMILES IDX 10 24 11 25 12 26 13 28 14 29 15 30 76 31 16 32 75 33 17 34
REMARK SMILES IDX 18 35 19 36 69 37 20 38 74 39 68 40 70 41 21 42 73 43 67 44
REMARK SMILES IDX 66 45 22 47 54 48 34 49 53 50 35 51 38 52 52 53 71 54 36 55
REMARK SMILES IDX 37 56 51 58 72 59 39 60 23 61 24 62 32 63 25 64 31 65 33 66
REMARK SMILES IDX 30 67 26 68 27 69 28 70 29 71 55 72 56 73 64 74 57 75 63 76
REMARK SMILES IDX 65 77 62 78 58 79 59 80 60 81 61 82 40 83 41 84 49 85 42 86
REMARK SMILES IDX 48 87 50 88 47 89 43 90 44 91 45 92 46 93
REMARK H PARENT 6 6 11 27 70 46 38 57
REMARK Flexibility Score: inf
ROOT
ATOM      1  C   UNL A   1      33.436  29.149  24.294  1.00  0.00     0.023 C 
ENDROOT
BRANCH   1   2
ATOM      2  C   UNL A   1      32.999  28.279  23.113  1.00  0.00     0.116 C 
BRANCH   2   3
ATOM      3  N   UNL A   1      31.998  28.962  22.320  1.00  0.00    -0.356 N 
ATOM      4  C   UNL A   1      30.661  29.088  22.518  1.00  0.00     0.220 C 
ATOM      5  O   UNL A   1      29.985  29.620  21.635  1.00  0.00    -0.275 OA
ATOM      6  H   UNL A   1      32.342  29.405  21.510  1.00  0.00     0.163 HD
BRANCH   4   7
ATOM      7  C   UNL A   1      29.999  28.602  23.797  1.00  0.00     0.103 C 
BRANCH   7   8
ATOM      8  C   UNL A   1      30.055  27.087  24.105  1.00  0.00     0.004 C 
ATOM      9  C   UNL A   1      28.691  26.426  23.901  1.00  0.00     0.009 C 
BRANCH   8  10
ATOM     10  C   UNL A   1      30.727  26.777  25.459  1.00  0.00     0.103 C 
BRANCH  10  11
ATOM     11  C   UNL A   1      31.356  25.433  25.595  1.00  0.00     0.216 A 
ATOM     12  N   UNL A   1      30.866  24.379  26.210  1.00  0.00    -0.113 NA
ATOM     13  O   UNL A   1      32.537  25.168  24.953  1.00  0.00    -0.425 OA
ATOM     14  N   UNL A   1      31.714  23.337  25.924  1.00  0.00    -0.113 NA
ATOM     15  C   UNL A   1      32.671  23.816  25.152  1.00  0.00     0.220 A 
BRANCH  15  16
ATOM     16  C   UNL A   1      33.731  22.894  24.566  1.00  0.00     0.090 C 
ATOM     17  C   UNL A   1      35.237  23.141  24.712  1.00  0.00    -0.017 C 
ATOM     18  C   UNL A   1      34.583  21.953  25.415  1.00  0.00    -0.017 C 
ATOM     19  C   UNL A   1      36.066  22.927  23.459  1.00  0.00     0.012 C 
ATOM     20  C   UNL A   1      35.807  24.269  25.537  1.00  0.00     0.012 C 
ATOM     21  C   UNL A   1      34.456  21.930  26.924  1.00  0.00     0.012 C 
ATOM     22  C   UNL A   1      34.806  20.560  24.860  1.00  0.00     0.012 C 
ENDBRANCH  15  16
ENDBRANCH  10  11
ENDBRANCH   8  10
ENDBRANCH   7   8
ENDBRANCH   4   7
ENDBRANCH   2   3
ENDBRANCH   1   2
BRANCH   1  23
ATOM     23  C   UNL A   1      34.152  28.399  25.413  1.00  0.00     0.023 C 
BRANCH  23  24
ATOM     24  C   UNL A   1      33.676  28.742  26.816  1.00  0.00     0.116 C 
BRANCH  24  25
ATOM     25  N   UNL A   1      33.490  30.168  27.037  1.00  0.00    -0.352 N 
ATOM     26  C   UNL A   1      34.298  31.037  27.730  1.00  0.00     0.251 C 
ATOM     27  H   UNL A   1      32.680  30.561  26.639  1.00  0.00     0.163 HD
ATOM     28  O   UNL A   1      33.933  32.195  27.914  1.00  0.00    -0.269 OA
BRANCH  26  29
ATOM     29  C   UNL A   1      35.581  30.553  28.284  1.00  0.00     0.039 A 
ATOM     30  C   UNL A   1      35.569  29.772  29.441  1.00  0.00     0.014 A 
ATOM     31  C   UNL A   1      36.789  30.838  27.640  1.00  0.00     0.014 A 
ATOM     32  C   UNL A   1      36.765  29.234  29.921  1.00  0.00     0.010 A 
ATOM     33  C   UNL A   1      37.960  30.216  28.059  1.00  0.00     0.010 A 
ATOM     34  C   UNL A   1      37.966  29.428  29.218  1.00  0.00    -0.014 A 
BRANCH  34  35
ATOM     35  C   UNL A   1      39.247  28.866  29.715  1.00  0.00     0.031 A 
ATOM     36  C   UNL A   1      39.896  29.460  30.938  1.00  0.00     0.074 A 
ATOM     37  C   UNL A   1      39.843  27.859  29.047  1.00  0.00     0.049 A 
ATOM     38  N   UNL A   1      41.024  29.140  31.517  1.00  0.00    -0.248 NA
ATOM     39  C   UNL A   1      39.202  30.594  31.568  1.00  0.00     0.031 C 
ATOM     40  C   UNL A   1      39.343  27.249  27.812  1.00  0.00     0.029 A 
ATOM     41  N   UNL A   1      40.998  27.169  29.311  1.00  0.00    -0.354 N 
ATOM     42  C   UNL A   1      41.180  30.043  32.565  1.00  0.00     0.074 A 
ATOM     43  C   UNL A   1      40.076  30.973  32.485  1.00  0.00     0.031 C 
ATOM     44  C   UNL A   1      40.164  26.249  27.452  1.00  0.00     0.029 A 
ATOM     45  C   UNL A   1      41.264  26.168  28.405  1.00  0.00     0.049 A 
ATOM     46  H   UNL A   1      41.583  27.371  30.077  1.00  0.00     0.167 HD
ATOM     47  C   UNL A   1      42.134  30.071  33.528  1.00  0.00     0.034 A 
ATOM     48  C   UNL A   1      42.279  25.282  28.359  1.00  0.00     0.034 A 
ATOM     49  C   UNL A   1      43.212  29.117  33.607  1.00  0.00     0.049 A 
ATOM     50  C   UNL A   1      43.318  25.317  29.451  1.00  0.00     0.074 A 
ATOM     51  C   UNL A   1      44.204  29.009  34.564  1.00  0.00     0.029 A 
ATOM     52  N   UNL A   1      43.438  28.100  32.685  1.00  0.00    -0.354 N 
ATOM     53  N   UNL A   1      43.416  26.137  30.474  1.00  0.00    -0.248 NA
ATOM     54  C   UNL A   1      44.368  24.294  29.395  1.00  0.00     0.031 C 
ATOM     55  C   UNL A   1      45.061  27.967  34.192  1.00  0.00     0.029 A 
ATOM     56  C   UNL A   1      44.565  27.375  33.040  1.00  0.00     0.049 A 
ATOM     57  H   UNL A   1      42.878  27.921  31.895  1.00  0.00     0.167 HD
ATOM     58  C   UNL A   1      44.526  25.707  31.198  1.00  0.00     0.074 A 
ATOM     59  C   UNL A   1      45.041  24.542  30.508  1.00  0.00     0.031 C 
ATOM     60  C   UNL A   1      45.071  26.225  32.329  1.00  0.00     0.034 A 
BRANCH  47  61
ATOM     61  C   UNL A   1      42.050  31.179  34.553  1.00  0.00     0.023 A 
ATOM     62  C   UNL A   1      42.764  32.384  34.399  1.00  0.00     0.031 A 
ATOM     63  C   UNL A   1      41.290  31.015  35.724  1.00  0.00     0.131 A 
ATOM     64  C   UNL A   1      42.778  33.329  35.435  1.00  0.00     0.055 A 
ATOM     65  C   UNL A   1      41.235  32.001  36.712  1.00  0.00     0.041 A 
ATOM     66  F   UNL A   1      40.604  29.882  35.941  1.00  0.00    -0.206 F 
ATOM     67  C   UNL A   1      41.997  33.160  36.579  1.00  0.00     0.022 A 
BRANCH  64  68
ATOM     68  S   UNL A   1      43.959  34.704  35.335  1.00  0.00     0.124 S 
ATOM     69  O   UNL A   1      44.989  34.142  34.464  1.00  0.00    -0.237 OA
ATOM     70  O   UNL A   1      43.151  35.773  34.762  1.00  0.00    -0.237 OA
ATOM     71  O   UNL A   1      44.368  34.905  36.723  1.00  0.00    -0.744 OA
ENDBRANCH  64  68
ENDBRANCH  47  61
BRANCH  48  72
ATOM     72  C   UNL A   1      42.362  24.277  27.259  1.00  0.00     0.023 A 
ATOM     73  C   UNL A   1      41.590  23.105  27.292  1.00  0.00     0.031 A 
ATOM     74  C   UNL A   1      43.245  24.455  26.180  1.00  0.00     0.131 A 
ATOM     75  C   UNL A   1      41.754  22.130  26.296  1.00  0.00     0.055 A 
ATOM     76  C   UNL A   1      43.367  23.505  25.163  1.00  0.00     0.041 A 
ATOM     77  F   UNL A   1      44.000  25.562  26.095  1.00  0.00    -0.206 F 
ATOM     78  C   UNL A   1      42.629  22.327  25.226  1.00  0.00     0.022 A 
BRANCH  75  79
ATOM     79  S   UNL A   1      40.867  20.557  26.465  1.00  0.00     0.124 S 
ATOM     80  O   UNL A   1      39.544  20.903  25.957  1.00  0.00    -0.237 OA
ATOM     81  O   UNL A   1      41.664  19.668  25.625  1.00  0.00    -0.237 OA
ATOM     82  O   UNL A   1      40.933  20.280  27.899  1.00  0.00    -0.744 OA
ENDBRANCH  75  79
ENDBRANCH  48  72
BRANCH  60  83
ATOM     83  C   UNL A   1      46.268  25.502  32.897  1.00  0.00     0.023 A 
ATOM     84  C   UNL A   1      46.125  24.457  33.824  1.00  0.00     0.031 A 
ATOM     85  C   UNL A   1      47.570  25.890  32.531  1.00  0.00     0.131 A 
ATOM     86  C   UNL A   1      47.263  23.885  34.413  1.00  0.00     0.055 A 
ATOM     87  C   UNL A   1      48.699  25.270  33.068  1.00  0.00     0.041 A 
ATOM     88  F   UNL A   1      47.765  26.883  31.649  1.00  0.00    -0.206 F 
ATOM     89  C   UNL A   1      48.550  24.273  34.028  1.00  0.00     0.022 A 
BRANCH  86  90
ATOM     90  S   UNL A   1      47.037  22.712  35.778  1.00  0.00     0.124 S 
ATOM     91  O   UNL A   1      47.560  23.464  36.913  1.00  0.00    -0.237 OA
ATOM     92  O   UNL A   1      45.594  22.496  35.766  1.00  0.00    -0.237 OA
ATOM     93  O   UNL A   1      47.840  21.558  35.375  1.00  0.00    -0.744 OA
ENDBRANCH  86  90
ENDBRANCH  60  83
ENDBRANCH  34  35
ENDBRANCH  26  29
ENDBRANCH  24  25
ENDBRANCH  23  24
ENDBRANCH   1  23
TORSDOF 18
ENDMDL
MODEL 3
REMARK VINA RESULT:     -11.3      4.627      9.745
REMARK SMILES C[C@@H](CC(=O)NCCCCNC(=O)c1ccc(-c2c3nc(c(-c4cc(S(=O)(=O)[O-])ccc4F)c4ccc([nH]4)c(-c4cc(S(=O)(=O)[O-])ccc4F)c4nc(c(-c5cc(S(=O)(=O)[O-])ccc5F)c5ccc2[nH]5)C=C4)C=C3)cc1)Cc1nnc(C2C(C)(C)C2(C)C)o1
REMARK SMILES IDX 8 1 7 2 6 3 4 4 5 5 3 7 2 8 1 9 77 10 78 11 79 12 89 13
REMARK SMILES IDX 80 14 81 15 82 16 83 17 86 18 84 19 85 20 87 21 88 22 9 23
REMARK SMILES IDX 10 24 11 25 12 26 13 28 14 29 15 30 76 31 16 32 75 33 17 34
REMARK SMILES IDX 18 35 19 36 69 37 20 38 74 39 68 40 70 41 21 42 73 43 67 44
REMARK SMILES IDX 66 45 22 47 54 48 34 49 53 50 35 51 38 52 52 53 71 54 36 55
REMARK SMILES IDX 37 56 51 58 72 59 39 60 23 61 24 62 32 63 25 64 31 65 33 66
REMARK SMILES IDX 30 67 26 68 27 69 28 70 29 71 55 72 56 73 64 74 57 75 63 76
REMARK SMILES IDX 65 77 62 78 58 79 59 80 60 81 61 82 40 83 41 84 49 85 42 86
REMARK SMILES IDX 48 87 50 88 47 89 43 90 44 91 45 92 46 93
REMARK H PARENT 6 6 11 27 70 46 38 57
REMARK Flexibility Score: inf
ROOT
ATOM      1  C   UNL A   1      35.308  22.959  26.510  1.00  0.00     0.023 C 
ENDROOT
BRANCH   1   2
ATOM      2  C   UNL A   1      34.067  23.613  25.898  1.00  0.00     0.116 C 
BRANCH   2   3
ATOM      3  N   UNL A   1      32.889  22.812  26.156  1.00  0.00    -0.356 N 
ATOM      4  C   UNL A   1      32.231  21.938  25.352  1.00  0.00     0.220 C 
ATOM      5  O   UNL A   1      31.169  21.457  25.753  1.00  0.00    -0.275 OA
ATOM      6  H   UNL A   1      32.504  22.920  27.056  1.00  0.00     0.163 HD
BRANCH   4   7
ATOM      7  C   UNL A   1      32.784  21.539  23.994  1.00  0.00     0.103 C 
BRANCH   7   8
ATOM      8  C   UNL A   1      32.468  22.458  22.791  1.00  0.00     0.004 C 
ATOM      9  C   UNL A   1      33.681  23.301  22.396  1.00  0.00     0.009 C 
BRANCH   8  10
ATOM     10  C   UNL A   1      31.159  23.255  22.976  1.00  0.00     0.103 C 
BRANCH  10  11
ATOM     11  C   UNL A   1      31.298  24.729  23.140  1.00  0.00     0.216 A 
ATOM     12  N   UNL A   1      31.281  25.645  22.197  1.00  0.00    -0.113 NA
ATOM     13  O   UNL A   1      31.364  25.269  24.399  1.00  0.00    -0.425 OA
ATOM     14  N   UNL A   1      31.271  26.860  22.839  1.00  0.00    -0.113 NA
ATOM     15  C   UNL A   1      31.283  26.614  24.135  1.00  0.00     0.220 A 
BRANCH  15  16
ATOM     16  C   UNL A   1      31.174  27.750  25.143  1.00  0.00     0.090 C 
ATOM     17  C   UNL A   1      32.183  27.971  26.275  1.00  0.00    -0.017 C 
ATOM     18  C   UNL A   1      32.089  28.973  25.126  1.00  0.00    -0.017 C 
ATOM     19  C   UNL A   1      31.590  28.305  27.632  1.00  0.00     0.012 C 
ATOM     20  C   UNL A   1      33.433  27.140  26.435  1.00  0.00     0.012 C 
ATOM     21  C   UNL A   1      33.215  29.093  24.120  1.00  0.00     0.012 C 
ATOM     22  C   UNL A   1      31.427  30.313  25.375  1.00  0.00     0.012 C 
ENDBRANCH  15  16
ENDBRANCH  10  11
ENDBRANCH   8  10
ENDBRANCH   7   8
ENDBRANCH   4   7
ENDBRANCH   2   3
ENDBRANCH   1   2
BRANCH   1  23
ATOM     23  C   UNL A   1      36.000  21.936  25.616  1.00  0.00     0.023 C 
BRANCH  23  24
ATOM     24  C   UNL A   1      37.452  22.253  25.290  1.00  0.00     0.116 C 
BRANCH  24  25
ATOM     25  N   UNL A   1      38.384  21.222  25.720  1.00  0.00    -0.352 N 
ATOM     26  C   UNL A   1      39.573  21.372  26.393  1.00  0.00     0.251 C 
ATOM     27  H   UNL A   1      38.130  20.297  25.500  1.00  0.00     0.163 HD
ATOM     28  O   UNL A   1      40.295  20.397  26.582  1.00  0.00    -0.269 OA
BRANCH  26  29
ATOM     29  C   UNL A   1      39.988  22.718  26.845  1.00  0.00     0.039 A 
ATOM     30  C   UNL A   1      40.892  22.829  27.903  1.00  0.00     0.014 A 
ATOM     31  C   UNL A   1      39.514  23.865  26.201  1.00  0.00     0.014 A 
ATOM     32  C   UNL A   1      41.361  24.089  28.279  1.00  0.00     0.010 A 
ATOM     33  C   UNL A   1      40.062  25.105  26.507  1.00  0.00     0.010 A 
ATOM     34  C   UNL A   1      40.971  25.235  27.565  1.00  0.00    -0.014 A 
BRANCH  34  35
ATOM     35  C   UNL A   1      41.456  26.584  27.952  1.00  0.00     0.031 A 
ATOM     36  C   UNL A   1      42.863  26.996  27.605  1.00  0.00     0.074 A 
ATOM     37  C   UNL A   1      40.653  27.414  28.647  1.00  0.00     0.049 A 
ATOM     38  N   UNL A   1      43.492  28.111  27.876  1.00  0.00    -0.248 NA
ATOM     39  C   UNL A   1      43.686  26.004  26.896  1.00  0.00     0.031 C 
ATOM     40  C   UNL A   1      39.296  27.097  29.098  1.00  0.00     0.029 A 
ATOM     41  N   UNL A   1      40.860  28.693  29.096  1.00  0.00    -0.354 N 
ATOM     42  C   UNL A   1      44.784  27.945  27.386  1.00  0.00     0.074 A 
ATOM     43  C   UNL A   1      44.870  26.592  26.882  1.00  0.00     0.031 C 
ATOM     44  C   UNL A   1      38.778  28.168  29.721  1.00  0.00     0.029 A 
ATOM     45  C   UNL A   1      39.774  29.234  29.745  1.00  0.00     0.049 A 
ATOM     46  H   UNL A   1      41.706  29.179  28.966  1.00  0.00     0.167 HD
ATOM     47  C   UNL A   1      45.794  28.847  27.326  1.00  0.00     0.034 A 
ATOM     48  C   UNL A   1      39.604  30.455  30.290  1.00  0.00     0.034 A 
ATOM     49  C   UNL A   1      45.679  30.201  27.810  1.00  0.00     0.049 A 
ATOM     50  C   UNL A   1      40.732  31.451  30.194  1.00  0.00     0.074 A 
ATOM     51  C   UNL A   1      46.610  31.221  27.754  1.00  0.00     0.029 A 
ATOM     52  N   UNL A   1      44.555  30.723  28.441  1.00  0.00    -0.354 N 
ATOM     53  N   UNL A   1      41.928  31.300  29.669  1.00  0.00    -0.248 NA
ATOM     54  C   UNL A   1      40.479  32.787  30.744  1.00  0.00     0.031 C 
ATOM     55  C   UNL A   1      46.073  32.340  28.402  1.00  0.00     0.029 A 
ATOM     56  C   UNL A   1      44.778  32.044  28.798  1.00  0.00     0.049 A 
ATOM     57  H   UNL A   1      43.721  30.226  28.609  1.00  0.00     0.167 HD
ATOM     58  C   UNL A   1      42.558  32.535  29.801  1.00  0.00     0.074 A 
ATOM     59  C   UNL A   1      41.599  33.420  30.430  1.00  0.00     0.031 C 
ATOM     60  C   UNL A   1      43.813  32.905  29.439  1.00  0.00     0.034 A 
BRANCH  47  61
ATOM     61  C   UNL A   1      47.104  28.382  26.731  1.00  0.00     0.023 A 
ATOM     62  C   UNL A   1      47.302  28.325  25.338  1.00  0.00     0.031 A 
ATOM     63  C   UNL A   1      48.151  27.942  27.559  1.00  0.00     0.131 A 
ATOM     64  C   UNL A   1      48.473  27.754  24.818  1.00  0.00     0.055 A 
ATOM     65  C   UNL A   1      49.352  27.460  27.035  1.00  0.00     0.041 A 
ATOM     66  F   UNL A   1      48.016  27.951  28.894  1.00  0.00    -0.206 F 
ATOM     67  C   UNL A   1      49.511  27.345  25.656  1.00  0.00     0.022 A 
BRANCH  64  68
ATOM     68  S   UNL A   1      48.548  27.404  23.039  1.00  0.00     0.124 S 
ATOM     69  O   UNL A   1      47.389  28.145  22.546  1.00  0.00    -0.237 OA
ATOM     70  O   UNL A   1      49.853  27.937  22.666  1.00  0.00    -0.237 OA
ATOM     71  O   UNL A   1      48.424  25.950  22.970  1.00  0.00    -0.744 OA
ENDBRANCH  64  68
ENDBRANCH  47  61
BRANCH  48  72
ATOM     72  C   UNL A   1      38.320  30.817  30.957  1.00  0.00     0.023 A 
ATOM     73  C   UNL A   1      37.309  31.498  30.259  1.00  0.00     0.031 A 
ATOM     74  C   UNL A   1      38.102  30.527  32.315  1.00  0.00     0.131 A 
ATOM     75  C   UNL A   1      36.150  31.912  30.932  1.00  0.00     0.055 A 
ATOM     76  C   UNL A   1      36.923  30.896  32.967  1.00  0.00     0.041 A 
ATOM     77  F   UNL A   1      39.031  29.871  33.027  1.00  0.00    -0.206 F 
ATOM     78  C   UNL A   1      35.945  31.607  32.278  1.00  0.00     0.022 A 
BRANCH  75  79
ATOM     79  S   UNL A   1      34.947  32.936  30.040  1.00  0.00     0.124 S 
ATOM     80  O   UNL A   1      34.401  31.985  29.078  1.00  0.00    -0.237 OA
ATOM     81  O   UNL A   1      34.048  33.350  31.113  1.00  0.00    -0.237 OA
ATOM     82  O   UNL A   1      35.765  34.004  29.468  1.00  0.00    -0.744 OA
ENDBRANCH  75  79
ENDBRANCH  48  72
BRANCH  60  83
ATOM     83  C   UNL A   1      44.194  34.344  29.689  1.00  0.00     0.023 A 
ATOM     84  C   UNL A   1      43.980  35.342  28.723  1.00  0.00     0.031 A 
ATOM     85  C   UNL A   1      44.811  34.715  30.898  1.00  0.00     0.131 A 
ATOM     86  C   UNL A   1      44.448  36.645  28.948  1.00  0.00     0.055 A 
ATOM     87  C   UNL A   1      45.212  36.028  31.145  1.00  0.00     0.041 A 
ATOM     88  F   UNL A   1      45.040  33.803  31.856  1.00  0.00    -0.206 F 
ATOM     89  C   UNL A   1      45.047  36.999  30.161  1.00  0.00     0.022 A 
BRANCH  86  90
ATOM     90  S   UNL A   1      44.372  37.841  27.587  1.00  0.00     0.124 S 
ATOM     91  O   UNL A   1      43.118  37.479  26.934  1.00  0.00    -0.237 OA
ATOM     92  O   UNL A   1      44.378  39.117  28.294  1.00  0.00    -0.237 OA
ATOM     93  O   UNL A   1      45.579  37.556  26.813  1.00  0.00    -0.744 OA
ENDBRANCH  86  90
ENDBRANCH  60  83
ENDBRANCH  34  35
ENDBRANCH  26  29
ENDBRANCH  24  25
ENDBRANCH  23  24
ENDBRANCH   1  23
TORSDOF 18
ENDMDL
