MODEL 1
REMARK VINA RESULT:     -13.0      0.000      0.000
REMARK SMILES O=C(NCCCCNC(=O)[C@H]1O[C@@H](Oc2c(-c3cc(O)c(O)c(O)c3)oc3cc(O)cc(O)c3c2=O)[C@H](O)[C@@H](O)[C@@H]1O)c1ccc(-c2c3nc(c(-c4cc(S(=O)(=O)[O-])ccc4F)c4ccc([nH]4)c(-c4cc(S(=O)(=O)[O-])ccc4F)c4nc(c(-c5cc(S(=O)(=O)[O-])ccc5F)c5ccc2[nH]5)C=C4)C=C3)cc1
REMARK SMILES IDX 6 1 5 2 4 3 3 4 1 5 2 6 43 8 44 9 105 10 45 11 104 12 46 13
REMARK SMILES IDX 47 14 48 15 98 16 49 17 103 18 97 19 99 20 50 21 102 22
REMARK SMILES IDX 96 23 95 24 51 26 83 27 63 28 82 29 64 30 67 31 81 32 100 33
REMARK SMILES IDX 65 34 66 35 80 37 101 38 68 39 52 40 53 41 61 42 54 43 60 44
REMARK SMILES IDX 62 45 59 46 55 47 56 48 57 49 58 50 84 51 85 52 93 53 86 54
REMARK SMILES IDX 92 55 94 56 91 57 87 58 88 59 89 60 90 61 69 62 70 63 78 64
REMARK SMILES IDX 71 65 77 66 79 67 76 68 72 69 73 70 74 71 75 72 7 73 8 74
REMARK SMILES IDX 9 75 10 77 11 78 12 79 41 80 13 81 39 82 37 83 42 84 14 86
REMARK SMILES IDX 15 87 16 88 35 89 26 90 34 91 36 92 27 93 32 94 28 95 31 96
REMARK SMILES IDX 29 97 17 98 18 99 25 100 19 101 23 102 21 103 20 104 24 106
REMARK SMILES IDX 22 108 33 110 30 112 40 114 38 116
REMARK H PARENT 3 7 99 25 67 36 8 76 42 85 20 105 24 107 22 109 33 111 30 113
REMARK H PARENT 40 115 38 117
REMARK Flexibility Score: inf
ROOT
ATOM      1  C   UNL A   1      32.363  29.518  26.241  1.00  0.00     0.023 C 
ENDROOT
BRANCH   1   2
ATOM      2  C   UNL A   1      32.038  30.990  26.440  1.00  0.00     0.023 C 
BRANCH   2   3
ATOM      3  C   UNL A   1      33.031  31.752  27.300  1.00  0.00     0.116 C 
BRANCH   3   4
ATOM      4  N   UNL A   1      32.692  33.159  27.472  1.00  0.00    -0.352 N 
ATOM      5  O   UNL A   1      32.750  35.198  28.449  1.00  0.00    -0.269 OA
ATOM      6  C   UNL A   1      33.220  34.067  28.363  1.00  0.00     0.251 C 
ATOM      7  H   UNL A   1      31.992  33.508  26.872  1.00  0.00     0.163 HD
BRANCH   6   8
ATOM      8  C   UNL A   1      34.334  33.647  29.239  1.00  0.00     0.039 A 
ATOM      9  C   UNL A   1      35.654  33.884  28.854  1.00  0.00     0.014 A 
ATOM     10  C   UNL A   1      34.055  32.939  30.411  1.00  0.00     0.014 A 
ATOM     11  C   UNL A   1      36.686  33.249  29.530  1.00  0.00     0.010 A 
ATOM     12  C   UNL A   1      35.108  32.391  31.152  1.00  0.00     0.010 A 
ATOM     13  C   UNL A   1      36.428  32.495  30.687  1.00  0.00    -0.014 A 
BRANCH  13  14
ATOM     14  C   UNL A   1      37.568  31.844  31.387  1.00  0.00     0.031 A 
ATOM     15  C   UNL A   1      38.394  30.783  30.711  1.00  0.00     0.074 A 
ATOM     16  C   UNL A   1      37.888  32.266  32.626  1.00  0.00     0.049 A 
ATOM     17  N   UNL A   1      39.448  30.147  31.159  1.00  0.00    -0.248 NA
ATOM     18  C   UNL A   1      37.980  30.372  29.361  1.00  0.00     0.031 C 
ATOM     19  C   UNL A   1      37.154  33.285  33.382  1.00  0.00     0.029 A 
ATOM     20  N   UNL A   1      38.925  31.924  33.455  1.00  0.00    -0.354 N 
ATOM     21  C   UNL A   1      39.806  29.243  30.163  1.00  0.00     0.074 A 
ATOM     22  C   UNL A   1      38.835  29.394  29.099  1.00  0.00     0.031 C 
ATOM     23  C   UNL A   1      37.801  33.535  34.528  1.00  0.00     0.029 A 
ATOM     24  C   UNL A   1      38.951  32.644  34.626  1.00  0.00     0.049 A 
ATOM     25  H   UNL A   1      39.587  31.231  33.232  1.00  0.00     0.167 HD
ATOM     26  C   UNL A   1      40.847  28.372  30.141  1.00  0.00     0.034 A 
ATOM     27  C   UNL A   1      39.799  32.591  35.670  1.00  0.00     0.034 A 
ATOM     28  C   UNL A   1      41.818  28.252  31.205  1.00  0.00     0.049 A 
ATOM     29  C   UNL A   1      40.942  31.615  35.620  1.00  0.00     0.074 A 
ATOM     30  C   UNL A   1      42.931  27.431  31.270  1.00  0.00     0.029 A 
ATOM     31  N   UNL A   1      41.789  28.969  32.396  1.00  0.00    -0.354 N 
ATOM     32  N   UNL A   1      41.268  30.773  34.667  1.00  0.00    -0.248 NA
ATOM     33  C   UNL A   1      41.831  31.585  36.787  1.00  0.00     0.031 C 
ATOM     34  C   UNL A   1      43.538  27.607  32.519  1.00  0.00     0.029 A 
ATOM     35  C   UNL A   1      42.848  28.590  33.209  1.00  0.00     0.049 A 
ATOM     36  H   UNL A   1      41.116  29.648  32.627  1.00  0.00     0.167 HD
ATOM     37  C   UNL A   1      42.415  30.126  35.114  1.00  0.00     0.074 A 
ATOM     38  C   UNL A   1      42.733  30.692  36.409  1.00  0.00     0.031 C 
ATOM     39  C   UNL A   1      43.140  29.151  34.508  1.00  0.00     0.034 A 
BRANCH  26  40
ATOM     40  C   UNL A   1      40.959  27.448  28.949  1.00  0.00     0.023 A 
ATOM     41  C   UNL A   1      41.945  27.615  27.962  1.00  0.00     0.031 A 
ATOM     42  C   UNL A   1      40.043  26.391  28.789  1.00  0.00     0.131 A 
ATOM     43  C   UNL A   1      41.950  26.787  26.828  1.00  0.00     0.055 A 
ATOM     44  C   UNL A   1      40.100  25.524  27.697  1.00  0.00     0.041 A 
ATOM     45  F   UNL A   1      39.065  26.192  29.689  1.00  0.00    -0.206 F 
ATOM     46  C   UNL A   1      41.048  25.728  26.700  1.00  0.00     0.022 A 
BRANCH  43  47
ATOM     47  S   UNL A   1      43.059  27.201  25.453  1.00  0.00     0.124 S 
ATOM     48  O   UNL A   1      44.219  27.742  26.160  1.00  0.00    -0.237 OA
ATOM     49  O   UNL A   1      43.252  25.911  24.803  1.00  0.00    -0.237 OA
ATOM     50  O   UNL A   1      42.300  28.183  24.680  1.00  0.00    -0.744 OA
ENDBRANCH  43  47
ENDBRANCH  26  40
BRANCH  27  51
ATOM     51  C   UNL A   1      39.587  33.469  36.853  1.00  0.00     0.023 A 
ATOM     52  C   UNL A   1      39.003  32.972  38.029  1.00  0.00     0.031 A 
ATOM     53  C   UNL A   1      39.950  34.827  36.818  1.00  0.00     0.131 A 
ATOM     54  C   UNL A   1      38.766  33.836  39.108  1.00  0.00     0.055 A 
ATOM     55  C   UNL A   1      39.760  35.670  37.913  1.00  0.00     0.041 A 
ATOM     56  F   UNL A   1      40.518  35.349  35.719  1.00  0.00    -0.206 F 
ATOM     57  C   UNL A   1      39.153  35.177  39.063  1.00  0.00     0.022 A 
BRANCH  54  58
ATOM     58  S   UNL A   1      37.875  33.196  40.552  1.00  0.00     0.124 S 
ATOM     59  O   UNL A   1      37.969  34.315  41.481  1.00  0.00    -0.237 OA
ATOM     60  O   UNL A   1      36.551  32.931  39.997  1.00  0.00    -0.237 OA
ATOM     61  O   UNL A   1      38.639  32.008  40.924  1.00  0.00    -0.744 OA
ENDBRANCH  54  58
ENDBRANCH  27  51
BRANCH  39  62
ATOM     62  C   UNL A   1      44.370  28.674  35.240  1.00  0.00     0.023 A 
ATOM     63  C   UNL A   1      44.286  27.764  36.309  1.00  0.00     0.031 A 
ATOM     64  C   UNL A   1      45.638  29.171  34.891  1.00  0.00     0.131 A 
ATOM     65  C   UNL A   1      45.438  27.430  37.035  1.00  0.00     0.055 A 
ATOM     66  C   UNL A   1      46.789  28.790  35.579  1.00  0.00     0.041 A 
ATOM     67  F   UNL A   1      45.775  30.044  33.881  1.00  0.00    -0.206 F 
ATOM     68  C   UNL A   1      46.692  27.928  36.668  1.00  0.00     0.022 A 
BRANCH  65  69
ATOM     69  S   UNL A   1      45.263  26.425  38.534  1.00  0.00     0.124 S 
ATOM     70  O   UNL A   1      43.817  26.417  38.728  1.00  0.00    -0.237 OA
ATOM     71  O   UNL A   1      45.858  25.155  38.128  1.00  0.00    -0.237 OA
ATOM     72  O   UNL A   1      46.020  27.170  39.538  1.00  0.00    -0.744 OA
ENDBRANCH  65  69
ENDBRANCH  39  62
ENDBRANCH  13  14
ENDBRANCH   6   8
ENDBRANCH   3   4
ENDBRANCH   2   3
ENDBRANCH   1   2
BRANCH   1  73
ATOM     73  C   UNL A   1      32.116  28.973  24.833  1.00  0.00     0.116 C 
BRANCH  73  74
ATOM     74  N   UNL A   1      30.710  28.756  24.503  1.00  0.00    -0.354 N 
ATOM     75  C   UNL A   1      30.121  27.700  23.836  1.00  0.00     0.252 C 
ATOM     76  H   UNL A   1      30.094  29.463  24.798  1.00  0.00     0.163 HD
ATOM     77  O   UNL A   1      28.897  27.673  23.717  1.00  0.00    -0.272 OA
BRANCH  75  78
ATOM     78  C   UNL A   1      31.032  26.588  23.284  1.00  0.00     0.242 C 
ATOM     79  O   UNL A   1      30.475  25.276  23.096  1.00  0.00    -0.324 OA
ATOM     80  C   UNL A   1      31.594  26.997  21.919  1.00  0.00     0.184 C 
ATOM     81  C   UNL A   1      31.533  24.306  23.019  1.00  0.00     0.340 C 
ATOM     82  C   UNL A   1      32.843  26.150  21.699  1.00  0.00     0.181 C 
ATOM     83  C   UNL A   1      32.585  24.666  21.935  1.00  0.00     0.214 C 
BRANCH  80  84
ATOM     84  O   UNL A   1      31.978  28.359  21.795  1.00  0.00    -0.387 OA
ATOM     85  H   UNL A   1      31.971  28.613  20.859  1.00  0.00     0.211 HD
ENDBRANCH  80  84
BRANCH  81  86
ATOM     86  O   UNL A   1      31.127  22.937  22.780  1.00  0.00    -0.454 OA
BRANCH  86  87
ATOM     87  C   UNL A   1      31.784  21.929  23.457  1.00  0.00     0.214 A 
ATOM     88  C   UNL A   1      32.011  21.941  24.788  1.00  0.00     0.181 A 
ATOM     89  C   UNL A   1      32.025  20.650  22.719  1.00  0.00     0.239 A 
ATOM     90  O   UNL A   1      32.574  20.907  25.504  1.00  0.00    -0.452 OA
ATOM     91  C   UNL A   1      32.461  19.485  23.532  1.00  0.00     0.111 A 
ATOM     92  O   UNL A   1      31.812  20.583  21.514  1.00  0.00    -0.285 OA
ATOM     93  C   UNL A   1      32.717  19.693  24.888  1.00  0.00     0.146 A 
ATOM     94  C   UNL A   1      32.607  18.188  23.014  1.00  0.00     0.134 A 
ATOM     95  C   UNL A   1      33.124  18.641  25.713  1.00  0.00     0.094 A 
ATOM     96  C   UNL A   1      33.011  17.129  23.836  1.00  0.00     0.093 A 
ATOM     97  C   UNL A   1      33.266  17.367  25.182  1.00  0.00     0.123 A 
BRANCH  88  98
ATOM     98  C   UNL A   1      31.727  23.116  25.631  1.00  0.00     0.029 A 
ATOM     99  C   UNL A   1      32.745  24.068  25.832  1.00  0.00     0.062 A 
ATOM    100  C   UNL A   1      30.427  23.378  26.102  1.00  0.00     0.062 A 
ATOM    101  C   UNL A   1      32.429  25.303  26.389  1.00  0.00     0.162 A 
ATOM    102  C   UNL A   1      30.136  24.618  26.659  1.00  0.00     0.162 A 
ATOM    103  C   UNL A   1      31.123  25.592  26.764  1.00  0.00     0.200 A 
BRANCH 101 104
ATOM    104  O   UNL A   1      33.399  26.258  26.466  1.00  0.00    -0.504 OA
ATOM    105  H   UNL A   1      33.623  26.634  27.295  1.00  0.00     0.293 HD
ENDBRANCH 101 104
BRANCH 102 106
ATOM    106  O   UNL A   1      28.847  24.914  26.994  1.00  0.00    -0.504 OA
ATOM    107  H   UNL A   1      28.313  25.413  26.407  1.00  0.00     0.293 HD
ENDBRANCH 102 106
BRANCH 103 108
ATOM    108  O   UNL A   1      30.758  26.862  27.123  1.00  0.00    -0.502 OA
ATOM    109  H   UNL A   1      30.909  27.162  27.997  1.00  0.00     0.293 HD
ENDBRANCH 103 108
ENDBRANCH  88  98
BRANCH  94 110
ATOM    110  O   UNL A   1      32.327  17.921  21.704  1.00  0.00    -0.507 OA
ATOM    111  H   UNL A   1      31.447  17.990  21.389  1.00  0.00     0.293 HD
ENDBRANCH  94 110
BRANCH  97 112
ATOM    112  O   UNL A   1      33.646  16.368  26.027  1.00  0.00    -0.508 OA
ATOM    113  H   UNL A   1      34.101  16.573  26.821  1.00  0.00     0.293 HD
ENDBRANCH  97 112
ENDBRANCH  86  87
ENDBRANCH  81  86
BRANCH  82 114
ATOM    114  O   UNL A   1      33.332  26.354  20.350  1.00  0.00    -0.387 OA
ATOM    115  H   UNL A   1      33.702  25.524  20.012  1.00  0.00     0.211 HD
ENDBRANCH  82 114
BRANCH  83 116
ATOM    116  O   UNL A   1      33.836  24.005  22.178  1.00  0.00    -0.384 OA
ATOM    117  H   UNL A   1      33.671  23.087  22.442  1.00  0.00     0.211 HD
ENDBRANCH  83 116
ENDBRANCH  75  78
ENDBRANCH  73  74
ENDBRANCH   1  73
TORSDOF 25
ENDMDL
MODEL 2
REMARK VINA RESULT:     -13.0      5.005      8.790
REMARK SMILES O=C(NCCCCNC(=O)[C@H]1O[C@@H](Oc2c(-c3cc(O)c(O)c(O)c3)oc3cc(O)cc(O)c3c2=O)[C@H](O)[C@@H](O)[C@@H]1O)c1ccc(-c2c3nc(c(-c4cc(S(=O)(=O)[O-])ccc4F)c4ccc([nH]4)c(-c4cc(S(=O)(=O)[O-])ccc4F)c4nc(c(-c5cc(S(=O)(=O)[O-])ccc5F)c5ccc2[nH]5)C=C4)C=C3)cc1
REMARK SMILES IDX 6 1 5 2 4 3 3 4 1 5 2 6 43 8 44 9 105 10 45 11 104 12 46 13
REMARK SMILES IDX 47 14 48 15 98 16 49 17 103 18 97 19 99 20 50 21 102 22
REMARK SMILES IDX 96 23 95 24 51 26 83 27 63 28 82 29 64 30 67 31 81 32 100 33
REMARK SMILES IDX 65 34 66 35 80 37 101 38 68 39 52 40 53 41 61 42 54 43 60 44
REMARK SMILES IDX 62 45 59 46 55 47 56 48 57 49 58 50 84 51 85 52 93 53 86 54
REMARK SMILES IDX 92 55 94 56 91 57 87 58 88 59 89 60 90 61 69 62 70 63 78 64
REMARK SMILES IDX 71 65 77 66 79 67 76 68 72 69 73 70 74 71 75 72 7 73 8 74
REMARK SMILES IDX 9 75 10 77 11 78 12 79 41 80 13 81 39 82 37 83 42 84 14 86
REMARK SMILES IDX 15 87 16 88 35 89 26 90 34 91 36 92 27 93 32 94 28 95 31 96
REMARK SMILES IDX 29 97 17 98 18 99 25 100 19 101 23 102 21 103 20 104 24 106
REMARK SMILES IDX 22 108 33 110 30 112 40 114 38 116
REMARK H PARENT 3 7 99 25 67 36 8 76 42 85 20 105 24 107 22 109 33 111 30 113
REMARK H PARENT 40 115 38 117
REMARK Flexibility Score: inf
ROOT
ATOM      1  C   UNL A   1      35.399  22.745  26.243  1.00  0.00     0.023 C 
ENDROOT
BRANCH   1   2
ATOM      2  C   UNL A   1      35.878  22.633  24.804  1.00  0.00     0.023 C 
BRANCH   2   3
ATOM      3  C   UNL A   1      37.387  22.649  24.631  1.00  0.00     0.116 C 
BRANCH   3   4
ATOM      4  N   UNL A   1      38.045  21.459  25.156  1.00  0.00    -0.352 N 
ATOM      5  O   UNL A   1      39.598  20.294  26.316  1.00  0.00    -0.269 OA
ATOM      6  C   UNL A   1      39.088  21.379  26.052  1.00  0.00     0.251 C 
ATOM      7  H   UNL A   1      37.699  20.597  24.826  1.00  0.00     0.163 HD
BRANCH   6   8
ATOM      8  C   UNL A   1      39.608  22.622  26.660  1.00  0.00     0.039 A 
ATOM      9  C   UNL A   1      39.120  23.861  26.242  1.00  0.00     0.014 A 
ATOM     10  C   UNL A   1      40.645  22.549  27.592  1.00  0.00     0.014 A 
ATOM     11  C   UNL A   1      39.796  25.018  26.603  1.00  0.00     0.010 A 
ATOM     12  C   UNL A   1      41.255  23.726  28.039  1.00  0.00     0.010 A 
ATOM     13  C   UNL A   1      40.872  24.967  27.506  1.00  0.00    -0.014 A 
BRANCH  13  14
ATOM     14  C   UNL A   1      41.558  26.233  27.876  1.00  0.00     0.031 A 
ATOM     15  C   UNL A   1      42.908  26.583  27.307  1.00  0.00     0.074 A 
ATOM     16  C   UNL A   1      40.919  27.098  28.688  1.00  0.00     0.049 A 
ATOM     17  N   UNL A   1      43.624  27.664  27.488  1.00  0.00    -0.248 NA
ATOM     18  C   UNL A   1      43.542  25.587  26.433  1.00  0.00     0.031 C 
ATOM     19  C   UNL A   1      39.609  26.862  29.302  1.00  0.00     0.029 A 
ATOM     20  N   UNL A   1      41.259  28.357  29.110  1.00  0.00    -0.354 N 
ATOM     21  C   UNL A   1      44.804  27.469  26.776  1.00  0.00     0.074 A 
ATOM     22  C   UNL A   1      44.717  26.150  26.185  1.00  0.00     0.031 C 
ATOM     23  C   UNL A   1      39.227  27.964  29.962  1.00  0.00     0.029 A 
ATOM     24  C   UNL A   1      40.292  28.956  29.883  1.00  0.00     0.049 A 
ATOM     25  H   UNL A   1      42.113  28.790  28.881  1.00  0.00     0.167 HD
ATOM     26  C   UNL A   1      45.857  28.314  26.629  1.00  0.00     0.034 A 
ATOM     27  C   UNL A   1      40.266  30.166  30.473  1.00  0.00     0.034 A 
ATOM     28  C   UNL A   1      45.915  29.636  27.210  1.00  0.00     0.049 A 
ATOM     29  C   UNL A   1      41.447  31.079  30.297  1.00  0.00     0.074 A 
ATOM     30  C   UNL A   1      46.914  30.587  27.095  1.00  0.00     0.029 A 
ATOM     31  N   UNL A   1      44.933  30.193  28.022  1.00  0.00    -0.354 N 
ATOM     32  N   UNL A   1      42.551  30.880  29.614  1.00  0.00    -0.248 NA
ATOM     33  C   UNL A   1      41.376  32.381  30.968  1.00  0.00     0.031 C 
ATOM     34  C   UNL A   1      46.567  31.690  27.883  1.00  0.00     0.029 A 
ATOM     35  C   UNL A   1      45.317  31.462  28.435  1.00  0.00     0.049 A 
ATOM     36  H   UNL A   1      44.089  29.753  28.268  1.00  0.00     0.167 HD
ATOM     37  C   UNL A   1      43.298  32.043  29.760  1.00  0.00     0.074 A 
ATOM     38  C   UNL A   1      42.509  32.944  30.576  1.00  0.00     0.031 C 
ATOM     39  C   UNL A   1      44.527  32.340  29.265  1.00  0.00     0.034 A 
BRANCH  26  40
ATOM     40  C   UNL A   1      47.051  27.810  25.850  1.00  0.00     0.023 A 
ATOM     41  C   UNL A   1      47.229  28.096  24.485  1.00  0.00     0.031 A 
ATOM     42  C   UNL A   1      48.019  27.009  26.484  1.00  0.00     0.131 A 
ATOM     43  C   UNL A   1      48.306  27.530  23.784  1.00  0.00     0.055 A 
ATOM     44  C   UNL A   1      49.129  26.511  25.799  1.00  0.00     0.041 A 
ATOM     45  F   UNL A   1      47.895  26.685  27.781  1.00  0.00    -0.206 F 
ATOM     46  C   UNL A   1      49.270  26.758  24.437  1.00  0.00     0.022 A 
BRANCH  43  47
ATOM     47  S   UNL A   1      48.353  27.697  21.978  1.00  0.00     0.124 S 
ATOM     48  O   UNL A   1      47.066  28.334  21.705  1.00  0.00    -0.237 OA
ATOM     49  O   UNL A   1      49.533  28.527  21.768  1.00  0.00    -0.237 OA
ATOM     50  O   UNL A   1      48.467  26.318  21.507  1.00  0.00    -0.744 OA
ENDBRANCH  43  47
ENDBRANCH  26  40
BRANCH  27  51
ATOM     51  C   UNL A   1      39.095  30.570  31.298  1.00  0.00     0.023 A 
ATOM     52  C   UNL A   1      38.113  31.434  30.788  1.00  0.00     0.031 A 
ATOM     53  C   UNL A   1      38.949  30.110  32.619  1.00  0.00     0.131 A 
ATOM     54  C   UNL A   1      37.048  31.840  31.606  1.00  0.00     0.055 A 
ATOM     55  C   UNL A   1      37.860  30.475  33.412  1.00  0.00     0.041 A 
ATOM     56  F   UNL A   1      39.857  29.277  33.151  1.00  0.00    -0.206 F 
ATOM     57  C   UNL A   1      36.908  31.355  32.909  1.00  0.00     0.022 A 
BRANCH  54  58
ATOM     58  S   UNL A   1      35.883  33.072  30.965  1.00  0.00     0.124 S 
ATOM     59  O   UNL A   1      34.609  32.376  31.099  1.00  0.00    -0.237 OA
ATOM     60  O   UNL A   1      36.100  34.195  31.873  1.00  0.00    -0.237 OA
ATOM     61  O   UNL A   1      36.336  33.288  29.593  1.00  0.00    -0.744 OA
ENDBRANCH  54  58
ENDBRANCH  27  51
BRANCH  39  62
ATOM     62  C   UNL A   1      45.061  33.718  29.572  1.00  0.00     0.023 A 
ATOM     63  C   UNL A   1      44.667  34.844  28.828  1.00  0.00     0.031 A 
ATOM     64  C   UNL A   1      46.010  33.897  30.593  1.00  0.00     0.131 A 
ATOM     65  C   UNL A   1      45.269  36.087  29.070  1.00  0.00     0.055 A 
ATOM     66  C   UNL A   1      46.563  35.147  30.869  1.00  0.00     0.041 A 
ATOM     67  F   UNL A   1      46.424  32.855  31.332  1.00  0.00    -0.206 F 
ATOM     68  C   UNL A   1      46.205  36.248  30.096  1.00  0.00     0.022 A 
BRANCH  65  69
ATOM     69  S   UNL A   1      44.895  37.468  27.955  1.00  0.00     0.124 S 
ATOM     70  O   UNL A   1      44.172  38.381  28.833  1.00  0.00    -0.237 OA
ATOM     71  O   UNL A   1      46.227  37.902  27.542  1.00  0.00    -0.237 OA
ATOM     72  O   UNL A   1      44.091  36.852  26.902  1.00  0.00    -0.744 OA
ENDBRANCH  65  69
ENDBRANCH  39  62
ENDBRANCH  13  14
ENDBRANCH   6   8
ENDBRANCH   3   4
ENDBRANCH   2   3
ENDBRANCH   1   2
BRANCH   1  73
ATOM     73  C   UNL A   1      34.443  21.644  26.706  1.00  0.00     0.116 C 
BRANCH  73  74
ATOM     74  N   UNL A   1      33.641  21.047  25.643  1.00  0.00    -0.354 N 
ATOM     75  C   UNL A   1      32.594  21.591  24.926  1.00  0.00     0.252 C 
ATOM     76  H   UNL A   1      33.882  20.124  25.402  1.00  0.00     0.163 HD
ATOM     77  O   UNL A   1      32.089  20.939  24.013  1.00  0.00    -0.272 OA
BRANCH  75  78
ATOM     78  C   UNL A   1      32.118  23.008  25.294  1.00  0.00     0.242 C 
ATOM     79  O   UNL A   1      32.190  24.038  24.294  1.00  0.00    -0.324 OA
ATOM     80  C   UNL A   1      30.653  22.971  25.742  1.00  0.00     0.184 C 
ATOM     81  C   UNL A   1      32.142  25.330  24.921  1.00  0.00     0.340 C 
ATOM     82  C   UNL A   1      30.426  24.233  26.567  1.00  0.00     0.181 C 
ATOM     83  C   UNL A   1      30.907  25.489  25.849  1.00  0.00     0.214 C 
BRANCH  80  84
ATOM     84  O   UNL A   1      30.286  21.863  26.551  1.00  0.00    -0.387 OA
ATOM     85  H   UNL A   1      29.852  22.181  27.358  1.00  0.00     0.211 HD
ENDBRANCH  80  84
BRANCH  81  86
ATOM     86  O   UNL A   1      32.157  26.473  24.033  1.00  0.00    -0.454 OA
BRANCH  86  87
ATOM     87  C   UNL A   1      32.392  27.722  24.571  1.00  0.00     0.214 A 
ATOM     88  C   UNL A   1      31.475  28.713  24.598  1.00  0.00     0.181 A 
ATOM     89  C   UNL A   1      33.632  27.895  25.387  1.00  0.00     0.239 A 
ATOM     90  O   UNL A   1      31.648  29.934  25.215  1.00  0.00    -0.452 OA
ATOM     91  C   UNL A   1      33.730  29.139  26.195  1.00  0.00     0.111 A 
ATOM     92  O   UNL A   1      34.484  27.013  25.412  1.00  0.00    -0.285 OA
ATOM     93  C   UNL A   1      32.722  30.093  26.049  1.00  0.00     0.146 A 
ATOM     94  C   UNL A   1      34.766  29.393  27.107  1.00  0.00     0.134 A 
ATOM     95  C   UNL A   1      32.746  31.283  26.782  1.00  0.00     0.094 A 
ATOM     96  C   UNL A   1      34.795  30.582  27.848  1.00  0.00     0.093 A 
ATOM     97  C   UNL A   1      33.780  31.517  27.677  1.00  0.00     0.123 A 
BRANCH  88  98
ATOM     98  C   UNL A   1      30.180  28.616  23.903  1.00  0.00     0.029 A 
ATOM     99  C   UNL A   1      29.411  27.447  24.062  1.00  0.00     0.062 A 
ATOM    100  C   UNL A   1      29.636  29.719  23.218  1.00  0.00     0.062 A 
ATOM    101  C   UNL A   1      28.083  27.437  23.646  1.00  0.00     0.162 A 
ATOM    102  C   UNL A   1      28.308  29.683  22.807  1.00  0.00     0.162 A 
ATOM    103  C   UNL A   1      27.522  28.563  23.057  1.00  0.00     0.200 A 
BRANCH 101 104
ATOM    104  O   UNL A   1      27.317  26.342  23.916  1.00  0.00    -0.504 OA
ATOM    105  H   UNL A   1      27.461  25.852  24.702  1.00  0.00     0.293 HD
ENDBRANCH 101 104
BRANCH 102 106
ATOM    106  O   UNL A   1      27.747  30.802  22.263  1.00  0.00    -0.504 OA
ATOM    107  H   UNL A   1      26.852  30.792  21.988  1.00  0.00     0.293 HD
ENDBRANCH 102 106
BRANCH 103 108
ATOM    108  O   UNL A   1      26.175  28.641  22.826  1.00  0.00    -0.502 OA
ATOM    109  H   UNL A   1      25.598  28.012  23.213  1.00  0.00     0.293 HD
ENDBRANCH 103 108
ENDBRANCH  88  98
BRANCH  94 110
ATOM    110  O   UNL A   1      35.754  28.474  27.320  1.00  0.00    -0.507 OA
ATOM    111  H   UNL A   1      36.565  28.542  26.857  1.00  0.00     0.293 HD
ENDBRANCH  94 110
BRANCH  97 112
ATOM    112  O   UNL A   1      33.753  32.682  28.384  1.00  0.00    -0.508 OA
ATOM    113  H   UNL A   1      33.010  32.889  28.917  1.00  0.00     0.293 HD
ENDBRANCH  97 112
ENDBRANCH  86  87
ENDBRANCH  81  86
BRANCH  82 114
ATOM    114  O   UNL A   1      29.016  24.357  26.879  1.00  0.00    -0.387 OA
ATOM    115  H   UNL A   1      28.877  24.187  27.823  1.00  0.00     0.211 HD
ENDBRANCH  82 114
BRANCH  83 116
ATOM    116  O   UNL A   1      31.107  26.533  26.814  1.00  0.00    -0.384 OA
ATOM    117  H   UNL A   1      30.716  27.357  26.484  1.00  0.00     0.211 HD
ENDBRANCH  83 116
ENDBRANCH  75  78
ENDBRANCH  73  74
ENDBRANCH   1  73
TORSDOF 25
ENDMDL
MODEL 3
REMARK VINA RESULT:     -12.9      1.402      7.095
REMARK SMILES O=C(NCCCCNC(=O)[C@H]1O[C@@H](Oc2c(-c3cc(O)c(O)c(O)c3)oc3cc(O)cc(O)c3c2=O)[C@H](O)[C@@H](O)[C@@H]1O)c1ccc(-c2c3nc(c(-c4cc(S(=O)(=O)[O-])ccc4F)c4ccc([nH]4)c(-c4cc(S(=O)(=O)[O-])ccc4F)c4nc(c(-c5cc(S(=O)(=O)[O-])ccc5F)c5ccc2[nH]5)C=C4)C=C3)cc1
REMARK SMILES IDX 6 1 5 2 4 3 3 4 1 5 2 6 43 8 44 9 105 10 45 11 104 12 46 13
REMARK SMILES IDX 47 14 48 15 98 16 49 17 103 18 97 19 99 20 50 21 102 22
REMARK SMILES IDX 96 23 95 24 51 26 83 27 63 28 82 29 64 30 67 31 81 32 100 33
REMARK SMILES IDX 65 34 66 35 80 37 101 38 68 39 52 40 53 41 61 42 54 43 60 44
REMARK SMILES IDX 62 45 59 46 55 47 56 48 57 49 58 50 84 51 85 52 93 53 86 54
REMARK SMILES IDX 92 55 94 56 91 57 87 58 88 59 89 60 90 61 69 62 70 63 78 64
REMARK SMILES IDX 71 65 77 66 79 67 76 68 72 69 73 70 74 71 75 72 7 73 8 74
REMARK SMILES IDX 9 75 10 77 11 78 12 79 41 80 13 81 39 82 37 83 42 84 14 86
REMARK SMILES IDX 15 87 16 88 35 89 26 90 34 91 36 92 27 93 32 94 28 95 31 96
REMARK SMILES IDX 29 97 17 98 18 99 25 100 19 101 23 102 21 103 20 104 24 106
REMARK SMILES IDX 22 108 33 110 30 112 40 114 38 116
REMARK H PARENT 3 7 99 25 67 36 8 76 42 85 20 105 24 107 22 109 33 111 30 113
REMARK H PARENT 40 115 38 117
REMARK Flexibility Score: inf
ROOT
ATOM      1  C   UNL A   1      32.552  29.303  26.098  1.00  0.00     0.023 C 
ENDROOT
BRANCH   1   2
ATOM      2  C   UNL A   1      32.220  30.767  26.344  1.00  0.00     0.023 C 
BRANCH   2   3
ATOM      3  C   UNL A   1      33.210  31.505  27.227  1.00  0.00     0.116 C 
BRANCH   3   4
ATOM      4  N   UNL A   1      32.858  32.902  27.454  1.00  0.00    -0.352 N 
ATOM      5  O   UNL A   1      32.955  34.923  28.464  1.00  0.00    -0.269 OA
ATOM      6  C   UNL A   1      33.439  33.805  28.317  1.00  0.00     0.251 C 
ATOM      7  H   UNL A   1      32.105  33.246  26.920  1.00  0.00     0.163 HD
BRANCH   6   8
ATOM      8  C   UNL A   1      34.630  33.393  29.090  1.00  0.00     0.039 A 
ATOM      9  C   UNL A   1      35.901  33.795  28.682  1.00  0.00     0.014 A 
ATOM     10  C   UNL A   1      34.476  32.533  30.180  1.00  0.00     0.014 A 
ATOM     11  C   UNL A   1      37.020  33.187  29.234  1.00  0.00     0.010 A 
ATOM     12  C   UNL A   1      35.609  32.005  30.807  1.00  0.00     0.010 A 
ATOM     13  C   UNL A   1      36.890  32.284  30.304  1.00  0.00    -0.014 A 
BRANCH  13  14
ATOM     14  C   UNL A   1      38.117  31.667  30.874  1.00  0.00     0.031 A 
ATOM     15  C   UNL A   1      38.591  32.014  32.260  1.00  0.00     0.074 A 
ATOM     16  C   UNL A   1      38.768  30.738  30.147  1.00  0.00     0.049 A 
ATOM     17  N   UNL A   1      39.612  31.535  32.927  1.00  0.00    -0.248 NA
ATOM     18  C   UNL A   1      37.832  33.039  32.989  1.00  0.00     0.031 C 
ATOM     19  C   UNL A   1      38.400  30.325  28.789  1.00  0.00     0.029 A 
ATOM     20  N   UNL A   1      39.846  29.948  30.451  1.00  0.00    -0.354 N 
ATOM     21  C   UNL A   1      39.636  32.218  34.139  1.00  0.00     0.074 A 
ATOM     22  C   UNL A   1      38.543  33.167  34.101  1.00  0.00     0.031 C 
ATOM     23  C   UNL A   1      39.191  29.314  28.406  1.00  0.00     0.029 A 
ATOM     24  C   UNL A   1      40.170  29.056  29.456  1.00  0.00     0.049 A 
ATOM     25  H   UNL A   1      40.340  30.013  31.300  1.00  0.00     0.167 HD
ATOM     26  C   UNL A   1      40.489  32.064  35.184  1.00  0.00     0.034 A 
ATOM     27  C   UNL A   1      41.151  28.136  29.388  1.00  0.00     0.034 A 
ATOM     28  C   UNL A   1      41.562  31.095  35.211  1.00  0.00     0.049 A 
ATOM     29  C   UNL A   1      42.083  27.989  30.558  1.00  0.00     0.074 A 
ATOM     30  C   UNL A   1      42.460  30.830  36.230  1.00  0.00     0.029 A 
ATOM     31  N   UNL A   1      41.886  30.236  34.167  1.00  0.00    -0.354 N 
ATOM     32  N   UNL A   1      42.086  28.640  31.699  1.00  0.00    -0.248 NA
ATOM     33  C   UNL A   1      43.142  26.982  30.431  1.00  0.00     0.031 C 
ATOM     34  C   UNL A   1      43.362  29.857  35.783  1.00  0.00     0.029 A 
ATOM     35  C   UNL A   1      42.985  29.460  34.509  1.00  0.00     0.049 A 
ATOM     36  H   UNL A   1      41.405  30.184  33.311  1.00  0.00     0.167 HD
ATOM     37  C   UNL A   1      43.138  28.104  32.433  1.00  0.00     0.074 A 
ATOM     38  C   UNL A   1      43.729  27.065  31.615  1.00  0.00     0.031 C 
ATOM     39  C   UNL A   1      43.576  28.441  33.673  1.00  0.00     0.034 A 
BRANCH  26  40
ATOM     40  C   UNL A   1      40.326  32.999  36.362  1.00  0.00     0.023 A 
ATOM     41  C   UNL A   1      39.589  32.642  37.504  1.00  0.00     0.031 A 
ATOM     42  C   UNL A   1      40.903  34.282  36.328  1.00  0.00     0.131 A 
ATOM     43  C   UNL A   1      39.389  33.579  38.531  1.00  0.00     0.055 A 
ATOM     44  C   UNL A   1      40.765  35.182  37.386  1.00  0.00     0.041 A 
ATOM     45  F   UNL A   1      41.603  34.689  35.256  1.00  0.00    -0.206 F 
ATOM     46  C   UNL A   1      39.992  34.838  38.490  1.00  0.00     0.022 A 
BRANCH  43  47
ATOM     47  S   UNL A   1      38.215  33.181  39.855  1.00  0.00     0.124 S 
ATOM     48  O   UNL A   1      36.999  32.892  39.097  1.00  0.00    -0.237 OA
ATOM     49  O   UNL A   1      38.847  32.039  40.506  1.00  0.00    -0.237 OA
ATOM     50  O   UNL A   1      38.165  34.405  40.652  1.00  0.00    -0.744 OA
ENDBRANCH  43  47
ENDBRANCH  26  40
BRANCH  27  51
ATOM     51  C   UNL A   1      41.311  27.303  28.165  1.00  0.00     0.023 A 
ATOM     52  C   UNL A   1      40.962  25.943  28.164  1.00  0.00     0.031 A 
ATOM     53  C   UNL A   1      41.833  27.853  26.980  1.00  0.00     0.131 A 
ATOM     54  C   UNL A   1      41.174  25.170  27.012  1.00  0.00     0.055 A 
ATOM     55  C   UNL A   1      41.992  27.092  25.821  1.00  0.00     0.041 A 
ATOM     56  F   UNL A   1      42.175  29.150  26.928  1.00  0.00    -0.206 F 
ATOM     57  C   UNL A   1      41.673  25.739  25.838  1.00  0.00     0.022 A 
BRANCH  54  58
ATOM     58  S   UNL A   1      40.853  23.388  27.093  1.00  0.00     0.124 S 
ATOM     59  O   UNL A   1      41.496  23.026  28.351  1.00  0.00    -0.237 OA
ATOM     60  O   UNL A   1      39.394  23.342  27.081  1.00  0.00    -0.237 OA
ATOM     61  O   UNL A   1      41.500  22.871  25.889  1.00  0.00    -0.744 OA
ENDBRANCH  54  58
ENDBRANCH  27  51
BRANCH  39  62
ATOM     62  C   UNL A   1      44.731  27.640  34.220  1.00  0.00     0.023 A 
ATOM     63  C   UNL A   1      44.528  26.446  34.935  1.00  0.00     0.031 A 
ATOM     64  C   UNL A   1      46.050  28.101  34.061  1.00  0.00     0.131 A 
ATOM     65  C   UNL A   1      45.619  25.790  35.523  1.00  0.00     0.055 A 
ATOM     66  C   UNL A   1      47.137  27.412  34.597  1.00  0.00     0.041 A 
ATOM     67  F   UNL A   1      46.300  29.236  33.390  1.00  0.00    -0.206 F 
ATOM     68  C   UNL A   1      46.925  26.258  35.347  1.00  0.00     0.022 A 
BRANCH  65  69
ATOM     69  S   UNL A   1      45.300  24.376  36.614  1.00  0.00     0.124 S 
ATOM     70  O   UNL A   1      46.641  24.044  37.082  1.00  0.00    -0.237 OA
ATOM     71  O   UNL A   1      44.401  24.950  37.611  1.00  0.00    -0.237 OA
ATOM     72  O   UNL A   1      44.690  23.388  35.726  1.00  0.00    -0.744 OA
ENDBRANCH  65  69
ENDBRANCH  39  62
ENDBRANCH  13  14
ENDBRANCH   6   8
ENDBRANCH   3   4
ENDBRANCH   2   3
ENDBRANCH   1   2
BRANCH   1  73
ATOM     73  C   UNL A   1      32.237  28.783  24.694  1.00  0.00     0.116 C 
BRANCH  73  74
ATOM     74  N   UNL A   1      30.817  28.573  24.428  1.00  0.00    -0.354 N 
ATOM     75  C   UNL A   1      30.191  27.513  23.802  1.00  0.00     0.252 C 
ATOM     76  H   UNL A   1      30.220  29.290  24.740  1.00  0.00     0.163 HD
ATOM     77  O   UNL A   1      28.962  27.495  23.737  1.00  0.00    -0.272 OA
BRANCH  75  78
ATOM     78  C   UNL A   1      31.068  26.386  23.228  1.00  0.00     0.242 C 
ATOM     79  O   UNL A   1      30.501  25.070  23.106  1.00  0.00    -0.324 OA
ATOM     80  C   UNL A   1      31.550  26.759  21.822  1.00  0.00     0.184 C 
ATOM     81  C   UNL A   1      31.553  24.097  22.992  1.00  0.00     0.340 C 
ATOM     82  C   UNL A   1      32.784  25.905  21.552  1.00  0.00     0.181 C 
ATOM     83  C   UNL A   1      32.540  24.427  21.840  1.00  0.00     0.214 C 
BRANCH  80  84
ATOM     84  O   UNL A   1      31.926  28.116  21.641  1.00  0.00    -0.387 OA
ATOM     85  H   UNL A   1      31.664  28.410  20.755  1.00  0.00     0.211 HD
ENDBRANCH  80  84
BRANCH  81  86
ATOM     86  O   UNL A   1      31.134  22.723  22.812  1.00  0.00    -0.454 OA
BRANCH  86  87
ATOM     87  C   UNL A   1      31.808  21.734  23.500  1.00  0.00     0.214 A 
ATOM     88  C   UNL A   1      32.064  21.781  24.826  1.00  0.00     0.181 A 
ATOM     89  C   UNL A   1      32.038  20.438  22.790  1.00  0.00     0.239 A 
ATOM     90  O   UNL A   1      32.646  20.767  25.555  1.00  0.00    -0.452 OA
ATOM     91  C   UNL A   1      32.496  19.295  23.623  1.00  0.00     0.111 A 
ATOM     92  O   UNL A   1      31.799  20.340  21.592  1.00  0.00    -0.285 OA
ATOM     93  C   UNL A   1      32.780  19.538  24.967  1.00  0.00     0.146 A 
ATOM     94  C   UNL A   1      32.635  17.986  23.135  1.00  0.00     0.134 A 
ATOM     95  C   UNL A   1      33.209  18.509  25.810  1.00  0.00     0.094 A 
ATOM     96  C   UNL A   1      33.060  16.949  23.974  1.00  0.00     0.093 A 
ATOM     97  C   UNL A   1      33.343  17.223  25.308  1.00  0.00     0.123 A 
BRANCH  88  98
ATOM     98  C   UNL A   1      31.794  22.976  25.644  1.00  0.00     0.029 A 
ATOM     99  C   UNL A   1      32.826  23.916  25.834  1.00  0.00     0.062 A 
ATOM    100  C   UNL A   1      30.496  23.267  26.103  1.00  0.00     0.062 A 
ATOM    101  C   UNL A   1      32.527  25.166  26.365  1.00  0.00     0.162 A 
ATOM    102  C   UNL A   1      30.222  24.523  26.634  1.00  0.00     0.162 A 
ATOM    103  C   UNL A   1      31.224  25.483  26.727  1.00  0.00     0.200 A 
BRANCH 101 104
ATOM    104  O   UNL A   1      33.512  26.107  26.429  1.00  0.00    -0.504 OA
ATOM    105  H   UNL A   1      34.074  26.146  27.179  1.00  0.00     0.293 HD
ENDBRANCH 101 104
BRANCH 102 106
ATOM    106  O   UNL A   1      28.935  24.846  26.955  1.00  0.00    -0.504 OA
ATOM    107  H   UNL A   1      28.662  25.742  26.951  1.00  0.00     0.293 HD
ENDBRANCH 102 106
BRANCH 103 108
ATOM    108  O   UNL A   1      30.877  26.765  27.060  1.00  0.00    -0.502 OA
ATOM    109  H   UNL A   1      30.008  27.072  26.894  1.00  0.00     0.293 HD
ENDBRANCH 103 108
ENDBRANCH  88  98
BRANCH  94 110
ATOM    110  O   UNL A   1      32.327  17.685  21.838  1.00  0.00    -0.507 OA
ATOM    111  H   UNL A   1      31.908  16.873  21.633  1.00  0.00     0.293 HD
ENDBRANCH  94 110
BRANCH  97 112
ATOM    112  O   UNL A   1      33.745  16.247  26.170  1.00  0.00    -0.508 OA
ATOM    113  H   UNL A   1      33.217  15.481  26.291  1.00  0.00     0.293 HD
ENDBRANCH  97 112
ENDBRANCH  86  87
ENDBRANCH  81  86
BRANCH  82 114
ATOM    114  O   UNL A   1      33.194  26.073  20.172  1.00  0.00    -0.387 OA
ATOM    115  H   UNL A   1      33.509  25.225  19.823  1.00  0.00     0.211 HD
ENDBRANCH  82 114
BRANCH  83 116
ATOM    116  O   UNL A   1      33.803  23.771  22.027  1.00  0.00    -0.384 OA
ATOM    117  H   UNL A   1      34.504  24.293  21.607  1.00  0.00     0.211 HD
ENDBRANCH  83 116
ENDBRANCH  75  78
ENDBRANCH  73  74
ENDBRANCH   1  73
TORSDOF 25
ENDMDL
