MODEL 1
REMARK VINA RESULT:     -11.0      0.000      0.000
REMARK SMILES CCOc1ccc(CC)cc1[C@@H]([NH3+])CC(=O)NCCCCNC(=O)c1ccc(-c2c3nc(c(-c4cc(S(=O)(=O)[O-])ccc4F)c4ccc([nH]4)c(-c4cc(S(=O)(=O)[O-])ccc4F)c4nc(c(-c5cc(S(=O)(=O)[O-])ccc5F)c5ccc2[nH]5)C=C4)C=C3)cc1
REMARK SMILES IDX 19 1 18 2 17 3 15 4 16 5 14 7 12 8 11 9 4 10 5 11 6 12 10 13
REMARK SMILES IDX 7 14 3 15 2 16 1 17 8 18 9 19 13 20 20 24 21 25 22 26 23 27
REMARK SMILES IDX 24 29 25 30 26 31 87 32 27 33 86 34 28 35 29 36 30 37 80 38
REMARK SMILES IDX 31 39 85 40 79 41 81 42 32 43 84 44 78 45 77 46 33 48 65 49
REMARK SMILES IDX 45 50 64 51 46 52 49 53 63 54 82 55 47 56 48 57 62 59 83 60
REMARK SMILES IDX 50 61 34 62 35 63 43 64 36 65 42 66 44 67 41 68 37 69 38 70
REMARK SMILES IDX 39 71 40 72 66 73 67 74 75 75 68 76 74 77 76 78 73 79 69 80
REMARK SMILES IDX 70 81 71 82 72 83 51 84 52 85 60 86 53 87 59 88 61 89 58 90
REMARK SMILES IDX 54 91 55 92 56 93 57 94
REMARK H PARENT 17 6 13 21 13 22 13 23 22 28 81 47 49 58
REMARK Flexibility Score: inf
ROOT
ATOM      1  C   UNL A   1      31.860  28.199  24.169  1.00  0.00     0.023 C 
ENDROOT
BRANCH   1   2
ATOM      2  C   UNL A   1      31.008  27.724  22.995  1.00  0.00     0.116 C 
BRANCH   2   3
ATOM      3  N   UNL A   1      31.854  27.146  21.967  1.00  0.00    -0.356 N 
ATOM      4  C   UNL A   1      32.411  25.905  21.884  1.00  0.00     0.226 C 
ATOM      5  O   UNL A   1      33.277  25.717  21.025  1.00  0.00    -0.275 OA
ATOM      6  H   UNL A   1      32.057  27.743  21.210  1.00  0.00     0.163 HD
BRANCH   4   7
ATOM      7  C   UNL A   1      31.960  24.768  22.782  1.00  0.00     0.170 C 
BRANCH   7   8
ATOM      8  C   UNL A   1      32.895  24.554  23.988  1.00  0.00     0.225 C 
BRANCH   8   9
ATOM      9  C   UNL A   1      33.246  23.096  24.218  1.00  0.00     0.052 A 
ATOM     10  C   UNL A   1      34.103  22.690  25.250  1.00  0.00     0.128 A 
ATOM     11  C   UNL A   1      34.381  21.333  25.445  1.00  0.00     0.047 A 
ATOM     12  C   UNL A   1      33.783  20.360  24.627  1.00  0.00     0.007 A 
ATOM     13  C   UNL A   1      32.705  22.106  23.373  1.00  0.00     0.017 A 
ATOM     14  C   UNL A   1      32.938  20.737  23.575  1.00  0.00    -0.048 A 
BRANCH  10  15
ATOM     15  O   UNL A   1      34.775  23.623  25.996  1.00  0.00    -0.493 OA
BRANCH  15  16
ATOM     16  C   UNL A   1      36.174  23.340  26.130  1.00  0.00     0.226 C 
ATOM     17  C   UNL A   1      36.812  23.388  24.750  1.00  0.00     0.049 C 
ENDBRANCH  15  16
ENDBRANCH  10  15
BRANCH  14  18
ATOM     18  C   UNL A   1      32.149  19.744  22.751  1.00  0.00     0.032 C 
ATOM     19  C   UNL A   1      32.532  18.283  22.915  1.00  0.00     0.009 C 
ENDBRANCH  14  18
ENDBRANCH   8   9
BRANCH   8  20
ATOM     20  N   UNL A   1      34.147  25.316  23.801  1.00  0.00    -0.351 N 
ATOM     21  H   UNL A   1      33.928  26.250  23.455  1.00  0.00     0.345 HD
ATOM     22  H   UNL A   1      34.741  24.834  23.127  1.00  0.00     0.345 HD
ATOM     23  H   UNL A   1      34.636  25.390  24.694  1.00  0.00     0.345 HD
ENDBRANCH   8  20
ENDBRANCH   7   8
ENDBRANCH   4   7
ENDBRANCH   2   3
ENDBRANCH   1   2
BRANCH   1  24
ATOM     24  C   UNL A   1      31.390  29.460  24.876  1.00  0.00     0.023 C 
BRANCH  24  25
ATOM     25  C   UNL A   1      32.408  30.030  25.851  1.00  0.00     0.116 C 
BRANCH  25  26
ATOM     26  N   UNL A   1      32.065  31.352  26.368  1.00  0.00    -0.352 N 
ATOM     27  C   UNL A   1      32.785  32.180  27.197  1.00  0.00     0.251 C 
ATOM     28  H   UNL A   1      31.190  31.701  26.081  1.00  0.00     0.163 HD
ATOM     29  O   UNL A   1      32.302  33.248  27.561  1.00  0.00    -0.269 OA
BRANCH  27  30
ATOM     30  C   UNL A   1      34.107  31.739  27.692  1.00  0.00     0.039 A 
ATOM     31  C   UNL A   1      35.079  32.702  27.974  1.00  0.00     0.014 A 
ATOM     32  C   UNL A   1      34.351  30.393  27.966  1.00  0.00     0.014 A 
ATOM     33  C   UNL A   1      36.255  32.321  28.624  1.00  0.00     0.010 A 
ATOM     34  C   UNL A   1      35.463  30.038  28.717  1.00  0.00     0.010 A 
ATOM     35  C   UNL A   1      36.429  30.996  29.054  1.00  0.00    -0.014 A 
BRANCH  35  36
ATOM     36  C   UNL A   1      37.616  30.580  29.845  1.00  0.00     0.031 A 
ATOM     37  C   UNL A   1      38.632  29.653  29.230  1.00  0.00     0.074 A 
ATOM     38  C   UNL A   1      37.729  30.956  31.134  1.00  0.00     0.049 A 
ATOM     39  N   UNL A   1      39.668  29.075  29.781  1.00  0.00    -0.248 NA
ATOM     40  C   UNL A   1      38.419  29.285  27.822  1.00  0.00     0.031 C 
ATOM     41  C   UNL A   1      36.770  31.791  31.863  1.00  0.00     0.029 A 
ATOM     42  N   UNL A   1      38.696  30.680  32.067  1.00  0.00    -0.354 N 
ATOM     43  C   UNL A   1      40.207  28.253  28.797  1.00  0.00     0.074 A 
ATOM     44  C   UNL A   1      39.336  28.348  27.646  1.00  0.00     0.031 C 
ATOM     45  C   UNL A   1      37.216  31.988  33.114  1.00  0.00     0.029 A 
ATOM     46  C   UNL A   1      38.468  31.262  33.292  1.00  0.00     0.049 A 
ATOM     47  H   UNL A   1      39.481  30.116  31.877  1.00  0.00     0.167 HD
ATOM     48  C   UNL A   1      41.343  27.512  28.837  1.00  0.00     0.034 A 
ATOM     49  C   UNL A   1      39.188  31.213  34.430  1.00  0.00     0.034 A 
ATOM     50  C   UNL A   1      42.222  27.467  29.978  1.00  0.00     0.049 A 
ATOM     51  C   UNL A   1      40.468  30.418  34.440  1.00  0.00     0.074 A 
ATOM     52  C   UNL A   1      43.436  26.818  30.110  1.00  0.00     0.029 A 
ATOM     53  N   UNL A   1      41.981  28.108  31.188  1.00  0.00    -0.354 N 
ATOM     54  N   UNL A   1      40.997  29.692  33.483  1.00  0.00    -0.248 NA
ATOM     55  C   UNL A   1      41.253  30.446  35.680  1.00  0.00     0.031 C 
ATOM     56  C   UNL A   1      43.904  27.023  31.413  1.00  0.00     0.029 A 
ATOM     57  C   UNL A   1      43.014  27.851  32.077  1.00  0.00     0.049 A 
ATOM     58  H   UNL A   1      41.192  28.661  31.386  1.00  0.00     0.167 HD
ATOM     59  C   UNL A   1      42.190  29.196  33.998  1.00  0.00     0.074 A 
ATOM     60  C   UNL A   1      42.311  29.723  35.343  1.00  0.00     0.031 C 
ATOM     61  C   UNL A   1      43.106  28.380  33.417  1.00  0.00     0.034 A 
BRANCH  48  62
ATOM     62  C   UNL A   1      41.678  26.694  27.612  1.00  0.00     0.023 A 
ATOM     63  C   UNL A   1      41.346  25.329  27.525  1.00  0.00     0.031 A 
ATOM     64  C   UNL A   1      42.385  27.266  26.541  1.00  0.00     0.131 A 
ATOM     65  C   UNL A   1      41.807  24.564  26.444  1.00  0.00     0.055 A 
ATOM     66  C   UNL A   1      42.761  26.518  25.423  1.00  0.00     0.041 A 
ATOM     67  F   UNL A   1      42.747  28.559  26.573  1.00  0.00    -0.206 F 
ATOM     68  C   UNL A   1      42.490  25.153  25.379  1.00  0.00     0.022 A 
BRANCH  65  69
ATOM     69  S   UNL A   1      41.644  22.759  26.535  1.00  0.00     0.124 S 
ATOM     70  O   UNL A   1      42.248  22.347  25.271  1.00  0.00    -0.237 OA
ATOM     71  O   UNL A   1      42.400  22.435  27.739  1.00  0.00    -0.237 OA
ATOM     72  O   UNL A   1      40.202  22.549  26.628  1.00  0.00    -0.744 OA
ENDBRANCH  65  69
ENDBRANCH  48  62
BRANCH  49  73
ATOM     73  C   UNL A   1      38.733  31.942  35.648  1.00  0.00     0.023 A 
ATOM     74  C   UNL A   1      38.140  31.255  36.719  1.00  0.00     0.031 A 
ATOM     75  C   UNL A   1      38.850  33.340  35.745  1.00  0.00     0.131 A 
ATOM     76  C   UNL A   1      37.643  31.969  37.821  1.00  0.00     0.055 A 
ATOM     77  C   UNL A   1      38.396  34.041  36.863  1.00  0.00     0.041 A 
ATOM     78  F   UNL A   1      39.420  34.044  34.753  1.00  0.00    -0.206 F 
ATOM     79  C   UNL A   1      37.777  33.357  37.905  1.00  0.00     0.022 A 
BRANCH  76  80
ATOM     80  S   UNL A   1      36.749  31.061  39.111  1.00  0.00     0.124 S 
ATOM     81  O   UNL A   1      36.602  29.744  38.502  1.00  0.00    -0.237 OA
ATOM     82  O   UNL A   1      37.673  31.148  40.237  1.00  0.00    -0.237 OA
ATOM     83  O   UNL A   1      35.509  31.820  39.265  1.00  0.00    -0.744 OA
ENDBRANCH  76  80
ENDBRANCH  49  73
BRANCH  61  84
ATOM     84  C   UNL A   1      44.330  28.046  34.229  1.00  0.00     0.023 A 
ATOM     85  C   UNL A   1      44.384  26.900  35.041  1.00  0.00     0.031 A 
ATOM     86  C   UNL A   1      45.450  28.896  34.204  1.00  0.00     0.131 A 
ATOM     87  C   UNL A   1      45.513  26.664  35.838  1.00  0.00     0.055 A 
ATOM     88  C   UNL A   1      46.594  28.625  34.956  1.00  0.00     0.041 A 
ATOM     89  F   UNL A   1      45.449  30.004  33.445  1.00  0.00    -0.206 F 
ATOM     90  C   UNL A   1      46.625  27.510  35.789  1.00  0.00     0.022 A 
BRANCH  87  91
ATOM     91  S   UNL A   1      45.475  25.280  37.009  1.00  0.00     0.124 S 
ATOM     92  O   UNL A   1      45.601  24.129  36.121  1.00  0.00    -0.237 OA
ATOM     93  O   UNL A   1      46.627  25.558  37.861  1.00  0.00    -0.237 OA
ATOM     94  O   UNL A   1      44.175  25.419  37.662  1.00  0.00    -0.744 OA
ENDBRANCH  87  91
ENDBRANCH  61  84
ENDBRANCH  35  36
ENDBRANCH  27  30
ENDBRANCH  25  26
ENDBRANCH  24  25
ENDBRANCH   1  24
TORSDOF 20
ENDMDL
MODEL 2
REMARK VINA RESULT:     -10.9      5.143      8.156
REMARK SMILES CCOc1ccc(CC)cc1[C@@H]([NH3+])CC(=O)NCCCCNC(=O)c1ccc(-c2c3nc(c(-c4cc(S(=O)(=O)[O-])ccc4F)c4ccc([nH]4)c(-c4cc(S(=O)(=O)[O-])ccc4F)c4nc(c(-c5cc(S(=O)(=O)[O-])ccc5F)c5ccc2[nH]5)C=C4)C=C3)cc1
REMARK SMILES IDX 19 1 18 2 17 3 15 4 16 5 14 7 12 8 11 9 4 10 5 11 6 12 10 13
REMARK SMILES IDX 7 14 3 15 2 16 1 17 8 18 9 19 13 20 20 24 21 25 22 26 23 27
REMARK SMILES IDX 24 29 25 30 26 31 87 32 27 33 86 34 28 35 29 36 30 37 80 38
REMARK SMILES IDX 31 39 85 40 79 41 81 42 32 43 84 44 78 45 77 46 33 48 65 49
REMARK SMILES IDX 45 50 64 51 46 52 49 53 63 54 82 55 47 56 48 57 62 59 83 60
REMARK SMILES IDX 50 61 34 62 35 63 43 64 36 65 42 66 44 67 41 68 37 69 38 70
REMARK SMILES IDX 39 71 40 72 66 73 67 74 75 75 68 76 74 77 76 78 73 79 69 80
REMARK SMILES IDX 70 81 71 82 72 83 51 84 52 85 60 86 53 87 59 88 61 89 58 90
REMARK SMILES IDX 54 91 55 92 56 93 57 94
REMARK H PARENT 17 6 13 21 13 22 13 23 22 28 81 47 49 58
REMARK Flexibility Score: inf
ROOT
ATOM      1  C   UNL A   1      35.707  23.234  24.274  1.00  0.00     0.023 C 
ENDROOT
BRANCH   1   2
ATOM      2  C   UNL A   1      34.267  22.867  23.929  1.00  0.00     0.116 C 
BRANCH   2   3
ATOM      3  N   UNL A   1      33.912  23.407  22.629  1.00  0.00    -0.356 N 
ATOM      4  C   UNL A   1      33.497  24.658  22.282  1.00  0.00     0.226 C 
ATOM      5  O   UNL A   1      33.038  24.821  21.148  1.00  0.00    -0.275 OA
ATOM      6  H   UNL A   1      33.984  22.772  21.880  1.00  0.00     0.163 HD
BRANCH   4   7
ATOM      7  C   UNL A   1      33.628  25.833  23.233  1.00  0.00     0.170 C 
BRANCH   7   8
ATOM      8  C   UNL A   1      32.615  26.956  22.937  1.00  0.00     0.225 C 
BRANCH   8   9
ATOM      9  C   UNL A   1      32.527  27.987  24.046  1.00  0.00     0.052 A 
ATOM     10  C   UNL A   1      31.449  28.876  24.154  1.00  0.00     0.128 A 
ATOM     11  C   UNL A   1      31.393  29.795  25.207  1.00  0.00     0.047 A 
ATOM     12  C   UNL A   1      32.403  29.820  26.182  1.00  0.00     0.007 A 
ATOM     13  C   UNL A   1      33.559  28.072  25.003  1.00  0.00     0.017 A 
ATOM     14  C   UNL A   1      33.504  28.959  26.089  1.00  0.00    -0.048 A 
BRANCH  10  15
ATOM     15  O   UNL A   1      30.504  28.937  23.162  1.00  0.00    -0.493 OA
BRANCH  15  16
ATOM     16  C   UNL A   1      29.680  30.108  23.238  1.00  0.00     0.226 C 
ATOM     17  C   UNL A   1      28.222  29.678  23.194  1.00  0.00     0.049 C 
ENDBRANCH  15  16
ENDBRANCH  10  15
BRANCH  14  18
ATOM     18  C   UNL A   1      34.549  28.830  27.175  1.00  0.00     0.032 C 
ATOM     19  C   UNL A   1      35.263  30.112  27.572  1.00  0.00     0.009 C 
ENDBRANCH  14  18
ENDBRANCH   8   9
BRANCH   8  20
ATOM     20  N   UNL A   1      32.972  27.644  21.680  1.00  0.00    -0.351 N 
ATOM     21  H   UNL A   1      32.297  27.401  20.955  1.00  0.00     0.345 HD
ATOM     22  H   UNL A   1      33.905  27.353  21.387  1.00  0.00     0.345 HD
ATOM     23  H   UNL A   1      32.963  28.653  21.830  1.00  0.00     0.345 HD
ENDBRANCH   8  20
ENDBRANCH   7   8
ENDBRANCH   4   7
ENDBRANCH   2   3
ENDBRANCH   1   2
BRANCH   1  24
ATOM     24  C   UNL A   1      36.694  22.081  24.360  1.00  0.00     0.023 C 
BRANCH  24  25
ATOM     25  C   UNL A   1      37.206  21.819  25.768  1.00  0.00     0.116 C 
BRANCH  25  26
ATOM     26  N   UNL A   1      38.402  20.982  25.822  1.00  0.00    -0.352 N 
ATOM     27  C   UNL A   1      39.659  21.284  26.292  1.00  0.00     0.251 C 
ATOM     28  H   UNL A   1      38.292  20.068  25.472  1.00  0.00     0.163 HD
ATOM     29  O   UNL A   1      40.557  20.451  26.210  1.00  0.00    -0.269 OA
BRANCH  27  30
ATOM     30  C   UNL A   1      39.927  22.637  26.827  1.00  0.00     0.039 A 
ATOM     31  C   UNL A   1      40.817  22.777  27.895  1.00  0.00     0.014 A 
ATOM     32  C   UNL A   1      39.378  23.765  26.217  1.00  0.00     0.014 A 
ATOM     33  C   UNL A   1      41.230  24.053  28.282  1.00  0.00     0.010 A 
ATOM     34  C   UNL A   1      39.881  25.022  26.524  1.00  0.00     0.010 A 
ATOM     35  C   UNL A   1      40.811  25.182  27.560  1.00  0.00    -0.014 A 
BRANCH  35  36
ATOM     36  C   UNL A   1      41.318  26.543  27.873  1.00  0.00     0.031 A 
ATOM     37  C   UNL A   1      42.730  26.915  27.503  1.00  0.00     0.074 A 
ATOM     38  C   UNL A   1      40.546  27.403  28.567  1.00  0.00     0.049 A 
ATOM     39  N   UNL A   1      43.404  27.998  27.790  1.00  0.00    -0.248 NA
ATOM     40  C   UNL A   1      43.501  25.908  26.759  1.00  0.00     0.031 C 
ATOM     41  C   UNL A   1      39.188  27.130  29.047  1.00  0.00     0.029 A 
ATOM     42  N   UNL A   1      40.794  28.682  28.999  1.00  0.00    -0.354 N 
ATOM     43  C   UNL A   1      44.685  27.786  27.290  1.00  0.00     0.074 A 
ATOM     44  C   UNL A   1      44.712  26.443  26.757  1.00  0.00     0.031 C 
ATOM     45  C   UNL A   1      38.712  28.219  29.671  1.00  0.00     0.029 A 
ATOM     46  C   UNL A   1      39.741  29.253  29.676  1.00  0.00     0.049 A 
ATOM     47  H   UNL A   1      41.647  29.147  28.840  1.00  0.00     0.167 HD
ATOM     48  C   UNL A   1      45.735  28.645  27.249  1.00  0.00     0.034 A 
ATOM     49  C   UNL A   1      39.623  30.472  30.237  1.00  0.00     0.034 A 
ATOM     50  C   UNL A   1      45.674  29.997  27.745  1.00  0.00     0.049 A 
ATOM     51  C   UNL A   1      40.785  31.425  30.145  1.00  0.00     0.074 A 
ATOM     52  C   UNL A   1      46.642  30.983  27.690  1.00  0.00     0.029 A 
ATOM     53  N   UNL A   1      44.573  30.557  28.385  1.00  0.00    -0.354 N 
ATOM     54  N   UNL A   1      41.972  31.232  29.617  1.00  0.00    -0.248 NA
ATOM     55  C   UNL A   1      40.588  32.765  30.713  1.00  0.00     0.031 C 
ATOM     56  C   UNL A   1      46.148  32.120  28.340  1.00  0.00     0.029 A 
ATOM     57  C   UNL A   1      44.848  31.866  28.747  1.00  0.00     0.049 A 
ATOM     58  H   UNL A   1      43.725  30.091  28.558  1.00  0.00     0.167 HD
ATOM     59  C   UNL A   1      42.655  32.435  29.768  1.00  0.00     0.074 A 
ATOM     60  C   UNL A   1      41.739  33.351  30.418  1.00  0.00     0.031 C 
ATOM     61  C   UNL A   1      43.922  32.758  29.404  1.00  0.00     0.034 A 
BRANCH  48  62
ATOM     62  C   UNL A   1      47.025  28.132  26.656  1.00  0.00     0.023 A 
ATOM     63  C   UNL A   1      47.273  28.188  25.272  1.00  0.00     0.031 A 
ATOM     64  C   UNL A   1      47.997  27.528  27.471  1.00  0.00     0.131 A 
ATOM     65  C   UNL A   1      48.410  27.564  24.737  1.00  0.00     0.055 A 
ATOM     66  C   UNL A   1      49.173  26.991  26.942  1.00  0.00     0.041 A 
ATOM     67  F   UNL A   1      47.811  27.428  28.797  1.00  0.00    -0.206 F 
ATOM     68  C   UNL A   1      49.376  26.989  25.565  1.00  0.00     0.022 A 
BRANCH  65  69
ATOM     69  S   UNL A   1      48.521  27.372  22.937  1.00  0.00     0.124 S 
ATOM     70  O   UNL A   1      48.302  25.936  22.782  1.00  0.00    -0.237 OA
ATOM     71  O   UNL A   1      47.448  28.237  22.460  1.00  0.00    -0.237 OA
ATOM     72  O   UNL A   1      49.874  27.826  22.626  1.00  0.00    -0.744 OA
ENDBRANCH  65  69
ENDBRANCH  48  62
BRANCH  49  73
ATOM     73  C   UNL A   1      38.361  30.871  30.924  1.00  0.00     0.023 A 
ATOM     74  C   UNL A   1      37.427  31.703  30.287  1.00  0.00     0.031 A 
ATOM     75  C   UNL A   1      38.087  30.457  32.239  1.00  0.00     0.131 A 
ATOM     76  C   UNL A   1      36.285  32.136  30.980  1.00  0.00     0.055 A 
ATOM     77  C   UNL A   1      36.927  30.851  32.909  1.00  0.00     0.041 A 
ATOM     78  F   UNL A   1      38.941  29.651  32.889  1.00  0.00    -0.206 F 
ATOM     79  C   UNL A   1      36.024  31.706  32.283  1.00  0.00     0.022 A 
BRANCH  76  80
ATOM     80  S   UNL A   1      35.182  33.331  30.177  1.00  0.00     0.124 S 
ATOM     81  O   UNL A   1      34.048  32.490  29.812  1.00  0.00    -0.237 OA
ATOM     82  O   UNL A   1      34.948  34.293  31.250  1.00  0.00    -0.237 OA
ATOM     83  O   UNL A   1      35.978  33.829  29.057  1.00  0.00    -0.744 OA
ENDBRANCH  76  80
ENDBRANCH  49  73
BRANCH  61  84
ATOM     84  C   UNL A   1      44.366  34.172  29.672  1.00  0.00     0.023 A 
ATOM     85  C   UNL A   1      44.194  35.190  28.719  1.00  0.00     0.031 A 
ATOM     86  C   UNL A   1      44.985  34.500  30.891  1.00  0.00     0.131 A 
ATOM     87  C   UNL A   1      44.688  36.477  28.977  1.00  0.00     0.055 A 
ATOM     88  C   UNL A   1      45.422  35.797  31.166  1.00  0.00     0.041 A 
ATOM     89  F   UNL A   1      45.172  33.564  31.836  1.00  0.00    -0.206 F 
ATOM     90  C   UNL A   1      45.286  36.791  30.201  1.00  0.00     0.022 A 
BRANCH  87  91
ATOM     91  S   UNL A   1      44.615  37.716  27.656  1.00  0.00     0.124 S 
ATOM     92  O   UNL A   1      44.751  38.963  28.401  1.00  0.00    -0.237 OA
ATOM     93  O   UNL A   1      45.752  37.348  26.817  1.00  0.00    -0.237 OA
ATOM     94  O   UNL A   1      43.303  37.495  27.051  1.00  0.00    -0.744 OA
ENDBRANCH  87  91
ENDBRANCH  61  84
ENDBRANCH  35  36
ENDBRANCH  27  30
ENDBRANCH  25  26
ENDBRANCH  24  25
ENDBRANCH   1  24
TORSDOF 20
ENDMDL
MODEL 3
REMARK VINA RESULT:     -10.8      2.499      8.167
REMARK SMILES CCOc1ccc(CC)cc1[C@@H]([NH3+])CC(=O)NCCCCNC(=O)c1ccc(-c2c3nc(c(-c4cc(S(=O)(=O)[O-])ccc4F)c4ccc([nH]4)c(-c4cc(S(=O)(=O)[O-])ccc4F)c4nc(c(-c5cc(S(=O)(=O)[O-])ccc5F)c5ccc2[nH]5)C=C4)C=C3)cc1
REMARK SMILES IDX 19 1 18 2 17 3 15 4 16 5 14 7 12 8 11 9 4 10 5 11 6 12 10 13
REMARK SMILES IDX 7 14 3 15 2 16 1 17 8 18 9 19 13 20 20 24 21 25 22 26 23 27
REMARK SMILES IDX 24 29 25 30 26 31 87 32 27 33 86 34 28 35 29 36 30 37 80 38
REMARK SMILES IDX 31 39 85 40 79 41 81 42 32 43 84 44 78 45 77 46 33 48 65 49
REMARK SMILES IDX 45 50 64 51 46 52 49 53 63 54 82 55 47 56 48 57 62 59 83 60
REMARK SMILES IDX 50 61 34 62 35 63 43 64 36 65 42 66 44 67 41 68 37 69 38 70
REMARK SMILES IDX 39 71 40 72 66 73 67 74 75 75 68 76 74 77 76 78 73 79 69 80
REMARK SMILES IDX 70 81 71 82 72 83 51 84 52 85 60 86 53 87 59 88 61 89 58 90
REMARK SMILES IDX 54 91 55 92 56 93 57 94
REMARK H PARENT 17 6 13 21 13 22 13 23 22 28 81 47 49 58
REMARK Flexibility Score: inf
ROOT
ATOM      1  C   UNL A   1      31.277  27.444  26.436  1.00  0.00     0.023 C 
ENDROOT
BRANCH   1   2
ATOM      2  C   UNL A   1      31.917  26.083  26.175  1.00  0.00     0.116 C 
BRANCH   2   3
ATOM      3  N   UNL A   1      31.083  25.028  26.722  1.00  0.00    -0.356 N 
ATOM      4  C   UNL A   1      31.338  23.699  26.877  1.00  0.00     0.226 C 
ATOM      5  O   UNL A   1      30.393  22.957  27.158  1.00  0.00    -0.275 OA
ATOM      6  H   UNL A   1      30.193  25.318  27.029  1.00  0.00     0.163 HD
BRANCH   4   7
ATOM      7  C   UNL A   1      32.744  23.138  26.754  1.00  0.00     0.170 C 
BRANCH   7   8
ATOM      8  C   UNL A   1      32.883  22.126  25.600  1.00  0.00     0.225 C 
BRANCH   8   9
ATOM      9  C   UNL A   1      34.179  22.281  24.825  1.00  0.00     0.052 A 
ATOM     10  C   UNL A   1      34.324  23.221  23.797  1.00  0.00     0.128 A 
ATOM     11  C   UNL A   1      35.544  23.351  23.124  1.00  0.00     0.047 A 
ATOM     12  C   UNL A   1      36.644  22.559  23.489  1.00  0.00     0.007 A 
ATOM     13  C   UNL A   1      35.279  21.456  25.134  1.00  0.00     0.017 A 
ATOM     14  C   UNL A   1      36.523  21.596  24.499  1.00  0.00    -0.048 A 
BRANCH  10  15
ATOM     15  O   UNL A   1      33.239  23.935  23.356  1.00  0.00    -0.493 OA
BRANCH  15  16
ATOM     16  C   UNL A   1      33.588  25.207  22.795  1.00  0.00     0.226 C 
ATOM     17  C   UNL A   1      32.316  25.896  22.328  1.00  0.00     0.049 C 
ENDBRANCH  15  16
ENDBRANCH  10  15
BRANCH  14  18
ATOM     18  C   UNL A   1      37.699  20.813  25.042  1.00  0.00     0.032 C 
ATOM     19  C   UNL A   1      38.769  21.622  25.754  1.00  0.00     0.009 C 
ENDBRANCH  14  18
ENDBRANCH   8   9
BRANCH   8  20
ATOM     20  N   UNL A   1      32.808  20.747  26.123  1.00  0.00    -0.351 N 
ATOM     21  H   UNL A   1      33.751  20.393  26.285  1.00  0.00     0.345 HD
ATOM     22  H   UNL A   1      32.334  20.152  25.444  1.00  0.00     0.345 HD
ATOM     23  H   UNL A   1      32.288  20.743  27.000  1.00  0.00     0.345 HD
ENDBRANCH   8  20
ENDBRANCH   7   8
ENDBRANCH   4   7
ENDBRANCH   2   3
ENDBRANCH   1   2
BRANCH   1  24
ATOM     24  C   UNL A   1      32.103  28.433  27.244  1.00  0.00     0.023 C 
BRANCH  24  25
ATOM     25  C   UNL A   1      32.947  29.366  26.390  1.00  0.00     0.116 C 
BRANCH  25  26
ATOM     26  N   UNL A   1      32.765  30.783  26.695  1.00  0.00    -0.352 N 
ATOM     27  C   UNL A   1      33.600  31.646  27.366  1.00  0.00     0.251 C 
ATOM     28  H   UNL A   1      31.922  31.177  26.374  1.00  0.00     0.163 HD
ATOM     29  O   UNL A   1      33.247  32.805  27.564  1.00  0.00    -0.269 OA
BRANCH  27  30
ATOM     30  C   UNL A   1      34.885  31.145  27.899  1.00  0.00     0.039 A 
ATOM     31  C   UNL A   1      35.939  32.044  28.079  1.00  0.00     0.014 A 
ATOM     32  C   UNL A   1      35.017  29.816  28.306  1.00  0.00     0.014 A 
ATOM     33  C   UNL A   1      37.085  31.630  28.761  1.00  0.00     0.010 A 
ATOM     34  C   UNL A   1      36.104  29.444  29.085  1.00  0.00     0.010 A 
ATOM     35  C   UNL A   1      37.152  30.345  29.321  1.00  0.00    -0.014 A 
BRANCH  35  36
ATOM     36  C   UNL A   1      38.308  29.909  30.145  1.00  0.00     0.031 A 
ATOM     37  C   UNL A   1      38.464  30.439  31.546  1.00  0.00     0.074 A 
ATOM     38  C   UNL A   1      39.257  29.118  29.606  1.00  0.00     0.049 A 
ATOM     39  N   UNL A   1      39.454  30.284  32.387  1.00  0.00    -0.248 NA
ATOM     40  C   UNL A   1      37.385  31.306  32.045  1.00  0.00     0.031 C 
ATOM     41  C   UNL A   1      39.255  28.602  28.235  1.00  0.00     0.029 A 
ATOM     42  N   UNL A   1      40.415  28.615  30.143  1.00  0.00    -0.354 N 
ATOM     43  C   UNL A   1      39.132  31.059  33.496  1.00  0.00     0.074 A 
ATOM     44  C   UNL A   1      37.896  31.743  33.185  1.00  0.00     0.031 C 
ATOM     45  C   UNL A   1      40.336  27.827  28.052  1.00  0.00     0.029 A 
ATOM     46  C   UNL A   1      41.131  27.824  29.274  1.00  0.00     0.049 A 
ATOM     47  H   UNL A   1      40.708  28.803  31.064  1.00  0.00     0.167 HD
ATOM     48  C   UNL A   1      39.787  31.164  34.679  1.00  0.00     0.034 A 
ATOM     49  C   UNL A   1      42.298  27.172  29.447  1.00  0.00     0.034 A 
ATOM     50  C   UNL A   1      40.993  30.438  34.986  1.00  0.00     0.049 A 
ATOM     51  C   UNL A   1      42.989  27.269  30.782  1.00  0.00     0.074 A 
ATOM     52  C   UNL A   1      41.704  30.402  36.172  1.00  0.00     0.029 A 
ATOM     53  N   UNL A   1      41.666  29.608  34.095  1.00  0.00    -0.354 N 
ATOM     54  N   UNL A   1      42.641  27.960  31.843  1.00  0.00    -0.248 NA
ATOM     55  C   UNL A   1      44.222  26.490  30.946  1.00  0.00     0.031 C 
ATOM     56  C   UNL A   1      42.831  29.595  35.985  1.00  0.00     0.029 A 
ATOM     57  C   UNL A   1      42.793  29.074  34.701  1.00  0.00     0.049 A 
ATOM     58  H   UNL A   1      41.384  29.428  33.170  1.00  0.00     0.167 HD
ATOM     59  C   UNL A   1      43.601  27.678  32.810  1.00  0.00     0.074 A 
ATOM     60  C   UNL A   1      44.529  26.740  32.210  1.00  0.00     0.031 C 
ATOM     61  C   UNL A   1      43.710  28.149  34.078  1.00  0.00     0.034 A 
BRANCH  48  62
ATOM     62  C   UNL A   1      39.208  32.105  35.708  1.00  0.00     0.023 A 
ATOM     63  C   UNL A   1      39.613  33.450  35.788  1.00  0.00     0.031 A 
ATOM     64  C   UNL A   1      38.280  31.643  36.658  1.00  0.00     0.131 A 
ATOM     65  C   UNL A   1      39.173  34.253  36.850  1.00  0.00     0.055 A 
ATOM     66  C   UNL A   1      37.774  32.476  37.659  1.00  0.00     0.041 A 
ATOM     67  F   UNL A   1      37.868  30.365  36.646  1.00  0.00    -0.206 F 
ATOM     68  C   UNL A   1      38.235  33.785  37.772  1.00  0.00     0.022 A 
BRANCH  65  69
ATOM     69  S   UNL A   1      39.972  35.862  37.102  1.00  0.00     0.124 S 
ATOM     70  O   UNL A   1      41.369  35.472  37.275  1.00  0.00    -0.237 OA
ATOM     71  O   UNL A   1      39.655  36.569  35.867  1.00  0.00    -0.237 OA
ATOM     72  O   UNL A   1      39.325  36.382  38.304  1.00  0.00    -0.744 OA
ENDBRANCH  65  69
ENDBRANCH  48  62
BRANCH  49  73
ATOM     73  C   UNL A   1      42.883  26.360  28.342  1.00  0.00     0.023 A 
ATOM     74  C   UNL A   1      43.936  26.862  27.560  1.00  0.00     0.031 A 
ATOM     75  C   UNL A   1      42.377  25.087  28.027  1.00  0.00     0.131 A 
ATOM     76  C   UNL A   1      44.419  26.117  26.472  1.00  0.00     0.055 A 
ATOM     77  C   UNL A   1      42.891  24.330  26.973  1.00  0.00     0.041 A 
ATOM     78  F   UNL A   1      41.378  24.556  28.750  1.00  0.00    -0.206 F 
ATOM     79  C   UNL A   1      43.910  24.850  26.180  1.00  0.00     0.022 A 
BRANCH  76  80
ATOM     80  S   UNL A   1      45.672  26.864  25.396  1.00  0.00     0.124 S 
ATOM     81  O   UNL A   1      44.880  27.827  24.639  1.00  0.00    -0.237 OA
ATOM     82  O   UNL A   1      46.608  27.425  26.366  1.00  0.00    -0.237 OA
ATOM     83  O   UNL A   1      46.180  25.731  24.626  1.00  0.00    -0.744 OA
ENDBRANCH  76  80
ENDBRANCH  49  73
BRANCH  61  84
ATOM     84  C   UNL A   1      44.855  27.620  34.903  1.00  0.00     0.023 A 
ATOM     85  C   UNL A   1      44.729  26.450  35.671  1.00  0.00     0.031 A 
ATOM     86  C   UNL A   1      46.081  28.307  34.933  1.00  0.00     0.131 A 
ATOM     87  C   UNL A   1      45.793  26.032  36.482  1.00  0.00     0.055 A 
ATOM     88  C   UNL A   1      47.156  27.854  35.698  1.00  0.00     0.041 A 
ATOM     89  F   UNL A   1      46.253  29.430  34.217  1.00  0.00    -0.206 F 
ATOM     90  C   UNL A   1      47.012  26.717  36.489  1.00  0.00     0.022 A 
BRANCH  87  91
ATOM     91  S   UNL A   1      45.534  24.627  37.598  1.00  0.00     0.124 S 
ATOM     92  O   UNL A   1      46.533  24.873  38.633  1.00  0.00    -0.237 OA
ATOM     93  O   UNL A   1      44.143  24.799  38.002  1.00  0.00    -0.237 OA
ATOM     94  O   UNL A   1      45.794  23.464  36.751  1.00  0.00    -0.744 OA
ENDBRANCH  87  91
ENDBRANCH  61  84
ENDBRANCH  35  36
ENDBRANCH  27  30
ENDBRANCH  25  26
ENDBRANCH  24  25
ENDBRANCH   1  24
TORSDOF 20
ENDMDL
