MODEL 1
REMARK VINA RESULT:     -12.9      0.000      0.000
REMARK SMILES C[C@H]1OCC[C@@H]1C(=O)Nc1ccc(Cl)c(C(=O)NCCCCNC(=O)c2ccc(-c3c4nc(c(-c5cc(S(=O)(=O)[O-])ccc5F)c5ccc([nH]5)c(-c5cc(S(=O)(=O)[O-])ccc5F)c5nc(c(-c6cc(S(=O)(=O)[O-])ccc6F)c6ccc3[nH]6)C=C5)C=C4)cc2)c1
REMARK SMILES IDX 21 1 20 2 19 3 18 4 16 5 17 6 15 8 10 9 11 10 89 11 12 12
REMARK SMILES IDX 13 13 14 14 9 15 7 16 8 17 6 19 1 20 2 21 3 22 4 23 5 24
REMARK SMILES IDX 22 25 23 26 24 27 25 29 26 30 27 31 88 32 28 33 87 34 29 35
REMARK SMILES IDX 30 36 31 37 81 38 32 39 86 40 80 41 82 42 33 43 85 44 79 45
REMARK SMILES IDX 78 46 34 48 66 49 46 50 65 51 47 52 50 53 64 54 83 55 48 56
REMARK SMILES IDX 49 57 63 59 84 60 51 61 35 62 36 63 44 64 37 65 43 66 45 67
REMARK SMILES IDX 42 68 38 69 39 70 40 71 41 72 67 73 68 74 76 75 69 76 75 77
REMARK SMILES IDX 77 78 74 79 70 80 71 81 72 82 73 83 52 84 53 85 61 86 54 87
REMARK SMILES IDX 60 88 62 89 59 90 55 91 56 92 57 93 58 94
REMARK H PARENT 18 7 9 18 23 28 82 47 50 58
REMARK Flexibility Score: inf
ROOT
ATOM      1  C   UNL A   1      36.219  20.908  25.167  1.00  0.00     0.023 C 
ENDROOT
BRANCH   1   2
ATOM      2  C   UNL A   1      35.354  21.956  25.859  1.00  0.00     0.023 C 
BRANCH   2   3
ATOM      3  C   UNL A   1      34.373  21.440  26.900  1.00  0.00     0.116 C 
BRANCH   3   4
ATOM      4  N   UNL A   1      33.696  20.195  26.585  1.00  0.00    -0.352 N 
ATOM      5  C   UNL A   1      32.796  19.921  25.575  1.00  0.00     0.252 C 
ATOM      6  O   UNL A   1      32.387  18.771  25.426  1.00  0.00    -0.269 OA
ATOM      7  H   UNL A   1      33.909  19.438  27.177  1.00  0.00     0.163 HD
BRANCH   5   8
ATOM      8  C   UNL A   1      32.201  21.004  24.749  1.00  0.00     0.060 A 
ATOM      9  C   UNL A   1      31.057  23.134  24.720  1.00  0.00     0.042 A 
ATOM     10  C   UNL A   1      31.398  23.288  23.385  1.00  0.00     0.028 A 
ATOM     11  C   UNL A   1      31.591  22.068  25.441  1.00  0.00     0.041 A 
ATOM     12  C   UNL A   1      31.927  22.214  22.685  1.00  0.00     0.023 A 
ATOM     13  C   UNL A   1      32.181  21.019  23.352  1.00  0.00     0.053 A 
ATOM     14  Cl  UNL A   1      32.266  19.600  22.371  1.00  0.00    -0.083 Cl
BRANCH   9  15
ATOM     15  N   UNL A   1      30.158  24.011  25.330  1.00  0.00    -0.326 N 
ATOM     16  C   UNL A   1      30.364  25.309  25.724  1.00  0.00     0.230 C 
ATOM     17  O   UNL A   1      29.478  25.836  26.412  1.00  0.00    -0.274 OA
ATOM     18  H   UNL A   1      29.257  23.652  25.499  1.00  0.00     0.169 HD
BRANCH  16  19
ATOM     19  C   UNL A   1      31.563  26.176  25.284  1.00  0.00     0.110 C 
ATOM     20  C   UNL A   1      34.065  25.725  25.377  1.00  0.00     0.039 C 
ATOM     21  C   UNL A   1      32.804  26.060  26.168  1.00  0.00     0.127 C 
ATOM     22  O   UNL A   1      33.000  27.348  26.769  1.00  0.00    -0.378 OA
ATOM     23  C   UNL A   1      32.421  28.337  25.918  1.00  0.00     0.161 C 
ATOM     24  C   UNL A   1      31.321  27.663  25.119  1.00  0.00     0.044 C 
ENDBRANCH  16  19
ENDBRANCH   9  15
ENDBRANCH   5   8
ENDBRANCH   3   4
ENDBRANCH   2   3
ENDBRANCH   1   2
BRANCH   1  25
ATOM     25  C   UNL A   1      37.667  21.294  24.874  1.00  0.00     0.116 C 
BRANCH  25  26
ATOM     26  N   UNL A   1      38.658  20.374  25.419  1.00  0.00    -0.352 N 
ATOM     27  C   UNL A   1      39.718  20.609  26.265  1.00  0.00     0.251 C 
ATOM     28  H   UNL A   1      38.553  19.437  25.136  1.00  0.00     0.163 HD
ATOM     29  O   UNL A   1      40.477  19.688  26.562  1.00  0.00    -0.269 OA
BRANCH  27  30
ATOM     30  C   UNL A   1      39.977  21.976  26.768  1.00  0.00     0.039 A 
ATOM     31  C   UNL A   1      41.001  22.166  27.698  1.00  0.00     0.014 A 
ATOM     32  C   UNL A   1      39.261  23.071  26.280  1.00  0.00     0.014 A 
ATOM     33  C   UNL A   1      41.395  23.463  28.038  1.00  0.00     0.010 A 
ATOM     34  C   UNL A   1      39.709  24.360  26.553  1.00  0.00     0.010 A 
ATOM     35  C   UNL A   1      40.800  24.570  27.411  1.00  0.00    -0.014 A 
BRANCH  35  36
ATOM     36  C   UNL A   1      41.333  25.947  27.588  1.00  0.00     0.031 A 
ATOM     37  C   UNL A   1      42.690  26.309  27.052  1.00  0.00     0.074 A 
ATOM     38  C   UNL A   1      40.638  26.839  28.325  1.00  0.00     0.049 A 
ATOM     39  N   UNL A   1      43.384  27.405  27.225  1.00  0.00    -0.248 NA
ATOM     40  C   UNL A   1      43.368  25.287  26.242  1.00  0.00     0.031 C 
ATOM     41  C   UNL A   1      39.330  26.594  28.938  1.00  0.00     0.029 A 
ATOM     42  N   UNL A   1      40.940  28.125  28.702  1.00  0.00    -0.354 N 
ATOM     43  C   UNL A   1      44.589  27.199  26.561  1.00  0.00     0.074 A 
ATOM     44  C   UNL A   1      44.549  25.851  26.032  1.00  0.00     0.031 C 
ATOM     45  C   UNL A   1      38.938  27.696  29.598  1.00  0.00     0.029 A 
ATOM     46  C   UNL A   1      39.984  28.708  29.503  1.00  0.00     0.049 A 
ATOM     47  H   UNL A   1      41.764  28.587  28.425  1.00  0.00     0.167 HD
ATOM     48  C   UNL A   1      45.623  28.061  26.394  1.00  0.00     0.034 A 
ATOM     49  C   UNL A   1      39.961  29.909  30.113  1.00  0.00     0.034 A 
ATOM     50  C   UNL A   1      45.640  29.406  26.915  1.00  0.00     0.049 A 
ATOM     51  C   UNL A   1      41.135  30.839  29.938  1.00  0.00     0.074 A 
ATOM     52  C   UNL A   1      46.603  30.386  26.741  1.00  0.00     0.029 A 
ATOM     53  N   UNL A   1      44.653  29.961  27.721  1.00  0.00    -0.354 N 
ATOM     54  N   UNL A   1      42.245  30.647  29.263  1.00  0.00    -0.248 NA
ATOM     55  C   UNL A   1      41.052  32.144  30.605  1.00  0.00     0.031 C 
ATOM     56  C   UNL A   1      46.231  31.506  27.492  1.00  0.00     0.029 A 
ATOM     57  C   UNL A   1      45.001  31.254  28.081  1.00  0.00     0.049 A 
ATOM     58  H   UNL A   1      43.827  29.502  27.997  1.00  0.00     0.167 HD
ATOM     59  C   UNL A   1      42.981  31.819  29.407  1.00  0.00     0.074 A 
ATOM     60  C   UNL A   1      42.185  32.714  30.220  1.00  0.00     0.031 C 
ATOM     61  C   UNL A   1      44.205  32.129  28.907  1.00  0.00     0.034 A 
BRANCH  48  62
ATOM     62  C   UNL A   1      46.827  27.558  25.635  1.00  0.00     0.023 A 
ATOM     63  C   UNL A   1      47.081  27.952  24.310  1.00  0.00     0.031 A 
ATOM     64  C   UNL A   1      47.719  26.650  26.233  1.00  0.00     0.131 A 
ATOM     65  C   UNL A   1      48.148  27.382  23.601  1.00  0.00     0.055 A 
ATOM     66  C   UNL A   1      48.827  26.148  25.549  1.00  0.00     0.041 A 
ATOM     67  F   UNL A   1      47.518  26.224  27.491  1.00  0.00    -0.206 F 
ATOM     68  C   UNL A   1      49.038  26.501  24.219  1.00  0.00     0.022 A 
BRANCH  65  69
ATOM     69  S   UNL A   1      48.270  27.699  21.820  1.00  0.00     0.124 S 
ATOM     70  O   UNL A   1      46.953  28.261  21.530  1.00  0.00    -0.237 OA
ATOM     71  O   UNL A   1      49.392  28.627  21.741  1.00  0.00    -0.237 OA
ATOM     72  O   UNL A   1      48.513  26.375  21.251  1.00  0.00    -0.744 OA
ENDBRANCH  65  69
ENDBRANCH  48  62
BRANCH  49  73
ATOM     73  C   UNL A   1      38.804  30.301  30.966  1.00  0.00     0.023 A 
ATOM     74  C   UNL A   1      37.724  31.022  30.433  1.00  0.00     0.031 A 
ATOM     75  C   UNL A   1      38.779  29.994  32.339  1.00  0.00     0.131 A 
ATOM     76  C   UNL A   1      36.684  31.449  31.274  1.00  0.00     0.055 A 
ATOM     77  C   UNL A   1      37.719  30.378  33.161  1.00  0.00     0.041 A 
ATOM     78  F   UNL A   1      39.785  29.302  32.898  1.00  0.00    -0.206 F 
ATOM     79  C   UNL A   1      36.669  31.121  32.632  1.00  0.00     0.022 A 
BRANCH  76  80
ATOM     80  S   UNL A   1      35.385  32.505  30.579  1.00  0.00     0.124 S 
ATOM     81  O   UNL A   1      35.032  31.783  29.363  1.00  0.00    -0.237 OA
ATOM     82  O   UNL A   1      34.387  32.498  31.644  1.00  0.00    -0.237 OA
ATOM     83  O   UNL A   1      36.062  33.784  30.372  1.00  0.00    -0.744 OA
ENDBRANCH  76  80
ENDBRANCH  49  73
BRANCH  61  84
ATOM     84  C   UNL A   1      44.734  33.510  29.202  1.00  0.00     0.023 A 
ATOM     85  C   UNL A   1      44.387  34.617  28.410  1.00  0.00     0.031 A 
ATOM     86  C   UNL A   1      45.602  33.716  30.288  1.00  0.00     0.131 A 
ATOM     87  C   UNL A   1      44.939  35.876  28.689  1.00  0.00     0.055 A 
ATOM     88  C   UNL A   1      46.107  34.981  30.594  1.00  0.00     0.041 A 
ATOM     89  F   UNL A   1      45.968  32.691  31.074  1.00  0.00    -0.206 F 
ATOM     90  C   UNL A   1      45.784  36.068  29.786  1.00  0.00     0.022 A 
BRANCH  87  91
ATOM     91  S   UNL A   1      44.594  37.252  27.559  1.00  0.00     0.124 S 
ATOM     92  O   UNL A   1      43.422  36.766  26.839  1.00  0.00    -0.237 OA
ATOM     93  O   UNL A   1      44.363  38.362  28.478  1.00  0.00    -0.237 OA
ATOM     94  O   UNL A   1      45.815  37.355  26.761  1.00  0.00    -0.744 OA
ENDBRANCH  87  91
ENDBRANCH  61  84
ENDBRANCH  35  36
ENDBRANCH  27  30
ENDBRANCH  25  26
ENDBRANCH   1  25
TORSDOF 16
ENDMDL
MODEL 2
REMARK VINA RESULT:     -12.9      1.345      7.698
REMARK SMILES C[C@H]1OCC[C@@H]1C(=O)Nc1ccc(Cl)c(C(=O)NCCCCNC(=O)c2ccc(-c3c4nc(c(-c5cc(S(=O)(=O)[O-])ccc5F)c5ccc([nH]5)c(-c5cc(S(=O)(=O)[O-])ccc5F)c5nc(c(-c6cc(S(=O)(=O)[O-])ccc6F)c6ccc3[nH]6)C=C5)C=C4)cc2)c1
REMARK SMILES IDX 21 1 20 2 19 3 18 4 16 5 17 6 15 8 10 9 11 10 89 11 12 12
REMARK SMILES IDX 13 13 14 14 9 15 7 16 8 17 6 19 1 20 2 21 3 22 4 23 5 24
REMARK SMILES IDX 22 25 23 26 24 27 25 29 26 30 27 31 88 32 28 33 87 34 29 35
REMARK SMILES IDX 30 36 31 37 81 38 32 39 86 40 80 41 82 42 33 43 85 44 79 45
REMARK SMILES IDX 78 46 34 48 66 49 46 50 65 51 47 52 50 53 64 54 83 55 48 56
REMARK SMILES IDX 49 57 63 59 84 60 51 61 35 62 36 63 44 64 37 65 43 66 45 67
REMARK SMILES IDX 42 68 38 69 39 70 40 71 41 72 67 73 68 74 76 75 69 76 75 77
REMARK SMILES IDX 77 78 74 79 70 80 71 81 72 82 73 83 52 84 53 85 61 86 54 87
REMARK SMILES IDX 60 88 62 89 59 90 55 91 56 92 57 93 58 94
REMARK H PARENT 18 7 9 18 23 28 82 47 50 58
REMARK Flexibility Score: inf
ROOT
ATOM      1  C   UNL A   1      35.242  21.232  25.018  1.00  0.00     0.023 C 
ENDROOT
BRANCH   1   2
ATOM      2  C   UNL A   1      34.256  20.883  26.128  1.00  0.00     0.023 C 
BRANCH   2   3
ATOM      3  C   UNL A   1      34.143  21.881  27.268  1.00  0.00     0.116 C 
BRANCH   3   4
ATOM      4  N   UNL A   1      32.807  22.366  27.569  1.00  0.00    -0.352 N 
ATOM      5  C   UNL A   1      32.026  23.265  26.871  1.00  0.00     0.252 C 
ATOM      6  O   UNL A   1      30.879  23.491  27.253  1.00  0.00    -0.269 OA
ATOM      7  H   UNL A   1      32.401  22.001  28.388  1.00  0.00     0.163 HD
BRANCH   5   8
ATOM      8  C   UNL A   1      32.580  24.072  25.753  1.00  0.00     0.060 A 
ATOM      9  C   UNL A   1      33.509  26.190  25.050  1.00  0.00     0.042 A 
ATOM     10  C   UNL A   1      33.990  25.586  23.898  1.00  0.00     0.028 A 
ATOM     11  C   UNL A   1      32.941  25.401  26.047  1.00  0.00     0.041 A 
ATOM     12  C   UNL A   1      33.571  24.305  23.571  1.00  0.00     0.023 A 
ATOM     13  C   UNL A   1      32.736  23.613  24.442  1.00  0.00     0.053 A 
ATOM     14  Cl  UNL A   1      31.804  22.333  23.752  1.00  0.00    -0.083 Cl
BRANCH   9  15
ATOM     15  N   UNL A   1      33.553  27.578  25.195  1.00  0.00    -0.326 N 
ATOM     16  C   UNL A   1      32.649  28.513  24.758  1.00  0.00     0.230 C 
ATOM     17  O   UNL A   1      32.985  29.703  24.838  1.00  0.00    -0.274 OA
ATOM     18  H   UNL A   1      34.336  27.934  25.674  1.00  0.00     0.169 HD
BRANCH  16  19
ATOM     19  C   UNL A   1      31.219  28.187  24.278  1.00  0.00     0.110 C 
ATOM     20  C   UNL A   1      30.267  26.096  23.183  1.00  0.00     0.039 C 
ATOM     21  C   UNL A   1      31.140  27.337  23.011  1.00  0.00     0.127 C 
ATOM     22  O   UNL A   1      30.530  28.157  22.004  1.00  0.00    -0.378 OA
ATOM     23  C   UNL A   1      29.714  29.134  22.651  1.00  0.00     0.161 C 
ATOM     24  C   UNL A   1      30.283  29.354  24.040  1.00  0.00     0.044 C 
ENDBRANCH  16  19
ENDBRANCH   9  15
ENDBRANCH   5   8
ENDBRANCH   3   4
ENDBRANCH   2   3
ENDBRANCH   1   2
BRANCH   1  25
ATOM     25  C   UNL A   1      36.583  21.821  25.448  1.00  0.00     0.116 C 
BRANCH  25  26
ATOM     26  N   UNL A   1      37.693  20.876  25.420  1.00  0.00    -0.352 N 
ATOM     27  C   UNL A   1      38.987  21.012  25.873  1.00  0.00     0.251 C 
ATOM     28  H   UNL A   1      37.485  20.005  25.013  1.00  0.00     0.163 HD
ATOM     29  O   UNL A   1      39.792  20.099  25.699  1.00  0.00    -0.269 OA
BRANCH  27  30
ATOM     30  C   UNL A   1      39.421  22.273  26.512  1.00  0.00     0.039 A 
ATOM     31  C   UNL A   1      40.406  22.220  27.502  1.00  0.00     0.014 A 
ATOM     32  C   UNL A   1      38.910  23.505  26.097  1.00  0.00     0.014 A 
ATOM     33  C   UNL A   1      40.972  23.406  27.979  1.00  0.00     0.010 A 
ATOM     34  C   UNL A   1      39.532  24.680  26.510  1.00  0.00     0.010 A 
ATOM     35  C   UNL A   1      40.590  24.642  27.432  1.00  0.00    -0.014 A 
BRANCH  35  36
ATOM     36  C   UNL A   1      41.315  25.898  27.760  1.00  0.00     0.031 A 
ATOM     37  C   UNL A   1      40.617  27.005  28.498  1.00  0.00     0.074 A 
ATOM     38  C   UNL A   1      42.571  26.079  27.301  1.00  0.00     0.049 A 
ATOM     39  N   UNL A   1      41.030  28.221  28.753  1.00  0.00    -0.248 NA
ATOM     40  C   UNL A   1      39.260  26.716  28.983  1.00  0.00     0.031 C 
ATOM     41  C   UNL A   1      43.342  25.097  26.533  1.00  0.00     0.029 A 
ATOM     42  N   UNL A   1      43.416  27.158  27.392  1.00  0.00    -0.354 N 
ATOM     43  C   UNL A   1      39.978  28.848  29.411  1.00  0.00     0.074 A 
ATOM     44  C   UNL A   1      38.890  27.893  29.464  1.00  0.00     0.031 C 
ATOM     45  C   UNL A   1      44.547  25.613  26.240  1.00  0.00     0.029 A 
ATOM     46  C   UNL A   1      44.619  26.978  26.748  1.00  0.00     0.049 A 
ATOM     47  H   UNL A   1      43.182  27.985  27.873  1.00  0.00     0.167 HD
ATOM     48  C   UNL A   1      39.932  30.097  29.938  1.00  0.00     0.034 A 
ATOM     49  C   UNL A   1      45.654  27.821  26.566  1.00  0.00     0.034 A 
ATOM     50  C   UNL A   1      41.032  31.031  29.889  1.00  0.00     0.049 A 
ATOM     51  C   UNL A   1      45.569  29.215  27.133  1.00  0.00     0.074 A 
ATOM     52  C   UNL A   1      41.117  32.292  30.455  1.00  0.00     0.029 A 
ATOM     53  N   UNL A   1      42.234  30.812  29.229  1.00  0.00    -0.354 N 
ATOM     54  N   UNL A   1      44.585  29.775  27.799  1.00  0.00    -0.248 NA
ATOM     55  C   UNL A   1      46.731  30.088  26.926  1.00  0.00     0.031 C 
ATOM     56  C   UNL A   1      42.341  32.858  30.083  1.00  0.00     0.029 A 
ATOM     57  C   UNL A   1      43.052  31.926  29.343  1.00  0.00     0.049 A 
ATOM     58  H   UNL A   1      42.471  29.985  28.749  1.00  0.00     0.167 HD
ATOM     59  C   UNL A   1      45.023  31.059  28.110  1.00  0.00     0.074 A 
ATOM     60  C   UNL A   1      46.361  31.185  27.571  1.00  0.00     0.031 C 
ATOM     61  C   UNL A   1      44.377  32.044  28.784  1.00  0.00     0.034 A 
BRANCH  48  62
ATOM     62  C   UNL A   1      38.639  30.527  30.589  1.00  0.00     0.023 A 
ATOM     63  C   UNL A   1      37.658  31.239  29.879  1.00  0.00     0.031 A 
ATOM     64  C   UNL A   1      38.396  30.245  31.945  1.00  0.00     0.131 A 
ATOM     65  C   UNL A   1      36.519  31.714  30.544  1.00  0.00     0.055 A 
ATOM     66  C   UNL A   1      37.222  30.651  32.581  1.00  0.00     0.041 A 
ATOM     67  F   UNL A   1      39.305  29.583  32.679  1.00  0.00    -0.206 F 
ATOM     68  C   UNL A   1      36.281  31.404  31.885  1.00  0.00     0.022 A 
BRANCH  65  69
ATOM     69  S   UNL A   1      35.423  32.864  29.669  1.00  0.00     0.124 S 
ATOM     70  O   UNL A   1      34.420  31.955  29.120  1.00  0.00    -0.237 OA
ATOM     71  O   UNL A   1      34.970  33.744  30.739  1.00  0.00    -0.237 OA
ATOM     72  O   UNL A   1      36.298  33.486  28.677  1.00  0.00    -0.744 OA
ENDBRANCH  65  69
ENDBRANCH  48  62
BRANCH  49  73
ATOM     73  C   UNL A   1      46.853  27.389  25.793  1.00  0.00     0.023 A 
ATOM     74  C   UNL A   1      47.059  27.824  24.474  1.00  0.00     0.031 A 
ATOM     75  C   UNL A   1      47.793  26.502  26.349  1.00  0.00     0.131 A 
ATOM     76  C   UNL A   1      48.153  27.341  23.740  1.00  0.00     0.055 A 
ATOM     77  C   UNL A   1      48.906  26.063  25.631  1.00  0.00     0.041 A 
ATOM     78  F   UNL A   1      47.647  26.060  27.608  1.00  0.00    -0.206 F 
ATOM     79  C   UNL A   1      49.085  26.473  24.314  1.00  0.00     0.022 A 
BRANCH  76  80
ATOM     80  S   UNL A   1      48.300  27.807  21.993  1.00  0.00     0.124 S 
ATOM     81  O   UNL A   1      47.070  28.560  21.781  1.00  0.00    -0.237 OA
ATOM     82  O   UNL A   1      49.537  28.581  21.990  1.00  0.00    -0.237 OA
ATOM     83  O   UNL A   1      48.371  26.520  21.304  1.00  0.00    -0.744 OA
ENDBRANCH  76  80
ENDBRANCH  49  73
BRANCH  61  84
ATOM     84  C   UNL A   1      45.132  33.331  29.004  1.00  0.00     0.023 A 
ATOM     85  C   UNL A   1      44.978  34.432  28.145  1.00  0.00     0.031 A 
ATOM     86  C   UNL A   1      46.021  33.452  30.086  1.00  0.00     0.131 A 
ATOM     87  C   UNL A   1      45.736  35.594  28.357  1.00  0.00     0.055 A 
ATOM     88  C   UNL A   1      46.733  34.628  30.323  1.00  0.00     0.041 A 
ATOM     89  F   UNL A   1      46.208  32.427  30.935  1.00  0.00    -0.206 F 
ATOM     90  C   UNL A   1      46.600  35.705  29.450  1.00  0.00     0.022 A 
BRANCH  87  91
ATOM     91  S   UNL A   1      45.630  36.938  27.144  1.00  0.00     0.124 S 
ATOM     92  O   UNL A   1      44.195  37.005  26.890  1.00  0.00    -0.237 OA
ATOM     93  O   UNL A   1      46.201  38.066  27.876  1.00  0.00    -0.237 OA
ATOM     94  O   UNL A   1      46.438  36.456  26.025  1.00  0.00    -0.744 OA
ENDBRANCH  87  91
ENDBRANCH  61  84
ENDBRANCH  35  36
ENDBRANCH  27  30
ENDBRANCH  25  26
ENDBRANCH   1  25
TORSDOF 16
ENDMDL
MODEL 3
REMARK VINA RESULT:     -12.9      5.077      8.011
REMARK SMILES C[C@H]1OCC[C@@H]1C(=O)Nc1ccc(Cl)c(C(=O)NCCCCNC(=O)c2ccc(-c3c4nc(c(-c5cc(S(=O)(=O)[O-])ccc5F)c5ccc([nH]5)c(-c5cc(S(=O)(=O)[O-])ccc5F)c5nc(c(-c6cc(S(=O)(=O)[O-])ccc6F)c6ccc3[nH]6)C=C5)C=C4)cc2)c1
REMARK SMILES IDX 21 1 20 2 19 3 18 4 16 5 17 6 15 8 10 9 11 10 89 11 12 12
REMARK SMILES IDX 13 13 14 14 9 15 7 16 8 17 6 19 1 20 2 21 3 22 4 23 5 24
REMARK SMILES IDX 22 25 23 26 24 27 25 29 26 30 27 31 88 32 28 33 87 34 29 35
REMARK SMILES IDX 30 36 31 37 81 38 32 39 86 40 80 41 82 42 33 43 85 44 79 45
REMARK SMILES IDX 78 46 34 48 66 49 46 50 65 51 47 52 50 53 64 54 83 55 48 56
REMARK SMILES IDX 49 57 63 59 84 60 51 61 35 62 36 63 44 64 37 65 43 66 45 67
REMARK SMILES IDX 42 68 38 69 39 70 40 71 41 72 67 73 68 74 76 75 69 76 75 77
REMARK SMILES IDX 77 78 74 79 70 80 71 81 72 82 73 83 52 84 53 85 61 86 54 87
REMARK SMILES IDX 60 88 62 89 59 90 55 91 56 92 57 93 58 94
REMARK H PARENT 18 7 9 18 23 28 82 47 50 58
REMARK Flexibility Score: inf
ROOT
ATOM      1  C   UNL A   1      31.448  29.365  25.348  1.00  0.00     0.023 C 
ENDROOT
BRANCH   1   2
ATOM      2  C   UNL A   1      31.959  29.314  23.913  1.00  0.00     0.023 C 
BRANCH   2   3
ATOM      3  C   UNL A   1      33.416  28.922  23.728  1.00  0.00     0.116 C 
BRANCH   3   4
ATOM      4  N   UNL A   1      33.694  27.949  22.686  1.00  0.00    -0.352 N 
ATOM      5  C   UNL A   1      33.428  26.595  22.663  1.00  0.00     0.252 C 
ATOM      6  O   UNL A   1      33.675  25.949  21.645  1.00  0.00    -0.269 OA
ATOM      7  H   UNL A   1      34.135  28.307  21.883  1.00  0.00     0.163 HD
BRANCH   5   8
ATOM      8  C   UNL A   1      32.981  25.869  23.879  1.00  0.00     0.060 A 
ATOM      9  C   UNL A   1      33.617  24.514  25.779  1.00  0.00     0.042 A 
ATOM     10  C   UNL A   1      32.398  24.797  26.376  1.00  0.00     0.028 A 
ATOM     11  C   UNL A   1      33.970  25.175  24.604  1.00  0.00     0.041 A 
ATOM     12  C   UNL A   1      31.399  25.411  25.636  1.00  0.00     0.023 A 
ATOM     13  C   UNL A   1      31.659  25.805  24.327  1.00  0.00     0.053 A 
ATOM     14  Cl  UNL A   1      30.283  26.004  23.302  1.00  0.00    -0.083 Cl
BRANCH   9  15
ATOM     15  N   UNL A   1      34.468  23.549  26.322  1.00  0.00    -0.326 N 
ATOM     16  C   UNL A   1      34.516  22.205  26.054  1.00  0.00     0.230 C 
ATOM     17  O   UNL A   1      35.229  21.509  26.791  1.00  0.00    -0.274 OA
ATOM     18  H   UNL A   1      35.119  23.876  26.984  1.00  0.00     0.169 HD
BRANCH  16  19
ATOM     19  C   UNL A   1      33.831  21.529  24.848  1.00  0.00     0.110 C 
ATOM     20  C   UNL A   1      31.785  22.213  23.498  1.00  0.00     0.039 C 
ATOM     21  C   UNL A   1      32.308  21.650  24.817  1.00  0.00     0.127 C 
ATOM     22  O   UNL A   1      31.788  20.319  24.955  1.00  0.00    -0.378 OA
ATOM     23  C   UNL A   1      32.766  19.400  24.470  1.00  0.00     0.161 C 
ATOM     24  C   UNL A   1      34.125  20.061  24.615  1.00  0.00     0.044 C 
ENDBRANCH  16  19
ENDBRANCH   9  15
ENDBRANCH   5   8
ENDBRANCH   3   4
ENDBRANCH   2   3
ENDBRANCH   1   2
BRANCH   1  25
ATOM     25  C   UNL A   1      32.430  29.848  26.413  1.00  0.00     0.116 C 
BRANCH  25  26
ATOM     26  N   UNL A   1      32.266  31.247  26.792  1.00  0.00    -0.352 N 
ATOM     27  C   UNL A   1      33.142  32.106  27.418  1.00  0.00     0.251 C 
ATOM     28  H   UNL A   1      31.392  31.638  26.567  1.00  0.00     0.163 HD
ATOM     29  O   UNL A   1      32.780  33.246  27.701  1.00  0.00    -0.269 OA
BRANCH  27  30
ATOM     30  C   UNL A   1      34.492  31.639  27.801  1.00  0.00     0.039 A 
ATOM     31  C   UNL A   1      35.510  32.584  27.958  1.00  0.00     0.014 A 
ATOM     32  C   UNL A   1      34.741  30.291  28.067  1.00  0.00     0.014 A 
ATOM     33  C   UNL A   1      36.735  32.196  28.507  1.00  0.00     0.010 A 
ATOM     34  C   UNL A   1      35.929  29.923  28.692  1.00  0.00     0.010 A 
ATOM     35  C   UNL A   1      36.927  30.876  28.947  1.00  0.00    -0.014 A 
BRANCH  35  36
ATOM     36  C   UNL A   1      38.132  30.480  29.724  1.00  0.00     0.031 A 
ATOM     37  C   UNL A   1      39.101  29.479  29.161  1.00  0.00     0.074 A 
ATOM     38  C   UNL A   1      38.294  30.945  30.980  1.00  0.00     0.049 A 
ATOM     39  N   UNL A   1      40.127  28.905  29.737  1.00  0.00    -0.248 NA
ATOM     40  C   UNL A   1      38.863  29.042  27.778  1.00  0.00     0.031 C 
ATOM     41  C   UNL A   1      37.397  31.886  31.657  1.00  0.00     0.029 A 
ATOM     42  N   UNL A   1      39.256  30.676  31.922  1.00  0.00    -0.354 N 
ATOM     43  C   UNL A   1      40.646  28.024  28.794  1.00  0.00     0.074 A 
ATOM     44  C   UNL A   1      39.786  28.103  27.631  1.00  0.00     0.031 C 
ATOM     45  C   UNL A   1      37.861  32.126  32.895  1.00  0.00     0.029 A 
ATOM     46  C   UNL A   1      39.054  31.319  33.122  1.00  0.00     0.049 A 
ATOM     47  H   UNL A   1      40.020  30.077  31.755  1.00  0.00     0.167 HD
ATOM     48  C   UNL A   1      41.748  27.239  28.884  1.00  0.00     0.034 A 
ATOM     49  C   UNL A   1      39.736  31.250  34.283  1.00  0.00     0.034 A 
ATOM     50  C   UNL A   1      42.603  27.184  30.045  1.00  0.00     0.049 A 
ATOM     51  C   UNL A   1      40.940  30.348  34.370  1.00  0.00     0.074 A 
ATOM     52  C   UNL A   1      43.783  26.479  30.214  1.00  0.00     0.029 A 
ATOM     53  N   UNL A   1      42.366  27.850  31.241  1.00  0.00    -0.354 N 
ATOM     54  N   UNL A   1      41.447  29.560  33.450  1.00  0.00    -0.248 NA
ATOM     55  C   UNL A   1      41.660  30.324  35.649  1.00  0.00     0.031 C 
ATOM     56  C   UNL A   1      44.224  26.668  31.528  1.00  0.00     0.029 A 
ATOM     57  C   UNL A   1      43.357  27.546  32.162  1.00  0.00     0.049 A 
ATOM     58  H   UNL A   1      41.605  28.451  31.410  1.00  0.00     0.167 HD
ATOM     59  C   UNL A   1      42.563  28.967  34.034  1.00  0.00     0.074 A 
ATOM     60  C   UNL A   1      42.659  29.496  35.379  1.00  0.00     0.031 C 
ATOM     61  C   UNL A   1      43.431  28.068  33.505  1.00  0.00     0.034 A 
BRANCH  48  62
ATOM     62  C   UNL A   1      42.071  26.360  27.699  1.00  0.00     0.023 A 
ATOM     63  C   UNL A   1      41.683  25.010  27.656  1.00  0.00     0.031 A 
ATOM     64  C   UNL A   1      42.798  26.870  26.610  1.00  0.00     0.131 A 
ATOM     65  C   UNL A   1      42.093  24.197  26.589  1.00  0.00     0.055 A 
ATOM     66  C   UNL A   1      43.134  26.077  25.512  1.00  0.00     0.041 A 
ATOM     67  F   UNL A   1      43.211  28.149  26.602  1.00  0.00    -0.206 F 
ATOM     68  C   UNL A   1      42.795  24.726  25.504  1.00  0.00     0.022 A 
BRANCH  65  69
ATOM     69  S   UNL A   1      41.818  22.409  26.710  1.00  0.00     0.124 S 
ATOM     70  O   UNL A   1      42.657  22.059  27.854  1.00  0.00    -0.237 OA
ATOM     71  O   UNL A   1      40.379  22.324  26.923  1.00  0.00    -0.237 OA
ATOM     72  O   UNL A   1      42.291  21.901  25.424  1.00  0.00    -0.744 OA
ENDBRANCH  65  69
ENDBRANCH  48  62
BRANCH  49  73
ATOM     73  C   UNL A   1      39.291  32.037  35.468  1.00  0.00     0.023 A 
ATOM     74  C   UNL A   1      38.577  31.429  36.513  1.00  0.00     0.031 A 
ATOM     75  C   UNL A   1      39.539  33.419  35.556  1.00  0.00     0.131 A 
ATOM     76  C   UNL A   1      38.099  32.206  37.580  1.00  0.00     0.055 A 
ATOM     77  C   UNL A   1      39.104  34.178  36.643  1.00  0.00     0.041 A 
ATOM     78  F   UNL A   1      40.222  34.048  34.587  1.00  0.00    -0.206 F 
ATOM     79  C   UNL A   1      38.369  33.574  37.657  1.00  0.00     0.022 A 
BRANCH  76  80
ATOM     80  S   UNL A   1      37.053  31.413  38.831  1.00  0.00     0.124 S 
ATOM     81  O   UNL A   1      36.953  30.052  38.316  1.00  0.00    -0.237 OA
ATOM     82  O   UNL A   1      37.847  31.585  40.042  1.00  0.00    -0.237 OA
ATOM     83  O   UNL A   1      35.817  32.191  38.783  1.00  0.00    -0.744 OA
ENDBRANCH  76  80
ENDBRANCH  49  73
BRANCH  61  84
ATOM     84  C   UNL A   1      44.581  27.632  34.378  1.00  0.00     0.023 A 
ATOM     85  C   UNL A   1      44.486  26.508  35.216  1.00  0.00     0.031 A 
ATOM     86  C   UNL A   1      45.785  28.357  34.373  1.00  0.00     0.131 A 
ATOM     87  C   UNL A   1      45.562  26.165  36.048  1.00  0.00     0.055 A 
ATOM     88  C   UNL A   1      46.872  27.981  35.164  1.00  0.00     0.041 A 
ATOM     89  F   UNL A   1      45.926  29.442  33.594  1.00  0.00    -0.206 F 
ATOM     90  C   UNL A   1      46.760  26.884  36.015  1.00  0.00     0.022 A 
BRANCH  87  91
ATOM     91  S   UNL A   1      45.355  24.803  37.228  1.00  0.00     0.124 S 
ATOM     92  O   UNL A   1      46.737  24.427  37.503  1.00  0.00    -0.237 OA
ATOM     93  O   UNL A   1      44.639  25.447  38.326  1.00  0.00    -0.237 OA
ATOM     94  O   UNL A   1      44.579  23.816  36.479  1.00  0.00    -0.744 OA
ENDBRANCH  87  91
ENDBRANCH  61  84
ENDBRANCH  35  36
ENDBRANCH  27  30
ENDBRANCH  25  26
ENDBRANCH   1  25
TORSDOF 16
ENDMDL
