MODEL 1
REMARK VINA RESULT:     -13.1      0.000      0.000
REMARK SMILES O=C(NCCCCNC(=O)c1cc(S(=O)(=O)Nc2cc(F)ccc2F)cc2c1OCCO2)c1ccc(-c2c3nc(c(-c4cc(S(=O)(=O)[O-])ccc4F)c4ccc([nH]4)c(-c4cc(S(=O)(=O)[O-])ccc4F)c4nc(c(-c5cc(S(=O)(=O)[O-])ccc5F)c5ccc2[nH]5)C=C4)C=C3)cc1
REMARK SMILES IDX 5 1 4 2 3 3 1 4 2 5 33 7 34 8 95 9 35 10 94 11 36 12 37 13
REMARK SMILES IDX 38 14 88 15 39 16 93 17 87 18 89 19 40 20 92 21 86 22 85 23
REMARK SMILES IDX 41 25 73 26 53 27 72 28 54 29 57 30 71 31 90 32 55 33 56 34
REMARK SMILES IDX 70 36 91 37 58 38 42 39 43 40 51 41 44 42 50 43 52 44 49 45
REMARK SMILES IDX 45 46 46 47 47 48 48 49 74 50 75 51 83 52 76 53 82 54 84 55
REMARK SMILES IDX 81 56 77 57 78 58 79 59 80 60 59 61 60 62 68 63 61 64 67 65
REMARK SMILES IDX 69 66 66 67 62 68 63 69 64 70 65 71 6 72 7 73 8 74 9 75
REMARK SMILES IDX 10 77 11 78 12 79 28 80 13 81 27 82 29 83 26 84 32 85 30 86
REMARK SMILES IDX 31 87 14 88 15 89 16 90 17 91 18 93 19 94 24 95 20 96 23 97
REMARK SMILES IDX 25 98 21 99 22 100
REMARK H PARENT 3 6 89 24 57 35 8 76 17 92
REMARK Flexibility Score: inf
ROOT
ATOM      1  C   UNL A   1      31.392  29.564  26.554  1.00  0.00     0.023 C 
ENDROOT
BRANCH   1   2
ATOM      2  C   UNL A   1      32.533  30.514  26.226  1.00  0.00     0.116 C 
BRANCH   2   3
ATOM      3  N   UNL A   1      32.290  31.894  26.624  1.00  0.00    -0.352 N 
ATOM      4  O   UNL A   1      32.644  33.836  27.723  1.00  0.00    -0.269 OA
ATOM      5  C   UNL A   1      33.051  32.715  27.429  1.00  0.00     0.251 C 
ATOM      6  H   UNL A   1      31.465  32.298  26.268  1.00  0.00     0.163 HD
BRANCH   5   7
ATOM      7  C   UNL A   1      34.343  32.227  27.968  1.00  0.00     0.039 A 
ATOM      8  C   UNL A   1      34.445  30.943  28.501  1.00  0.00     0.014 A 
ATOM      9  C   UNL A   1      35.455  33.076  27.973  1.00  0.00     0.014 A 
ATOM     10  C   UNL A   1      35.586  30.580  29.204  1.00  0.00     0.010 A 
ATOM     11  C   UNL A   1      36.645  32.663  28.588  1.00  0.00     0.010 A 
ATOM     12  C   UNL A   1      36.708  31.427  29.247  1.00  0.00    -0.014 A 
BRANCH  12  13
ATOM     13  C   UNL A   1      37.933  30.948  29.946  1.00  0.00     0.031 A 
ATOM     14  C   UNL A   1      38.223  31.322  31.375  1.00  0.00     0.074 A 
ATOM     15  C   UNL A   1      38.744  30.093  29.290  1.00  0.00     0.049 A 
ATOM     16  N   UNL A   1      39.203  30.921  32.146  1.00  0.00    -0.248 NA
ATOM     17  C   UNL A   1      37.307  32.273  32.020  1.00  0.00     0.031 C 
ATOM     18  C   UNL A   1      38.568  29.674  27.896  1.00  0.00     0.029 A 
ATOM     19  N   UNL A   1      39.847  29.395  29.707  1.00  0.00    -0.354 N 
ATOM     20  C   UNL A   1      39.029  31.572  33.363  1.00  0.00     0.074 A 
ATOM     21  C   UNL A   1      37.867  32.423  33.214  1.00  0.00     0.031 C 
ATOM     22  C   UNL A   1      39.483  28.743  27.596  1.00  0.00     0.029 A 
ATOM     23  C   UNL A   1      40.357  28.551  28.747  1.00  0.00     0.049 A 
ATOM     24  H   UNL A   1      40.237  29.487  30.606  1.00  0.00     0.167 HD
ATOM     25  C   UNL A   1      39.764  31.461  34.499  1.00  0.00     0.034 A 
ATOM     26  C   UNL A   1      41.419  27.723  28.778  1.00  0.00     0.034 A 
ATOM     27  C   UNL A   1      40.922  30.606  34.630  1.00  0.00     0.049 A 
ATOM     28  C   UNL A   1      42.219  27.629  30.047  1.00  0.00     0.074 A 
ATOM     29  C   UNL A   1      41.735  30.418  35.735  1.00  0.00     0.029 A 
ATOM     30  N   UNL A   1      41.433  29.795  33.625  1.00  0.00    -0.354 N 
ATOM     31  N   UNL A   1      42.033  28.252  31.187  1.00  0.00    -0.248 NA
ATOM     32  C   UNL A   1      43.366  26.715  30.037  1.00  0.00     0.031 C 
ATOM     33  C   UNL A   1      42.767  29.540  35.382  1.00  0.00     0.029 A 
ATOM     34  C   UNL A   1      42.561  29.124  34.077  1.00  0.00     0.049 A 
ATOM     35  H   UNL A   1      41.051  29.708  32.722  1.00  0.00     0.167 HD
ATOM     36  C   UNL A   1      43.043  27.802  32.031  1.00  0.00     0.074 A 
ATOM     37  C   UNL A   1      43.803  26.823  31.281  1.00  0.00     0.031 C 
ATOM     38  C   UNL A   1      43.326  28.173  33.305  1.00  0.00     0.034 A 
BRANCH  25  39
ATOM     39  C   UNL A   1      39.360  32.312  35.680  1.00  0.00     0.023 A 
ATOM     40  C   UNL A   1      39.810  33.636  35.829  1.00  0.00     0.031 A 
ATOM     41  C   UNL A   1      38.505  31.794  36.670  1.00  0.00     0.131 A 
ATOM     42  C   UNL A   1      39.444  34.378  36.963  1.00  0.00     0.055 A 
ATOM     43  C   UNL A   1      38.090  32.559  37.762  1.00  0.00     0.041 A 
ATOM     44  F   UNL A   1      38.058  30.530  36.593  1.00  0.00    -0.206 F 
ATOM     45  C   UNL A   1      38.568  33.857  37.919  1.00  0.00     0.022 A 
BRANCH  42  46
ATOM     46  S   UNL A   1      40.212  36.000  37.227  1.00  0.00     0.124 S 
ATOM     47  O   UNL A   1      41.629  35.650  37.289  1.00  0.00    -0.237 OA
ATOM     48  O   UNL A   1      39.790  36.746  36.048  1.00  0.00    -0.237 OA
ATOM     49  O   UNL A   1      39.633  36.453  38.491  1.00  0.00    -0.744 OA
ENDBRANCH  42  46
ENDBRANCH  25  39
BRANCH  26  50
ATOM     50  C   UNL A   1      41.809  26.955  27.561  1.00  0.00     0.023 A 
ATOM     51  C   UNL A   1      41.597  25.571  27.471  1.00  0.00     0.031 A 
ATOM     52  C   UNL A   1      42.438  27.598  26.479  1.00  0.00     0.131 A 
ATOM     53  C   UNL A   1      42.051  24.867  26.344  1.00  0.00     0.055 A 
ATOM     54  C   UNL A   1      42.833  26.904  25.335  1.00  0.00     0.041 A 
ATOM     55  F   UNL A   1      42.662  28.922  26.512  1.00  0.00    -0.206 F 
ATOM     56  C   UNL A   1      42.654  25.527  25.270  1.00  0.00     0.022 A 
BRANCH  53  57
ATOM     57  S   UNL A   1      41.932  23.058  26.345  1.00  0.00     0.124 S 
ATOM     58  O   UNL A   1      40.494  22.853  26.467  1.00  0.00    -0.237 OA
ATOM     59  O   UNL A   1      42.521  22.718  25.054  1.00  0.00    -0.237 OA
ATOM     60  O   UNL A   1      42.722  22.667  27.511  1.00  0.00    -0.744 OA
ENDBRANCH  53  57
ENDBRANCH  26  50
BRANCH  38  61
ATOM     61  C   UNL A   1      44.508  27.495  33.952  1.00  0.00     0.023 A 
ATOM     62  C   UNL A   1      44.364  26.278  34.643  1.00  0.00     0.031 A 
ATOM     63  C   UNL A   1      45.777  28.099  33.931  1.00  0.00     0.131 A 
ATOM     64  C   UNL A   1      45.451  25.742  35.348  1.00  0.00     0.055 A 
ATOM     65  C   UNL A   1      46.871  27.528  34.582  1.00  0.00     0.041 A 
ATOM     66  F   UNL A   1      45.970  29.263  33.289  1.00  0.00    -0.206 F 
ATOM     67  C   UNL A   1      46.708  26.353  35.312  1.00  0.00     0.022 A 
BRANCH  64  68
ATOM     68  S   UNL A   1      45.169  24.302  36.414  1.00  0.00     0.124 S 
ATOM     69  O   UNL A   1      43.859  23.843  35.964  1.00  0.00    -0.237 OA
ATOM     70  O   UNL A   1      46.297  23.440  36.076  1.00  0.00    -0.237 OA
ATOM     71  O   UNL A   1      45.201  24.863  37.763  1.00  0.00    -0.744 OA
ENDBRANCH  64  68
ENDBRANCH  38  61
ENDBRANCH  12  13
ENDBRANCH   5   7
ENDBRANCH   2   3
ENDBRANCH   1   2
BRANCH   1  72
ATOM     72  C   UNL A   1      31.739  28.402  27.477  1.00  0.00     0.023 C 
BRANCH  72  73
ATOM     73  C   UNL A   1      32.210  27.119  26.798  1.00  0.00     0.116 C 
BRANCH  73  74
ATOM     74  N   UNL A   1      31.222  26.049  26.761  1.00  0.00    -0.352 N 
ATOM     75  C   UNL A   1      31.327  24.802  26.181  1.00  0.00     0.255 C 
ATOM     76  H   UNL A   1      30.366  26.240  27.210  1.00  0.00     0.163 HD
ATOM     77  O   UNL A   1      30.411  23.989  26.246  1.00  0.00    -0.269 OA
BRANCH  75  78
ATOM     78  C   UNL A   1      32.492  24.508  25.320  1.00  0.00     0.087 A 
ATOM     79  C   UNL A   1      33.416  23.601  25.850  1.00  0.00     0.040 A 
ATOM     80  C   UNL A   1      32.579  24.924  23.993  1.00  0.00     0.174 A 
ATOM     81  C   UNL A   1      34.292  22.935  25.001  1.00  0.00     0.092 A 
ATOM     82  C   UNL A   1      33.549  24.344  23.170  1.00  0.00     0.163 A 
ATOM     83  O   UNL A   1      31.683  25.858  23.542  1.00  0.00    -0.485 OA
ATOM     84  C   UNL A   1      34.371  23.323  23.656  1.00  0.00     0.072 A 
ATOM     85  O   UNL A   1      33.694  24.666  21.844  1.00  0.00    -0.486 OA
ATOM     86  C   UNL A   1      31.602  25.873  22.116  1.00  0.00     0.271 C 
ATOM     87  C   UNL A   1      32.996  25.871  21.511  1.00  0.00     0.271 C 
BRANCH  81  88
ATOM     88  S   UNL A   1      35.166  21.447  25.459  1.00  0.00     0.262 S 
ATOM     89  O   UNL A   1      35.967  21.088  24.305  1.00  0.00    -0.201 OA
ATOM     90  O   UNL A   1      35.782  21.723  26.737  1.00  0.00    -0.201 OA
BRANCH  88  91
ATOM     91  N   UNL A   1      34.098  20.195  25.757  1.00  0.00    -0.277 N 
ATOM     92  H   UNL A   1      33.792  20.076  26.686  1.00  0.00     0.180 HD
BRANCH  91  93
ATOM     93  C   UNL A   1      33.592  19.286  24.782  1.00  0.00     0.087 A 
ATOM     94  C   UNL A   1      34.154  18.041  24.507  1.00  0.00     0.069 A 
ATOM     95  C   UNL A   1      32.535  19.758  23.986  1.00  0.00     0.147 A 
ATOM     96  C   UNL A   1      33.739  17.360  23.360  1.00  0.00     0.125 A 
ATOM     97  C   UNL A   1      32.119  19.070  22.853  1.00  0.00     0.044 A 
ATOM     98  F   UNL A   1      31.983  20.949  24.270  1.00  0.00    -0.205 F 
ATOM     99  F   UNL A   1      34.350  16.218  23.023  1.00  0.00    -0.207 F 
ATOM    100  C   UNL A   1      32.747  17.873  22.522  1.00  0.00     0.042 A 
ENDBRANCH  91  93
ENDBRANCH  88  91
ENDBRANCH  81  88
ENDBRANCH  75  78
ENDBRANCH  73  74
ENDBRANCH  72  73
ENDBRANCH   1  72
TORSDOF 17
ENDMDL
MODEL 2
REMARK VINA RESULT:     -12.7      2.678      7.928
REMARK SMILES O=C(NCCCCNC(=O)c1cc(S(=O)(=O)Nc2cc(F)ccc2F)cc2c1OCCO2)c1ccc(-c2c3nc(c(-c4cc(S(=O)(=O)[O-])ccc4F)c4ccc([nH]4)c(-c4cc(S(=O)(=O)[O-])ccc4F)c4nc(c(-c5cc(S(=O)(=O)[O-])ccc5F)c5ccc2[nH]5)C=C4)C=C3)cc1
REMARK SMILES IDX 5 1 4 2 3 3 1 4 2 5 33 7 34 8 95 9 35 10 94 11 36 12 37 13
REMARK SMILES IDX 38 14 88 15 39 16 93 17 87 18 89 19 40 20 92 21 86 22 85 23
REMARK SMILES IDX 41 25 73 26 53 27 72 28 54 29 57 30 71 31 90 32 55 33 56 34
REMARK SMILES IDX 70 36 91 37 58 38 42 39 43 40 51 41 44 42 50 43 52 44 49 45
REMARK SMILES IDX 45 46 46 47 47 48 48 49 74 50 75 51 83 52 76 53 82 54 84 55
REMARK SMILES IDX 81 56 77 57 78 58 79 59 80 60 59 61 60 62 68 63 61 64 67 65
REMARK SMILES IDX 69 66 66 67 62 68 63 69 64 70 65 71 6 72 7 73 8 74 9 75
REMARK SMILES IDX 10 77 11 78 12 79 28 80 13 81 27 82 29 83 26 84 32 85 30 86
REMARK SMILES IDX 31 87 14 88 15 89 16 90 17 91 18 93 19 94 24 95 20 96 23 97
REMARK SMILES IDX 25 98 21 99 22 100
REMARK H PARENT 3 6 89 24 57 35 8 76 17 92
REMARK Flexibility Score: inf
ROOT
ATOM      1  C   UNL A   1      31.560  31.699  26.991  1.00  0.00     0.023 C 
ENDROOT
BRANCH   1   2
ATOM      2  C   UNL A   1      32.857  32.451  27.250  1.00  0.00     0.116 C 
BRANCH   2   3
ATOM      3  N   UNL A   1      32.671  33.857  27.585  1.00  0.00    -0.352 N 
ATOM      4  O   UNL A   1      32.958  35.775  28.743  1.00  0.00    -0.269 OA
ATOM      5  C   UNL A   1      33.304  34.613  28.549  1.00  0.00     0.251 C 
ATOM      6  H   UNL A   1      31.997  34.335  27.049  1.00  0.00     0.163 HD
BRANCH   5   7
ATOM      7  C   UNL A   1      34.379  34.008  29.371  1.00  0.00     0.039 A 
ATOM      8  C   UNL A   1      35.719  34.235  29.059  1.00  0.00     0.014 A 
ATOM      9  C   UNL A   1      34.044  33.175  30.443  1.00  0.00     0.014 A 
ATOM     10  C   UNL A   1      36.707  33.489  29.687  1.00  0.00     0.010 A 
ATOM     11  C   UNL A   1      35.053  32.506  31.149  1.00  0.00     0.010 A 
ATOM     12  C   UNL A   1      36.392  32.624  30.750  1.00  0.00    -0.014 A 
BRANCH  12  13
ATOM     13  C   UNL A   1      37.504  31.913  31.440  1.00  0.00     0.031 A 
ATOM     14  C   UNL A   1      38.316  30.853  30.743  1.00  0.00     0.074 A 
ATOM     15  C   UNL A   1      37.827  32.301  32.691  1.00  0.00     0.049 A 
ATOM     16  N   UNL A   1      39.364  30.202  31.180  1.00  0.00    -0.248 NA
ATOM     17  C   UNL A   1      37.895  30.467  29.389  1.00  0.00     0.031 C 
ATOM     18  C   UNL A   1      37.098  33.308  33.469  1.00  0.00     0.029 A 
ATOM     19  N   UNL A   1      38.861  31.935  33.512  1.00  0.00    -0.354 N 
ATOM     20  C   UNL A   1      39.726  29.324  30.163  1.00  0.00     0.074 A 
ATOM     21  C   UNL A   1      38.760  29.504  29.099  1.00  0.00     0.031 C 
ATOM     22  C   UNL A   1      37.746  33.529  34.620  1.00  0.00     0.029 A 
ATOM     23  C   UNL A   1      38.891  32.630  34.699  1.00  0.00     0.049 A 
ATOM     24  H   UNL A   1      39.520  31.242  33.275  1.00  0.00     0.167 HD
ATOM     25  C   UNL A   1      40.772  28.460  30.119  1.00  0.00     0.034 A 
ATOM     26  C   UNL A   1      39.735  32.547  35.746  1.00  0.00     0.034 A 
ATOM     27  C   UNL A   1      41.728  28.294  31.190  1.00  0.00     0.049 A 
ATOM     28  C   UNL A   1      40.878  31.574  35.671  1.00  0.00     0.074 A 
ATOM     29  C   UNL A   1      42.823  27.449  31.247  1.00  0.00     0.029 A 
ATOM     30  N   UNL A   1      41.704  28.986  32.395  1.00  0.00    -0.354 N 
ATOM     31  N   UNL A   1      41.202  30.756  34.696  1.00  0.00    -0.248 NA
ATOM     32  C   UNL A   1      41.772  31.517  36.832  1.00  0.00     0.031 C 
ATOM     33  C   UNL A   1      43.426  27.588  32.503  1.00  0.00     0.029 A 
ATOM     34  C   UNL A   1      42.751  28.571  33.207  1.00  0.00     0.049 A 
ATOM     35  H   UNL A   1      41.041  29.672  32.638  1.00  0.00     0.167 HD
ATOM     36  C   UNL A   1      42.342  30.087  35.130  1.00  0.00     0.074 A 
ATOM     37  C   UNL A   1      42.671  30.633  36.432  1.00  0.00     0.031 C 
ATOM     38  C   UNL A   1      43.046  29.103  34.516  1.00  0.00     0.034 A 
BRANCH  25  39
ATOM     39  C   UNL A   1      40.918  27.600  28.886  1.00  0.00     0.023 A 
ATOM     40  C   UNL A   1      41.913  27.845  27.923  1.00  0.00     0.031 A 
ATOM     41  C   UNL A   1      40.052  26.510  28.672  1.00  0.00     0.131 A 
ATOM     42  C   UNL A   1      41.987  27.047  26.771  1.00  0.00     0.055 A 
ATOM     43  C   UNL A   1      40.174  25.679  27.557  1.00  0.00     0.041 A 
ATOM     44  F   UNL A   1      39.070  26.237  29.546  1.00  0.00    -0.206 F 
ATOM     45  C   UNL A   1      41.139  25.950  26.592  1.00  0.00     0.022 A 
BRANCH  42  46
ATOM     46  S   UNL A   1      43.141  27.523  25.455  1.00  0.00     0.124 S 
ATOM     47  O   UNL A   1      43.634  26.222  25.008  1.00  0.00    -0.237 OA
ATOM     48  O   UNL A   1      42.279  28.235  24.520  1.00  0.00    -0.237 OA
ATOM     49  O   UNL A   1      44.128  28.351  26.147  1.00  0.00    -0.744 OA
ENDBRANCH  42  46
ENDBRANCH  25  39
BRANCH  26  50
ATOM     50  C   UNL A   1      39.505  33.375  36.963  1.00  0.00     0.023 A 
ATOM     51  C   UNL A   1      38.839  32.857  38.085  1.00  0.00     0.031 A 
ATOM     52  C   UNL A   1      39.922  34.718  37.006  1.00  0.00     0.131 A 
ATOM     53  C   UNL A   1      38.568  33.690  39.182  1.00  0.00     0.055 A 
ATOM     54  C   UNL A   1      39.704  35.525  38.123  1.00  0.00     0.041 A 
ATOM     55  F   UNL A   1      40.567  35.263  35.962  1.00  0.00    -0.206 F 
ATOM     56  C   UNL A   1      39.009  35.016  39.214  1.00  0.00     0.022 A 
BRANCH  53  57
ATOM     57  S   UNL A   1      37.540  33.044  40.529  1.00  0.00     0.124 S 
ATOM     58  O   UNL A   1      38.308  31.882  40.960  1.00  0.00    -0.237 OA
ATOM     59  O   UNL A   1      37.512  34.173  41.453  1.00  0.00    -0.237 OA
ATOM     60  O   UNL A   1      36.269  32.747  39.873  1.00  0.00    -0.744 OA
ENDBRANCH  53  57
ENDBRANCH  26  50
BRANCH  38  61
ATOM     61  C   UNL A   1      44.246  28.575  35.262  1.00  0.00     0.023 A 
ATOM     62  C   UNL A   1      44.125  27.527  36.193  1.00  0.00     0.031 A 
ATOM     63  C   UNL A   1      45.511  29.162  35.086  1.00  0.00     0.131 A 
ATOM     64  C   UNL A   1      45.231  27.150  36.968  1.00  0.00     0.055 A 
ATOM     65  C   UNL A   1      46.623  28.739  35.815  1.00  0.00     0.041 A 
ATOM     66  F   UNL A   1      45.683  30.168  34.212  1.00  0.00    -0.206 F 
ATOM     67  C   UNL A   1      46.483  27.741  36.776  1.00  0.00     0.022 A 
BRANCH  64  68
ATOM     68  S   UNL A   1      44.982  25.961  38.315  1.00  0.00     0.124 S 
ATOM     69  O   UNL A   1      44.221  24.907  37.653  1.00  0.00    -0.237 OA
ATOM     70  O   UNL A   1      46.351  25.622  38.688  1.00  0.00    -0.237 OA
ATOM     71  O   UNL A   1      44.239  26.728  39.314  1.00  0.00    -0.744 OA
ENDBRANCH  64  68
ENDBRANCH  38  61
ENDBRANCH  12  13
ENDBRANCH   5   7
ENDBRANCH   2   3
ENDBRANCH   1   2
BRANCH   1  72
ATOM     72  C   UNL A   1      31.546  30.805  25.757  1.00  0.00     0.023 C 
BRANCH  72  73
ATOM     73  C   UNL A   1      32.553  29.658  25.745  1.00  0.00     0.116 C 
BRANCH  73  74
ATOM     74  N   UNL A   1      33.306  29.518  24.505  1.00  0.00    -0.352 N 
ATOM     75  C   UNL A   1      32.957  28.834  23.360  1.00  0.00     0.255 C 
ATOM     76  H   UNL A   1      34.179  29.972  24.481  1.00  0.00     0.163 HD
ATOM     77  O   UNL A   1      33.690  28.819  22.378  1.00  0.00    -0.269 OA
BRANCH  75  78
ATOM     78  C   UNL A   1      31.763  27.963  23.382  1.00  0.00     0.087 A 
ATOM     79  C   UNL A   1      31.971  26.669  23.871  1.00  0.00     0.040 A 
ATOM     80  C   UNL A   1      30.474  28.435  23.139  1.00  0.00     0.174 A 
ATOM     81  C   UNL A   1      30.893  25.923  24.331  1.00  0.00     0.092 A 
ATOM     82  C   UNL A   1      29.386  27.628  23.486  1.00  0.00     0.163 A 
ATOM     83  O   UNL A   1      30.329  29.689  22.606  1.00  0.00    -0.485 OA
ATOM     84  C   UNL A   1      29.591  26.400  24.120  1.00  0.00     0.072 A 
ATOM     85  O   UNL A   1      28.082  28.017  23.313  1.00  0.00    -0.486 OA
ATOM     86  C   UNL A   1      29.011  30.204  22.806  1.00  0.00     0.271 C 
ATOM     87  C   UNL A   1      27.977  29.152  22.446  1.00  0.00     0.271 C 
BRANCH  81  88
ATOM     88  S   UNL A   1      31.063  24.497  25.391  1.00  0.00     0.262 S 
ATOM     89  O   UNL A   1      30.269  24.784  26.570  1.00  0.00    -0.201 OA
ATOM     90  O   UNL A   1      30.779  23.347  24.563  1.00  0.00    -0.201 OA
BRANCH  88  91
ATOM     91  N   UNL A   1      32.652  24.298  25.874  1.00  0.00    -0.277 N 
ATOM     92  H   UNL A   1      32.935  24.764  26.695  1.00  0.00     0.180 HD
BRANCH  91  93
ATOM     93  C   UNL A   1      33.631  23.511  25.201  1.00  0.00     0.087 A 
ATOM     94  C   UNL A   1      33.601  22.120  25.125  1.00  0.00     0.069 A 
ATOM     95  C   UNL A   1      34.745  24.205  24.698  1.00  0.00     0.147 A 
ATOM     96  C   UNL A   1      34.742  21.450  24.676  1.00  0.00     0.125 A 
ATOM     97  C   UNL A   1      35.872  23.534  24.242  1.00  0.00     0.044 A 
ATOM     98  F   UNL A   1      34.759  25.547  24.754  1.00  0.00    -0.205 F 
ATOM     99  F   UNL A   1      34.766  20.112  24.706  1.00  0.00    -0.207 F 
ATOM    100  C   UNL A   1      35.879  22.142  24.257  1.00  0.00     0.042 A 
ENDBRANCH  91  93
ENDBRANCH  88  91
ENDBRANCH  81  88
ENDBRANCH  75  78
ENDBRANCH  73  74
ENDBRANCH  72  73
ENDBRANCH   1  72
TORSDOF 17
ENDMDL
MODEL 3
REMARK VINA RESULT:     -12.6      2.162      3.024
REMARK SMILES O=C(NCCCCNC(=O)c1cc(S(=O)(=O)Nc2cc(F)ccc2F)cc2c1OCCO2)c1ccc(-c2c3nc(c(-c4cc(S(=O)(=O)[O-])ccc4F)c4ccc([nH]4)c(-c4cc(S(=O)(=O)[O-])ccc4F)c4nc(c(-c5cc(S(=O)(=O)[O-])ccc5F)c5ccc2[nH]5)C=C4)C=C3)cc1
REMARK SMILES IDX 5 1 4 2 3 3 1 4 2 5 33 7 34 8 95 9 35 10 94 11 36 12 37 13
REMARK SMILES IDX 38 14 88 15 39 16 93 17 87 18 89 19 40 20 92 21 86 22 85 23
REMARK SMILES IDX 41 25 73 26 53 27 72 28 54 29 57 30 71 31 90 32 55 33 56 34
REMARK SMILES IDX 70 36 91 37 58 38 42 39 43 40 51 41 44 42 50 43 52 44 49 45
REMARK SMILES IDX 45 46 46 47 47 48 48 49 74 50 75 51 83 52 76 53 82 54 84 55
REMARK SMILES IDX 81 56 77 57 78 58 79 59 80 60 59 61 60 62 68 63 61 64 67 65
REMARK SMILES IDX 69 66 66 67 62 68 63 69 64 70 65 71 6 72 7 73 8 74 9 75
REMARK SMILES IDX 10 77 11 78 12 79 28 80 13 81 27 82 29 83 26 84 32 85 30 86
REMARK SMILES IDX 31 87 14 88 15 89 16 90 17 91 18 93 19 94 24 95 20 96 23 97
REMARK SMILES IDX 25 98 21 99 22 100
REMARK H PARENT 3 6 89 24 57 35 8 76 17 92
REMARK Flexibility Score: inf
ROOT
ATOM      1  C   UNL A   1      34.018  29.222  24.956  1.00  0.00     0.023 C 
ENDROOT
BRANCH   1   2
ATOM      2  C   UNL A   1      32.861  29.305  25.940  1.00  0.00     0.116 C 
BRANCH   2   3
ATOM      3  N   UNL A   1      32.493  30.664  26.311  1.00  0.00    -0.352 N 
ATOM      4  O   UNL A   1      32.650  32.640  27.396  1.00  0.00    -0.269 OA
ATOM      5  C   UNL A   1      33.156  31.552  27.132  1.00  0.00     0.251 C 
ATOM      6  H   UNL A   1      31.651  30.996  25.922  1.00  0.00     0.163 HD
BRANCH   5   7
ATOM      7  C   UNL A   1      34.464  31.177  27.720  1.00  0.00     0.039 A 
ATOM      8  C   UNL A   1      34.656  29.905  28.257  1.00  0.00     0.014 A 
ATOM      9  C   UNL A   1      35.497  32.118  27.769  1.00  0.00     0.014 A 
ATOM     10  C   UNL A   1      35.797  29.639  29.005  1.00  0.00     0.010 A 
ATOM     11  C   UNL A   1      36.693  31.809  28.430  1.00  0.00     0.010 A 
ATOM     12  C   UNL A   1      36.838  30.581  29.091  1.00  0.00    -0.014 A 
BRANCH  12  13
ATOM     13  C   UNL A   1      38.071  30.208  29.837  1.00  0.00     0.031 A 
ATOM     14  C   UNL A   1      38.296  30.647  31.260  1.00  0.00     0.074 A 
ATOM     15  C   UNL A   1      38.956  29.388  29.233  1.00  0.00     0.049 A 
ATOM     16  N   UNL A   1      39.278  30.337  32.069  1.00  0.00    -0.248 NA
ATOM     17  C   UNL A   1      37.301  31.555  31.848  1.00  0.00     0.031 C 
ATOM     18  C   UNL A   1      38.846  28.913  27.849  1.00  0.00     0.029 A 
ATOM     19  N   UNL A   1      40.090  28.779  29.702  1.00  0.00    -0.354 N 
ATOM     20  C   UNL A   1      39.028  31.015  33.258  1.00  0.00     0.074 A 
ATOM     21  C   UNL A   1      37.816  31.781  33.050  1.00  0.00     0.031 C 
ATOM     22  C   UNL A   1      39.828  28.035  27.606  1.00  0.00     0.029 A 
ATOM     23  C   UNL A   1      40.681  27.940  28.785  1.00  0.00     0.049 A 
ATOM     24  H   UNL A   1      40.448  28.926  30.607  1.00  0.00     0.167 HD
ATOM     25  C   UNL A   1      39.737  30.990  34.416  1.00  0.00     0.034 A 
ATOM     26  C   UNL A   1      41.794  27.186  28.872  1.00  0.00     0.034 A 
ATOM     27  C   UNL A   1      40.944  30.219  34.607  1.00  0.00     0.049 A 
ATOM     28  C   UNL A   1      42.562  27.187  30.164  1.00  0.00     0.074 A 
ATOM     29  C   UNL A   1      41.737  30.122  35.738  1.00  0.00     0.029 A 
ATOM     30  N   UNL A   1      41.535  29.412  33.643  1.00  0.00    -0.354 N 
ATOM     31  N   UNL A   1      42.303  27.833  31.276  1.00  0.00    -0.248 NA
ATOM     32  C   UNL A   1      43.767  26.351  30.214  1.00  0.00     0.031 C 
ATOM     33  C   UNL A   1      42.833  29.304  35.442  1.00  0.00     0.029 A 
ATOM     34  C   UNL A   1      42.692  28.832  34.147  1.00  0.00     0.049 A 
ATOM     35  H   UNL A   1      41.185  29.270  32.734  1.00  0.00     0.167 HD
ATOM     36  C   UNL A   1      43.317  27.480  32.161  1.00  0.00     0.074 A 
ATOM     37  C   UNL A   1      44.160  26.529  31.465  1.00  0.00     0.031 C 
ATOM     38  C   UNL A   1      43.539  27.910  33.429  1.00  0.00     0.034 A 
BRANCH  25  39
ATOM     39  C   UNL A   1      39.244  31.850  35.556  1.00  0.00     0.023 A 
ATOM     40  C   UNL A   1      38.544  31.305  36.648  1.00  0.00     0.031 A 
ATOM     41  C   UNL A   1      39.486  33.237  35.557  1.00  0.00     0.131 A 
ATOM     42  C   UNL A   1      38.068  32.146  37.666  1.00  0.00     0.055 A 
ATOM     43  C   UNL A   1      39.068  34.057  36.606  1.00  0.00     0.041 A 
ATOM     44  F   UNL A   1      40.133  33.818  34.534  1.00  0.00    -0.206 F 
ATOM     45  C   UNL A   1      38.346  33.516  37.665  1.00  0.00     0.022 A 
BRANCH  42  46
ATOM     46  S   UNL A   1      36.990  31.441  38.943  1.00  0.00     0.124 S 
ATOM     47  O   UNL A   1      35.832  32.331  38.876  1.00  0.00    -0.237 OA
ATOM     48  O   UNL A   1      36.778  30.081  38.463  1.00  0.00    -0.237 OA
ATOM     49  O   UNL A   1      37.784  31.555  40.165  1.00  0.00    -0.744 OA
ENDBRANCH  42  46
ENDBRANCH  25  39
BRANCH  26  50
ATOM     50  C   UNL A   1      42.268  26.407  27.693  1.00  0.00     0.023 A 
ATOM     51  C   UNL A   1      41.892  25.068  27.503  1.00  0.00     0.031 A 
ATOM     52  C   UNL A   1      43.139  26.987  26.753  1.00  0.00     0.131 A 
ATOM     53  C   UNL A   1      42.423  24.340  26.425  1.00  0.00     0.055 A 
ATOM     54  C   UNL A   1      43.615  26.278  25.650  1.00  0.00     0.041 A 
ATOM     55  F   UNL A   1      43.527  28.266  26.885  1.00  0.00    -0.206 F 
ATOM     56  C   UNL A   1      43.270  24.941  25.490  1.00  0.00     0.022 A 
BRANCH  53  57
ATOM     57  S   UNL A   1      42.069  22.565  26.318  1.00  0.00     0.124 S 
ATOM     58  O   UNL A   1      40.613  22.546  26.386  1.00  0.00    -0.237 OA
ATOM     59  O   UNL A   1      42.655  22.219  25.028  1.00  0.00    -0.237 OA
ATOM     60  O   UNL A   1      42.757  22.011  27.482  1.00  0.00    -0.744 OA
ENDBRANCH  53  57
ENDBRANCH  26  50
BRANCH  38  61
ATOM     61  C   UNL A   1      44.744  27.334  34.129  1.00  0.00     0.023 A 
ATOM     62  C   UNL A   1      44.647  26.169  34.912  1.00  0.00     0.031 A 
ATOM     63  C   UNL A   1      45.988  27.986  34.064  1.00  0.00     0.131 A 
ATOM     64  C   UNL A   1      45.752  25.735  35.659  1.00  0.00     0.055 A 
ATOM     65  C   UNL A   1      47.101  27.513  34.759  1.00  0.00     0.041 A 
ATOM     66  F   UNL A   1      46.136  29.103  33.333  1.00  0.00    -0.206 F 
ATOM     67  C   UNL A   1      46.982  26.393  35.578  1.00  0.00     0.022 A 
BRANCH  64  68
ATOM     68  S   UNL A   1      45.523  24.371  36.833  1.00  0.00     0.124 S 
ATOM     69  O   UNL A   1      46.894  24.096  37.249  1.00  0.00    -0.237 OA
ATOM     70  O   UNL A   1      44.659  24.973  37.844  1.00  0.00    -0.237 OA
ATOM     71  O   UNL A   1      44.897  23.327  36.025  1.00  0.00    -0.744 OA
ENDBRANCH  64  68
ENDBRANCH  38  61
ENDBRANCH  12  13
ENDBRANCH   5   7
ENDBRANCH   2   3
ENDBRANCH   1   2
BRANCH   1  72
ATOM     72  C   UNL A   1      33.945  28.092  23.937  1.00  0.00     0.023 C 
BRANCH  72  73
ATOM     73  C   UNL A   1      33.383  28.457  22.566  1.00  0.00     0.116 C 
BRANCH  73  74
ATOM     74  N   UNL A   1      33.578  27.445  21.536  1.00  0.00    -0.352 N 
ATOM     75  C   UNL A   1      32.813  26.328  21.273  1.00  0.00     0.255 C 
ATOM     76  H   UNL A   1      34.357  27.577  20.949  1.00  0.00     0.163 HD
ATOM     77  O   UNL A   1      33.091  25.568  20.352  1.00  0.00    -0.269 OA
BRANCH  75  78
ATOM     78  C   UNL A   1      31.749  25.948  22.225  1.00  0.00     0.087 A 
ATOM     79  C   UNL A   1      31.970  24.760  22.931  1.00  0.00     0.040 A 
ATOM     80  C   UNL A   1      30.697  26.796  22.567  1.00  0.00     0.174 A 
ATOM     81  C   UNL A   1      31.286  24.525  24.118  1.00  0.00     0.092 A 
ATOM     82  C   UNL A   1      29.926  26.490  23.692  1.00  0.00     0.163 A 
ATOM     83  O   UNL A   1      30.491  27.917  21.807  1.00  0.00    -0.485 OA
ATOM     84  C   UNL A   1      30.245  25.388  24.490  1.00  0.00     0.072 A 
ATOM     85  O   UNL A   1      28.890  27.278  24.125  1.00  0.00    -0.486 OA
ATOM     86  C   UNL A   1      29.697  28.887  22.492  1.00  0.00     0.271 C 
ATOM     87  C   UNL A   1      28.487  28.222  23.126  1.00  0.00     0.271 C 
BRANCH  81  88
ATOM     88  S   UNL A   1      31.803  23.322  25.330  1.00  0.00     0.262 S 
ATOM     89  O   UNL A   1      32.635  24.043  26.274  1.00  0.00    -0.201 OA
ATOM     90  O   UNL A   1      30.600  22.646  25.762  1.00  0.00    -0.201 OA
BRANCH  88  91
ATOM     91  N   UNL A   1      32.738  22.128  24.626  1.00  0.00    -0.277 N 
ATOM     92  H   UNL A   1      32.264  21.378  24.198  1.00  0.00     0.180 HD
BRANCH  91  93
ATOM     93  C   UNL A   1      34.163  22.103  24.589  1.00  0.00     0.087 A 
ATOM     94  C   UNL A   1      34.939  22.918  23.768  1.00  0.00     0.069 A 
ATOM     95  C   UNL A   1      34.785  21.101  25.352  1.00  0.00     0.147 A 
ATOM     96  C   UNL A   1      36.297  22.622  23.623  1.00  0.00     0.125 A 
ATOM     97  C   UNL A   1      36.138  20.818  25.213  1.00  0.00     0.044 A 
ATOM     98  F   UNL A   1      34.035  20.332  26.158  1.00  0.00    -0.205 F 
ATOM     99  F   UNL A   1      37.029  23.326  22.751  1.00  0.00    -0.207 F 
ATOM    100  C   UNL A   1      36.895  21.570  24.318  1.00  0.00     0.042 A 
ENDBRANCH  91  93
ENDBRANCH  88  91
ENDBRANCH  81  88
ENDBRANCH  75  78
ENDBRANCH  73  74
ENDBRANCH  72  73
ENDBRANCH   1  72
TORSDOF 17
ENDMDL
