MODEL 1
REMARK VINA RESULT:     -11.0      0.000      0.000
REMARK SMILES COc1ccc(/C=C2/SC(=S)N(NC(=O)c3ccc(C(C)(C)C)cc3)C2=O)c(C(=O)NCCCCNC(=O)c2ccc(-c3c4nc(c(-c5cc(S(=O)(=O)[O-])ccc5F)c5ccc([nH]5)c(-c5cc(S(=O)(=O)[O-])ccc5F)c5nc(c(-c6cc(S(=O)(=O)[O-])ccc6F)c6ccc3[nH]6)C=C5)C=C4)cc2)c1OC
REMARK SMILES IDX 33 1 32 2 31 3 29 4 30 5 28 7 3 8 4 9 102 10 5 11 6 12 2 13
REMARK SMILES IDX 1 14 103 15 104 16 7 17 8 18 9 19 26 20 10 21 12 22 27 23
REMARK SMILES IDX 11 24 13 25 14 26 15 28 16 29 17 30 25 31 18 32 24 33 19 34
REMARK SMILES IDX 20 35 21 36 22 37 23 38 34 39 35 40 36 41 37 42 38 44 39 45
REMARK SMILES IDX 40 46 101 47 41 48 100 49 42 50 43 51 44 52 94 53 45 54
REMARK SMILES IDX 99 55 93 56 95 57 46 58 98 59 92 60 91 61 47 63 79 64 59 65
REMARK SMILES IDX 78 66 60 67 63 68 77 69 96 70 61 71 62 72 76 74 97 75 64 76
REMARK SMILES IDX 48 77 49 78 57 79 50 80 56 81 58 82 55 83 51 84 52 85 53 86
REMARK SMILES IDX 54 87 80 88 81 89 89 90 82 91 88 92 90 93 87 94 83 95 84 96
REMARK SMILES IDX 85 97 86 98 65 99 66 100 74 101 67 102 73 103 75 104 72 105
REMARK SMILES IDX 68 106 69 107 70 108 71 109
REMARK H PARENT 31 6 13 27 36 43 95 62 63 73
REMARK Flexibility Score: inf
ROOT
ATOM      1  C   UNL A   1      47.554  39.442  26.468  1.00  0.00     0.023 C 
ENDROOT
BRANCH   1   2
ATOM      2  C   UNL A   1      46.106  39.895  26.436  1.00  0.00     0.116 C 
BRANCH   2   3
ATOM      3  N   UNL A   1      45.590  40.673  27.530  1.00  0.00    -0.352 N 
ATOM      4  C   UNL A   1      44.569  41.606  27.483  1.00  0.00     0.255 C 
ATOM      5  O   UNL A   1      44.148  42.082  28.538  1.00  0.00    -0.269 OA
ATOM      6  H   UNL A   1      46.009  40.527  28.408  1.00  0.00     0.163 HD
BRANCH   4   7
ATOM      7  C   UNL A   1      44.071  42.163  26.181  1.00  0.00     0.092 A 
ATOM      8  C   UNL A   1      42.692  42.114  24.146  1.00  0.00     0.161 A 
ATOM      9  C   UNL A   1      43.296  43.325  23.769  1.00  0.00     0.051 A 
ATOM     10  C   UNL A   1      43.072  41.513  25.368  1.00  0.00     0.174 A 
ATOM     11  C   UNL A   1      44.219  43.976  24.573  1.00  0.00     0.013 A 
ATOM     12  C   UNL A   1      44.609  43.423  25.794  1.00  0.00    -0.007 A 
BRANCH   8  13
ATOM     13  O   UNL A   1      41.800  41.790  23.168  1.00  0.00    -0.493 OA
ATOM     14  C   UNL A   1      41.574  42.536  21.999  1.00  0.00     0.278 C 
ENDBRANCH   8  13
BRANCH  10  15
ATOM     15  O   UNL A   1      42.437  40.428  25.927  1.00  0.00    -0.492 OA
ATOM     16  C   UNL A   1      41.137  40.625  26.481  1.00  0.00     0.278 C 
ENDBRANCH  10  15
BRANCH  12  17
ATOM     17  C   UNL A   1      45.458  44.338  26.589  1.00  0.00     0.030 C 
ATOM     18  C   UNL A   1      46.704  44.776  26.371  1.00  0.00     0.082 C 
ATOM     19  S   UNL A   1      47.392  46.052  27.326  1.00  0.00    -0.052 SA
ATOM     20  C   UNL A   1      47.654  44.382  25.292  1.00  0.00     0.285 C 
ATOM     21  C   UNL A   1      48.787  46.220  26.272  1.00  0.00     0.168 C 
ATOM     22  N   UNL A   1      48.701  45.298  25.247  1.00  0.00    -0.198 N 
ATOM     23  O   UNL A   1      47.512  43.403  24.590  1.00  0.00    -0.266 OA
ATOM     24  S   UNL A   1      49.999  47.337  26.541  1.00  0.00    -0.050 S 
BRANCH  22  25
ATOM     25  N   UNL A   1      49.766  45.166  24.336  1.00  0.00    -0.255 N 
ATOM     26  C   UNL A   1      49.810  45.476  22.992  1.00  0.00     0.270 C 
ATOM     27  H   UNL A   1      50.600  44.801  24.713  1.00  0.00     0.192 HD
ATOM     28  O   UNL A   1      50.845  45.247  22.365  1.00  0.00    -0.267 OA
BRANCH  26  29
ATOM     29  C   UNL A   1      48.645  46.011  22.253  1.00  0.00     0.041 A 
ATOM     30  C   UNL A   1      48.558  47.398  22.114  1.00  0.00     0.014 A 
ATOM     31  C   UNL A   1      47.689  45.202  21.641  1.00  0.00     0.014 A 
ATOM     32  C   UNL A   1      47.614  47.964  21.252  1.00  0.00     0.005 A 
ATOM     33  C   UNL A   1      46.747  45.775  20.773  1.00  0.00     0.005 A 
ATOM     34  C   UNL A   1      46.722  47.161  20.518  1.00  0.00    -0.043 A 
BRANCH  34  35
ATOM     35  C   UNL A   1      45.854  47.794  19.413  1.00  0.00    -0.013 C 
ATOM     36  C   UNL A   1      44.619  46.934  19.091  1.00  0.00     0.016 C 
ATOM     37  C   UNL A   1      45.355  49.160  19.907  1.00  0.00     0.016 C 
ATOM     38  C   UNL A   1      46.616  48.053  18.096  1.00  0.00     0.016 C 
ENDBRANCH  34  35
ENDBRANCH  26  29
ENDBRANCH  22  25
ENDBRANCH  12  17
ENDBRANCH   4   7
ENDBRANCH   2   3
ENDBRANCH   1   2
BRANCH   1  39
ATOM     39  C   UNL A   1      47.799  37.951  26.626  1.00  0.00     0.023 C 
BRANCH  39  40
ATOM     40  C   UNL A   1      47.965  37.443  28.050  1.00  0.00     0.116 C 
BRANCH  40  41
ATOM     41  N   UNL A   1      46.959  37.931  28.988  1.00  0.00    -0.352 N 
ATOM     42  C   UNL A   1      45.879  37.257  29.523  1.00  0.00     0.251 C 
ATOM     43  H   UNL A   1      47.067  38.865  29.281  1.00  0.00     0.163 HD
ATOM     44  O   UNL A   1      45.083  37.841  30.252  1.00  0.00    -0.269 OA
BRANCH  42  45
ATOM     45  C   UNL A   1      45.668  35.840  29.151  1.00  0.00     0.039 A 
ATOM     46  C   UNL A   1      46.009  34.835  30.057  1.00  0.00     0.014 A 
ATOM     47  C   UNL A   1      45.012  35.523  27.960  1.00  0.00     0.014 A 
ATOM     48  C   UNL A   1      45.588  33.524  29.817  1.00  0.00     0.010 A 
ATOM     49  C   UNL A   1      44.480  34.252  27.795  1.00  0.00     0.010 A 
ATOM     50  C   UNL A   1      44.764  33.234  28.717  1.00  0.00    -0.014 A 
BRANCH  50  51
ATOM     51  C   UNL A   1      44.198  31.875  28.497  1.00  0.00     0.031 A 
ATOM     52  C   UNL A   1      42.873  31.511  29.116  1.00  0.00     0.074 A 
ATOM     53  C   UNL A   1      44.900  30.950  27.811  1.00  0.00     0.049 A 
ATOM     54  N   UNL A   1      42.243  30.364  29.116  1.00  0.00    -0.248 NA
ATOM     55  C   UNL A   1      42.187  32.568  29.874  1.00  0.00     0.031 C 
ATOM     56  C   UNL A   1      46.219  31.161  27.207  1.00  0.00     0.029 A 
ATOM     57  N   UNL A   1      44.607  29.643  27.503  1.00  0.00    -0.354 N 
ATOM     58  C   UNL A   1      41.106  30.558  29.893  1.00  0.00     0.074 A 
ATOM     59  C   UNL A   1      41.180  31.905  30.414  1.00  0.00     0.031 C 
ATOM     60  C   UNL A   1      46.594  30.045  26.561  1.00  0.00     0.029 A 
ATOM     61  C   UNL A   1      45.575  29.018  26.750  1.00  0.00     0.049 A 
ATOM     62  H   UNL A   1      43.780  29.196  27.796  1.00  0.00     0.167 HD
ATOM     63  C   UNL A   1      40.079  29.704  30.126  1.00  0.00     0.034 A 
ATOM     64  C   UNL A   1      45.636  27.759  26.270  1.00  0.00     0.034 A 
ATOM     65  C   UNL A   1      40.014  28.372  29.579  1.00  0.00     0.049 A 
ATOM     66  C   UNL A   1      44.495  26.816  26.562  1.00  0.00     0.074 A 
ATOM     67  C   UNL A   1      38.992  27.446  29.686  1.00  0.00     0.029 A 
ATOM     68  N   UNL A   1      41.019  27.771  28.830  1.00  0.00    -0.354 N 
ATOM     69  N   UNL A   1      43.394  27.036  27.245  1.00  0.00    -0.248 NA
ATOM     70  C   UNL A   1      44.603  25.458  26.014  1.00  0.00     0.031 C 
ATOM     71  C   UNL A   1      39.413  26.259  29.078  1.00  0.00     0.029 A 
ATOM     72  C   UNL A   1      40.658  26.471  28.507  1.00  0.00     0.049 A 
ATOM     73  H   UNL A   1      41.863  28.204  28.567  1.00  0.00     0.167 HD
ATOM     74  C   UNL A   1      42.662  25.853  27.175  1.00  0.00     0.074 A 
ATOM     75  C   UNL A   1      43.442  24.930  26.375  1.00  0.00     0.031 C 
ATOM     76  C   UNL A   1      41.452  25.558  27.717  1.00  0.00     0.034 A 
BRANCH  63  77
ATOM     77  C   UNL A   1      38.968  30.184  31.033  1.00  0.00     0.023 A 
ATOM     78  C   UNL A   1      37.912  30.983  30.557  1.00  0.00     0.031 A 
ATOM     79  C   UNL A   1      38.991  29.880  32.407  1.00  0.00     0.131 A 
ATOM     80  C   UNL A   1      36.984  31.527  31.457  1.00  0.00     0.055 A 
ATOM     81  C   UNL A   1      38.007  30.345  33.281  1.00  0.00     0.041 A 
ATOM     82  F   UNL A   1      39.984  29.143  32.928  1.00  0.00    -0.206 F 
ATOM     83  C   UNL A   1      37.006  31.190  32.812  1.00  0.00     0.022 A 
BRANCH  80  84
ATOM     84  S   UNL A   1      35.860  32.821  30.860  1.00  0.00     0.124 S 
ATOM     85  O   UNL A   1      36.774  33.688  30.121  1.00  0.00    -0.237 OA
ATOM     86  O   UNL A   1      34.906  32.066  30.058  1.00  0.00    -0.237 OA
ATOM     87  O   UNL A   1      35.322  33.402  32.089  1.00  0.00    -0.744 OA
ENDBRANCH  80  84
ENDBRANCH  63  77
BRANCH  64  88
ATOM     88  C   UNL A   1      46.805  27.311  25.457  1.00  0.00     0.023 A 
ATOM     89  C   UNL A   1      47.000  27.788  24.151  1.00  0.00     0.031 A 
ATOM     90  C   UNL A   1      47.723  26.369  25.955  1.00  0.00     0.131 A 
ATOM     91  C   UNL A   1      48.059  27.293  23.372  1.00  0.00     0.055 A 
ATOM     92  C   UNL A   1      48.808  25.922  25.198  1.00  0.00     0.041 A 
ATOM     93  F   UNL A   1      47.586  25.878  27.197  1.00  0.00    -0.206 F 
ATOM     94  C   UNL A   1      48.973  26.375  23.892  1.00  0.00     0.022 A 
BRANCH  91  95
ATOM     95  S   UNL A   1      48.173  27.803  21.634  1.00  0.00     0.124 S 
ATOM     96  O   UNL A   1      48.389  26.526  20.964  1.00  0.00    -0.237 OA
ATOM     97  O   UNL A   1      46.874  28.430  21.416  1.00  0.00    -0.237 OA
ATOM     98  O   UNL A   1      49.313  28.717  21.622  1.00  0.00    -0.744 OA
ENDBRANCH  91  95
ENDBRANCH  64  88
BRANCH  76  99
ATOM     99  C   UNL A   1      40.876  24.194  27.418  1.00  0.00     0.023 A 
ATOM    100  C   UNL A   1      39.763  24.025  26.577  1.00  0.00     0.031 A 
ATOM    101  C   UNL A   1      41.452  23.045  27.990  1.00  0.00     0.131 A 
ATOM    102  C   UNL A   1      39.224  22.745  26.379  1.00  0.00     0.055 A 
ATOM    103  C   UNL A   1      40.956  21.767  27.732  1.00  0.00     0.041 A 
ATOM    104  F   UNL A   1      42.514  23.145  28.806  1.00  0.00    -0.206 F 
ATOM    105  C   UNL A   1      39.826  21.613  26.934  1.00  0.00     0.022 A 
BRANCH 102 106
ATOM    106  S   UNL A   1      37.661  22.589  25.473  1.00  0.00     0.124 S 
ATOM    107  O   UNL A   1      36.676  22.759  26.536  1.00  0.00    -0.237 OA
ATOM    108  O   UNL A   1      37.750  23.677  24.505  1.00  0.00    -0.237 OA
ATOM    109  O   UNL A   1      37.730  21.244  24.900  1.00  0.00    -0.744 OA
ENDBRANCH 102 106
ENDBRANCH  76  99
ENDBRANCH  50  51
ENDBRANCH  42  45
ENDBRANCH  40  41
ENDBRANCH  39  40
ENDBRANCH   1  39
TORSDOF 20
ENDMDL
MODEL 2
REMARK VINA RESULT:     -10.4      1.427      7.062
REMARK SMILES COc1ccc(/C=C2/SC(=S)N(NC(=O)c3ccc(C(C)(C)C)cc3)C2=O)c(C(=O)NCCCCNC(=O)c2ccc(-c3c4nc(c(-c5cc(S(=O)(=O)[O-])ccc5F)c5ccc([nH]5)c(-c5cc(S(=O)(=O)[O-])ccc5F)c5nc(c(-c6cc(S(=O)(=O)[O-])ccc6F)c6ccc3[nH]6)C=C5)C=C4)cc2)c1OC
REMARK SMILES IDX 33 1 32 2 31 3 29 4 30 5 28 7 3 8 4 9 102 10 5 11 6 12 2 13
REMARK SMILES IDX 1 14 103 15 104 16 7 17 8 18 9 19 26 20 10 21 12 22 27 23
REMARK SMILES IDX 11 24 13 25 14 26 15 28 16 29 17 30 25 31 18 32 24 33 19 34
REMARK SMILES IDX 20 35 21 36 22 37 23 38 34 39 35 40 36 41 37 42 38 44 39 45
REMARK SMILES IDX 40 46 101 47 41 48 100 49 42 50 43 51 44 52 94 53 45 54
REMARK SMILES IDX 99 55 93 56 95 57 46 58 98 59 92 60 91 61 47 63 79 64 59 65
REMARK SMILES IDX 78 66 60 67 63 68 77 69 96 70 61 71 62 72 76 74 97 75 64 76
REMARK SMILES IDX 48 77 49 78 57 79 50 80 56 81 58 82 55 83 51 84 52 85 53 86
REMARK SMILES IDX 54 87 80 88 81 89 89 90 82 91 88 92 90 93 87 94 83 95 84 96
REMARK SMILES IDX 85 97 86 98 65 99 66 100 74 101 67 102 73 103 75 104 72 105
REMARK SMILES IDX 68 106 69 107 70 108 71 109
REMARK H PARENT 31 6 13 27 36 43 95 62 63 73
REMARK Flexibility Score: inf
ROOT
ATOM      1  C   UNL A   1      47.791  39.355  26.896  1.00  0.00     0.023 C 
ENDROOT
BRANCH   1   2
ATOM      2  C   UNL A   1      46.533  40.165  26.643  1.00  0.00     0.116 C 
BRANCH   2   3
ATOM      3  N   UNL A   1      45.940  40.897  27.729  1.00  0.00    -0.352 N 
ATOM      4  C   UNL A   1      44.867  41.768  27.661  1.00  0.00     0.255 C 
ATOM      5  O   UNL A   1      44.388  42.204  28.708  1.00  0.00    -0.269 OA
ATOM      6  H   UNL A   1      46.341  40.764  28.618  1.00  0.00     0.163 HD
BRANCH   4   7
ATOM      7  C   UNL A   1      44.376  42.312  26.351  1.00  0.00     0.092 A 
ATOM      8  C   UNL A   1      43.035  42.225  24.293  1.00  0.00     0.161 A 
ATOM      9  C   UNL A   1      43.609  43.453  23.927  1.00  0.00     0.051 A 
ATOM     10  C   UNL A   1      43.411  41.634  25.521  1.00  0.00     0.174 A 
ATOM     11  C   UNL A   1      44.498  44.131  24.748  1.00  0.00     0.013 A 
ATOM     12  C   UNL A   1      44.883  43.587  25.975  1.00  0.00    -0.007 A 
BRANCH   8  13
ATOM     13  O   UNL A   1      42.170  41.875  23.299  1.00  0.00    -0.493 OA
ATOM     14  C   UNL A   1      40.941  42.505  23.038  1.00  0.00     0.278 C 
ENDBRANCH   8  13
BRANCH  10  15
ATOM     15  O   UNL A   1      42.798  40.529  26.068  1.00  0.00    -0.492 OA
ATOM     16  C   UNL A   1      41.411  40.624  26.387  1.00  0.00     0.278 C 
ENDBRANCH  10  15
BRANCH  12  17
ATOM     17  C   UNL A   1      45.691  44.526  26.785  1.00  0.00     0.030 C 
ATOM     18  C   UNL A   1      46.909  45.038  26.566  1.00  0.00     0.082 C 
ATOM     19  S   UNL A   1      47.537  46.324  27.547  1.00  0.00    -0.052 SA
ATOM     20  C   UNL A   1      47.864  44.725  25.466  1.00  0.00     0.285 C 
ATOM     21  C   UNL A   1      48.908  46.596  26.484  1.00  0.00     0.168 C 
ATOM     22  N   UNL A   1      48.859  45.698  25.434  1.00  0.00    -0.198 N 
ATOM     23  O   UNL A   1      47.767  43.759  24.739  1.00  0.00    -0.266 OA
ATOM     24  S   UNL A   1      50.060  47.770  26.770  1.00  0.00    -0.050 S 
BRANCH  22  25
ATOM     25  N   UNL A   1      49.919  45.649  24.508  1.00  0.00    -0.255 N 
ATOM     26  C   UNL A   1      49.940  46.035  23.184  1.00  0.00     0.270 C 
ATOM     27  H   UNL A   1      50.767  45.288  24.857  1.00  0.00     0.192 HD
ATOM     28  O   UNL A   1      50.974  45.872  22.535  1.00  0.00    -0.267 OA
BRANCH  26  29
ATOM     29  C   UNL A   1      48.752  46.576  22.485  1.00  0.00     0.041 A 
ATOM     30  C   UNL A   1      48.807  47.908  22.069  1.00  0.00     0.014 A 
ATOM     31  C   UNL A   1      47.633  45.807  22.171  1.00  0.00     0.014 A 
ATOM     32  C   UNL A   1      47.823  48.424  21.220  1.00  0.00     0.005 A 
ATOM     33  C   UNL A   1      46.651  46.328  21.314  1.00  0.00     0.005 A 
ATOM     34  C   UNL A   1      46.751  47.628  20.778  1.00  0.00    -0.043 A 
BRANCH  34  35
ATOM     35  C   UNL A   1      45.815  48.151  19.670  1.00  0.00    -0.013 C 
ATOM     36  C   UNL A   1      46.601  48.686  18.460  1.00  0.00     0.016 C 
ATOM     37  C   UNL A   1      44.942  46.985  19.181  1.00  0.00     0.016 C 
ATOM     38  C   UNL A   1      44.849  49.256  20.144  1.00  0.00     0.016 C 
ENDBRANCH  34  35
ENDBRANCH  26  29
ENDBRANCH  22  25
ENDBRANCH  12  17
ENDBRANCH   4   7
ENDBRANCH   2   3
ENDBRANCH   1   2
BRANCH   1  39
ATOM     39  C   UNL A   1      47.676  37.848  26.742  1.00  0.00     0.023 C 
BRANCH  39  40
ATOM     40  C   UNL A   1      48.044  37.017  27.961  1.00  0.00     0.116 C 
BRANCH  40  41
ATOM     41  N   UNL A   1      47.350  37.397  29.187  1.00  0.00    -0.352 N 
ATOM     42  C   UNL A   1      46.474  36.651  29.950  1.00  0.00     0.251 C 
ATOM     43  H   UNL A   1      47.532  38.308  29.515  1.00  0.00     0.163 HD
ATOM     44  O   UNL A   1      45.920  37.150  30.924  1.00  0.00    -0.269 OA
BRANCH  42  45
ATOM     45  C   UNL A   1      46.173  35.262  29.535  1.00  0.00     0.039 A 
ATOM     46  C   UNL A   1      46.480  34.207  30.394  1.00  0.00     0.014 A 
ATOM     47  C   UNL A   1      45.468  35.027  28.353  1.00  0.00     0.014 A 
ATOM     48  C   UNL A   1      45.979  32.932  30.121  1.00  0.00     0.010 A 
ATOM     49  C   UNL A   1      44.860  33.794  28.159  1.00  0.00     0.010 A 
ATOM     50  C   UNL A   1      45.110  32.728  29.036  1.00  0.00    -0.014 A 
BRANCH  50  51
ATOM     51  C   UNL A   1      44.462  31.412  28.785  1.00  0.00     0.031 A 
ATOM     52  C   UNL A   1      45.202  30.353  28.009  1.00  0.00     0.074 A 
ATOM     53  C   UNL A   1      43.192  31.194  29.183  1.00  0.00     0.049 A 
ATOM     54  N   UNL A   1      44.793  29.176  27.612  1.00  0.00    -0.248 NA
ATOM     55  C   UNL A   1      46.571  30.683  27.584  1.00  0.00     0.031 C 
ATOM     56  C   UNL A   1      42.349  32.158  29.897  1.00  0.00     0.029 A 
ATOM     57  N   UNL A   1      42.383  30.092  29.047  1.00  0.00    -0.354 N 
ATOM     58  C   UNL A   1      45.842  28.641  26.872  1.00  0.00     0.074 A 
ATOM     59  C   UNL A   1      46.869  29.657  26.806  1.00  0.00     0.031 C 
ATOM     60  C   UNL A   1      41.166  31.588  30.178  1.00  0.00     0.029 A 
ATOM     61  C   UNL A   1      41.139  30.241  29.619  1.00  0.00     0.049 A 
ATOM     62  H   UNL A   1      42.666  29.272  28.582  1.00  0.00     0.167 HD
ATOM     63  C   UNL A   1      45.954  27.406  26.325  1.00  0.00     0.034 A 
ATOM     64  C   UNL A   1      40.094  29.390  29.681  1.00  0.00     0.034 A 
ATOM     65  C   UNL A   1      44.927  26.399  26.420  1.00  0.00     0.049 A 
ATOM     66  C   UNL A   1      40.229  28.029  29.042  1.00  0.00     0.074 A 
ATOM     67  C   UNL A   1      44.959  25.091  25.970  1.00  0.00     0.029 A 
ATOM     68  N   UNL A   1      43.677  26.591  26.998  1.00  0.00    -0.354 N 
ATOM     69  N   UNL A   1      41.255  27.513  28.403  1.00  0.00    -0.248 NA
ATOM     70  C   UNL A   1      39.069  27.135  29.140  1.00  0.00     0.031 C 
ATOM     71  C   UNL A   1      43.702  24.522  26.195  1.00  0.00     0.029 A 
ATOM     72  C   UNL A   1      42.915  25.438  26.874  1.00  0.00     0.049 A 
ATOM     73  H   UNL A   1      43.377  27.422  27.431  1.00  0.00     0.167 HD
ATOM     74  C   UNL A   1      40.874  26.220  28.055  1.00  0.00     0.074 A 
ATOM     75  C   UNL A   1      39.531  26.033  28.567  1.00  0.00     0.031 C 
ATOM     76  C   UNL A   1      41.571  25.271  27.380  1.00  0.00     0.034 A 
BRANCH  63  77
ATOM     77  C   UNL A   1      47.218  27.099  25.553  1.00  0.00     0.023 A 
ATOM     78  C   UNL A   1      48.313  26.446  26.149  1.00  0.00     0.031 A 
ATOM     79  C   UNL A   1      47.351  27.511  24.215  1.00  0.00     0.131 A 
ATOM     80  C   UNL A   1      49.518  26.311  25.443  1.00  0.00     0.055 A 
ATOM     81  C   UNL A   1      48.521  27.285  23.487  1.00  0.00     0.041 A 
ATOM     82  F   UNL A   1      46.353  28.162  23.596  1.00  0.00    -0.206 F 
ATOM     83  C   UNL A   1      49.621  26.700  24.106  1.00  0.00     0.022 A 
BRANCH  80  84
ATOM     84  S   UNL A   1      50.997  25.787  26.354  1.00  0.00     0.124 S 
ATOM     85  O   UNL A   1      50.440  24.802  27.280  1.00  0.00    -0.237 OA
ATOM     86  O   UNL A   1      51.849  25.258  25.297  1.00  0.00    -0.237 OA
ATOM     87  O   UNL A   1      51.469  27.020  26.981  1.00  0.00    -0.744 OA
ENDBRANCH  80  84
ENDBRANCH  63  77
BRANCH  64  88
ATOM     88  C   UNL A   1      38.833  29.783  30.376  1.00  0.00     0.023 A 
ATOM     89  C   UNL A   1      37.845  30.528  29.712  1.00  0.00     0.031 A 
ATOM     90  C   UNL A   1      38.612  29.456  31.726  1.00  0.00     0.131 A 
ATOM     91  C   UNL A   1      36.704  30.959  30.407  1.00  0.00     0.055 A 
ATOM     92  C   UNL A   1      37.449  29.837  32.397  1.00  0.00     0.041 A 
ATOM     93  F   UNL A   1      39.522  28.745  32.411  1.00  0.00    -0.206 F 
ATOM     94  C   UNL A   1      36.492  30.606  31.741  1.00  0.00     0.022 A 
BRANCH  91  95
ATOM     95  S   UNL A   1      35.538  32.065  29.563  1.00  0.00     0.124 S 
ATOM     96  O   UNL A   1      34.687  32.495  30.666  1.00  0.00    -0.237 OA
ATOM     97  O   UNL A   1      36.430  33.078  29.008  1.00  0.00    -0.237 OA
ATOM     98  O   UNL A   1      34.897  31.196  28.579  1.00  0.00    -0.744 OA
ENDBRANCH  91  95
ENDBRANCH  64  88
BRANCH  76  99
ATOM     99  C   UNL A   1      40.910  23.925  27.202  1.00  0.00     0.023 A 
ATOM    100  C   UNL A   1      39.798  23.747  26.361  1.00  0.00     0.031 A 
ATOM    101  C   UNL A   1      41.403  22.801  27.891  1.00  0.00     0.131 A 
ATOM    102  C   UNL A   1      39.178  22.491  26.277  1.00  0.00     0.055 A 
ATOM    103  C   UNL A   1      40.827  21.539  27.747  1.00  0.00     0.041 A 
ATOM    104  F   UNL A   1      42.459  22.911  28.712  1.00  0.00    -0.206 F 
ATOM    105  C   UNL A   1      39.698  21.381  26.948  1.00  0.00     0.022 A 
BRANCH 102 106
ATOM    106  S   UNL A   1      37.619  22.349  25.362  1.00  0.00     0.124 S 
ATOM    107  O   UNL A   1      37.452  23.701  24.837  1.00  0.00    -0.237 OA
ATOM    108  O   UNL A   1      37.925  21.316  24.379  1.00  0.00    -0.237 OA
ATOM    109  O   UNL A   1      36.653  21.960  26.389  1.00  0.00    -0.744 OA
ENDBRANCH 102 106
ENDBRANCH  76  99
ENDBRANCH  50  51
ENDBRANCH  42  45
ENDBRANCH  40  41
ENDBRANCH  39  40
ENDBRANCH   1  39
TORSDOF 20
ENDMDL
MODEL 3
REMARK VINA RESULT:     -10.4     12.287     17.874
REMARK SMILES COc1ccc(/C=C2/SC(=S)N(NC(=O)c3ccc(C(C)(C)C)cc3)C2=O)c(C(=O)NCCCCNC(=O)c2ccc(-c3c4nc(c(-c5cc(S(=O)(=O)[O-])ccc5F)c5ccc([nH]5)c(-c5cc(S(=O)(=O)[O-])ccc5F)c5nc(c(-c6cc(S(=O)(=O)[O-])ccc6F)c6ccc3[nH]6)C=C5)C=C4)cc2)c1OC
REMARK SMILES IDX 33 1 32 2 31 3 29 4 30 5 28 7 3 8 4 9 102 10 5 11 6 12 2 13
REMARK SMILES IDX 1 14 103 15 104 16 7 17 8 18 9 19 26 20 10 21 12 22 27 23
REMARK SMILES IDX 11 24 13 25 14 26 15 28 16 29 17 30 25 31 18 32 24 33 19 34
REMARK SMILES IDX 20 35 21 36 22 37 23 38 34 39 35 40 36 41 37 42 38 44 39 45
REMARK SMILES IDX 40 46 101 47 41 48 100 49 42 50 43 51 44 52 94 53 45 54
REMARK SMILES IDX 99 55 93 56 95 57 46 58 98 59 92 60 91 61 47 63 79 64 59 65
REMARK SMILES IDX 78 66 60 67 63 68 77 69 96 70 61 71 62 72 76 74 97 75 64 76
REMARK SMILES IDX 48 77 49 78 57 79 50 80 56 81 58 82 55 83 51 84 52 85 53 86
REMARK SMILES IDX 54 87 80 88 81 89 89 90 82 91 88 92 90 93 87 94 83 95 84 96
REMARK SMILES IDX 85 97 86 98 65 99 66 100 74 101 67 102 73 103 75 104 72 105
REMARK SMILES IDX 68 106 69 107 70 108 71 109
REMARK H PARENT 31 6 13 27 36 43 95 62 63 73
REMARK Flexibility Score: inf
ROOT
ATOM      1  C   UNL A   1      50.829  26.387  39.353  1.00  0.00     0.023 C 
ENDROOT
BRANCH   1   2
ATOM      2  C   UNL A   1      49.468  27.036  39.523  1.00  0.00     0.116 C 
BRANCH   2   3
ATOM      3  N   UNL A   1      48.723  27.421  38.355  1.00  0.00    -0.352 N 
ATOM      4  C   UNL A   1      47.418  27.878  38.310  1.00  0.00     0.255 C 
ATOM      5  O   UNL A   1      46.974  28.305  37.244  1.00  0.00    -0.269 OA
ATOM      6  H   UNL A   1      49.194  27.353  37.493  1.00  0.00     0.163 HD
BRANCH   4   7
ATOM      7  C   UNL A   1      46.489  27.724  39.479  1.00  0.00     0.092 A 
ATOM      8  C   UNL A   1      45.413  28.485  41.554  1.00  0.00     0.161 A 
ATOM      9  C   UNL A   1      44.752  27.247  41.606  1.00  0.00     0.051 A 
ATOM     10  C   UNL A   1      46.295  28.744  40.480  1.00  0.00     0.174 A 
ATOM     11  C   UNL A   1      44.898  26.286  40.617  1.00  0.00     0.013 A 
ATOM     12  C   UNL A   1      45.749  26.510  39.533  1.00  0.00    -0.007 A 
BRANCH   8  13
ATOM     13  O   UNL A   1      44.999  29.205  42.635  1.00  0.00    -0.493 OA
ATOM     14  C   UNL A   1      43.713  29.745  42.804  1.00  0.00     0.278 C 
ENDBRANCH   8  13
BRANCH  10  15
ATOM     15  O   UNL A   1      46.865  29.971  40.226  1.00  0.00    -0.492 OA
ATOM     16  C   UNL A   1      47.978  30.370  41.024  1.00  0.00     0.278 C 
ENDBRANCH  10  15
BRANCH  12  17
ATOM     17  C   UNL A   1      45.641  25.458  38.497  1.00  0.00     0.030 C 
ATOM     18  C   UNL A   1      46.160  24.224  38.455  1.00  0.00     0.082 C 
ATOM     19  S   UNL A   1      45.676  23.083  37.240  1.00  0.00    -0.052 SA
ATOM     20  C   UNL A   1      47.100  23.577  39.413  1.00  0.00     0.285 C 
ATOM     21  C   UNL A   1      46.502  21.748  38.028  1.00  0.00     0.168 C 
ATOM     22  N   UNL A   1      47.131  22.207  39.169  1.00  0.00    -0.198 N 
ATOM     23  O   UNL A   1      47.732  24.181  40.254  1.00  0.00    -0.266 OA
ATOM     24  S   UNL A   1      46.494  20.191  37.423  1.00  0.00    -0.050 S 
BRANCH  22  25
ATOM     25  N   UNL A   1      47.954  21.337  39.909  1.00  0.00    -0.255 N 
ATOM     26  C   UNL A   1      49.218  20.868  39.616  1.00  0.00     0.270 C 
ATOM     27  H   UNL A   1      47.573  21.018  40.760  1.00  0.00     0.192 HD
ATOM     28  O   UNL A   1      49.753  20.078  40.394  1.00  0.00    -0.267 OA
BRANCH  26  29
ATOM     29  C   UNL A   1      49.937  21.223  38.372  1.00  0.00     0.041 A 
ATOM     30  C   UNL A   1      50.403  20.170  37.580  1.00  0.00     0.014 A 
ATOM     31  C   UNL A   1      50.103  22.534  37.930  1.00  0.00     0.014 A 
ATOM     32  C   UNL A   1      50.895  20.417  36.295  1.00  0.00     0.005 A 
ATOM     33  C   UNL A   1      50.593  22.776  36.637  1.00  0.00     0.005 A 
ATOM     34  C   UNL A   1      50.949  21.721  35.773  1.00  0.00    -0.043 A 
BRANCH  34  35
ATOM     35  C   UNL A   1      51.279  21.936  34.282  1.00  0.00    -0.013 C 
ATOM     36  C   UNL A   1      50.291  22.906  33.610  1.00  0.00     0.016 C 
ATOM     37  C   UNL A   1      52.682  22.554  34.178  1.00  0.00     0.016 C 
ATOM     38  C   UNL A   1      51.309  20.632  33.458  1.00  0.00     0.016 C 
ENDBRANCH  34  35
ENDBRANCH  26  29
ENDBRANCH  22  25
ENDBRANCH  12  17
ENDBRANCH   4   7
ENDBRANCH   2   3
ENDBRANCH   1   2
BRANCH   1  39
ATOM     39  C   UNL A   1      52.002  27.072  40.032  1.00  0.00     0.023 C 
BRANCH  39  40
ATOM     40  C   UNL A   1      52.417  28.419  39.460  1.00  0.00     0.116 C 
BRANCH  40  41
ATOM     41  N   UNL A   1      53.680  28.405  38.729  1.00  0.00    -0.352 N 
ATOM     42  C   UNL A   1      53.911  28.058  37.413  1.00  0.00     0.251 C 
ATOM     43  H   UNL A   1      54.474  28.682  39.243  1.00  0.00     0.163 HD
ATOM     44  O   UNL A   1      55.055  28.034  36.970  1.00  0.00    -0.269 OA
BRANCH  42  45
ATOM     45  C   UNL A   1      52.763  27.657  36.570  1.00  0.00     0.039 A 
ATOM     46  C   UNL A   1      51.978  28.641  35.967  1.00  0.00     0.014 A 
ATOM     47  C   UNL A   1      52.552  26.309  36.276  1.00  0.00     0.014 A 
ATOM     48  C   UNL A   1      51.057  28.275  34.982  1.00  0.00     0.010 A 
ATOM     49  C   UNL A   1      51.739  25.966  35.204  1.00  0.00     0.010 A 
ATOM     50  C   UNL A   1      50.976  26.942  34.546  1.00  0.00    -0.014 A 
BRANCH  50  51
ATOM     51  C   UNL A   1      50.094  26.536  33.417  1.00  0.00     0.031 A 
ATOM     52  C   UNL A   1      50.629  26.560  32.009  1.00  0.00     0.074 A 
ATOM     53  C   UNL A   1      48.803  26.222  33.644  1.00  0.00     0.049 A 
ATOM     54  N   UNL A   1      50.011  26.324  30.881  1.00  0.00    -0.248 NA
ATOM     55  C   UNL A   1      52.040  26.944  31.846  1.00  0.00     0.031 C 
ATOM     56  C   UNL A   1      48.149  26.212  34.956  1.00  0.00     0.029 A 
ATOM     57  N   UNL A   1      47.802  25.848  32.779  1.00  0.00    -0.354 N 
ATOM     58  C   UNL A   1      50.948  26.558  29.880  1.00  0.00     0.074 A 
ATOM     59  C   UNL A   1      52.147  27.034  30.532  1.00  0.00     0.031 C 
ATOM     60  C   UNL A   1      46.878  25.803  34.814  1.00  0.00     0.029 A 
ATOM     61  C   UNL A   1      46.604  25.575  33.400  1.00  0.00     0.049 A 
ATOM     62  H   UNL A   1      47.932  25.782  31.806  1.00  0.00     0.167 HD
ATOM     63  C   UNL A   1      50.831  26.364  28.543  1.00  0.00     0.034 A 
ATOM     64  C   UNL A   1      45.417  25.190  32.885  1.00  0.00     0.034 A 
ATOM     65  C   UNL A   1      49.633  25.867  27.915  1.00  0.00     0.049 A 
ATOM     66  C   UNL A   1      45.301  25.005  31.392  1.00  0.00     0.074 A 
ATOM     67  C   UNL A   1      49.423  25.562  26.582  1.00  0.00     0.029 A 
ATOM     68  N   UNL A   1      48.436  25.613  28.575  1.00  0.00    -0.354 N 
ATOM     69  N   UNL A   1      46.217  25.167  30.464  1.00  0.00    -0.248 NA
ATOM     70  C   UNL A   1      43.993  24.580  30.879  1.00  0.00     0.031 C 
ATOM     71  C   UNL A   1      48.079  25.209  26.422  1.00  0.00     0.029 A 
ATOM     72  C   UNL A   1      47.472  25.198  27.668  1.00  0.00     0.049 A 
ATOM     73  H   UNL A   1      48.293  25.714  29.543  1.00  0.00     0.167 HD
ATOM     74  C   UNL A   1      45.603  24.827  29.262  1.00  0.00     0.074 A 
ATOM     75  C   UNL A   1      44.244  24.440  29.586  1.00  0.00     0.031 C 
ATOM     76  C   UNL A   1      46.117  24.827  28.005  1.00  0.00     0.034 A 
BRANCH  63  77
ATOM     77  C   UNL A   1      52.022  26.721  27.682  1.00  0.00     0.023 A 
ATOM     78  C   UNL A   1      52.989  25.766  27.319  1.00  0.00     0.031 A 
ATOM     79  C   UNL A   1      52.221  28.048  27.259  1.00  0.00     0.131 A 
ATOM     80  C   UNL A   1      54.152  26.167  26.644  1.00  0.00     0.055 A 
ATOM     81  C   UNL A   1      53.333  28.421  26.502  1.00  0.00     0.041 A 
ATOM     82  F   UNL A   1      51.348  29.011  27.593  1.00  0.00    -0.206 F 
ATOM     83  C   UNL A   1      54.318  27.483  26.207  1.00  0.00     0.022 A 
BRANCH  80  84
ATOM     84  S   UNL A   1      55.521  24.984  26.506  1.00  0.00     0.124 S 
ATOM     85  O   UNL A   1      55.898  24.804  27.906  1.00  0.00    -0.237 OA
ATOM     86  O   UNL A   1      54.887  23.840  25.863  1.00  0.00    -0.237 OA
ATOM     87  O   UNL A   1      56.506  25.693  25.691  1.00  0.00    -0.744 OA
ENDBRANCH  80  84
ENDBRANCH  63  77
BRANCH  64  88
ATOM     88  C   UNL A   1      44.246  24.943  33.777  1.00  0.00     0.023 A 
ATOM     89  C   UNL A   1      43.572  26.008  34.395  1.00  0.00     0.031 A 
ATOM     90  C   UNL A   1      43.807  23.637  34.058  1.00  0.00     0.131 A 
ATOM     91  C   UNL A   1      42.526  25.751  35.295  1.00  0.00     0.055 A 
ATOM     92  C   UNL A   1      42.728  23.388  34.910  1.00  0.00     0.041 A 
ATOM     93  F   UNL A   1      44.413  22.580  33.496  1.00  0.00    -0.206 F 
ATOM     94  C   UNL A   1      42.089  24.449  35.545  1.00  0.00     0.022 A 
BRANCH  91  95
ATOM     95  S   UNL A   1      41.799  27.144  36.205  1.00  0.00     0.124 S 
ATOM     96  O   UNL A   1      42.956  27.666  36.921  1.00  0.00    -0.237 OA
ATOM     97  O   UNL A   1      41.283  27.976  35.123  1.00  0.00    -0.237 OA
ATOM     98  O   UNL A   1      40.780  26.509  37.039  1.00  0.00    -0.744 OA
ENDBRANCH  91  95
ENDBRANCH  64  88
BRANCH  76  99
ATOM     99  C   UNL A   1      45.216  24.345  26.891  1.00  0.00     0.023 A 
ATOM    100  C   UNL A   1      45.190  23.000  26.485  1.00  0.00     0.031 A 
ATOM    101  C   UNL A   1      44.374  25.253  26.224  1.00  0.00     0.131 A 
ATOM    102  C   UNL A   1      44.384  22.612  25.404  1.00  0.00     0.055 A 
ATOM    103  C   UNL A   1      43.521  24.847  25.198  1.00  0.00     0.041 A 
ATOM    104  F   UNL A   1      44.360  26.552  26.565  1.00  0.00    -0.206 F 
ATOM    105  C   UNL A   1      43.533  23.523  24.772  1.00  0.00     0.022 A 
BRANCH 102 106
ATOM    106  S   UNL A   1      44.540  20.922  24.764  1.00  0.00     0.124 S 
ATOM    107  O   UNL A   1      44.603  21.148  23.324  1.00  0.00    -0.237 OA
ATOM    108  O   UNL A   1      45.774  20.462  25.393  1.00  0.00    -0.237 OA
ATOM    109  O   UNL A   1      43.323  20.263  25.237  1.00  0.00    -0.744 OA
ENDBRANCH 102 106
ENDBRANCH  76  99
ENDBRANCH  50  51
ENDBRANCH  42  45
ENDBRANCH  40  41
ENDBRANCH  39  40
ENDBRANCH   1  39
TORSDOF 20
ENDMDL
