MODEL 1
REMARK VINA RESULT:     -12.3      0.000      0.000
REMARK SMILES O=C(NCCCCNC(=O)c1cc2ncoc2cn1)c1ccc(-c2c3nc(c(-c4cc(S(=O)(=O)[O-])ccc4F)c4ccc([nH]4)c(-c4cc(S(=O)(=O)[O-])ccc4F)c4nc(c(-c5cc(S(=O)(=O)[O-])ccc5F)c5ccc2[nH]5)C=C4)C=C3)cc1
REMARK SMILES IDX 4 1 3 2 1 3 2 4 20 6 21 7 82 8 22 9 81 10 23 11 24 12 25 13
REMARK SMILES IDX 75 14 26 15 80 16 74 17 76 18 27 19 79 20 73 21 72 22 28 24
REMARK SMILES IDX 60 25 40 26 59 27 41 28 44 29 58 30 77 31 42 32 43 33 57 35
REMARK SMILES IDX 78 36 45 37 29 38 30 39 38 40 31 41 37 42 39 43 36 44 32 45
REMARK SMILES IDX 33 46 34 47 35 48 61 49 62 50 70 51 63 52 69 53 71 54 68 55
REMARK SMILES IDX 64 56 65 57 66 58 67 59 46 60 47 61 55 62 48 63 54 64 56 65
REMARK SMILES IDX 53 66 49 67 50 68 51 69 52 70 5 71 6 72 7 73 8 74 9 75 10 77
REMARK SMILES IDX 11 78 12 79 19 80 13 81 18 82 14 83 17 84 15 85 16 86
REMARK H PARENT 3 5 76 23 44 34 8 76
REMARK Flexibility Score: inf
ROOT
ATOM      1  C   UNL A   1      32.571  29.527  25.704  1.00  0.00     0.116 C 
ENDROOT
BRANCH   1   2
ATOM      2  N   UNL A   1      31.851  30.791  25.925  1.00  0.00    -0.352 N 
ATOM      3  O   UNL A   1      31.275  32.585  27.202  1.00  0.00    -0.269 OA
ATOM      4  C   UNL A   1      32.134  31.797  26.847  1.00  0.00     0.251 C 
ATOM      5  H   UNL A   1      31.069  30.946  25.348  1.00  0.00     0.163 HD
BRANCH   4   6
ATOM      6  C   UNL A   1      33.515  31.897  27.361  1.00  0.00     0.039 A 
ATOM      7  C   UNL A   1      34.142  33.097  27.701  1.00  0.00     0.014 A 
ATOM      8  C   UNL A   1      34.180  30.693  27.527  1.00  0.00     0.014 A 
ATOM      9  C   UNL A   1      35.434  33.032  28.229  1.00  0.00     0.010 A 
ATOM     10  C   UNL A   1      35.246  30.624  28.363  1.00  0.00     0.010 A 
ATOM     11  C   UNL A   1      35.977  31.774  28.544  1.00  0.00    -0.014 A 
BRANCH  11  12
ATOM     12  C   UNL A   1      37.314  31.582  29.079  1.00  0.00     0.031 A 
ATOM     13  C   UNL A   1      37.881  30.257  28.770  1.00  0.00     0.074 A 
ATOM     14  C   UNL A   1      38.046  32.587  29.615  1.00  0.00     0.049 A 
ATOM     15  N   UNL A   1      37.930  29.236  29.557  1.00  0.00    -0.248 NA
ATOM     16  C   UNL A   1      38.212  29.957  27.370  1.00  0.00     0.031 C 
ATOM     17  C   UNL A   1      37.752  34.030  29.651  1.00  0.00     0.029 A 
ATOM     18  N   UNL A   1      39.282  32.535  30.176  1.00  0.00    -0.354 N 
ATOM     19  C   UNL A   1      38.555  28.237  28.822  1.00  0.00     0.074 A 
ATOM     20  C   UNL A   1      38.458  28.647  27.444  1.00  0.00     0.031 C 
ATOM     21  C   UNL A   1      38.867  34.720  29.984  1.00  0.00     0.029 A 
ATOM     22  C   UNL A   1      39.887  33.770  30.379  1.00  0.00     0.049 A 
ATOM     23  H   UNL A   1      39.716  31.686  30.420  1.00  0.00     0.167 HD
ATOM     24  C   UNL A   1      39.346  27.312  29.437  1.00  0.00     0.034 A 
ATOM     25  C   UNL A   1      41.145  33.994  30.833  1.00  0.00     0.034 A 
ATOM     26  C   UNL A   1      39.203  27.404  30.870  1.00  0.00     0.049 A 
ATOM     27  C   UNL A   1      41.601  32.749  31.493  1.00  0.00     0.074 A 
ATOM     28  C   UNL A   1      38.171  27.208  31.763  1.00  0.00     0.029 A 
ATOM     29  N   UNL A   1      40.144  28.169  31.522  1.00  0.00    -0.354 N 
ATOM     30  N   UNL A   1      41.102  32.290  32.606  1.00  0.00    -0.248 NA
ATOM     31  C   UNL A   1      42.307  31.776  30.675  1.00  0.00     0.031 C 
ATOM     32  C   UNL A   1      38.354  28.201  32.769  1.00  0.00     0.029 A 
ATOM     33  C   UNL A   1      39.529  28.908  32.497  1.00  0.00     0.049 A 
ATOM     34  H   UNL A   1      41.107  28.182  31.319  1.00  0.00     0.167 HD
ATOM     35  C   UNL A   1      41.012  30.921  32.403  1.00  0.00     0.074 A 
ATOM     36  C   UNL A   1      41.885  30.653  31.261  1.00  0.00     0.031 C 
ATOM     37  C   UNL A   1      40.015  30.191  32.982  1.00  0.00     0.034 A 
BRANCH  24  38
ATOM     38  C   UNL A   1      40.533  26.636  28.789  1.00  0.00     0.023 A 
ATOM     39  C   UNL A   1      40.541  25.286  28.397  1.00  0.00     0.031 A 
ATOM     40  C   UNL A   1      41.628  27.405  28.347  1.00  0.00     0.131 A 
ATOM     41  C   UNL A   1      41.572  24.747  27.617  1.00  0.00     0.055 A 
ATOM     42  C   UNL A   1      42.627  26.886  27.512  1.00  0.00     0.041 A 
ATOM     43  F   UNL A   1      41.734  28.705  28.664  1.00  0.00    -0.206 F 
ATOM     44  C   UNL A   1      42.600  25.549  27.139  1.00  0.00     0.022 A 
BRANCH  41  45
ATOM     45  S   UNL A   1      41.571  22.981  27.196  1.00  0.00     0.124 S 
ATOM     46  O   UNL A   1      40.163  22.742  26.902  1.00  0.00    -0.237 OA
ATOM     47  O   UNL A   1      42.473  22.953  26.048  1.00  0.00    -0.237 OA
ATOM     48  O   UNL A   1      42.087  22.341  28.402  1.00  0.00    -0.744 OA
ENDBRANCH  41  45
ENDBRANCH  24  38
BRANCH  25  49
ATOM     49  C   UNL A   1      42.116  34.996  30.334  1.00  0.00     0.023 A 
ATOM     50  C   UNL A   1      42.406  35.053  28.959  1.00  0.00     0.031 A 
ATOM     51  C   UNL A   1      43.012  35.631  31.213  1.00  0.00     0.131 A 
ATOM     52  C   UNL A   1      43.593  35.651  28.510  1.00  0.00     0.055 A 
ATOM     53  C   UNL A   1      44.183  36.250  30.760  1.00  0.00     0.041 A 
ATOM     54  F   UNL A   1      42.810  35.587  32.540  1.00  0.00    -0.206 F 
ATOM     55  C   UNL A   1      44.489  36.243  29.402  1.00  0.00     0.022 A 
BRANCH  52  56
ATOM     56  S   UNL A   1      44.058  35.563  26.759  1.00  0.00     0.124 S 
ATOM     57  O   UNL A   1      42.767  35.709  26.092  1.00  0.00    -0.237 OA
ATOM     58  O   UNL A   1      44.962  36.701  26.638  1.00  0.00    -0.237 OA
ATOM     59  O   UNL A   1      44.672  34.244  26.640  1.00  0.00    -0.744 OA
ENDBRANCH  52  56
ENDBRANCH  25  49
BRANCH  37  60
ATOM     60  C   UNL A   1      39.204  30.827  34.095  1.00  0.00     0.023 A 
ATOM     61  C   UNL A   1      38.108  31.612  33.700  1.00  0.00     0.031 A 
ATOM     62  C   UNL A   1      39.576  30.872  35.453  1.00  0.00     0.131 A 
ATOM     63  C   UNL A   1      37.466  32.450  34.617  1.00  0.00     0.055 A 
ATOM     64  C   UNL A   1      38.882  31.653  36.385  1.00  0.00     0.041 A 
ATOM     65  F   UNL A   1      40.662  30.233  35.906  1.00  0.00    -0.206 F 
ATOM     66  C   UNL A   1      37.833  32.465  35.964  1.00  0.00     0.022 A 
BRANCH  63  67
ATOM     67  S   UNL A   1      36.254  33.664  34.037  1.00  0.00     0.124 S 
ATOM     68  O   UNL A   1      35.520  32.907  33.027  1.00  0.00    -0.237 OA
ATOM     69  O   UNL A   1      35.509  33.967  35.258  1.00  0.00    -0.237 OA
ATOM     70  O   UNL A   1      37.069  34.761  33.526  1.00  0.00    -0.744 OA
ENDBRANCH  63  67
ENDBRANCH  37  60
ENDBRANCH  11  12
ENDBRANCH   4   6
ENDBRANCH   1   2
BRANCH   1  71
ATOM     71  C   UNL A   1      33.010  29.317  24.265  1.00  0.00     0.023 C 
BRANCH  71  72
ATOM     72  C   UNL A   1      32.613  27.961  23.662  1.00  0.00     0.023 C 
BRANCH  72  73
ATOM     73  C   UNL A   1      31.634  27.986  22.480  1.00  0.00     0.116 C 
BRANCH  73  74
ATOM     74  N   UNL A   1      30.351  27.395  22.815  1.00  0.00    -0.351 N 
ATOM     75  C   UNL A   1      29.152  28.017  23.088  1.00  0.00     0.269 C 
ATOM     76  H   UNL A   1      30.335  26.412  22.852  1.00  0.00     0.163 HD
ATOM     77  O   UNL A   1      28.255  27.381  23.640  1.00  0.00    -0.268 OA
BRANCH  75  78
ATOM     78  C   UNL A   1      28.944  29.465  22.788  1.00  0.00     0.130 A 
ATOM     79  C   UNL A   1      28.429  29.796  21.536  1.00  0.00     0.066 A 
ATOM     80  N   UNL A   1      29.271  30.368  23.760  1.00  0.00    -0.247 NA
ATOM     81  C   UNL A   1      28.185  31.152  21.334  1.00  0.00     0.113 A 
ATOM     82  C   UNL A   1      29.074  31.689  23.535  1.00  0.00     0.161 A 
ATOM     83  N   UNL A   1      27.630  31.823  20.271  1.00  0.00    -0.216 NA
ATOM     84  C   UNL A   1      28.511  32.058  22.332  1.00  0.00     0.172 A 
ATOM     85  C   UNL A   1      27.647  33.079  20.661  1.00  0.00     0.309 A 
ATOM     86  O   UNL A   1      28.168  33.306  21.901  1.00  0.00    -0.442 OA
ENDBRANCH  75  78
ENDBRANCH  73  74
ENDBRANCH  72  73
ENDBRANCH  71  72
ENDBRANCH   1  71
TORSDOF 14
ENDMDL
MODEL 2
REMARK VINA RESULT:     -12.3      2.697      3.469
REMARK SMILES O=C(NCCCCNC(=O)c1cc2ncoc2cn1)c1ccc(-c2c3nc(c(-c4cc(S(=O)(=O)[O-])ccc4F)c4ccc([nH]4)c(-c4cc(S(=O)(=O)[O-])ccc4F)c4nc(c(-c5cc(S(=O)(=O)[O-])ccc5F)c5ccc2[nH]5)C=C4)C=C3)cc1
REMARK SMILES IDX 4 1 3 2 1 3 2 4 20 6 21 7 82 8 22 9 81 10 23 11 24 12 25 13
REMARK SMILES IDX 75 14 26 15 80 16 74 17 76 18 27 19 79 20 73 21 72 22 28 24
REMARK SMILES IDX 60 25 40 26 59 27 41 28 44 29 58 30 77 31 42 32 43 33 57 35
REMARK SMILES IDX 78 36 45 37 29 38 30 39 38 40 31 41 37 42 39 43 36 44 32 45
REMARK SMILES IDX 33 46 34 47 35 48 61 49 62 50 70 51 63 52 69 53 71 54 68 55
REMARK SMILES IDX 64 56 65 57 66 58 67 59 46 60 47 61 55 62 48 63 54 64 56 65
REMARK SMILES IDX 53 66 49 67 50 68 51 69 52 70 5 71 6 72 7 73 8 74 9 75 10 77
REMARK SMILES IDX 11 78 12 79 19 80 13 81 18 82 14 83 17 84 15 85 16 86
REMARK H PARENT 3 5 76 23 44 34 8 76
REMARK Flexibility Score: inf
ROOT
ATOM      1  C   UNL A   1      32.270  32.339  27.216  1.00  0.00     0.116 C 
ENDROOT
BRANCH   1   2
ATOM      2  N   UNL A   1      32.210  33.764  27.576  1.00  0.00    -0.352 N 
ATOM      3  O   UNL A   1      32.562  35.497  29.008  1.00  0.00    -0.269 OA
ATOM      4  C   UNL A   1      32.956  34.445  28.535  1.00  0.00     0.251 C 
ATOM      5  H   UNL A   1      31.558  34.305  27.074  1.00  0.00     0.163 HD
BRANCH   4   6
ATOM      6  C   UNL A   1      34.254  33.870  28.942  1.00  0.00     0.039 A 
ATOM      7  C   UNL A   1      34.482  33.226  30.159  1.00  0.00     0.014 A 
ATOM      8  C   UNL A   1      35.273  33.976  28.009  1.00  0.00     0.014 A 
ATOM      9  C   UNL A   1      35.748  32.681  30.383  1.00  0.00     0.010 A 
ATOM     10  C   UNL A   1      36.340  33.142  28.083  1.00  0.00     0.010 A 
ATOM     11  C   UNL A   1      36.676  32.660  29.326  1.00  0.00    -0.014 A 
BRANCH  11  12
ATOM     12  C   UNL A   1      38.026  32.137  29.446  1.00  0.00     0.031 A 
ATOM     13  C   UNL A   1      38.156  30.747  28.973  1.00  0.00     0.074 A 
ATOM     14  C   UNL A   1      39.093  32.911  29.753  1.00  0.00     0.049 A 
ATOM     15  N   UNL A   1      38.185  29.683  29.701  1.00  0.00    -0.248 NA
ATOM     16  C   UNL A   1      37.998  30.490  27.534  1.00  0.00     0.031 C 
ATOM     17  C   UNL A   1      39.168  34.376  29.886  1.00  0.00     0.029 A 
ATOM     18  N   UNL A   1      40.389  32.544  29.927  1.00  0.00    -0.354 N 
ATOM     19  C   UNL A   1      38.325  28.630  28.807  1.00  0.00     0.074 A 
ATOM     20  C   UNL A   1      37.942  29.156  27.521  1.00  0.00     0.031 C 
ATOM     21  C   UNL A   1      40.460  34.775  29.885  1.00  0.00     0.029 A 
ATOM     22  C   UNL A   1      41.298  33.595  29.956  1.00  0.00     0.049 A 
ATOM     23  H   UNL A   1      40.663  31.604  30.026  1.00  0.00     0.167 HD
ATOM     24  C   UNL A   1      39.018  27.509  29.155  1.00  0.00     0.034 A 
ATOM     25  C   UNL A   1      42.650  33.499  30.024  1.00  0.00     0.034 A 
ATOM     26  C   UNL A   1      39.311  27.520  30.569  1.00  0.00     0.049 A 
ATOM     27  C   UNL A   1      42.969  32.138  30.511  1.00  0.00     0.074 A 
ATOM     28  C   UNL A   1      38.557  27.490  31.723  1.00  0.00     0.029 A 
ATOM     29  N   UNL A   1      40.549  28.006  30.924  1.00  0.00    -0.354 N 
ATOM     30  N   UNL A   1      42.710  31.716  31.717  1.00  0.00    -0.248 NA
ATOM     31  C   UNL A   1      43.167  31.098  29.514  1.00  0.00     0.031 C 
ATOM     32  C   UNL A   1      39.244  28.337  32.640  1.00  0.00     0.029 A 
ATOM     33  C   UNL A   1      40.425  28.785  32.043  1.00  0.00     0.049 A 
ATOM     34  H   UNL A   1      41.391  27.820  30.448  1.00  0.00     0.167 HD
ATOM     35  C   UNL A   1      42.250  30.421  31.537  1.00  0.00     0.074 A 
ATOM     36  C   UNL A   1      42.677  30.055  30.187  1.00  0.00     0.031 C 
ATOM     37  C   UNL A   1      41.314  29.887  32.376  1.00  0.00     0.034 A 
BRANCH  24  38
ATOM     38  C   UNL A   1      39.781  26.639  28.183  1.00  0.00     0.023 A 
ATOM     39  C   UNL A   1      40.857  27.099  27.404  1.00  0.00     0.031 A 
ATOM     40  C   UNL A   1      39.576  25.244  28.175  1.00  0.00     0.131 A 
ATOM     41  C   UNL A   1      41.670  26.224  26.673  1.00  0.00     0.055 A 
ATOM     42  C   UNL A   1      40.427  24.360  27.498  1.00  0.00     0.041 A 
ATOM     43  F   UNL A   1      38.575  24.687  28.875  1.00  0.00    -0.206 F 
ATOM     44  C   UNL A   1      41.485  24.850  26.743  1.00  0.00     0.022 A 
BRANCH  41  45
ATOM     45  S   UNL A   1      43.004  26.876  25.629  1.00  0.00     0.124 S 
ATOM     46  O   UNL A   1      43.872  27.515  26.612  1.00  0.00    -0.237 OA
ATOM     47  O   UNL A   1      43.525  25.653  25.022  1.00  0.00    -0.237 OA
ATOM     48  O   UNL A   1      42.312  27.774  24.710  1.00  0.00    -0.744 OA
ENDBRANCH  41  45
ENDBRANCH  24  38
BRANCH  25  49
ATOM     49  C   UNL A   1      43.646  34.297  29.272  1.00  0.00     0.023 A 
ATOM     50  C   UNL A   1      43.784  34.103  27.886  1.00  0.00     0.031 A 
ATOM     51  C   UNL A   1      44.691  34.961  29.941  1.00  0.00     0.131 A 
ATOM     52  C   UNL A   1      44.963  34.489  27.231  1.00  0.00     0.055 A 
ATOM     53  C   UNL A   1      45.855  35.368  29.280  1.00  0.00     0.041 A 
ATOM     54  F   UNL A   1      44.636  35.151  31.269  1.00  0.00    -0.206 F 
ATOM     55  C   UNL A   1      46.004  35.113  27.920  1.00  0.00     0.022 A 
BRANCH  52  56
ATOM     56  S   UNL A   1      45.218  34.073  25.484  1.00  0.00     0.124 S 
ATOM     57  O   UNL A   1      44.068  34.710  24.847  1.00  0.00    -0.237 OA
ATOM     58  O   UNL A   1      46.510  34.697  25.220  1.00  0.00    -0.237 OA
ATOM     59  O   UNL A   1      45.201  32.614  25.479  1.00  0.00    -0.744 OA
ENDBRANCH  52  56
ENDBRANCH  25  49
BRANCH  37  60
ATOM     60  C   UNL A   1      41.023  30.600  33.683  1.00  0.00     0.023 A 
ATOM     61  C   UNL A   1      40.081  31.641  33.631  1.00  0.00     0.031 A 
ATOM     62  C   UNL A   1      41.759  30.452  34.875  1.00  0.00     0.131 A 
ATOM     63  C   UNL A   1      39.940  32.527  34.704  1.00  0.00     0.055 A 
ATOM     64  C   UNL A   1      41.560  31.293  35.976  1.00  0.00     0.041 A 
ATOM     65  F   UNL A   1      42.743  29.551  34.987  1.00  0.00    -0.206 F 
ATOM     66  C   UNL A   1      40.661  32.351  35.886  1.00  0.00     0.022 A 
BRANCH  63  67
ATOM     67  S   UNL A   1      38.941  34.025  34.514  1.00  0.00     0.124 S 
ATOM     68  O   UNL A   1      39.906  34.970  33.960  1.00  0.00    -0.237 OA
ATOM     69  O   UNL A   1      37.894  33.586  33.593  1.00  0.00    -0.237 OA
ATOM     70  O   UNL A   1      38.485  34.320  35.869  1.00  0.00    -0.744 OA
ENDBRANCH  63  67
ENDBRANCH  37  60
ENDBRANCH  11  12
ENDBRANCH   4   6
ENDBRANCH   1   2
BRANCH   1  71
ATOM     71  C   UNL A   1      31.180  31.905  26.251  1.00  0.00     0.023 C 
BRANCH  71  72
ATOM     72  C   UNL A   1      31.436  30.561  25.552  1.00  0.00     0.023 C 
BRANCH  72  73
ATOM     73  C   UNL A   1      32.391  29.584  26.252  1.00  0.00     0.116 C 
BRANCH  73  74
ATOM     74  N   UNL A   1      31.687  28.484  26.885  1.00  0.00    -0.351 N 
ATOM     75  C   UNL A   1      31.399  27.233  26.385  1.00  0.00     0.269 C 
ATOM     76  H   UNL A   1      31.370  28.656  27.800  1.00  0.00     0.163 HD
ATOM     77  O   UNL A   1      30.543  26.544  26.939  1.00  0.00    -0.268 OA
BRANCH  75  78
ATOM     78  C   UNL A   1      32.057  26.724  25.144  1.00  0.00     0.130 A 
ATOM     79  C   UNL A   1      31.301  26.709  23.974  1.00  0.00     0.066 A 
ATOM     80  N   UNL A   1      33.355  26.308  25.240  1.00  0.00    -0.247 NA
ATOM     81  C   UNL A   1      31.984  26.296  22.832  1.00  0.00     0.113 A 
ATOM     82  C   UNL A   1      33.994  25.862  24.132  1.00  0.00     0.161 A 
ATOM     83  N   UNL A   1      31.587  26.221  21.518  1.00  0.00    -0.216 NA
ATOM     84  C   UNL A   1      33.303  25.886  22.939  1.00  0.00     0.172 A 
ATOM     85  C   UNL A   1      32.659  25.775  20.902  1.00  0.00     0.309 A 
ATOM     86  O   UNL A   1      33.745  25.545  21.694  1.00  0.00    -0.442 OA
ENDBRANCH  75  78
ENDBRANCH  73  74
ENDBRANCH  72  73
ENDBRANCH  71  72
ENDBRANCH   1  71
TORSDOF 14
ENDMDL
MODEL 3
REMARK VINA RESULT:     -12.3      4.473      9.464
REMARK SMILES O=C(NCCCCNC(=O)c1cc2ncoc2cn1)c1ccc(-c2c3nc(c(-c4cc(S(=O)(=O)[O-])ccc4F)c4ccc([nH]4)c(-c4cc(S(=O)(=O)[O-])ccc4F)c4nc(c(-c5cc(S(=O)(=O)[O-])ccc5F)c5ccc2[nH]5)C=C4)C=C3)cc1
REMARK SMILES IDX 4 1 3 2 1 3 2 4 20 6 21 7 82 8 22 9 81 10 23 11 24 12 25 13
REMARK SMILES IDX 75 14 26 15 80 16 74 17 76 18 27 19 79 20 73 21 72 22 28 24
REMARK SMILES IDX 60 25 40 26 59 27 41 28 44 29 58 30 77 31 42 32 43 33 57 35
REMARK SMILES IDX 78 36 45 37 29 38 30 39 38 40 31 41 37 42 39 43 36 44 32 45
REMARK SMILES IDX 33 46 34 47 35 48 61 49 62 50 70 51 63 52 69 53 71 54 68 55
REMARK SMILES IDX 64 56 65 57 66 58 67 59 46 60 47 61 55 62 48 63 54 64 56 65
REMARK SMILES IDX 53 66 49 67 50 68 51 69 52 70 5 71 6 72 7 73 8 74 9 75 10 77
REMARK SMILES IDX 11 78 12 79 19 80 13 81 18 82 14 83 17 84 15 85 16 86
REMARK H PARENT 3 5 76 23 44 34 8 76
REMARK Flexibility Score: inf
ROOT
ATOM      1  C   UNL A   1      35.090  33.654  28.826  1.00  0.00     0.116 C 
ENDROOT
BRANCH   1   2
ATOM      2  N   UNL A   1      34.294  32.475  28.456  1.00  0.00    -0.352 N 
ATOM      3  O   UNL A   1      34.001  30.508  27.350  1.00  0.00    -0.269 OA
ATOM      4  C   UNL A   1      34.741  31.246  27.976  1.00  0.00     0.251 C 
ATOM      5  H   UNL A   1      33.319  32.565  28.560  1.00  0.00     0.163 HD
BRANCH   4   6
ATOM      6  C   UNL A   1      36.133  30.851  28.272  1.00  0.00     0.039 A 
ATOM      7  C   UNL A   1      37.064  31.670  28.913  1.00  0.00     0.014 A 
ATOM      8  C   UNL A   1      36.482  29.564  27.895  1.00  0.00     0.014 A 
ATOM      9  C   UNL A   1      38.329  31.140  29.176  1.00  0.00     0.010 A 
ATOM     10  C   UNL A   1      37.548  28.960  28.476  1.00  0.00     0.010 A 
ATOM     11  C   UNL A   1      38.557  29.773  28.936  1.00  0.00    -0.014 A 
BRANCH  11  12
ATOM     12  C   UNL A   1      39.834  29.116  29.154  1.00  0.00     0.031 A 
ATOM     13  C   UNL A   1      40.079  28.774  30.567  1.00  0.00     0.074 A 
ATOM     14  C   UNL A   1      40.616  28.668  28.144  1.00  0.00     0.049 A 
ATOM     15  N   UNL A   1      40.809  29.430  31.404  1.00  0.00    -0.248 NA
ATOM     16  C   UNL A   1      39.242  27.733  31.181  1.00  0.00     0.031 C 
ATOM     17  C   UNL A   1      40.324  28.610  26.701  1.00  0.00     0.029 A 
ATOM     18  N   UNL A   1      41.835  28.074  28.210  1.00  0.00    -0.354 N 
ATOM     19  C   UNL A   1      40.734  28.716  32.593  1.00  0.00     0.074 A 
ATOM     20  C   UNL A   1      39.577  27.866  32.466  1.00  0.00     0.031 C 
ATOM     21  C   UNL A   1      41.223  27.813  26.080  1.00  0.00     0.029 A 
ATOM     22  C   UNL A   1      42.261  27.473  27.031  1.00  0.00     0.049 A 
ATOM     23  H   UNL A   1      42.377  28.069  29.032  1.00  0.00     0.167 HD
ATOM     24  C   UNL A   1      41.793  28.680  33.450  1.00  0.00     0.034 A 
ATOM     25  C   UNL A   1      43.387  26.738  26.853  1.00  0.00     0.034 A 
ATOM     26  C   UNL A   1      42.794  29.641  33.051  1.00  0.00     0.049 A 
ATOM     27  C   UNL A   1      44.298  27.053  27.977  1.00  0.00     0.074 A 
ATOM     28  C   UNL A   1      42.842  31.015  32.949  1.00  0.00     0.029 A 
ATOM     29  N   UNL A   1      43.820  29.155  32.273  1.00  0.00    -0.354 N 
ATOM     30  N   UNL A   1      44.877  28.209  28.143  1.00  0.00    -0.248 NA
ATOM     31  C   UNL A   1      44.209  26.222  29.167  1.00  0.00     0.031 C 
ATOM     32  C   UNL A   1      43.638  31.276  31.796  1.00  0.00     0.029 A 
ATOM     33  C   UNL A   1      44.110  30.062  31.289  1.00  0.00     0.049 A 
ATOM     34  H   UNL A   1      44.274  28.291  32.405  1.00  0.00     0.167 HD
ATOM     35  C   UNL A   1      44.792  28.443  29.507  1.00  0.00     0.074 A 
ATOM     36  C   UNL A   1      44.494  27.138  30.095  1.00  0.00     0.031 C 
ATOM     37  C   UNL A   1      44.671  29.714  29.993  1.00  0.00     0.034 A 
BRANCH  24  38
ATOM     38  C   UNL A   1      42.112  27.521  34.367  1.00  0.00     0.023 A 
ATOM     39  C   UNL A   1      42.891  26.415  33.983  1.00  0.00     0.031 A 
ATOM     40  C   UNL A   1      41.812  27.607  35.742  1.00  0.00     0.131 A 
ATOM     41  C   UNL A   1      43.338  25.466  34.910  1.00  0.00     0.055 A 
ATOM     42  C   UNL A   1      42.313  26.696  36.682  1.00  0.00     0.041 A 
ATOM     43  F   UNL A   1      41.070  28.614  36.227  1.00  0.00    -0.206 F 
ATOM     44  C   UNL A   1      43.085  25.618  36.267  1.00  0.00     0.022 A 
BRANCH  41  45
ATOM     45  S   UNL A   1      44.283  24.020  34.352  1.00  0.00     0.124 S 
ATOM     46  O   UNL A   1      43.963  23.980  32.930  1.00  0.00    -0.237 OA
ATOM     47  O   UNL A   1      45.649  24.417  34.685  1.00  0.00    -0.237 OA
ATOM     48  O   UNL A   1      43.744  22.928  35.157  1.00  0.00    -0.744 OA
ENDBRANCH  41  45
ENDBRANCH  24  38
BRANCH  25  49
ATOM     49  C   UNL A   1      43.527  25.480  26.084  1.00  0.00     0.023 A 
ATOM     50  C   UNL A   1      42.664  24.403  26.355  1.00  0.00     0.031 A 
ATOM     51  C   UNL A   1      44.704  25.202  25.364  1.00  0.00     0.131 A 
ATOM     52  C   UNL A   1      43.024  23.098  25.988  1.00  0.00     0.055 A 
ATOM     53  C   UNL A   1      45.048  23.902  24.977  1.00  0.00     0.041 A 
ATOM     54  F   UNL A   1      45.586  26.180  25.099  1.00  0.00    -0.206 F 
ATOM     55  C   UNL A   1      44.214  22.838  25.307  1.00  0.00     0.022 A 
BRANCH  52  56
ATOM     56  S   UNL A   1      42.002  21.689  26.499  1.00  0.00     0.124 S 
ATOM     57  O   UNL A   1      42.564  20.600  25.703  1.00  0.00    -0.237 OA
ATOM     58  O   UNL A   1      42.278  21.630  27.930  1.00  0.00    -0.237 OA
ATOM     59  O   UNL A   1      40.652  22.098  26.125  1.00  0.00    -0.744 OA
ENDBRANCH  52  56
ENDBRANCH  25  49
BRANCH  37  60
ATOM     60  C   UNL A   1      44.951  30.876  29.060  1.00  0.00     0.023 A 
ATOM     61  C   UNL A   1      46.244  31.422  29.110  1.00  0.00     0.031 A 
ATOM     62  C   UNL A   1      43.981  31.577  28.317  1.00  0.00     0.131 A 
ATOM     63  C   UNL A   1      46.524  32.647  28.498  1.00  0.00     0.055 A 
ATOM     64  C   UNL A   1      44.284  32.765  27.641  1.00  0.00     0.041 A 
ATOM     65  F   UNL A   1      42.701  31.188  28.286  1.00  0.00    -0.206 F 
ATOM     66  C   UNL A   1      45.557  33.318  27.747  1.00  0.00     0.022 A 
BRANCH  63  67
ATOM     67  S   UNL A   1      48.102  33.476  28.813  1.00  0.00     0.124 S 
ATOM     68  O   UNL A   1      48.118  34.511  27.783  1.00  0.00    -0.237 OA
ATOM     69  O   UNL A   1      47.933  33.957  30.183  1.00  0.00    -0.237 OA
ATOM     70  O   UNL A   1      49.096  32.419  28.651  1.00  0.00    -0.744 OA
ENDBRANCH  63  67
ENDBRANCH  37  60
ENDBRANCH  11  12
ENDBRANCH   4   6
ENDBRANCH   1   2
BRANCH   1  71
ATOM     71  C   UNL A   1      34.779  34.888  27.995  1.00  0.00     0.023 C 
BRANCH  71  72
ATOM     72  C   UNL A   1      34.033  36.000  28.747  1.00  0.00     0.023 C 
BRANCH  72  73
ATOM     73  C   UNL A   1      32.852  35.571  29.629  1.00  0.00     0.116 C 
BRANCH  73  74
ATOM     74  N   UNL A   1      32.576  36.529  30.684  1.00  0.00    -0.351 N 
ATOM     75  C   UNL A   1      32.839  36.437  32.033  1.00  0.00     0.269 C 
ATOM     76  H   UNL A   1      32.138  37.361  30.395  1.00  0.00     0.163 HD
ATOM     77  O   UNL A   1      32.272  37.203  32.812  1.00  0.00    -0.268 OA
BRANCH  75  78
ATOM     78  C   UNL A   1      33.750  35.385  32.575  1.00  0.00     0.130 A 
ATOM     79  C   UNL A   1      35.058  35.757  32.877  1.00  0.00     0.066 A 
ATOM     80  N   UNL A   1      33.238  34.128  32.739  1.00  0.00    -0.247 NA
ATOM     81  C   UNL A   1      35.842  34.757  33.447  1.00  0.00     0.113 A 
ATOM     82  C   UNL A   1      34.026  33.150  33.250  1.00  0.00     0.161 A 
ATOM     83  N   UNL A   1      37.132  34.781  33.925  1.00  0.00    -0.216 NA
ATOM     84  C   UNL A   1      35.311  33.489  33.619  1.00  0.00     0.172 A 
ATOM     85  C   UNL A   1      37.320  33.551  34.352  1.00  0.00     0.309 A 
ATOM     86  O   UNL A   1      36.263  32.704  34.201  1.00  0.00    -0.442 OA
ENDBRANCH  75  78
ENDBRANCH  73  74
ENDBRANCH  72  73
ENDBRANCH  71  72
ENDBRANCH   1  71
TORSDOF 14
ENDMDL
