MODEL 1
REMARK VINA RESULT:     -12.6      0.000      0.000
REMARK SMILES O=C(NCCCCNC(=O)c1nccnc1C(=O)Nc1ccc2c(c1)OCO2)c1ccc(-c2c3nc(c(-c4cc(S(=O)(=O)[O-])ccc4F)c4ccc([nH]4)c(-c4cc(S(=O)(=O)[O-])ccc4F)c4nc(c(-c5cc(S(=O)(=O)[O-])ccc5F)c5ccc2[nH]5)C=C4)C=C3)cc1
REMARK SMILES IDX 5 1 4 2 3 3 1 4 2 5 29 7 30 8 91 9 31 10 90 11 32 12 33 13
REMARK SMILES IDX 34 14 84 15 35 16 89 17 83 18 85 19 36 20 88 21 82 22 81 23
REMARK SMILES IDX 37 25 69 26 49 27 68 28 50 29 53 30 67 31 86 32 51 33 52 34
REMARK SMILES IDX 66 36 87 37 54 38 38 39 39 40 47 41 40 42 46 43 48 44 45 45
REMARK SMILES IDX 41 46 42 47 43 48 44 49 70 50 71 51 79 52 72 53 78 54 80 55
REMARK SMILES IDX 77 56 73 57 74 58 75 59 76 60 55 61 56 62 64 63 57 64 63 65
REMARK SMILES IDX 65 66 62 67 58 68 59 69 60 70 61 71 6 72 7 73 8 74 9 75
REMARK SMILES IDX 10 77 11 78 12 79 16 80 13 81 15 82 14 83 17 84 18 85 19 86
REMARK SMILES IDX 20 88 21 89 25 90 22 91 24 92 23 93 26 94 28 95 27 96
REMARK H PARENT 3 6 85 24 53 35 8 76 19 87
REMARK Flexibility Score: inf
ROOT
ATOM      1  C   UNL A   1      37.929  19.946  25.033  1.00  0.00     0.023 C 
ENDROOT
BRANCH   1   2
ATOM      2  C   UNL A   1      39.187  20.403  25.762  1.00  0.00     0.116 C 
BRANCH   2   3
ATOM      3  N   UNL A   1      40.163  19.340  25.908  1.00  0.00    -0.352 N 
ATOM      4  O   UNL A   1      42.200  18.411  26.061  1.00  0.00    -0.269 OA
ATOM      5  C   UNL A   1      41.518  19.430  26.116  1.00  0.00     0.251 C 
ATOM      6  H   UNL A   1      39.803  18.425  25.850  1.00  0.00     0.163 HD
BRANCH   5   7
ATOM      7  C   UNL A   1      42.163  20.739  26.389  1.00  0.00     0.039 A 
ATOM      8  C   UNL A   1      42.316  21.704  25.389  1.00  0.00     0.014 A 
ATOM      9  C   UNL A   1      42.550  21.032  27.702  1.00  0.00     0.014 A 
ATOM     10  C   UNL A   1      42.914  22.930  25.686  1.00  0.00     0.010 A 
ATOM     11  C   UNL A   1      43.099  22.281  28.009  1.00  0.00     0.010 A 
ATOM     12  C   UNL A   1      43.285  23.242  27.003  1.00  0.00    -0.014 A 
BRANCH  12  13
ATOM     13  C   UNL A   1      43.745  24.613  27.347  1.00  0.00     0.031 A 
ATOM     14  C   UNL A   1      42.783  25.658  27.838  1.00  0.00     0.074 A 
ATOM     15  C   UNL A   1      45.046  24.919  27.163  1.00  0.00     0.049 A 
ATOM     16  N   UNL A   1      43.012  26.915  28.124  1.00  0.00    -0.248 NA
ATOM     17  C   UNL A   1      41.385  25.244  28.025  1.00  0.00     0.031 C 
ATOM     18  C   UNL A   1      46.065  23.989  26.668  1.00  0.00     0.029 A 
ATOM     19  N   UNL A   1      45.733  26.092  27.347  1.00  0.00    -0.354 N 
ATOM     20  C   UNL A   1      41.787  27.450  28.509  1.00  0.00     0.074 A 
ATOM     21  C   UNL A   1      40.814  26.381  28.403  1.00  0.00     0.031 C 
ATOM     22  C   UNL A   1      47.243  24.625  26.591  1.00  0.00     0.029 A 
ATOM     23  C   UNL A   1      47.056  26.020  26.973  1.00  0.00     0.049 A 
ATOM     24  H   UNL A   1      45.320  26.907  27.714  1.00  0.00     0.167 HD
ATOM     25  C   UNL A   1      41.508  28.714  28.912  1.00  0.00     0.034 A 
ATOM     26  C   UNL A   1      48.004  26.975  26.901  1.00  0.00     0.034 A 
ATOM     27  C   UNL A   1      42.494  29.762  29.023  1.00  0.00     0.049 A 
ATOM     28  C   UNL A   1      47.648  28.381  27.305  1.00  0.00     0.074 A 
ATOM     29  C   UNL A   1      42.336  31.043  29.527  1.00  0.00     0.029 A 
ATOM     30  N   UNL A   1      43.813  29.663  28.601  1.00  0.00    -0.354 N 
ATOM     31  N   UNL A   1      46.501  28.846  27.745  1.00  0.00    -0.248 NA
ATOM     32  C   UNL A   1      48.710  29.390  27.202  1.00  0.00     0.031 C 
ATOM     33  C   UNL A   1      43.535  31.740  29.340  1.00  0.00     0.029 A 
ATOM     34  C   UNL A   1      44.462  30.876  28.780  1.00  0.00     0.049 A 
ATOM     35  H   UNL A   1      44.228  28.852  28.230  1.00  0.00     0.167 HD
ATOM     36  C   UNL A   1      46.711  30.201  27.981  1.00  0.00     0.074 A 
ATOM     37  C   UNL A   1      48.096  30.472  27.658  1.00  0.00     0.031 C 
ATOM     38  C   UNL A   1      45.836  31.138  28.425  1.00  0.00     0.034 A 
BRANCH  25  39
ATOM     39  C   UNL A   1      40.074  29.058  29.225  1.00  0.00     0.023 A 
ATOM     40  C   UNL A   1      39.601  29.150  30.545  1.00  0.00     0.031 A 
ATOM     41  C   UNL A   1      39.176  29.338  28.179  1.00  0.00     0.131 A 
ATOM     42  C   UNL A   1      38.256  29.477  30.783  1.00  0.00     0.055 A 
ATOM     43  C   UNL A   1      37.855  29.717  28.423  1.00  0.00     0.041 A 
ATOM     44  F   UNL A   1      39.572  29.251  26.900  1.00  0.00    -0.206 F 
ATOM     45  C   UNL A   1      37.385  29.782  29.732  1.00  0.00     0.022 A 
BRANCH  42  46
ATOM     46  S   UNL A   1      37.632  29.420  32.485  1.00  0.00     0.124 S 
ATOM     47  O   UNL A   1      38.597  30.266  33.182  1.00  0.00    -0.237 OA
ATOM     48  O   UNL A   1      36.287  29.965  32.347  1.00  0.00    -0.237 OA
ATOM     49  O   UNL A   1      37.696  28.000  32.827  1.00  0.00    -0.744 OA
ENDBRANCH  42  46
ENDBRANCH  25  39
BRANCH  26  50
ATOM     50  C   UNL A   1      49.357  26.656  26.366  1.00  0.00     0.023 A 
ATOM     51  C   UNL A   1      49.779  27.140  25.118  1.00  0.00     0.031 A 
ATOM     52  C   UNL A   1      50.233  25.816  27.079  1.00  0.00     0.131 A 
ATOM     53  C   UNL A   1      51.022  26.744  24.600  1.00  0.00     0.055 A 
ATOM     54  C   UNL A   1      51.491  25.469  26.583  1.00  0.00     0.041 A 
ATOM     55  F   UNL A   1      49.879  25.325  28.277  1.00  0.00    -0.206 F 
ATOM     56  C   UNL A   1      51.885  25.923  25.329  1.00  0.00     0.022 A 
BRANCH  53  57
ATOM     57  S   UNL A   1      51.452  27.237  22.908  1.00  0.00     0.124 S 
ATOM     58  O   UNL A   1      50.249  26.865  22.173  1.00  0.00    -0.237 OA
ATOM     59  O   UNL A   1      51.692  28.668  23.063  1.00  0.00    -0.237 OA
ATOM     60  O   UNL A   1      52.638  26.436  22.612  1.00  0.00    -0.744 OA
ENDBRANCH  53  57
ENDBRANCH  26  50
BRANCH  38  61
ATOM     61  C   UNL A   1      46.369  32.537  28.595  1.00  0.00     0.023 A 
ATOM     62  C   UNL A   1      46.444  33.427  27.510  1.00  0.00     0.031 A 
ATOM     63  C   UNL A   1      46.823  32.977  29.850  1.00  0.00     0.131 A 
ATOM     64  C   UNL A   1      47.005  34.700  27.690  1.00  0.00     0.055 A 
ATOM     65  C   UNL A   1      47.332  34.263  30.035  1.00  0.00     0.041 A 
ATOM     66  F   UNL A   1      46.778  32.163  30.918  1.00  0.00    -0.206 F 
ATOM     67  C   UNL A   1      47.435  35.128  28.949  1.00  0.00     0.022 A 
BRANCH  64  68
ATOM     68  S   UNL A   1      47.228  35.767  26.241  1.00  0.00     0.124 S 
ATOM     69  O   UNL A   1      48.645  36.107  26.331  1.00  0.00    -0.237 OA
ATOM     70  O   UNL A   1      46.852  34.887  25.140  1.00  0.00    -0.237 OA
ATOM     71  O   UNL A   1      46.307  36.876  26.487  1.00  0.00    -0.744 OA
ENDBRANCH  64  68
ENDBRANCH  38  61
ENDBRANCH  12  13
ENDBRANCH   5   7
ENDBRANCH   2   3
ENDBRANCH   1   2
BRANCH   1  72
ATOM     72  C   UNL A   1      36.776  20.948  24.928  1.00  0.00     0.023 C 
BRANCH  72  73
ATOM     73  C   UNL A   1      37.010  22.207  24.098  1.00  0.00     0.116 C 
BRANCH  73  74
ATOM     74  N   UNL A   1      36.561  23.444  24.714  1.00  0.00    -0.351 N 
ATOM     75  C   UNL A   1      35.284  23.966  24.772  1.00  0.00     0.272 C 
ATOM     76  H   UNL A   1      37.262  23.981  25.150  1.00  0.00     0.163 HD
ATOM     77  O   UNL A   1      34.994  24.815  25.608  1.00  0.00    -0.267 OA
BRANCH  75  78
ATOM     78  C   UNL A   1      34.231  23.421  23.907  1.00  0.00     0.159 A 
ATOM     79  N   UNL A   1      34.273  23.972  22.645  1.00  0.00    -0.247 NA
ATOM     80  C   UNL A   1      33.300  22.458  24.278  1.00  0.00     0.159 A 
ATOM     81  C   UNL A   1      33.361  23.529  21.764  1.00  0.00     0.132 A 
ATOM     82  N   UNL A   1      32.369  22.043  23.349  1.00  0.00    -0.247 NA
ATOM     83  C   UNL A   1      32.424  22.583  22.111  1.00  0.00     0.132 A 
BRANCH  80  84
ATOM     84  C   UNL A   1      33.123  21.727  25.595  1.00  0.00     0.276 C 
ATOM     85  O   UNL A   1      33.264  22.352  26.649  1.00  0.00    -0.267 OA
ATOM     86  N   UNL A   1      32.488  20.508  25.635  1.00  0.00    -0.320 N 
ATOM     87  H   UNL A   1      31.531  20.526  25.865  1.00  0.00     0.170 HD
BRANCH  86  88
ATOM     88  C   UNL A   1      33.041  19.241  25.388  1.00  0.00     0.045 A 
ATOM     89  C   UNL A   1      34.031  19.018  24.414  1.00  0.00     0.030 A 
ATOM     90  C   UNL A   1      32.514  18.171  26.122  1.00  0.00     0.076 A 
ATOM     91  C   UNL A   1      34.417  17.712  24.090  1.00  0.00     0.053 A 
ATOM     92  C   UNL A   1      32.866  16.898  25.733  1.00  0.00     0.167 A 
ATOM     93  C   UNL A   1      33.776  16.675  24.729  1.00  0.00     0.165 A 
ATOM     94  O   UNL A   1      32.338  15.742  26.219  1.00  0.00    -0.454 OA
ATOM     95  O   UNL A   1      33.922  15.354  24.445  1.00  0.00    -0.454 OA
ATOM     96  C   UNL A   1      32.906  14.786  25.297  1.00  0.00     0.468 C 
ENDBRANCH  86  88
ENDBRANCH  80  84
ENDBRANCH  75  78
ENDBRANCH  73  74
ENDBRANCH  72  73
ENDBRANCH   1  72
TORSDOF 16
ENDMDL
MODEL 2
REMARK VINA RESULT:     -12.5      6.278     12.136
REMARK SMILES O=C(NCCCCNC(=O)c1nccnc1C(=O)Nc1ccc2c(c1)OCO2)c1ccc(-c2c3nc(c(-c4cc(S(=O)(=O)[O-])ccc4F)c4ccc([nH]4)c(-c4cc(S(=O)(=O)[O-])ccc4F)c4nc(c(-c5cc(S(=O)(=O)[O-])ccc5F)c5ccc2[nH]5)C=C4)C=C3)cc1
REMARK SMILES IDX 5 1 4 2 3 3 1 4 2 5 29 7 30 8 91 9 31 10 90 11 32 12 33 13
REMARK SMILES IDX 34 14 84 15 35 16 89 17 83 18 85 19 36 20 88 21 82 22 81 23
REMARK SMILES IDX 37 25 69 26 49 27 68 28 50 29 53 30 67 31 86 32 51 33 52 34
REMARK SMILES IDX 66 36 87 37 54 38 38 39 39 40 47 41 40 42 46 43 48 44 45 45
REMARK SMILES IDX 41 46 42 47 43 48 44 49 70 50 71 51 79 52 72 53 78 54 80 55
REMARK SMILES IDX 77 56 73 57 74 58 75 59 76 60 55 61 56 62 64 63 57 64 63 65
REMARK SMILES IDX 65 66 62 67 58 68 59 69 60 70 61 71 6 72 7 73 8 74 9 75
REMARK SMILES IDX 10 77 11 78 12 79 16 80 13 81 15 82 14 83 17 84 18 85 19 86
REMARK SMILES IDX 20 88 21 89 25 90 22 91 24 92 23 93 26 94 28 95 27 96
REMARK H PARENT 3 6 85 24 53 35 8 76 19 87
REMARK Flexibility Score: inf
ROOT
ATOM      1  C   UNL A   1      31.341  31.878  26.887  1.00  0.00     0.023 C 
ENDROOT
BRANCH   1   2
ATOM      2  C   UNL A   1      32.631  32.687  26.943  1.00  0.00     0.116 C 
BRANCH   2   3
ATOM      3  N   UNL A   1      32.462  33.959  27.619  1.00  0.00    -0.352 N 
ATOM      4  O   UNL A   1      32.784  35.518  29.201  1.00  0.00    -0.269 OA
ATOM      5  C   UNL A   1      33.179  34.486  28.666  1.00  0.00     0.251 C 
ATOM      6  H   UNL A   1      31.731  34.524  27.280  1.00  0.00     0.163 HD
BRANCH   5   7
ATOM      7  C   UNL A   1      34.408  33.818  29.162  1.00  0.00     0.039 A 
ATOM      8  C   UNL A   1      35.682  34.320  28.876  1.00  0.00     0.014 A 
ATOM      9  C   UNL A   1      34.272  32.707  30.002  1.00  0.00     0.014 A 
ATOM     10  C   UNL A   1      36.816  33.674  29.372  1.00  0.00     0.010 A 
ATOM     11  C   UNL A   1      35.407  32.094  30.544  1.00  0.00     0.010 A 
ATOM     12  C   UNL A   1      36.690  32.573  30.234  1.00  0.00    -0.014 A 
BRANCH  12  13
ATOM     13  C   UNL A   1      37.887  32.009  30.908  1.00  0.00     0.031 A 
ATOM     14  C   UNL A   1      38.670  30.882  30.296  1.00  0.00     0.074 A 
ATOM     15  C   UNL A   1      38.235  32.500  32.117  1.00  0.00     0.049 A 
ATOM     16  N   UNL A   1      39.701  30.239  30.782  1.00  0.00    -0.248 NA
ATOM     17  C   UNL A   1      38.236  30.410  28.973  1.00  0.00     0.031 C 
ATOM     18  C   UNL A   1      37.533  33.579  32.817  1.00  0.00     0.029 A 
ATOM     19  N   UNL A   1      39.245  32.152  32.978  1.00  0.00    -0.354 N 
ATOM     20  C   UNL A   1      40.033  29.274  29.837  1.00  0.00     0.074 A 
ATOM     21  C   UNL A   1      39.079  29.409  28.753  1.00  0.00     0.031 C 
ATOM     22  C   UNL A   1      38.132  33.805  33.995  1.00  0.00     0.029 A 
ATOM     23  C   UNL A   1      39.223  32.851  34.163  1.00  0.00     0.049 A 
ATOM     24  H   UNL A   1      39.921  31.467  32.767  1.00  0.00     0.167 HD
ATOM     25  C   UNL A   1      41.039  28.366  29.875  1.00  0.00     0.034 A 
ATOM     26  C   UNL A   1      39.967  32.715  35.278  1.00  0.00     0.034 A 
ATOM     27  C   UNL A   1      41.987  28.257  30.957  1.00  0.00     0.049 A 
ATOM     28  C   UNL A   1      41.042  31.662  35.309  1.00  0.00     0.074 A 
ATOM     29  C   UNL A   1      43.109  27.448  31.041  1.00  0.00     0.029 A 
ATOM     30  N   UNL A   1      41.913  28.955  32.155  1.00  0.00    -0.354 N 
ATOM     31  N   UNL A   1      41.392  30.815  34.369  1.00  0.00    -0.248 NA
ATOM     32  C   UNL A   1      41.821  31.544  36.549  1.00  0.00     0.031 C 
ATOM     33  C   UNL A   1      43.666  27.601  32.316  1.00  0.00     0.029 A 
ATOM     34  C   UNL A   1      42.934  28.554  33.005  1.00  0.00     0.049 A 
ATOM     35  H   UNL A   1      41.235  29.636  32.371  1.00  0.00     0.167 HD
ATOM     36  C   UNL A   1      42.439  30.072  34.903  1.00  0.00     0.074 A 
ATOM     37  C   UNL A   1      42.680  30.585  36.235  1.00  0.00     0.031 C 
ATOM     38  C   UNL A   1      43.141  29.054  34.341  1.00  0.00     0.034 A 
BRANCH  25  39
ATOM     39  C   UNL A   1      41.152  27.386  28.736  1.00  0.00     0.023 A 
ATOM     40  C   UNL A   1      42.134  27.510  27.739  1.00  0.00     0.031 A 
ATOM     41  C   UNL A   1      40.283  26.281  28.673  1.00  0.00     0.131 A 
ATOM     42  C   UNL A   1      42.199  26.567  26.700  1.00  0.00     0.055 A 
ATOM     43  C   UNL A   1      40.387  25.317  27.669  1.00  0.00     0.041 A 
ATOM     44  F   UNL A   1      39.317  26.122  29.591  1.00  0.00    -0.206 F 
ATOM     45  C   UNL A   1      41.346  25.460  26.671  1.00  0.00     0.022 A 
BRANCH  42  46
ATOM     46  S   UNL A   1      43.362  26.849  25.337  1.00  0.00     0.124 S 
ATOM     47  O   UNL A   1      42.622  27.794  24.506  1.00  0.00    -0.237 OA
ATOM     48  O   UNL A   1      44.532  27.383  26.026  1.00  0.00    -0.237 OA
ATOM     49  O   UNL A   1      43.537  25.520  24.755  1.00  0.00    -0.744 OA
ENDBRANCH  42  46
ENDBRANCH  25  39
BRANCH  26  50
ATOM     50  C   UNL A   1      39.681  33.546  36.482  1.00  0.00     0.023 A 
ATOM     51  C   UNL A   1      39.022  33.009  37.598  1.00  0.00     0.031 A 
ATOM     52  C   UNL A   1      40.021  34.912  36.510  1.00  0.00     0.131 A 
ATOM     53  C   UNL A   1      38.683  33.842  38.676  1.00  0.00     0.055 A 
ATOM     54  C   UNL A   1      39.731  35.723  37.607  1.00  0.00     0.041 A 
ATOM     55  F   UNL A   1      40.652  35.476  35.468  1.00  0.00    -0.206 F 
ATOM     56  C   UNL A   1      39.044  35.191  38.693  1.00  0.00     0.022 A 
BRANCH  53  57
ATOM     57  S   UNL A   1      37.670  33.156  40.015  1.00  0.00     0.124 S 
ATOM     58  O   UNL A   1      36.425  32.847  39.321  1.00  0.00    -0.237 OA
ATOM     59  O   UNL A   1      38.468  32.011  40.441  1.00  0.00    -0.237 OA
ATOM     60  O   UNL A   1      37.592  34.253  40.978  1.00  0.00    -0.744 OA
ENDBRANCH  53  57
ENDBRANCH  26  50
BRANCH  38  61
ATOM     61  C   UNL A   1      44.240  28.449  35.174  1.00  0.00     0.023 A 
ATOM     62  C   UNL A   1      43.979  27.412  36.087  1.00  0.00     0.031 A 
ATOM     63  C   UNL A   1      45.558  28.925  35.068  1.00  0.00     0.131 A 
ATOM     64  C   UNL A   1      45.014  26.915  36.893  1.00  0.00     0.055 A 
ATOM     65  C   UNL A   1      46.594  28.391  35.834  1.00  0.00     0.041 A 
ATOM     66  F   UNL A   1      45.860  29.917  34.214  1.00  0.00    -0.206 F 
ATOM     67  C   UNL A   1      46.322  27.387  36.761  1.00  0.00     0.022 A 
BRANCH  64  68
ATOM     68  S   UNL A   1      44.614  25.688  38.167  1.00  0.00     0.124 S 
ATOM     69  O   UNL A   1      43.702  24.799  37.455  1.00  0.00    -0.237 OA
ATOM     70  O   UNL A   1      45.924  25.132  38.490  1.00  0.00    -0.237 OA
ATOM     71  O   UNL A   1      44.002  26.484  39.231  1.00  0.00    -0.744 OA
ENDBRANCH  64  68
ENDBRANCH  38  61
ENDBRANCH  12  13
ENDBRANCH   5   7
ENDBRANCH   2   3
ENDBRANCH   1   2
BRANCH   1  72
ATOM     72  C   UNL A   1      31.075  31.068  25.616  1.00  0.00     0.023 C 
BRANCH  72  73
ATOM     73  C   UNL A   1      31.788  29.725  25.473  1.00  0.00     0.116 C 
BRANCH  73  74
ATOM     74  N   UNL A   1      32.956  29.736  24.609  1.00  0.00    -0.351 N 
ATOM     75  C   UNL A   1      33.576  28.674  23.981  1.00  0.00     0.272 C 
ATOM     76  H   UNL A   1      33.358  30.621  24.449  1.00  0.00     0.163 HD
ATOM     77  O   UNL A   1      34.315  28.861  23.020  1.00  0.00    -0.267 OA
BRANCH  75  78
ATOM     78  C   UNL A   1      33.260  27.299  24.387  1.00  0.00     0.159 A 
ATOM     79  N   UNL A   1      33.910  26.951  25.551  1.00  0.00    -0.247 NA
ATOM     80  C   UNL A   1      32.405  26.435  23.713  1.00  0.00     0.159 A 
ATOM     81  C   UNL A   1      33.677  25.714  26.023  1.00  0.00     0.132 A 
ATOM     82  N   UNL A   1      32.207  25.169  24.221  1.00  0.00    -0.247 NA
ATOM     83  C   UNL A   1      32.842  24.839  25.368  1.00  0.00     0.132 A 
BRANCH  80  84
ATOM     84  C   UNL A   1      31.592  26.653  22.452  1.00  0.00     0.276 C 
ATOM     85  O   UNL A   1      32.120  26.444  21.356  1.00  0.00    -0.267 OA
ATOM     86  N   UNL A   1      30.221  26.740  22.513  1.00  0.00    -0.320 N 
ATOM     87  H   UNL A   1      29.726  25.909  22.325  1.00  0.00     0.170 HD
BRANCH  86  88
ATOM     88  C   UNL A   1      29.442  27.869  22.812  1.00  0.00     0.045 A 
ATOM     89  C   UNL A   1      28.168  27.782  23.399  1.00  0.00     0.030 A 
ATOM     90  C   UNL A   1      29.968  29.112  22.438  1.00  0.00     0.076 A 
ATOM     91  C   UNL A   1      27.365  28.925  23.512  1.00  0.00     0.053 A 
ATOM     92  C   UNL A   1      29.130  30.203  22.501  1.00  0.00     0.167 A 
ATOM     93  C   UNL A   1      27.855  30.107  23.004  1.00  0.00     0.165 A 
ATOM     94  O   UNL A   1      29.409  31.450  22.036  1.00  0.00    -0.454 OA
ATOM     95  O   UNL A   1      27.167  31.274  22.903  1.00  0.00    -0.454 OA
ATOM     96  C   UNL A   1      28.113  32.075  22.164  1.00  0.00     0.468 C 
ENDBRANCH  86  88
ENDBRANCH  80  84
ENDBRANCH  75  78
ENDBRANCH  73  74
ENDBRANCH  72  73
ENDBRANCH   1  72
TORSDOF 16
ENDMDL
MODEL 3
REMARK VINA RESULT:     -12.5      5.668     10.278
REMARK SMILES O=C(NCCCCNC(=O)c1nccnc1C(=O)Nc1ccc2c(c1)OCO2)c1ccc(-c2c3nc(c(-c4cc(S(=O)(=O)[O-])ccc4F)c4ccc([nH]4)c(-c4cc(S(=O)(=O)[O-])ccc4F)c4nc(c(-c5cc(S(=O)(=O)[O-])ccc5F)c5ccc2[nH]5)C=C4)C=C3)cc1
REMARK SMILES IDX 5 1 4 2 3 3 1 4 2 5 29 7 30 8 91 9 31 10 90 11 32 12 33 13
REMARK SMILES IDX 34 14 84 15 35 16 89 17 83 18 85 19 36 20 88 21 82 22 81 23
REMARK SMILES IDX 37 25 69 26 49 27 68 28 50 29 53 30 67 31 86 32 51 33 52 34
REMARK SMILES IDX 66 36 87 37 54 38 38 39 39 40 47 41 40 42 46 43 48 44 45 45
REMARK SMILES IDX 41 46 42 47 43 48 44 49 70 50 71 51 79 52 72 53 78 54 80 55
REMARK SMILES IDX 77 56 73 57 74 58 75 59 76 60 55 61 56 62 64 63 57 64 63 65
REMARK SMILES IDX 65 66 62 67 58 68 59 69 60 70 61 71 6 72 7 73 8 74 9 75
REMARK SMILES IDX 10 77 11 78 12 79 16 80 13 81 15 82 14 83 17 84 18 85 19 86
REMARK SMILES IDX 20 88 21 89 25 90 22 91 24 92 23 93 26 94 28 95 27 96
REMARK H PARENT 3 6 85 24 53 35 8 76 19 87
REMARK Flexibility Score: inf
ROOT
ATOM      1  C   UNL A   1      32.006  28.426  26.408  1.00  0.00     0.023 C 
ENDROOT
BRANCH   1   2
ATOM      2  C   UNL A   1      32.925  29.501  25.840  1.00  0.00     0.116 C 
BRANCH   2   3
ATOM      3  N   UNL A   1      32.566  30.833  26.286  1.00  0.00    -0.352 N 
ATOM      4  O   UNL A   1      32.657  32.684  27.551  1.00  0.00    -0.269 OA
ATOM      5  C   UNL A   1      33.204  31.645  27.192  1.00  0.00     0.251 C 
ATOM      6  H   UNL A   1      31.751  31.209  25.881  1.00  0.00     0.163 HD
BRANCH   5   7
ATOM      7  C   UNL A   1      34.529  31.275  27.749  1.00  0.00     0.039 A 
ATOM      8  C   UNL A   1      35.571  32.203  27.841  1.00  0.00     0.014 A 
ATOM      9  C   UNL A   1      34.701  29.985  28.263  1.00  0.00     0.014 A 
ATOM     10  C   UNL A   1      36.799  31.824  28.385  1.00  0.00     0.010 A 
ATOM     11  C   UNL A   1      35.914  29.622  28.857  1.00  0.00     0.010 A 
ATOM     12  C   UNL A   1      36.974  30.540  28.924  1.00  0.00    -0.014 A 
BRANCH  12  13
ATOM     13  C   UNL A   1      38.216  30.203  29.669  1.00  0.00     0.031 A 
ATOM     14  C   UNL A   1      39.194  29.193  29.139  1.00  0.00     0.074 A 
ATOM     15  C   UNL A   1      38.426  30.790  30.865  1.00  0.00     0.049 A 
ATOM     16  N   UNL A   1      40.292  28.744  29.692  1.00  0.00    -0.248 NA
ATOM     17  C   UNL A   1      38.901  28.607  27.823  1.00  0.00     0.031 C 
ATOM     18  C   UNL A   1      37.530  31.768  31.489  1.00  0.00     0.029 A 
ATOM     19  N   UNL A   1      39.439  30.643  31.779  1.00  0.00    -0.354 N 
ATOM     20  C   UNL A   1      40.816  27.810  28.805  1.00  0.00     0.074 A 
ATOM     21  C   UNL A   1      39.902  27.746  27.681  1.00  0.00     0.031 C 
ATOM     22  C   UNL A   1      38.033  32.133  32.677  1.00  0.00     0.029 A 
ATOM     23  C   UNL A   1      39.253  31.375  32.930  1.00  0.00     0.049 A 
ATOM     24  H   UNL A   1      40.224  30.069  31.626  1.00  0.00     0.167 HD
ATOM     25  C   UNL A   1      41.951  27.078  28.923  1.00  0.00     0.034 A 
ATOM     26  C   UNL A   1      39.958  31.404  34.078  1.00  0.00     0.034 A 
ATOM     27  C   UNL A   1      42.855  27.166  30.044  1.00  0.00     0.049 A 
ATOM     28  C   UNL A   1      41.185  30.540  34.197  1.00  0.00     0.074 A 
ATOM     29  C   UNL A   1      44.086  26.552  30.208  1.00  0.00     0.029 A 
ATOM     30  N   UNL A   1      42.617  27.889  31.205  1.00  0.00    -0.354 N 
ATOM     31  N   UNL A   1      41.707  29.725  33.310  1.00  0.00    -0.248 NA
ATOM     32  C   UNL A   1      41.916  30.598  35.469  1.00  0.00     0.031 C 
ATOM     33  C   UNL A   1      44.555  26.842  31.494  1.00  0.00     0.029 A 
ATOM     34  C   UNL A   1      43.650  27.690  32.110  1.00  0.00     0.049 A 
ATOM     35  H   UNL A   1      41.831  28.459  31.364  1.00  0.00     0.167 HD
ATOM     36  C   UNL A   1      42.835  29.182  33.917  1.00  0.00     0.074 A 
ATOM     37  C   UNL A   1      42.930  29.779  35.233  1.00  0.00     0.031 C 
ATOM     38  C   UNL A   1      43.714  28.270  33.430  1.00  0.00     0.034 A 
BRANCH  25  39
ATOM     39  C   UNL A   1      42.270  26.085  27.835  1.00  0.00     0.023 A 
ATOM     40  C   UNL A   1      41.778  24.769  27.858  1.00  0.00     0.031 A 
ATOM     41  C   UNL A   1      43.049  26.481  26.732  1.00  0.00     0.131 A 
ATOM     42  C   UNL A   1      42.103  23.884  26.817  1.00  0.00     0.055 A 
ATOM     43  C   UNL A   1      43.322  25.613  25.673  1.00  0.00     0.041 A 
ATOM     44  F   UNL A   1      43.556  27.721  26.665  1.00  0.00    -0.206 F 
ATOM     45  C   UNL A   1      42.853  24.303  25.715  1.00  0.00     0.022 A 
BRANCH  42  46
ATOM     46  S   UNL A   1      41.598  22.148  26.960  1.00  0.00     0.124 S 
ATOM     47  O   UNL A   1      41.869  21.649  25.615  1.00  0.00    -0.237 OA
ATOM     48  O   UNL A   1      42.475  21.650  28.015  1.00  0.00    -0.237 OA
ATOM     49  O   UNL A   1      40.183  22.229  27.314  1.00  0.00    -0.744 OA
ENDBRANCH  42  46
ENDBRANCH  25  39
BRANCH  26  50
ATOM     50  C   UNL A   1      39.489  32.225  35.230  1.00  0.00     0.023 A 
ATOM     51  C   UNL A   1      38.797  31.644  36.303  1.00  0.00     0.031 A 
ATOM     52  C   UNL A   1      39.687  33.619  35.248  1.00  0.00     0.131 A 
ATOM     53  C   UNL A   1      38.286  32.458  37.326  1.00  0.00     0.055 A 
ATOM     54  C   UNL A   1      39.225  34.417  36.295  1.00  0.00     0.041 A 
ATOM     55  F   UNL A   1      40.343  34.225  34.246  1.00  0.00    -0.206 F 
ATOM     56  C   UNL A   1      38.507  33.837  37.336  1.00  0.00     0.022 A 
BRANCH  53  57
ATOM     57  S   UNL A   1      37.239  31.698  38.597  1.00  0.00     0.124 S 
ATOM     58  O   UNL A   1      37.074  30.345  38.078  1.00  0.00    -0.237 OA
ATOM     59  O   UNL A   1      38.068  31.831  39.790  1.00  0.00    -0.237 OA
ATOM     60  O   UNL A   1      36.033  32.523  38.582  1.00  0.00    -0.744 OA
ENDBRANCH  53  57
ENDBRANCH  26  50
BRANCH  38  61
ATOM     61  C   UNL A   1      44.857  27.882  34.331  1.00  0.00     0.023 A 
ATOM     62  C   UNL A   1      44.767  26.775  35.192  1.00  0.00     0.031 A 
ATOM     63  C   UNL A   1      46.042  28.638  34.342  1.00  0.00     0.131 A 
ATOM     64  C   UNL A   1      45.825  26.481  36.063  1.00  0.00     0.055 A 
ATOM     65  C   UNL A   1      47.113  28.310  35.173  1.00  0.00     0.041 A 
ATOM     66  F   UNL A   1      46.178  29.709  33.542  1.00  0.00    -0.206 F 
ATOM     67  C   UNL A   1      47.004  27.232  36.048  1.00  0.00     0.022 A 
BRANCH  64  68
ATOM     68  S   UNL A   1      45.616  25.141  37.268  1.00  0.00     0.124 S 
ATOM     69  O   UNL A   1      46.878  25.193  37.999  1.00  0.00    -0.237 OA
ATOM     70  O   UNL A   1      44.432  25.565  38.007  1.00  0.00    -0.237 OA
ATOM     71  O   UNL A   1      45.431  23.955  36.433  1.00  0.00    -0.744 OA
ENDBRANCH  64  68
ENDBRANCH  38  61
ENDBRANCH  12  13
ENDBRANCH   5   7
ENDBRANCH   2   3
ENDBRANCH   1   2
BRANCH   1  72
ATOM     72  C   UNL A   1      32.602  27.031  26.615  1.00  0.00     0.023 C 
BRANCH  72  73
ATOM     73  C   UNL A   1      31.893  25.856  25.946  1.00  0.00     0.116 C 
BRANCH  73  74
ATOM     74  N   UNL A   1      31.596  24.736  26.823  1.00  0.00    -0.351 N 
ATOM     75  C   UNL A   1      32.319  23.575  27.018  1.00  0.00     0.272 C 
ATOM     76  H   UNL A   1      30.768  24.816  27.350  1.00  0.00     0.163 HD
ATOM     77  O   UNL A   1      32.148  22.893  28.022  1.00  0.00    -0.267 OA
BRANCH  75  78
ATOM     78  C   UNL A   1      33.386  23.212  26.076  1.00  0.00     0.159 A 
ATOM     79  N   UNL A   1      34.473  24.050  26.193  1.00  0.00    -0.247 NA
ATOM     80  C   UNL A   1      33.342  22.152  25.178  1.00  0.00     0.159 A 
ATOM     81  C   UNL A   1      35.518  23.795  25.387  1.00  0.00     0.132 A 
ATOM     82  N   UNL A   1      34.428  21.936  24.356  1.00  0.00    -0.247 NA
ATOM     83  C   UNL A   1      35.494  22.758  24.483  1.00  0.00     0.132 A 
BRANCH  80  84
ATOM     84  C   UNL A   1      32.256  21.122  24.934  1.00  0.00     0.276 C 
ATOM     85  O   UNL A   1      31.082  21.427  25.158  1.00  0.00    -0.267 OA
ATOM     86  N   UNL A   1      32.510  20.011  24.165  1.00  0.00    -0.320 N 
ATOM     87  H   UNL A   1      32.244  20.070  23.219  1.00  0.00     0.170 HD
BRANCH  86  88
ATOM     88  C   UNL A   1      33.103  18.803  24.567  1.00  0.00     0.045 A 
ATOM     89  C   UNL A   1      34.452  18.496  24.316  1.00  0.00     0.030 A 
ATOM     90  C   UNL A   1      32.265  17.867  25.187  1.00  0.00     0.076 A 
ATOM     91  C   UNL A   1      34.943  17.211  24.581  1.00  0.00     0.053 A 
ATOM     92  C   UNL A   1      32.760  16.596  25.373  1.00  0.00     0.167 A 
ATOM     93  C   UNL A   1      34.057  16.271  25.058  1.00  0.00     0.165 A 
ATOM     94  O   UNL A   1      32.049  15.521  25.810  1.00  0.00    -0.454 OA
ATOM     95  O   UNL A   1      34.320  14.950  25.239  1.00  0.00    -0.454 OA
ATOM     96  C   UNL A   1      33.006  14.463  25.581  1.00  0.00     0.468 C 
ENDBRANCH  86  88
ENDBRANCH  80  84
ENDBRANCH  75  78
ENDBRANCH  73  74
ENDBRANCH  72  73
ENDBRANCH   1  72
TORSDOF 16
ENDMDL
