MODEL 1
REMARK VINA RESULT:     -11.3      0.000      0.000
REMARK SMILES CCCCCCNC(=O)Oc1cccc(-c2ccc([C@@H](C)C(=O)NCCCCNC(=O)c3ccc(-c4c5nc(c(-c6cc(S(=O)(=O)[O-])ccc6F)c6ccc([nH]6)c(-c6cc(S(=O)(=O)[O-])ccc6F)c6nc(c(-c7cc(S(=O)(=O)[O-])ccc7F)c7ccc4[nH]7)C=C6)C=C5)cc3)cc2N)c1
REMARK SMILES IDX 20 1 21 2 19 3 16 4 17 5 96 6 18 7 95 8 15 9 11 10 12 11
REMARK SMILES IDX 98 12 13 13 14 14 10 15 8 16 7 17 9 19 6 20 5 21 4 22 3 23
REMARK SMILES IDX 2 24 1 25 97 26 22 29 23 30 24 31 25 33 26 34 27 35 28 36
REMARK SMILES IDX 29 37 30 38 31 40 32 41 33 42 94 43 34 44 93 45 35 46 36 47
REMARK SMILES IDX 37 48 87 49 38 50 92 51 86 52 88 53 39 54 91 55 85 56 84 57
REMARK SMILES IDX 40 59 72 60 52 61 71 62 53 63 56 64 70 65 89 66 54 67 55 68
REMARK SMILES IDX 69 70 90 71 57 72 41 73 42 74 50 75 43 76 49 77 51 78 48 79
REMARK SMILES IDX 44 80 45 81 46 82 47 83 73 84 74 85 82 86 75 87 81 88 83 89
REMARK SMILES IDX 80 90 76 91 77 92 78 93 79 94 58 95 59 96 67 97 60 98 66 99
REMARK SMILES IDX 68 100 65 101 61 102 62 103 63 104 64 105
REMARK H PARENT 7 18 97 27 97 28 24 32 29 39 88 58 56 69
REMARK Flexibility Score: inf
ROOT
ATOM      1  C   UNL A   1      32.228  19.463  23.906  1.00  0.00     0.105 C 
ATOM      2  C   UNL A   1      32.539  19.028  22.474  1.00  0.00     0.023 C 
ENDROOT
BRANCH   1   3
ATOM      3  C   UNL A   1      32.177  20.965  24.137  1.00  0.00    -0.034 A 
ATOM      4  C   UNL A   1      32.305  23.754  24.738  1.00  0.00     0.005 A 
ATOM      5  C   UNL A   1      32.635  23.248  23.467  1.00  0.00     0.011 A 
ATOM      6  C   UNL A   1      31.781  22.842  25.683  1.00  0.00     0.040 A 
ATOM      7  C   UNL A   1      32.513  21.893  23.156  1.00  0.00     0.005 A 
ATOM      8  C   UNL A   1      31.806  21.464  25.397  1.00  0.00     0.030 A 
BRANCH   4   9
ATOM      9  C   UNL A   1      32.530  25.197  25.012  1.00  0.00    -0.013 A 
ATOM     10  C   UNL A   1      31.817  27.521  24.913  1.00  0.00     0.133 A 
ATOM     11  C   UNL A   1      32.965  27.937  25.579  1.00  0.00     0.047 A 
ATOM     12  C   UNL A   1      31.587  26.170  24.639  1.00  0.00     0.056 A 
ATOM     13  C   UNL A   1      33.895  26.987  25.985  1.00  0.00     0.004 A 
ATOM     14  C   UNL A   1      33.685  25.636  25.692  1.00  0.00     0.009 A 
BRANCH  10  15
ATOM     15  O   UNL A   1      30.982  28.524  24.396  1.00  0.00    -0.410 OA
BRANCH  15  16
ATOM     16  C   UNL A   1      30.956  28.724  23.026  1.00  0.00     0.412 C 
ATOM     17  N   UNL A   1      29.757  28.378  22.463  1.00  0.00    -0.321 N 
ATOM     18  H   UNL A   1      29.685  28.475  21.486  1.00  0.00     0.167 HD
ATOM     19  O   UNL A   1      31.875  29.150  22.340  1.00  0.00    -0.224 OA
BRANCH  17  20
ATOM     20  C   UNL A   1      28.584  27.885  23.154  1.00  0.00     0.119 C 
BRANCH  20  21
ATOM     21  C   UNL A   1      27.544  28.983  23.375  1.00  0.00     0.021 C 
BRANCH  21  22
ATOM     22  C   UNL A   1      27.668  30.185  22.432  1.00  0.00     0.002 C 
BRANCH  22  23
ATOM     23  C   UNL A   1      27.729  31.556  23.116  1.00  0.00    -0.000 C 
BRANCH  23  24
ATOM     24  C   UNL A   1      28.404  32.664  22.305  1.00  0.00    -0.003 C 
ATOM     25  C   UNL A   1      27.977  32.686  20.845  1.00  0.00     0.004 C 
ENDBRANCH  23  24
ENDBRANCH  22  23
ENDBRANCH  21  22
ENDBRANCH  20  21
ENDBRANCH  17  20
ENDBRANCH  15  16
ENDBRANCH  10  15
ENDBRANCH   4   9
BRANCH   6  26
ATOM     26  N   UNL A   1      31.336  23.240  26.945  1.00  0.00    -0.398 N 
ATOM     27  H   UNL A   1      30.387  23.140  27.187  1.00  0.00     0.156 HD
ATOM     28  H   UNL A   1      31.971  23.622  27.594  1.00  0.00     0.156 HD
ENDBRANCH   6  26
ENDBRANCH   1   3
BRANCH   1  29
ATOM     29  C   UNL A   1      33.006  18.685  24.980  1.00  0.00     0.227 C 
ATOM     30  O   UNL A   1      32.419  17.835  25.661  1.00  0.00    -0.274 OA
ATOM     31  N   UNL A   1      34.335  18.847  25.226  1.00  0.00    -0.356 N 
ATOM     32  H   UNL A   1      34.701  18.219  25.891  1.00  0.00     0.163 HD
BRANCH  31  33
ATOM     33  C   UNL A   1      35.309  19.772  24.688  1.00  0.00     0.116 C 
BRANCH  33  34
ATOM     34  C   UNL A   1      35.492  20.998  25.586  1.00  0.00     0.023 C 
BRANCH  34  35
ATOM     35  C   UNL A   1      35.836  22.289  24.849  1.00  0.00     0.023 C 
BRANCH  35  36
ATOM     36  C   UNL A   1      37.030  23.053  25.409  1.00  0.00     0.116 C 
BRANCH  36  37
ATOM     37  N   UNL A   1      38.098  22.200  25.910  1.00  0.00    -0.352 N 
ATOM     38  C   UNL A   1      39.234  22.578  26.591  1.00  0.00     0.251 C 
ATOM     39  H   UNL A   1      37.995  21.235  25.743  1.00  0.00     0.163 HD
ATOM     40  O   UNL A   1      40.093  21.750  26.874  1.00  0.00    -0.269 OA
BRANCH  38  41
ATOM     41  C   UNL A   1      39.419  24.006  26.926  1.00  0.00     0.039 A 
ATOM     42  C   UNL A   1      39.108  24.446  28.214  1.00  0.00     0.014 A 
ATOM     43  C   UNL A   1      39.982  24.882  25.993  1.00  0.00     0.014 A 
ATOM     44  C   UNL A   1      39.440  25.749  28.592  1.00  0.00     0.010 A 
ATOM     45  C   UNL A   1      40.389  26.148  26.401  1.00  0.00     0.010 A 
ATOM     46  C   UNL A   1      40.125  26.595  27.704  1.00  0.00    -0.014 A 
BRANCH  46  47
ATOM     47  C   UNL A   1      40.577  27.950  28.118  1.00  0.00     0.031 A 
ATOM     48  C   UNL A   1      42.048  28.275  28.132  1.00  0.00     0.074 A 
ATOM     49  C   UNL A   1      39.675  28.856  28.551  1.00  0.00     0.049 A 
ATOM     50  N   UNL A   1      42.651  29.361  28.541  1.00  0.00    -0.248 NA
ATOM     51  C   UNL A   1      42.965  27.226  27.656  1.00  0.00     0.031 C 
ATOM     52  C   UNL A   1      38.229  28.635  28.636  1.00  0.00     0.029 A 
ATOM     53  N   UNL A   1      39.838  30.137  29.018  1.00  0.00    -0.354 N 
ATOM     54  C   UNL A   1      44.013  29.117  28.397  1.00  0.00     0.074 A 
ATOM     55  C   UNL A   1      44.149  27.763  27.910  1.00  0.00     0.031 C 
ATOM     56  C   UNL A   1      37.638  29.747  29.105  1.00  0.00     0.029 A 
ATOM     57  C   UNL A   1      38.662  30.743  29.403  1.00  0.00     0.049 A 
ATOM     58  H   UNL A   1      40.714  30.582  29.073  1.00  0.00     0.167 HD
ATOM     59  C   UNL A   1      45.051  29.954  28.634  1.00  0.00     0.034 A 
ATOM     60  C   UNL A   1      38.436  31.955  29.951  1.00  0.00     0.034 A 
ATOM     61  C   UNL A   1      44.894  31.315  29.083  1.00  0.00     0.049 A 
ATOM     62  C   UNL A   1      39.614  32.871  30.191  1.00  0.00     0.074 A 
ATOM     63  C   UNL A   1      45.872  32.278  29.262  1.00  0.00     0.029 A 
ATOM     64  N   UNL A   1      43.687  31.904  29.434  1.00  0.00    -0.354 N 
ATOM     65  N   UNL A   1      40.890  32.651  29.967  1.00  0.00    -0.248 NA
ATOM     66  C   UNL A   1      39.323  34.199  30.745  1.00  0.00     0.031 C 
ATOM     67  C   UNL A   1      45.268  33.421  29.792  1.00  0.00     0.029 A 
ATOM     68  C   UNL A   1      43.902  33.204  29.864  1.00  0.00     0.049 A 
ATOM     69  H   UNL A   1      42.808  31.464  29.384  1.00  0.00     0.167 HD
ATOM     70  C   UNL A   1      41.544  33.829  30.319  1.00  0.00     0.074 A 
ATOM     71  C   UNL A   1      40.523  34.760  30.750  1.00  0.00     0.031 C 
ATOM     72  C   UNL A   1      42.870  34.119  30.289  1.00  0.00     0.034 A 
BRANCH  59  73
ATOM     73  C   UNL A   1      46.449  29.422  28.436  1.00  0.00     0.023 A 
ATOM     74  C   UNL A   1      47.142  28.749  29.457  1.00  0.00     0.031 A 
ATOM     75  C   UNL A   1      47.089  29.573  27.193  1.00  0.00     0.131 A 
ATOM     76  C   UNL A   1      48.451  28.297  29.233  1.00  0.00     0.055 A 
ATOM     77  C   UNL A   1      48.363  29.056  26.953  1.00  0.00     0.041 A 
ATOM     78  F   UNL A   1      46.484  30.227  26.188  1.00  0.00    -0.206 F 
ATOM     79  C   UNL A   1      49.056  28.422  27.979  1.00  0.00     0.022 A 
BRANCH  76  80
ATOM     80  S   UNL A   1      49.394  27.635  30.633  1.00  0.00     0.124 S 
ATOM     81  O   UNL A   1      50.438  26.873  29.950  1.00  0.00    -0.237 OA
ATOM     82  O   UNL A   1      49.832  28.844  31.320  1.00  0.00    -0.237 OA
ATOM     83  O   UNL A   1      48.414  26.827  31.355  1.00  0.00    -0.744 OA
ENDBRANCH  76  80
ENDBRANCH  59  73
BRANCH  60  84
ATOM     84  C   UNL A   1      37.057  32.379  30.338  1.00  0.00     0.023 A 
ATOM     85  C   UNL A   1      36.198  32.994  29.413  1.00  0.00     0.031 A 
ATOM     86  C   UNL A   1      36.607  32.254  31.665  1.00  0.00     0.131 A 
ATOM     87  C   UNL A   1      34.969  33.523  29.839  1.00  0.00     0.055 A 
ATOM     88  C   UNL A   1      35.355  32.721  32.069  1.00  0.00     0.041 A 
ATOM     89  F   UNL A   1      37.383  31.674  32.594  1.00  0.00    -0.206 F 
ATOM     90  C   UNL A   1      34.536  33.378  31.158  1.00  0.00     0.022 A 
BRANCH  87  91
ATOM     91  S   UNL A   1      34.004  34.525  28.672  1.00  0.00     0.124 S 
ATOM     92  O   UNL A   1      34.032  35.835  29.312  1.00  0.00    -0.237 OA
ATOM     93  O   UNL A   1      34.785  34.394  27.446  1.00  0.00    -0.237 OA
ATOM     94  O   UNL A   1      32.702  33.865  28.654  1.00  0.00    -0.744 OA
ENDBRANCH  87  91
ENDBRANCH  60  84
BRANCH  72  95
ATOM     95  C   UNL A   1      43.279  35.519  30.679  1.00  0.00     0.023 A 
ATOM     96  C   UNL A   1      43.513  35.877  32.018  1.00  0.00     0.031 A 
ATOM     97  C   UNL A   1      43.433  36.509  29.692  1.00  0.00     0.131 A 
ATOM     98  C   UNL A   1      43.832  37.205  32.339  1.00  0.00     0.055 A 
ATOM     99  C   UNL A   1      43.815  37.811  30.011  1.00  0.00     0.041 A 
ATOM    100  F   UNL A   1      43.219  36.222  28.397  1.00  0.00    -0.206 F 
ATOM    101  C   UNL A   1      44.003  38.170  31.342  1.00  0.00     0.022 A 
BRANCH  98 102
ATOM    102  S   UNL A   1      43.930  37.679  34.087  1.00  0.00     0.124 S 
ATOM    103  O   UNL A   1      44.329  36.426  34.718  1.00  0.00    -0.237 OA
ATOM    104  O   UNL A   1      44.937  38.734  34.069  1.00  0.00    -0.237 OA
ATOM    105  O   UNL A   1      42.572  38.125  34.398  1.00  0.00    -0.744 OA
ENDBRANCH  98 102
ENDBRANCH  72  95
ENDBRANCH  46  47
ENDBRANCH  38  41
ENDBRANCH  36  37
ENDBRANCH  35  36
ENDBRANCH  34  35
ENDBRANCH  33  34
ENDBRANCH  31  33
ENDBRANCH   1  29
TORSDOF 24
ENDMDL
MODEL 2
REMARK VINA RESULT:     -10.9      2.881      3.359
REMARK SMILES CCCCCCNC(=O)Oc1cccc(-c2ccc([C@@H](C)C(=O)NCCCCNC(=O)c3ccc(-c4c5nc(c(-c6cc(S(=O)(=O)[O-])ccc6F)c6ccc([nH]6)c(-c6cc(S(=O)(=O)[O-])ccc6F)c6nc(c(-c7cc(S(=O)(=O)[O-])ccc7F)c7ccc4[nH]7)C=C6)C=C5)cc3)cc2N)c1
REMARK SMILES IDX 20 1 21 2 19 3 16 4 17 5 96 6 18 7 95 8 15 9 11 10 12 11
REMARK SMILES IDX 98 12 13 13 14 14 10 15 8 16 7 17 9 19 6 20 5 21 4 22 3 23
REMARK SMILES IDX 2 24 1 25 97 26 22 29 23 30 24 31 25 33 26 34 27 35 28 36
REMARK SMILES IDX 29 37 30 38 31 40 32 41 33 42 94 43 34 44 93 45 35 46 36 47
REMARK SMILES IDX 37 48 87 49 38 50 92 51 86 52 88 53 39 54 91 55 85 56 84 57
REMARK SMILES IDX 40 59 72 60 52 61 71 62 53 63 56 64 70 65 89 66 54 67 55 68
REMARK SMILES IDX 69 70 90 71 57 72 41 73 42 74 50 75 43 76 49 77 51 78 48 79
REMARK SMILES IDX 44 80 45 81 46 82 47 83 73 84 74 85 82 86 75 87 81 88 83 89
REMARK SMILES IDX 80 90 76 91 77 92 78 93 79 94 58 95 59 96 67 97 60 98 66 99
REMARK SMILES IDX 68 100 65 101 61 102 62 103 63 104 64 105
REMARK H PARENT 7 18 97 27 97 28 24 32 29 39 88 58 56 69
REMARK Flexibility Score: inf
ROOT
ATOM      1  C   UNL A   1      32.290  18.415  23.822  1.00  0.00     0.105 C 
ATOM      2  C   UNL A   1      32.518  17.906  22.399  1.00  0.00     0.023 C 
ENDROOT
BRANCH   1   3
ATOM      3  C   UNL A   1      32.193  19.926  23.968  1.00  0.00    -0.034 A 
ATOM      4  C   UNL A   1      32.251  22.750  24.386  1.00  0.00     0.005 A 
ATOM      5  C   UNL A   1      32.470  22.178  23.119  1.00  0.00     0.011 A 
ATOM      6  C   UNL A   1      31.872  21.880  25.433  1.00  0.00     0.040 A 
ATOM      7  C   UNL A   1      32.380  20.802  22.903  1.00  0.00     0.005 A 
ATOM      8  C   UNL A   1      31.932  20.488  25.229  1.00  0.00     0.030 A 
BRANCH   4   9
ATOM      9  C   UNL A   1      32.434  24.215  24.548  1.00  0.00    -0.013 A 
ATOM     10  C   UNL A   1      32.501  26.469  23.633  1.00  0.00     0.133 A 
ATOM     11  C   UNL A   1      32.750  27.009  24.890  1.00  0.00     0.047 A 
ATOM     12  C   UNL A   1      32.331  25.094  23.456  1.00  0.00     0.056 A 
ATOM     13  C   UNL A   1      32.823  26.161  25.989  1.00  0.00     0.004 A 
ATOM     14  C   UNL A   1      32.681  24.781  25.816  1.00  0.00     0.009 A 
BRANCH  10  15
ATOM     15  O   UNL A   1      32.580  27.344  22.538  1.00  0.00    -0.410 OA
BRANCH  15  16
ATOM     16  C   UNL A   1      32.791  28.692  22.780  1.00  0.00     0.412 C 
ATOM     17  N   UNL A   1      31.695  29.458  22.489  1.00  0.00    -0.321 N 
ATOM     18  H   UNL A   1      31.790  30.430  22.618  1.00  0.00     0.167 HD
ATOM     19  O   UNL A   1      33.822  29.198  23.199  1.00  0.00    -0.224 OA
BRANCH  17  20
ATOM     20  C   UNL A   1      30.410  28.991  22.012  1.00  0.00     0.119 C 
BRANCH  20  21
ATOM     21  C   UNL A   1      29.392  28.853  23.144  1.00  0.00     0.021 C 
BRANCH  21  22
ATOM     22  C   UNL A   1      27.948  29.190  22.755  1.00  0.00     0.002 C 
BRANCH  22  23
ATOM     23  C   UNL A   1      27.655  30.678  22.532  1.00  0.00    -0.000 C 
BRANCH  23  24
ATOM     24  C   UNL A   1      28.173  31.618  23.622  1.00  0.00    -0.003 C 
ATOM     25  C   UNL A   1      28.699  32.937  23.078  1.00  0.00     0.004 C 
ENDBRANCH  23  24
ENDBRANCH  22  23
ENDBRANCH  21  22
ENDBRANCH  20  21
ENDBRANCH  17  20
ENDBRANCH  15  16
ENDBRANCH  10  15
ENDBRANCH   4   9
BRANCH   6  26
ATOM     26  N   UNL A   1      31.542  22.339  26.710  1.00  0.00    -0.398 N 
ATOM     27  H   UNL A   1      30.621  22.625  26.908  1.00  0.00     0.156 HD
ATOM     28  H   UNL A   1      32.231  22.378  27.413  1.00  0.00     0.156 HD
ENDBRANCH   6  26
ENDBRANCH   1   3
BRANCH   1  29
ATOM     29  C   UNL A   1      33.175  17.735  24.880  1.00  0.00     0.227 C 
ATOM     30  O   UNL A   1      32.695  16.845  25.594  1.00  0.00    -0.274 OA
ATOM     31  N   UNL A   1      34.490  18.027  25.078  1.00  0.00    -0.356 N 
ATOM     32  H   UNL A   1      34.935  17.449  25.739  1.00  0.00     0.163 HD
BRANCH  31  33
ATOM     33  C   UNL A   1      35.352  19.030  24.492  1.00  0.00     0.116 C 
BRANCH  33  34
ATOM     34  C   UNL A   1      35.364  20.324  25.309  1.00  0.00     0.023 C 
BRANCH  34  35
ATOM     35  C   UNL A   1      35.872  21.553  24.561  1.00  0.00     0.023 C 
BRANCH  35  36
ATOM     36  C   UNL A   1      37.249  22.046  24.989  1.00  0.00     0.116 C 
BRANCH  36  37
ATOM     37  N   UNL A   1      38.159  20.984  25.394  1.00  0.00    -0.352 N 
ATOM     38  C   UNL A   1      39.316  21.099  26.134  1.00  0.00     0.251 C 
ATOM     39  H   UNL A   1      37.918  20.074  25.106  1.00  0.00     0.163 HD
ATOM     40  O   UNL A   1      40.031  20.120  26.323  1.00  0.00    -0.269 OA
BRANCH  38  41
ATOM     41  C   UNL A   1      39.701  22.429  26.648  1.00  0.00     0.039 A 
ATOM     42  C   UNL A   1      40.693  22.517  27.627  1.00  0.00     0.014 A 
ATOM     43  C   UNL A   1      39.145  23.587  26.097  1.00  0.00     0.014 A 
ATOM     44  C   UNL A   1      41.186  23.770  27.994  1.00  0.00     0.010 A 
ATOM     45  C   UNL A   1      39.699  24.826  26.402  1.00  0.00     0.010 A 
ATOM     46  C   UNL A   1      40.727  24.932  27.352  1.00  0.00    -0.014 A 
BRANCH  46  47
ATOM     47  C   UNL A   1      41.307  26.267  27.655  1.00  0.00     0.031 A 
ATOM     48  C   UNL A   1      42.689  26.610  27.163  1.00  0.00     0.074 A 
ATOM     49  C   UNL A   1      40.626  27.135  28.432  1.00  0.00     0.049 A 
ATOM     50  N   UNL A   1      43.407  27.679  27.393  1.00  0.00    -0.248 NA
ATOM     51  C   UNL A   1      43.368  25.602  26.333  1.00  0.00     0.031 C 
ATOM     52  C   UNL A   1      39.302  26.891  29.013  1.00  0.00     0.029 A 
ATOM     53  N   UNL A   1      40.954  28.390  28.884  1.00  0.00    -0.354 N 
ATOM     54  C   UNL A   1      44.626  27.461  26.760  1.00  0.00     0.074 A 
ATOM     55  C   UNL A   1      44.569  26.138  26.179  1.00  0.00     0.031 C 
ATOM     56  C   UNL A   1      38.927  27.967  29.725  1.00  0.00     0.029 A 
ATOM     57  C   UNL A   1      39.997  28.957  29.696  1.00  0.00     0.049 A 
ATOM     58  H   UNL A   1      41.796  28.842  28.649  1.00  0.00     0.167 HD
ATOM     59  C   UNL A   1      45.687  28.297  26.660  1.00  0.00     0.034 A 
ATOM     60  C   UNL A   1      39.991  30.134  30.357  1.00  0.00     0.034 A 
ATOM     61  C   UNL A   1      45.712  29.627  27.213  1.00  0.00     0.049 A 
ATOM     62  C   UNL A   1      41.185  31.049  30.216  1.00  0.00     0.074 A 
ATOM     63  C   UNL A   1      46.697  30.591  27.088  1.00  0.00     0.029 A 
ATOM     64  N   UNL A   1      44.713  30.180  28.004  1.00  0.00    -0.354 N 
ATOM     65  N   UNL A   1      42.296  30.859  29.539  1.00  0.00    -0.248 NA
ATOM     66  C   UNL A   1      41.121  32.340  30.912  1.00  0.00     0.031 C 
ATOM     67  C   UNL A   1      46.331  31.694  27.863  1.00  0.00     0.029 A 
ATOM     68  C   UNL A   1      45.077  31.456  28.403  1.00  0.00     0.049 A 
ATOM     69  H   UNL A   1      43.871  29.732  28.245  1.00  0.00     0.167 HD
ATOM     70  C   UNL A   1      43.042  32.024  29.703  1.00  0.00     0.074 A 
ATOM     71  C   UNL A   1      42.248  32.915  30.522  1.00  0.00     0.031 C 
ATOM     72  C   UNL A   1      44.272  32.332  29.220  1.00  0.00     0.034 A 
BRANCH  59  73
ATOM     73  C   UNL A   1      46.919  27.794  25.947  1.00  0.00     0.023 A 
ATOM     74  C   UNL A   1      47.137  28.028  24.579  1.00  0.00     0.031 A 
ATOM     75  C   UNL A   1      47.903  27.086  26.660  1.00  0.00     0.131 A 
ATOM     76  C   UNL A   1      48.285  27.516  23.956  1.00  0.00     0.055 A 
ATOM     77  C   UNL A   1      49.078  26.642  26.051  1.00  0.00     0.041 A 
ATOM     78  F   UNL A   1      47.738  26.813  27.964  1.00  0.00    -0.206 F 
ATOM     79  C   UNL A   1      49.270  26.849  24.689  1.00  0.00     0.022 A 
BRANCH  76  80
ATOM     80  S   UNL A   1      48.426  27.643  22.153  1.00  0.00     0.124 S 
ATOM     81  O   UNL A   1      48.646  26.248  21.776  1.00  0.00    -0.237 OA
ATOM     82  O   UNL A   1      47.138  28.211  21.774  1.00  0.00    -0.237 OA
ATOM     83  O   UNL A   1      49.577  28.522  21.960  1.00  0.00    -0.744 OA
ENDBRANCH  76  80
ENDBRANCH  59  73
BRANCH  60  84
ATOM     84  C   UNL A   1      38.844  30.517  31.234  1.00  0.00     0.023 A 
ATOM     85  C   UNL A   1      37.816  31.351  30.764  1.00  0.00     0.031 A 
ATOM     86  C   UNL A   1      38.802  30.124  32.584  1.00  0.00     0.131 A 
ATOM     87  C   UNL A   1      36.833  31.823  31.650  1.00  0.00     0.055 A 
ATOM     88  C   UNL A   1      37.784  30.541  33.445  1.00  0.00     0.041 A 
ATOM     89  F   UNL A   1      39.756  29.327  33.091  1.00  0.00    -0.206 F 
ATOM     90  C   UNL A   1      36.803  31.412  32.984  1.00  0.00     0.022 A 
BRANCH  87  91
ATOM     91  S   UNL A   1      35.674  33.090  31.064  1.00  0.00     0.124 S 
ATOM     92  O   UNL A   1      34.448  32.318  30.901  1.00  0.00    -0.237 OA
ATOM     93  O   UNL A   1      35.689  34.045  32.168  1.00  0.00    -0.237 OA
ATOM     94  O   UNL A   1      36.286  33.562  29.824  1.00  0.00    -0.744 OA
ENDBRANCH  87  91
ENDBRANCH  60  84
BRANCH  72  95
ATOM     95  C   UNL A   1      44.805  33.713  29.520  1.00  0.00     0.023 A 
ATOM     96  C   UNL A   1      44.587  34.796  28.651  1.00  0.00     0.031 A 
ATOM     97  C   UNL A   1      45.544  33.943  30.694  1.00  0.00     0.131 A 
ATOM     98  C   UNL A   1      45.152  36.046  28.941  1.00  0.00     0.055 A 
ATOM     99  C   UNL A   1      46.046  35.205  31.010  1.00  0.00     0.041 A 
ATOM    100  F   UNL A   1      45.783  32.943  31.558  1.00  0.00    -0.206 F 
ATOM    101  C   UNL A   1      45.864  36.263  30.124  1.00  0.00     0.022 A 
BRANCH  98 102
ATOM    102  S   UNL A   1      45.024  37.368  27.705  1.00  0.00     0.124 S 
ATOM    103  O   UNL A   1      46.219  38.157  27.980  1.00  0.00    -0.237 OA
ATOM    104  O   UNL A   1      45.025  36.623  26.450  1.00  0.00    -0.237 OA
ATOM    105  O   UNL A   1      43.758  38.024  28.034  1.00  0.00    -0.744 OA
ENDBRANCH  98 102
ENDBRANCH  72  95
ENDBRANCH  46  47
ENDBRANCH  38  41
ENDBRANCH  36  37
ENDBRANCH  35  36
ENDBRANCH  34  35
ENDBRANCH  33  34
ENDBRANCH  31  33
ENDBRANCH   1  29
TORSDOF 24
ENDMDL
MODEL 3
REMARK VINA RESULT:     -10.4      2.068      2.662
REMARK SMILES CCCCCCNC(=O)Oc1cccc(-c2ccc([C@@H](C)C(=O)NCCCCNC(=O)c3ccc(-c4c5nc(c(-c6cc(S(=O)(=O)[O-])ccc6F)c6ccc([nH]6)c(-c6cc(S(=O)(=O)[O-])ccc6F)c6nc(c(-c7cc(S(=O)(=O)[O-])ccc7F)c7ccc4[nH]7)C=C6)C=C5)cc3)cc2N)c1
REMARK SMILES IDX 20 1 21 2 19 3 16 4 17 5 96 6 18 7 95 8 15 9 11 10 12 11
REMARK SMILES IDX 98 12 13 13 14 14 10 15 8 16 7 17 9 19 6 20 5 21 4 22 3 23
REMARK SMILES IDX 2 24 1 25 97 26 22 29 23 30 24 31 25 33 26 34 27 35 28 36
REMARK SMILES IDX 29 37 30 38 31 40 32 41 33 42 94 43 34 44 93 45 35 46 36 47
REMARK SMILES IDX 37 48 87 49 38 50 92 51 86 52 88 53 39 54 91 55 85 56 84 57
REMARK SMILES IDX 40 59 72 60 52 61 71 62 53 63 56 64 70 65 89 66 54 67 55 68
REMARK SMILES IDX 69 70 90 71 57 72 41 73 42 74 50 75 43 76 49 77 51 78 48 79
REMARK SMILES IDX 44 80 45 81 46 82 47 83 73 84 74 85 82 86 75 87 81 88 83 89
REMARK SMILES IDX 80 90 76 91 77 92 78 93 79 94 58 95 59 96 67 97 60 98 66 99
REMARK SMILES IDX 68 100 65 101 61 102 62 103 63 104 64 105
REMARK H PARENT 7 18 97 27 97 28 24 32 29 39 88 58 56 69
REMARK Flexibility Score: inf
ROOT
ATOM      1  C   UNL A   1      33.532  18.370  25.375  1.00  0.00     0.105 C 
ATOM      2  C   UNL A   1      32.589  17.197  25.639  1.00  0.00     0.023 C 
ENDROOT
BRANCH   1   3
ATOM      3  C   UNL A   1      32.858  19.721  25.192  1.00  0.00    -0.034 A 
ATOM      4  C   UNL A   1      31.847  22.374  24.881  1.00  0.00     0.005 A 
ATOM      5  C   UNL A   1      31.915  21.470  23.805  1.00  0.00     0.011 A 
ATOM      6  C   UNL A   1      32.181  21.881  26.164  1.00  0.00     0.040 A 
ATOM      7  C   UNL A   1      32.351  20.154  23.970  1.00  0.00     0.005 A 
ATOM      8  C   UNL A   1      32.757  20.602  26.282  1.00  0.00     0.030 A 
BRANCH   4   9
ATOM      9  C   UNL A   1      31.439  23.776  24.610  1.00  0.00    -0.013 A 
ATOM     10  C   UNL A   1      31.249  25.691  23.121  1.00  0.00     0.133 A 
ATOM     11  C   UNL A   1      30.618  26.440  24.107  1.00  0.00     0.047 A 
ATOM     12  C   UNL A   1      31.647  24.372  23.355  1.00  0.00     0.056 A 
ATOM     13  C   UNL A   1      30.373  25.859  25.346  1.00  0.00     0.004 A 
ATOM     14  C   UNL A   1      30.792  24.548  25.597  1.00  0.00     0.009 A 
BRANCH  10  15
ATOM     15  O   UNL A   1      31.604  26.363  21.941  1.00  0.00    -0.410 OA
BRANCH  15  16
ATOM     16  C   UNL A   1      32.917  26.286  21.503  1.00  0.00     0.412 C 
ATOM     17  N   UNL A   1      33.645  27.401  21.817  1.00  0.00    -0.321 N 
ATOM     18  H   UNL A   1      34.581  27.417  21.511  1.00  0.00     0.167 HD
ATOM     19  O   UNL A   1      33.421  25.354  20.892  1.00  0.00    -0.224 OA
BRANCH  17  20
ATOM     20  C   UNL A   1      33.184  28.561  22.552  1.00  0.00     0.119 C 
BRANCH  20  21
ATOM     21  C   UNL A   1      33.878  28.695  23.907  1.00  0.00     0.021 C 
BRANCH  21  22
ATOM     22  C   UNL A   1      32.961  29.121  25.059  1.00  0.00     0.002 C 
BRANCH  22  23
ATOM     23  C   UNL A   1      33.236  28.442  26.406  1.00  0.00    -0.000 C 
BRANCH  23  24
ATOM     24  C   UNL A   1      34.433  28.991  27.185  1.00  0.00    -0.003 C 
ATOM     25  C   UNL A   1      34.355  30.489  27.429  1.00  0.00     0.004 C 
ENDBRANCH  23  24
ENDBRANCH  22  23
ENDBRANCH  21  22
ENDBRANCH  20  21
ENDBRANCH  17  20
ENDBRANCH  15  16
ENDBRANCH  10  15
ENDBRANCH   4   9
BRANCH   6  26
ATOM     26  N   UNL A   1      32.068  22.657  27.320  1.00  0.00    -0.398 N 
ATOM     27  H   UNL A   1      31.787  23.598  27.255  1.00  0.00     0.156 HD
ATOM     28  H   UNL A   1      32.271  22.262  28.199  1.00  0.00     0.156 HD
ENDBRANCH   6  26
ENDBRANCH   1   3
BRANCH   1  29
ATOM     29  C   UNL A   1      34.634  18.069  24.346  1.00  0.00     0.227 C 
ATOM     30  O   UNL A   1      34.448  17.191  23.494  1.00  0.00    -0.274 OA
ATOM     31  N   UNL A   1      35.821  18.733  24.283  1.00  0.00    -0.356 N 
ATOM     32  H   UNL A   1      36.386  18.475  23.519  1.00  0.00     0.163 HD
BRANCH  31  33
ATOM     33  C   UNL A   1      36.402  19.749  25.133  1.00  0.00     0.116 C 
BRANCH  33  34
ATOM     34  C   UNL A   1      36.355  21.134  24.486  1.00  0.00     0.023 C 
BRANCH  34  35
ATOM     35  C   UNL A   1      35.923  22.265  25.415  1.00  0.00     0.023 C 
BRANCH  35  36
ATOM     36  C   UNL A   1      37.064  23.049  26.052  1.00  0.00     0.116 C 
BRANCH  36  37
ATOM     37  N   UNL A   1      38.277  22.270  26.257  1.00  0.00    -0.352 N 
ATOM     38  C   UNL A   1      39.505  22.717  26.690  1.00  0.00     0.251 C 
ATOM     39  H   UNL A   1      38.210  21.307  26.063  1.00  0.00     0.163 HD
ATOM     40  O   UNL A   1      40.464  21.953  26.731  1.00  0.00    -0.269 OA
BRANCH  38  41
ATOM     41  C   UNL A   1      39.655  24.141  27.055  1.00  0.00     0.039 A 
ATOM     42  C   UNL A   1      39.502  24.519  28.391  1.00  0.00     0.014 A 
ATOM     43  C   UNL A   1      40.034  25.080  26.092  1.00  0.00     0.014 A 
ATOM     44  C   UNL A   1      39.811  25.826  28.773  1.00  0.00     0.010 A 
ATOM     45  C   UNL A   1      40.423  26.354  26.491  1.00  0.00     0.010 A 
ATOM     46  C   UNL A   1      40.318  26.741  27.836  1.00  0.00    -0.014 A 
BRANCH  46  47
ATOM     47  C   UNL A   1      40.747  28.107  28.239  1.00  0.00     0.031 A 
ATOM     48  C   UNL A   1      42.213  28.450  28.272  1.00  0.00     0.074 A 
ATOM     49  C   UNL A   1      39.827  29.007  28.647  1.00  0.00     0.049 A 
ATOM     50  N   UNL A   1      42.796  29.549  28.676  1.00  0.00    -0.248 NA
ATOM     51  C   UNL A   1      43.150  27.407  27.823  1.00  0.00     0.031 C 
ATOM     52  C   UNL A   1      38.382  28.769  28.712  1.00  0.00     0.029 A 
ATOM     53  N   UNL A   1      39.967  30.296  29.100  1.00  0.00    -0.354 N 
ATOM     54  C   UNL A   1      44.163  29.320  28.556  1.00  0.00     0.074 A 
ATOM     55  C   UNL A   1      44.323  27.961  28.088  1.00  0.00     0.031 C 
ATOM     56  C   UNL A   1      37.771  29.879  29.157  1.00  0.00     0.029 A 
ATOM     57  C   UNL A   1      38.778  30.892  29.459  1.00  0.00     0.049 A 
ATOM     58  H   UNL A   1      40.837  30.752  29.162  1.00  0.00     0.167 HD
ATOM     59  C   UNL A   1      45.187  30.172  28.798  1.00  0.00     0.034 A 
ATOM     60  C   UNL A   1      38.529  32.108  29.987  1.00  0.00     0.034 A 
ATOM     61  C   UNL A   1      45.007  31.536  29.228  1.00  0.00     0.049 A 
ATOM     62  C   UNL A   1      39.692  33.041  30.235  1.00  0.00     0.074 A 
ATOM     63  C   UNL A   1      45.970  32.513  29.410  1.00  0.00     0.029 A 
ATOM     64  N   UNL A   1      43.787  32.115  29.552  1.00  0.00    -0.354 N 
ATOM     65  N   UNL A   1      40.974  32.834  30.032  1.00  0.00    -0.248 NA
ATOM     66  C   UNL A   1      39.376  34.373  30.766  1.00  0.00     0.031 C 
ATOM     67  C   UNL A   1      45.344  33.655  29.916  1.00  0.00     0.029 A 
ATOM     68  C   UNL A   1      43.979  33.423  29.969  1.00  0.00     0.049 A 
ATOM     69  H   UNL A   1      42.914  31.664  29.494  1.00  0.00     0.167 HD
ATOM     70  C   UNL A   1      41.608  34.025  30.379  1.00  0.00     0.074 A 
ATOM     71  C   UNL A   1      40.568  34.948  30.783  1.00  0.00     0.031 C 
ATOM     72  C   UNL A   1      42.930  34.330  30.366  1.00  0.00     0.034 A 
BRANCH  59  73
ATOM     73  C   UNL A   1      46.594  29.655  28.629  1.00  0.00     0.023 A 
ATOM     74  C   UNL A   1      47.284  29.013  29.672  1.00  0.00     0.031 A 
ATOM     75  C   UNL A   1      47.248  29.789  27.391  1.00  0.00     0.131 A 
ATOM     76  C   UNL A   1      48.601  28.574  29.473  1.00  0.00     0.055 A 
ATOM     77  C   UNL A   1      48.532  29.285  27.177  1.00  0.00     0.041 A 
ATOM     78  F   UNL A   1      46.648  30.413  26.365  1.00  0.00    -0.206 F 
ATOM     79  C   UNL A   1      49.220  28.681  28.225  1.00  0.00     0.022 A 
BRANCH  76  80
ATOM     80  S   UNL A   1      49.535  27.954  30.898  1.00  0.00     0.124 S 
ATOM     81  O   UNL A   1      50.894  27.908  30.362  1.00  0.00    -0.237 OA
ATOM     82  O   UNL A   1      49.281  28.971  31.911  1.00  0.00    -0.237 OA
ATOM     83  O   UNL A   1      48.933  26.648  31.161  1.00  0.00    -0.744 OA
ENDBRANCH  76  80
ENDBRANCH  59  73
BRANCH  60  84
ATOM     84  C   UNL A   1      37.139  32.520  30.348  1.00  0.00     0.023 A 
ATOM     85  C   UNL A   1      36.286  33.109  29.401  1.00  0.00     0.031 A 
ATOM     86  C   UNL A   1      36.671  32.408  31.670  1.00  0.00     0.131 A 
ATOM     87  C   UNL A   1      35.044  33.629  29.801  1.00  0.00     0.055 A 
ATOM     88  C   UNL A   1      35.407  32.865  32.049  1.00  0.00     0.041 A 
ATOM     89  F   UNL A   1      37.441  31.852  32.619  1.00  0.00    -0.206 F 
ATOM     90  C   UNL A   1      34.593  33.498  31.115  1.00  0.00     0.022 A 
BRANCH  87  91
ATOM     91  S   UNL A   1      34.084  34.600  28.605  1.00  0.00     0.124 S 
ATOM     92  O   UNL A   1      32.738  34.078  28.810  1.00  0.00    -0.237 OA
ATOM     93  O   UNL A   1      34.320  35.965  29.067  1.00  0.00    -0.237 OA
ATOM     94  O   UNL A   1      34.698  34.262  27.323  1.00  0.00    -0.744 OA
ENDBRANCH  87  91
ENDBRANCH  60  84
BRANCH  72  95
ATOM     95  C   UNL A   1      43.316  35.740  30.745  1.00  0.00     0.023 A 
ATOM     96  C   UNL A   1      43.448  36.757  29.783  1.00  0.00     0.031 A 
ATOM     97  C   UNL A   1      43.556  36.066  32.092  1.00  0.00     0.131 A 
ATOM     98  C   UNL A   1      43.867  38.036  30.175  1.00  0.00     0.055 A 
ATOM     99  C   UNL A   1      43.908  37.358  32.483  1.00  0.00     0.041 A 
ATOM    100  F   UNL A   1      43.446  35.134  33.052  1.00  0.00    -0.206 F 
ATOM    101  C   UNL A   1      44.079  38.349  31.521  1.00  0.00     0.022 A 
BRANCH  98 102
ATOM    102  S   UNL A   1      44.222  39.267  28.891  1.00  0.00     0.124 S 
ATOM    103  O   UNL A   1      43.013  40.084  28.912  1.00  0.00    -0.237 OA
ATOM    104  O   UNL A   1      45.433  39.906  29.397  1.00  0.00    -0.237 OA
ATOM    105  O   UNL A   1      44.406  38.462  27.685  1.00  0.00    -0.744 OA
ENDBRANCH  98 102
ENDBRANCH  72  95
ENDBRANCH  46  47
ENDBRANCH  38  41
ENDBRANCH  36  37
ENDBRANCH  35  36
ENDBRANCH  34  35
ENDBRANCH  33  34
ENDBRANCH  31  33
ENDBRANCH   1  29
TORSDOF 24
ENDMDL
