MODEL 1
REMARK VINA RESULT:     -10.8      0.000      0.000
REMARK SMILES O=C(COCC(=O)/[NH+]=C1\S[C@@H]2CS(=O)(=O)C[C@H]2N1c1ccc(Cl)cc1)NCCCCNC(=O)c1ccc(-c2c3nc(c(-c4cc(S(=O)(=O)[O-])ccc4F)c4ccc([nH]4)c(-c4cc(S(=O)(=O)[O-])ccc4F)c4nc(c(-c5cc(S(=O)(=O)[O-])ccc5F)c5ccc2[nH]5)C=C4)C=C3)cc1
REMARK SMILES IDX 28 1 27 2 26 3 2 4 1 5 3 7 4 8 5 9 6 10 7 11 8 12 9 13 10 15
REMARK SMILES IDX 18 16 11 17 17 18 12 19 16 20 13 21 14 22 15 23 19 24 20 25
REMARK SMILES IDX 25 26 21 27 24 28 22 29 23 30 29 31 30 32 31 33 32 34 33 36
REMARK SMILES IDX 34 37 35 38 96 39 36 40 95 41 37 42 38 43 39 44 89 45 40 46
REMARK SMILES IDX 94 47 88 48 90 49 41 50 93 51 87 52 86 53 42 55 74 56 54 57
REMARK SMILES IDX 73 58 55 59 58 60 72 61 91 62 56 63 57 64 71 66 92 67 59 68
REMARK SMILES IDX 43 69 44 70 52 71 45 72 51 73 53 74 50 75 46 76 47 77 48 78
REMARK SMILES IDX 49 79 75 80 76 81 84 82 77 83 83 84 85 85 82 86 78 87 79 88
REMARK SMILES IDX 80 89 81 90 60 91 61 92 69 93 62 94 68 95 70 96 67 97 63 98
REMARK SMILES IDX 64 99 65 100 66 101
REMARK H PARENT 26 6 8 14 31 35 90 54 58 65
REMARK Flexibility Score: inf
ROOT
ATOM      1  C   UNL A   1      45.014  25.312  39.534  1.00  0.00     0.023 C 
ENDROOT
BRANCH   1   2
ATOM      2  C   UNL A   1      45.539  23.910  39.839  1.00  0.00     0.116 C 
BRANCH   2   3
ATOM      3  N   UNL A   1      45.755  23.118  38.642  1.00  0.00    -0.354 N 
ATOM      4  C   UNL A   1      46.080  21.794  38.545  1.00  0.00     0.246 C 
ATOM      5  O   UNL A   1      46.171  21.273  37.434  1.00  0.00    -0.272 OA
ATOM      6  H   UNL A   1      45.655  23.597  37.787  1.00  0.00     0.163 HD
BRANCH   4   7
ATOM      7  C   UNL A   1      46.329  20.991  39.824  1.00  0.00     0.260 C 
BRANCH   7   8
ATOM      8  O   UNL A   1      45.799  19.675  39.778  1.00  0.00    -0.359 OA
BRANCH   8   9
ATOM      9  C   UNL A   1      46.287  18.851  40.831  1.00  0.00     0.288 C 
BRANCH   9  10
ATOM     10  C   UNL A   1      45.932  17.351  40.772  1.00  0.00     0.333 C 
ATOM     11  O   UNL A   1      46.352  16.664  39.841  1.00  0.00    -0.244 OA
ATOM     12  N   UNL A   1      45.113  16.811  41.733  1.00  0.00    -0.202 N 
ATOM     13  C   UNL A   1      45.413  16.827  42.989  1.00  0.00     0.319 C 
ATOM     14  H   UNL A   1      44.266  16.396  41.454  1.00  0.00     0.316 HD
ATOM     15  S   UNL A   1      46.830  17.663  43.710  1.00  0.00    -0.029 SA
ATOM     16  N   UNL A   1      44.673  16.230  44.025  1.00  0.00    -0.217 N 
ATOM     17  C   UNL A   1      45.904  17.830  45.248  1.00  0.00     0.120 C 
ATOM     18  C   UNL A   1      45.305  16.422  45.344  1.00  0.00     0.212 C 
ATOM     19  C   UNL A   1      46.610  18.135  46.543  1.00  0.00     0.156 C 
ATOM     20  C   UNL A   1      44.480  16.466  46.607  1.00  0.00     0.188 C 
ATOM     21  S   UNL A   1      45.577  17.304  47.754  1.00  0.00     0.155 S 
ATOM     22  O   UNL A   1      44.802  18.289  48.478  1.00  0.00    -0.229 OA
ATOM     23  O   UNL A   1      46.380  16.304  48.422  1.00  0.00    -0.229 OA
BRANCH  16  24
ATOM     24  C   UNL A   1      43.814  15.133  43.832  1.00  0.00     0.128 A 
ATOM     25  C   UNL A   1      44.217  13.826  44.148  1.00  0.00     0.053 A 
ATOM     26  C   UNL A   1      42.511  15.299  43.332  1.00  0.00     0.053 A 
ATOM     27  C   UNL A   1      43.376  12.726  43.934  1.00  0.00     0.025 A 
ATOM     28  C   UNL A   1      41.660  14.205  43.123  1.00  0.00     0.025 A 
ATOM     29  C   UNL A   1      42.101  12.920  43.416  1.00  0.00     0.041 A 
ATOM     30  Cl  UNL A   1      41.070  11.571  43.150  1.00  0.00    -0.084 Cl
ENDBRANCH  16  24
ENDBRANCH   9  10
ENDBRANCH   8   9
ENDBRANCH   7   8
ENDBRANCH   4   7
ENDBRANCH   2   3
ENDBRANCH   1   2
BRANCH   1  31
ATOM     31  C   UNL A   1      45.990  26.452  39.840  1.00  0.00     0.023 C 
BRANCH  31  32
ATOM     32  C   UNL A   1      46.581  27.159  38.624  1.00  0.00     0.116 C 
BRANCH  32  33
ATOM     33  N   UNL A   1      47.618  26.384  37.962  1.00  0.00    -0.352 N 
ATOM     34  C   UNL A   1      47.666  25.932  36.663  1.00  0.00     0.251 C 
ATOM     35  H   UNL A   1      48.394  26.150  38.521  1.00  0.00     0.163 HD
ATOM     36  O   UNL A   1      48.564  25.170  36.318  1.00  0.00    -0.269 OA
BRANCH  34  37
ATOM     37  C   UNL A   1      46.611  26.333  35.704  1.00  0.00     0.039 A 
ATOM     38  C   UNL A   1      45.443  25.570  35.627  1.00  0.00     0.014 A 
ATOM     39  C   UNL A   1      46.755  27.475  34.911  1.00  0.00     0.014 A 
ATOM     40  C   UNL A   1      44.386  26.002  34.822  1.00  0.00     0.010 A 
ATOM     41  C   UNL A   1      45.673  27.945  34.170  1.00  0.00     0.010 A 
ATOM     42  C   UNL A   1      44.472  27.219  34.125  1.00  0.00    -0.014 A 
BRANCH  42  43
ATOM     43  C   UNL A   1      43.308  27.761  33.371  1.00  0.00     0.031 A 
ATOM     44  C   UNL A   1      43.131  27.437  31.913  1.00  0.00     0.074 A 
ATOM     45  C   UNL A   1      42.451  28.603  33.983  1.00  0.00     0.049 A 
ATOM     46  N   UNL A   1      42.233  27.881  31.070  1.00  0.00    -0.248 NA
ATOM     47  C   UNL A   1      44.109  26.515  31.320  1.00  0.00     0.031 C 
ATOM     48  C   UNL A   1      42.541  29.027  35.382  1.00  0.00     0.029 A 
ATOM     49  N   UNL A   1      41.345  29.265  33.508  1.00  0.00    -0.354 N 
ATOM     50  C   UNL A   1      42.542  27.299  29.845  1.00  0.00     0.074 A 
ATOM     51  C   UNL A   1      43.751  26.526  30.046  1.00  0.00     0.031 C 
ATOM     52  C   UNL A   1      41.525  29.861  35.655  1.00  0.00     0.029 A 
ATOM     53  C   UNL A   1      40.744  30.078  34.442  1.00  0.00     0.049 A 
ATOM     54  H   UNL A   1      41.014  29.167  32.586  1.00  0.00     0.167 HD
ATOM     55  C   UNL A   1      41.868  27.382  28.670  1.00  0.00     0.034 A 
ATOM     56  C   UNL A   1      39.700  30.924  34.332  1.00  0.00     0.034 A 
ATOM     57  C   UNL A   1      40.668  28.163  28.488  1.00  0.00     0.049 A 
ATOM     58  C   UNL A   1      38.994  31.043  33.004  1.00  0.00     0.074 A 
ATOM     59  C   UNL A   1      39.877  28.276  27.358  1.00  0.00     0.029 A 
ATOM     60  N   UNL A   1      40.093  28.980  29.454  1.00  0.00    -0.354 N 
ATOM     61  N   UNL A   1      39.264  30.437  31.870  1.00  0.00    -0.248 NA
ATOM     62  C   UNL A   1      37.842  31.950  32.943  1.00  0.00     0.031 C 
ATOM     63  C   UNL A   1      38.881  29.224  27.611  1.00  0.00     0.029 A 
ATOM     64  C   UNL A   1      38.986  29.634  28.931  1.00  0.00     0.049 A 
ATOM     65  H   UNL A   1      40.424  29.082  30.376  1.00  0.00     0.167 HD
ATOM     66  C   UNL A   1      38.296  30.872  30.968  1.00  0.00     0.074 A 
ATOM     67  C   UNL A   1      37.429  31.776  31.696  1.00  0.00     0.031 C 
ATOM     68  C   UNL A   1      38.137  30.549  29.659  1.00  0.00     0.034 A 
BRANCH  55  69
ATOM     69  C   UNL A   1      42.440  26.632  27.487  1.00  0.00     0.023 A 
ATOM     70  C   UNL A   1      42.301  25.239  27.357  1.00  0.00     0.031 A 
ATOM     71  C   UNL A   1      43.168  27.312  26.494  1.00  0.00     0.131 A 
ATOM     72  C   UNL A   1      42.954  24.561  26.318  1.00  0.00     0.055 A 
ATOM     73  C   UNL A   1      43.736  26.643  25.408  1.00  0.00     0.041 A 
ATOM     74  F   UNL A   1      43.356  28.640  26.570  1.00  0.00    -0.206 F 
ATOM     75  C   UNL A   1      43.648  25.256  25.325  1.00  0.00     0.022 A 
BRANCH  72  76
ATOM     76  S   UNL A   1      43.033  22.750  26.383  1.00  0.00     0.124 S 
ATOM     77  O   UNL A   1      42.847  22.499  27.811  1.00  0.00    -0.237 OA
ATOM     78  O   UNL A   1      41.928  22.356  25.516  1.00  0.00    -0.237 OA
ATOM     79  O   UNL A   1      44.367  22.447  25.873  1.00  0.00    -0.744 OA
ENDBRANCH  72  76
ENDBRANCH  55  69
BRANCH  56  80
ATOM     80  C   UNL A   1      39.278  31.753  35.500  1.00  0.00     0.023 A 
ATOM     81  C   UNL A   1      38.529  31.203  36.553  1.00  0.00     0.031 A 
ATOM     82  C   UNL A   1      39.595  33.122  35.562  1.00  0.00     0.131 A 
ATOM     83  C   UNL A   1      38.088  32.027  37.601  1.00  0.00     0.055 A 
ATOM     84  C   UNL A   1      39.205  33.924  36.636  1.00  0.00     0.041 A 
ATOM     85  F   UNL A   1      40.309  33.699  34.583  1.00  0.00    -0.206 F 
ATOM     86  C   UNL A   1      38.435  33.379  37.658  1.00  0.00     0.022 A 
BRANCH  83  87
ATOM     87  S   UNL A   1      36.977  31.324  38.851  1.00  0.00     0.124 S 
ATOM     88  O   UNL A   1      37.785  31.436  40.061  1.00  0.00    -0.237 OA
ATOM     89  O   UNL A   1      35.823  32.214  38.766  1.00  0.00    -0.237 OA
ATOM     90  O   UNL A   1      36.748  29.962  38.375  1.00  0.00    -0.744 OA
ENDBRANCH  83  87
ENDBRANCH  56  80
BRANCH  68  91
ATOM     91  C   UNL A   1      36.952  31.150  28.938  1.00  0.00     0.023 A 
ATOM     92  C   UNL A   1      35.863  30.368  28.516  1.00  0.00     0.031 A 
ATOM     93  C   UNL A   1      36.914  32.531  28.671  1.00  0.00     0.131 A 
ATOM     94  C   UNL A   1      34.809  30.962  27.806  1.00  0.00     0.055 A 
ATOM     95  C   UNL A   1      35.832  33.126  28.023  1.00  0.00     0.041 A 
ATOM     96  F   UNL A   1      37.929  33.328  29.044  1.00  0.00    -0.206 F 
ATOM     97  C   UNL A   1      34.776  32.339  27.575  1.00  0.00     0.022 A 
BRANCH  94  98
ATOM     98  S   UNL A   1      33.523  29.894  27.099  1.00  0.00     0.124 S 
ATOM     99  O   UNL A   1      33.578  28.731  27.979  1.00  0.00    -0.237 OA
ATOM    100  O   UNL A   1      32.329  30.725  27.214  1.00  0.00    -0.237 OA
ATOM    101  O   UNL A   1      33.985  29.661  25.731  1.00  0.00    -0.744 OA
ENDBRANCH  94  98
ENDBRANCH  68  91
ENDBRANCH  42  43
ENDBRANCH  34  37
ENDBRANCH  32  33
ENDBRANCH  31  32
ENDBRANCH   1  31
TORSDOF 18
ENDMDL
MODEL 2
REMARK VINA RESULT:     -10.7     11.256     20.158
REMARK SMILES O=C(COCC(=O)/[NH+]=C1\S[C@@H]2CS(=O)(=O)C[C@H]2N1c1ccc(Cl)cc1)NCCCCNC(=O)c1ccc(-c2c3nc(c(-c4cc(S(=O)(=O)[O-])ccc4F)c4ccc([nH]4)c(-c4cc(S(=O)(=O)[O-])ccc4F)c4nc(c(-c5cc(S(=O)(=O)[O-])ccc5F)c5ccc2[nH]5)C=C4)C=C3)cc1
REMARK SMILES IDX 28 1 27 2 26 3 2 4 1 5 3 7 4 8 5 9 6 10 7 11 8 12 9 13 10 15
REMARK SMILES IDX 18 16 11 17 17 18 12 19 16 20 13 21 14 22 15 23 19 24 20 25
REMARK SMILES IDX 25 26 21 27 24 28 22 29 23 30 29 31 30 32 31 33 32 34 33 36
REMARK SMILES IDX 34 37 35 38 96 39 36 40 95 41 37 42 38 43 39 44 89 45 40 46
REMARK SMILES IDX 94 47 88 48 90 49 41 50 93 51 87 52 86 53 42 55 74 56 54 57
REMARK SMILES IDX 73 58 55 59 58 60 72 61 91 62 56 63 57 64 71 66 92 67 59 68
REMARK SMILES IDX 43 69 44 70 52 71 45 72 51 73 53 74 50 75 46 76 47 77 48 78
REMARK SMILES IDX 49 79 75 80 76 81 84 82 77 83 83 84 85 85 82 86 78 87 79 88
REMARK SMILES IDX 80 89 81 90 60 91 61 92 69 93 62 94 68 95 70 96 67 97 63 98
REMARK SMILES IDX 64 99 65 100 66 101
REMARK H PARENT 26 6 8 14 31 35 90 54 58 65
REMARK Flexibility Score: inf
ROOT
ATOM      1  C   UNL A   1      43.975  40.383  31.057  1.00  0.00     0.023 C 
ENDROOT
BRANCH   1   2
ATOM      2  C   UNL A   1      44.782  41.562  31.599  1.00  0.00     0.116 C 
BRANCH   2   3
ATOM      3  N   UNL A   1      44.054  42.817  31.537  1.00  0.00    -0.354 N 
ATOM      4  C   UNL A   1      44.127  43.796  30.587  1.00  0.00     0.246 C 
ATOM      5  O   UNL A   1      43.388  44.776  30.671  1.00  0.00    -0.272 OA
ATOM      6  H   UNL A   1      43.426  42.984  32.277  1.00  0.00     0.163 HD
BRANCH   4   7
ATOM      7  C   UNL A   1      45.133  43.652  29.442  1.00  0.00     0.260 C 
BRANCH   7   8
ATOM      8  O   UNL A   1      45.721  44.883  29.048  1.00  0.00    -0.359 OA
BRANCH   8   9
ATOM      9  C   UNL A   1      45.615  45.116  27.648  1.00  0.00     0.288 C 
BRANCH   9  10
ATOM     10  C   UNL A   1      46.837  44.754  26.780  1.00  0.00     0.333 C 
ATOM     11  O   UNL A   1      47.880  44.389  27.322  1.00  0.00    -0.244 OA
ATOM     12  N   UNL A   1      46.761  44.886  25.415  1.00  0.00    -0.202 N 
ATOM     13  C   UNL A   1      45.897  44.244  24.702  1.00  0.00     0.319 C 
ATOM     14  H   UNL A   1      47.389  45.494  24.963  1.00  0.00     0.316 HD
ATOM     15  S   UNL A   1      44.577  43.211  25.349  1.00  0.00    -0.029 SA
ATOM     16  N   UNL A   1      45.803  44.261  23.300  1.00  0.00    -0.217 N 
ATOM     17  C   UNL A   1      43.618  43.568  23.865  1.00  0.00     0.120 C 
ATOM     18  C   UNL A   1      44.712  43.401  22.803  1.00  0.00     0.212 C 
ATOM     19  C   UNL A   1      42.446  42.705  23.478  1.00  0.00     0.156 C 
ATOM     20  C   UNL A   1      44.005  43.706  21.505  1.00  0.00     0.188 C 
ATOM     21  S   UNL A   1      42.463  42.805  21.686  1.00  0.00     0.155 S 
ATOM     22  O   UNL A   1      41.387  43.666  21.244  1.00  0.00    -0.229 OA
ATOM     23  O   UNL A   1      42.656  41.471  21.161  1.00  0.00    -0.229 OA
BRANCH  16  24
ATOM     24  C   UNL A   1      46.890  44.542  22.453  1.00  0.00     0.128 A 
ATOM     25  C   UNL A   1      48.054  43.759  22.474  1.00  0.00     0.053 A 
ATOM     26  C   UNL A   1      46.851  45.609  21.537  1.00  0.00     0.053 A 
ATOM     27  C   UNL A   1      49.150  44.050  21.652  1.00  0.00     0.025 A 
ATOM     28  C   UNL A   1      47.940  45.902  20.706  1.00  0.00     0.025 A 
ATOM     29  C   UNL A   1      49.091  45.125  20.774  1.00  0.00     0.041 A 
ATOM     30  Cl  UNL A   1      50.437  45.485  19.767  1.00  0.00    -0.084 Cl
ENDBRANCH  16  24
ENDBRANCH   9  10
ENDBRANCH   8   9
ENDBRANCH   7   8
ENDBRANCH   4   7
ENDBRANCH   2   3
ENDBRANCH   1   2
BRANCH   1  31
ATOM     31  C   UNL A   1      44.339  39.946  29.634  1.00  0.00     0.023 C 
BRANCH  31  32
ATOM     32  C   UNL A   1      44.641  38.462  29.457  1.00  0.00     0.116 C 
BRANCH  32  33
ATOM     33  N   UNL A   1      46.065  38.166  29.450  1.00  0.00    -0.352 N 
ATOM     34  C   UNL A   1      46.696  36.943  29.441  1.00  0.00     0.251 C 
ATOM     35  H   UNL A   1      46.661  38.950  29.453  1.00  0.00     0.163 HD
ATOM     36  O   UNL A   1      47.915  36.888  29.577  1.00  0.00    -0.269 OA
BRANCH  34  37
ATOM     37  C   UNL A   1      45.897  35.703  29.310  1.00  0.00     0.039 A 
ATOM     38  C   UNL A   1      45.079  35.542  28.190  1.00  0.00     0.014 A 
ATOM     39  C   UNL A   1      45.981  34.689  30.269  1.00  0.00     0.014 A 
ATOM     40  C   UNL A   1      44.415  34.330  27.986  1.00  0.00     0.010 A 
ATOM     41  C   UNL A   1      45.382  33.455  30.025  1.00  0.00     0.010 A 
ATOM     42  C   UNL A   1      44.601  33.257  28.875  1.00  0.00    -0.014 A 
BRANCH  42  43
ATOM     43  C   UNL A   1      44.010  31.918  28.604  1.00  0.00     0.031 A 
ATOM     44  C   UNL A   1      42.697  31.527  29.222  1.00  0.00     0.074 A 
ATOM     45  C   UNL A   1      44.694  31.027  27.857  1.00  0.00     0.049 A 
ATOM     46  N   UNL A   1      42.067  30.380  29.173  1.00  0.00    -0.248 NA
ATOM     47  C   UNL A   1      42.016  32.553  30.024  1.00  0.00     0.031 C 
ATOM     48  C   UNL A   1      45.999  31.272  27.238  1.00  0.00     0.029 A 
ATOM     49  N   UNL A   1      44.399  29.733  27.502  1.00  0.00    -0.354 N 
ATOM     50  C   UNL A   1      40.920  30.544  29.943  1.00  0.00     0.074 A 
ATOM     51  C   UNL A   1      40.982  31.879  30.501  1.00  0.00     0.031 C 
ATOM     52  C   UNL A   1      46.381  30.174  26.567  1.00  0.00     0.029 A 
ATOM     53  C   UNL A   1      45.382  29.128  26.752  1.00  0.00     0.049 A 
ATOM     54  H   UNL A   1      43.564  29.282  27.761  1.00  0.00     0.167 HD
ATOM     55  C   UNL A   1      39.901  29.671  30.146  1.00  0.00     0.034 A 
ATOM     56  C   UNL A   1      45.483  27.866  26.287  1.00  0.00     0.034 A 
ATOM     57  C   UNL A   1      39.861  28.341  29.585  1.00  0.00     0.049 A 
ATOM     58  C   UNL A   1      44.364  26.894  26.566  1.00  0.00     0.074 A 
ATOM     59  C   UNL A   1      38.855  27.395  29.684  1.00  0.00     0.029 A 
ATOM     60  N   UNL A   1      40.878  27.759  28.838  1.00  0.00    -0.354 N 
ATOM     61  N   UNL A   1      43.256  27.084  27.247  1.00  0.00    -0.248 NA
ATOM     62  C   UNL A   1      44.503  25.543  26.010  1.00  0.00     0.031 C 
ATOM     63  C   UNL A   1      39.299  26.217  29.073  1.00  0.00     0.029 A 
ATOM     64  C   UNL A   1      40.542  26.453  28.508  1.00  0.00     0.049 A 
ATOM     65  H   UNL A   1      41.715  28.207  28.580  1.00  0.00     0.167 HD
ATOM     66  C   UNL A   1      42.557  25.882  27.176  1.00  0.00     0.074 A 
ATOM     67  C   UNL A   1      43.359  24.982  26.373  1.00  0.00     0.031 C 
ATOM     68  C   UNL A   1      41.357  25.556  27.722  1.00  0.00     0.034 A 
BRANCH  55  69
ATOM     69  C   UNL A   1      38.767  30.123  31.039  1.00  0.00     0.023 A 
ATOM     70  C   UNL A   1      37.627  30.761  30.520  1.00  0.00     0.031 A 
ATOM     71  C   UNL A   1      38.842  29.950  32.433  1.00  0.00     0.131 A 
ATOM     72  C   UNL A   1      36.657  31.283  31.388  1.00  0.00     0.055 A 
ATOM     73  C   UNL A   1      37.826  30.387  33.285  1.00  0.00     0.041 A 
ATOM     74  F   UNL A   1      39.913  29.368  32.994  1.00  0.00    -0.206 F 
ATOM     75  C   UNL A   1      36.733  31.076  32.767  1.00  0.00     0.022 A 
BRANCH  72  76
ATOM     76  S   UNL A   1      35.391  32.387  30.704  1.00  0.00     0.124 S 
ATOM     77  O   UNL A   1      35.110  31.752  29.418  1.00  0.00    -0.237 OA
ATOM     78  O   UNL A   1      34.330  32.306  31.702  1.00  0.00    -0.237 OA
ATOM     79  O   UNL A   1      36.071  33.677  30.618  1.00  0.00    -0.744 OA
ENDBRANCH  72  76
ENDBRANCH  55  69
BRANCH  56  80
ATOM     80  C   UNL A   1      46.702  27.437  25.540  1.00  0.00     0.023 A 
ATOM     81  C   UNL A   1      46.920  27.830  24.210  1.00  0.00     0.031 A 
ATOM     82  C   UNL A   1      47.656  26.596  26.142  1.00  0.00     0.131 A 
ATOM     83  C   UNL A   1      48.041  27.349  23.513  1.00  0.00     0.055 A 
ATOM     84  C   UNL A   1      48.799  26.169  25.465  1.00  0.00     0.041 A 
ATOM     85  F   UNL A   1      47.497  26.189  27.412  1.00  0.00    -0.206 F 
ATOM     86  C   UNL A   1      48.990  26.537  24.137  1.00  0.00     0.022 A 
BRANCH  83  87
ATOM     87  S   UNL A   1      48.199  27.735  21.748  1.00  0.00     0.124 S 
ATOM     88  O   UNL A   1      49.316  28.674  21.748  1.00  0.00    -0.237 OA
ATOM     89  O   UNL A   1      48.466  26.420  21.173  1.00  0.00    -0.237 OA
ATOM     90  O   UNL A   1      46.899  28.309  21.407  1.00  0.00    -0.744 OA
ENDBRANCH  83  87
ENDBRANCH  56  80
BRANCH  68  91
ATOM     91  C   UNL A   1      40.821  24.173  27.433  1.00  0.00     0.023 A 
ATOM     92  C   UNL A   1      39.725  23.964  26.577  1.00  0.00     0.031 A 
ATOM     93  C   UNL A   1      41.420  23.045  28.024  1.00  0.00     0.131 A 
ATOM     94  C   UNL A   1      39.230  22.666  26.379  1.00  0.00     0.055 A 
ATOM     95  C   UNL A   1      40.964  21.751  27.770  1.00  0.00     0.041 A 
ATOM     96  F   UNL A   1      42.465  23.183  28.855  1.00  0.00    -0.206 F 
ATOM     97  C   UNL A   1      39.855  21.556  26.953  1.00  0.00     0.022 A 
BRANCH  94  98
ATOM     98  S   UNL A   1      37.694  22.452  25.437  1.00  0.00     0.124 S 
ATOM     99  O   UNL A   1      36.699  22.355  26.499  1.00  0.00    -0.237 OA
ATOM    100  O   UNL A   1      37.650  23.667  24.630  1.00  0.00    -0.237 OA
ATOM    101  O   UNL A   1      37.922  21.219  24.685  1.00  0.00    -0.744 OA
ENDBRANCH  94  98
ENDBRANCH  68  91
ENDBRANCH  42  43
ENDBRANCH  34  37
ENDBRANCH  32  33
ENDBRANCH  31  32
ENDBRANCH   1  31
TORSDOF 18
ENDMDL
MODEL 3
REMARK VINA RESULT:     -10.6      6.390     12.322
REMARK SMILES O=C(COCC(=O)/[NH+]=C1\S[C@@H]2CS(=O)(=O)C[C@H]2N1c1ccc(Cl)cc1)NCCCCNC(=O)c1ccc(-c2c3nc(c(-c4cc(S(=O)(=O)[O-])ccc4F)c4ccc([nH]4)c(-c4cc(S(=O)(=O)[O-])ccc4F)c4nc(c(-c5cc(S(=O)(=O)[O-])ccc5F)c5ccc2[nH]5)C=C4)C=C3)cc1
REMARK SMILES IDX 28 1 27 2 26 3 2 4 1 5 3 7 4 8 5 9 6 10 7 11 8 12 9 13 10 15
REMARK SMILES IDX 18 16 11 17 17 18 12 19 16 20 13 21 14 22 15 23 19 24 20 25
REMARK SMILES IDX 25 26 21 27 24 28 22 29 23 30 29 31 30 32 31 33 32 34 33 36
REMARK SMILES IDX 34 37 35 38 96 39 36 40 95 41 37 42 38 43 39 44 89 45 40 46
REMARK SMILES IDX 94 47 88 48 90 49 41 50 93 51 87 52 86 53 42 55 74 56 54 57
REMARK SMILES IDX 73 58 55 59 58 60 72 61 91 62 56 63 57 64 71 66 92 67 59 68
REMARK SMILES IDX 43 69 44 70 52 71 45 72 51 73 53 74 50 75 46 76 47 77 48 78
REMARK SMILES IDX 49 79 75 80 76 81 84 82 77 83 83 84 85 85 82 86 78 87 79 88
REMARK SMILES IDX 80 89 81 90 60 91 61 92 69 93 62 94 68 95 70 96 67 97 63 98
REMARK SMILES IDX 64 99 65 100 66 101
REMARK H PARENT 26 6 8 14 31 35 90 54 58 65
REMARK Flexibility Score: inf
ROOT
ATOM      1  C   UNL A   1      39.354  34.143  33.992  1.00  0.00     0.023 C 
ENDROOT
BRANCH   1   2
ATOM      2  C   UNL A   1      40.031  33.089  34.868  1.00  0.00     0.116 C 
BRANCH   2   3
ATOM      3  N   UNL A   1      39.080  32.231  35.550  1.00  0.00    -0.354 N 
ATOM      4  C   UNL A   1      39.256  30.950  35.992  1.00  0.00     0.246 C 
ATOM      5  O   UNL A   1      38.346  30.391  36.605  1.00  0.00    -0.272 OA
ATOM      6  H   UNL A   1      38.192  32.623  35.717  1.00  0.00     0.163 HD
BRANCH   4   7
ATOM      7  C   UNL A   1      40.580  30.237  35.709  1.00  0.00     0.260 C 
BRANCH   7   8
ATOM      8  O   UNL A   1      40.519  28.832  35.903  1.00  0.00    -0.359 OA
BRANCH   8   9
ATOM      9  C   UNL A   1      41.776  28.276  36.274  1.00  0.00     0.288 C 
BRANCH   9  10
ATOM     10  C   UNL A   1      41.842  26.746  36.451  1.00  0.00     0.333 C 
ATOM     11  O   UNL A   1      40.906  26.155  36.991  1.00  0.00    -0.244 OA
ATOM     12  N   UNL A   1      42.965  26.065  36.046  1.00  0.00    -0.202 N 
ATOM     13  C   UNL A   1      43.379  26.075  34.823  1.00  0.00     0.319 C 
ATOM     14  H   UNL A   1      43.473  25.550  36.713  1.00  0.00     0.316 HD
ATOM     15  S   UNL A   1      42.683  27.067  33.497  1.00  0.00    -0.029 SA
ATOM     16  N   UNL A   1      44.467  25.347  34.311  1.00  0.00    -0.217 N 
ATOM     17  C   UNL A   1      44.294  27.052  32.688  1.00  0.00     0.120 C 
ATOM     18  C   UNL A   1      44.660  25.574  32.867  1.00  0.00     0.212 C 
ATOM     19  C   UNL A   1      44.428  27.401  31.229  1.00  0.00     0.156 C 
ATOM     20  C   UNL A   1      46.024  25.460  32.232  1.00  0.00     0.188 C 
ATOM     21  S   UNL A   1      45.822  26.395  30.714  1.00  0.00     0.155 S 
ATOM     22  O   UNL A   1      46.986  27.240  30.549  1.00  0.00    -0.229 OA
ATOM     23  O   UNL A   1      45.369  25.488  29.683  1.00  0.00    -0.229 OA
BRANCH  16  24
ATOM     24  C   UNL A   1      44.939  24.152  34.884  1.00  0.00     0.128 A 
ATOM     25  C   UNL A   1      45.183  23.013  34.100  1.00  0.00     0.053 A 
ATOM     26  C   UNL A   1      45.204  24.052  36.261  1.00  0.00     0.053 A 
ATOM     27  C   UNL A   1      45.628  21.812  34.669  1.00  0.00     0.025 A 
ATOM     28  C   UNL A   1      45.657  22.857  36.836  1.00  0.00     0.025 A 
ATOM     29  C   UNL A   1      45.858  21.738  36.037  1.00  0.00     0.041 A 
ATOM     30  Cl  UNL A   1      46.401  20.264  36.735  1.00  0.00    -0.084 Cl
ENDBRANCH  16  24
ENDBRANCH   9  10
ENDBRANCH   8   9
ENDBRANCH   7   8
ENDBRANCH   4   7
ENDBRANCH   2   3
ENDBRANCH   1   2
BRANCH   1  31
ATOM     31  C   UNL A   1      37.845  34.296  34.208  1.00  0.00     0.023 C 
BRANCH  31  32
ATOM     32  C   UNL A   1      37.022  34.557  32.950  1.00  0.00     0.116 C 
BRANCH  32  33
ATOM     33  N   UNL A   1      35.772  33.817  32.922  1.00  0.00    -0.352 N 
ATOM     34  C   UNL A   1      35.493  32.608  32.325  1.00  0.00     0.251 C 
ATOM     35  H   UNL A   1      35.019  34.238  33.397  1.00  0.00     0.163 HD
ATOM     36  O   UNL A   1      34.336  32.201  32.290  1.00  0.00    -0.269 OA
BRANCH  34  37
ATOM     37  C   UNL A   1      36.583  31.831  31.692  1.00  0.00     0.039 A 
ATOM     38  C   UNL A   1      36.775  31.938  30.312  1.00  0.00     0.014 A 
ATOM     39  C   UNL A   1      37.434  31.029  32.458  1.00  0.00     0.014 A 
ATOM     40  C   UNL A   1      37.873  31.312  29.716  1.00  0.00     0.010 A 
ATOM     41  C   UNL A   1      38.570  30.471  31.875  1.00  0.00     0.010 A 
ATOM     42  C   UNL A   1      38.809  30.615  30.500  1.00  0.00    -0.014 A 
BRANCH  42  43
ATOM     43  C   UNL A   1      40.053  30.057  29.902  1.00  0.00     0.031 A 
ATOM     44  C   UNL A   1      41.281  30.913  29.767  1.00  0.00     0.074 A 
ATOM     45  C   UNL A   1      40.052  28.799  29.416  1.00  0.00     0.049 A 
ATOM     46  N   UNL A   1      42.427  30.634  29.199  1.00  0.00    -0.248 NA
ATOM     47  C   UNL A   1      41.199  32.273  30.319  1.00  0.00     0.031 C 
ATOM     48  C   UNL A   1      38.909  27.883  29.449  1.00  0.00     0.029 A 
ATOM     49  N   UNL A   1      41.036  28.076  28.786  1.00  0.00    -0.354 N 
ATOM     50  C   UNL A   1      43.200  31.784  29.318  1.00  0.00     0.074 A 
ATOM     51  C   UNL A   1      42.364  32.783  29.951  1.00  0.00     0.031 C 
ATOM     52  C   UNL A   1      39.263  26.718  28.884  1.00  0.00     0.029 A 
ATOM     53  C   UNL A   1      40.634  26.819  28.396  1.00  0.00     0.049 A 
ATOM     54  H   UNL A   1      41.943  28.425  28.629  1.00  0.00     0.167 HD
ATOM     55  C   UNL A   1      44.493  31.981  28.954  1.00  0.00     0.034 A 
ATOM     56  C   UNL A   1      41.283  25.862  27.701  1.00  0.00     0.034 A 
ATOM     57  C   UNL A   1      45.308  30.974  28.318  1.00  0.00     0.049 A 
ATOM     58  C   UNL A   1      42.702  26.118  27.261  1.00  0.00     0.074 A 
ATOM     59  C   UNL A   1      46.643  31.049  27.956  1.00  0.00     0.029 A 
ATOM     60  N   UNL A   1      44.865  29.715  27.930  1.00  0.00    -0.354 N 
ATOM     61  N   UNL A   1      43.440  27.191  27.435  1.00  0.00    -0.248 NA
ATOM     62  C   UNL A   1      43.379  25.034  26.538  1.00  0.00     0.031 C 
ATOM     63  C   UNL A   1      46.979  29.875  27.274  1.00  0.00     0.029 A 
ATOM     64  C   UNL A   1      45.886  29.024  27.293  1.00  0.00     0.049 A 
ATOM     65  H   UNL A   1      43.958  29.365  28.084  1.00  0.00     0.167 HD
ATOM     66  C   UNL A   1      44.677  26.899  26.865  1.00  0.00     0.074 A 
ATOM     67  C   UNL A   1      44.589  25.544  26.359  1.00  0.00     0.031 C 
ATOM     68  C   UNL A   1      45.785  27.678  26.774  1.00  0.00     0.034 A 
BRANCH  55  69
ATOM     69  C   UNL A   1      45.085  33.349  29.209  1.00  0.00     0.023 A 
ATOM     70  C   UNL A   1      44.721  34.468  28.439  1.00  0.00     0.031 A 
ATOM     71  C   UNL A   1      46.056  33.533  30.211  1.00  0.00     0.131 A 
ATOM     72  C   UNL A   1      45.384  35.690  28.618  1.00  0.00     0.055 A 
ATOM     73  C   UNL A   1      46.645  34.776  30.448  1.00  0.00     0.041 A 
ATOM     74  F   UNL A   1      46.464  32.500  30.966  1.00  0.00    -0.206 F 
ATOM     75  C   UNL A   1      46.324  35.861  29.636  1.00  0.00     0.022 A 
BRANCH  72  76
ATOM     76  S   UNL A   1      45.130  36.998  27.387  1.00  0.00     0.124 S 
ATOM     77  O   UNL A   1      44.428  38.010  28.174  1.00  0.00    -0.237 OA
ATOM     78  O   UNL A   1      46.495  37.329  26.993  1.00  0.00    -0.237 OA
ATOM     79  O   UNL A   1      44.322  36.348  26.359  1.00  0.00    -0.744 OA
ENDBRANCH  72  76
ENDBRANCH  55  69
BRANCH  56  80
ATOM     80  C   UNL A   1      40.589  24.589  27.348  1.00  0.00     0.023 A 
ATOM     81  C   UNL A   1      39.406  24.587  26.592  1.00  0.00     0.031 A 
ATOM     82  C   UNL A   1      41.088  23.351  27.793  1.00  0.00     0.131 A 
ATOM     83  C   UNL A   1      38.740  23.376  26.338  1.00  0.00     0.055 A 
ATOM     84  C   UNL A   1      40.455  22.145  27.487  1.00  0.00     0.041 A 
ATOM     85  F   UNL A   1      42.215  23.295  28.519  1.00  0.00    -0.206 F 
ATOM     86  C   UNL A   1      39.266  22.155  26.766  1.00  0.00     0.022 A 
BRANCH  83  87
ATOM     87  S   UNL A   1      37.127  23.428  25.511  1.00  0.00     0.124 S 
ATOM     88  O   UNL A   1      36.543  22.155  25.921  1.00  0.00    -0.237 OA
ATOM     89  O   UNL A   1      36.527  24.626  26.089  1.00  0.00    -0.237 OA
ATOM     90  O   UNL A   1      37.474  23.528  24.095  1.00  0.00    -0.744 OA
ENDBRANCH  83  87
ENDBRANCH  56  80
BRANCH  68  91
ATOM     91  C   UNL A   1      47.009  27.066  26.134  1.00  0.00     0.023 A 
ATOM     92  C   UNL A   1      48.002  26.423  26.894  1.00  0.00     0.031 A 
ATOM     93  C   UNL A   1      47.182  27.127  24.739  1.00  0.00     0.131 A 
ATOM     94  C   UNL A   1      49.147  25.913  26.261  1.00  0.00     0.055 A 
ATOM     95  C   UNL A   1      48.291  26.560  24.109  1.00  0.00     0.041 A 
ATOM     96  F   UNL A   1      46.271  27.735  23.963  1.00  0.00    -0.206 F 
ATOM     97  C   UNL A   1      49.287  25.960  24.872  1.00  0.00     0.022 A 
BRANCH  94  98
ATOM     98  S   UNL A   1      50.500  25.275  27.287  1.00  0.00     0.124 S 
ATOM     99  O   UNL A   1      50.841  26.440  28.097  1.00  0.00    -0.237 OA
ATOM    100  O   UNL A   1      49.861  24.170  27.995  1.00  0.00    -0.237 OA
ATOM    101  O   UNL A   1      51.514  24.880  26.310  1.00  0.00    -0.744 OA
ENDBRANCH  94  98
ENDBRANCH  68  91
ENDBRANCH  42  43
ENDBRANCH  34  37
ENDBRANCH  32  33
ENDBRANCH  31  32
ENDBRANCH   1  31
TORSDOF 18
ENDMDL
