MODEL 1
REMARK VINA RESULT:     -11.2      0.000      0.000
REMARK SMILES C[C@H]([NH2+][C@@H](C)[C@]12C[C@H]3C[C@H](C[C@H](C3)C1)C2)[C@@H](C)C(=O)NCCCCNC(=O)c1ccc(-c2c3nc(c(-c4cc(S(=O)(=O)[O-])ccc4F)c4ccc([nH]4)c(-c4cc(S(=O)(=O)[O-])ccc4F)c4nc(c(-c5cc(S(=O)(=O)[O-])ccc5F)c5ccc2[nH]5)C=C4)C=C3)cc1
REMARK SMILES IDX 22 1 21 2 20 3 18 4 19 5 16 7 17 8 2 9 1 10 3 11 4 14 5 15
REMARK SMILES IDX 6 16 7 17 14 18 15 19 8 20 12 21 10 22 9 23 13 24 11 25
REMARK SMILES IDX 23 26 24 27 25 28 26 29 27 31 28 32 29 33 90 34 30 35 89 36
REMARK SMILES IDX 31 37 32 38 33 39 83 40 34 41 88 42 82 43 84 44 35 45 87 46
REMARK SMILES IDX 81 47 80 48 36 50 68 51 48 52 67 53 49 54 52 55 66 56 85 57
REMARK SMILES IDX 50 58 51 59 65 61 86 62 53 63 37 64 38 65 46 66 39 67 45 68
REMARK SMILES IDX 47 69 44 70 40 71 41 72 42 73 43 74 69 75 70 76 78 77 71 78
REMARK SMILES IDX 77 79 79 80 76 81 72 82 73 83 74 84 75 85 54 86 55 87 63 88
REMARK SMILES IDX 56 89 62 90 64 91 61 92 57 93 58 94 59 95 60 96
REMARK H PARENT 20 6 3 12 3 13 25 30 84 49 52 60
REMARK Flexibility Score: inf
ROOT
ATOM      1  C   UNL A   1      31.502  28.654  26.200  1.00  0.00     0.023 C 
ENDROOT
BRANCH   1   2
ATOM      2  C   UNL A   1      31.652  29.483  24.918  1.00  0.00     0.116 C 
BRANCH   2   3
ATOM      3  N   UNL A   1      31.024  28.901  23.746  1.00  0.00    -0.356 N 
ATOM      4  C   UNL A   1      31.463  27.946  22.883  1.00  0.00     0.228 C 
ATOM      5  O   UNL A   1      30.695  27.582  21.987  1.00  0.00    -0.275 OA
ATOM      6  H   UNL A   1      30.129  29.256  23.542  1.00  0.00     0.163 HD
BRANCH   4   7
ATOM      7  C   UNL A   1      32.866  27.348  22.973  1.00  0.00     0.133 C 
ATOM      8  C   UNL A   1      33.904  28.323  22.421  1.00  0.00     0.024 C 
BRANCH   7   9
ATOM      9  C   UNL A   1      32.973  25.890  22.436  1.00  0.00     0.191 C 
ATOM     10  C   UNL A   1      32.722  25.899  20.919  1.00  0.00     0.076 C 
BRANCH   9  11
ATOM     11  N   UNL A   1      32.098  25.004  23.251  1.00  0.00    -0.341 N 
ATOM     12  H   UNL A   1      32.165  24.066  22.855  1.00  0.00     0.346 HD
ATOM     13  H   UNL A   1      31.178  25.444  23.202  1.00  0.00     0.346 HD
BRANCH  11  14
ATOM     14  C   UNL A   1      32.371  24.890  24.693  1.00  0.00     0.185 C 
ATOM     15  C   UNL A   1      30.990  24.911  25.377  1.00  0.00     0.076 C 
BRANCH  14  16
ATOM     16  C   UNL A   1      33.232  23.619  25.104  1.00  0.00     0.023 C 
ATOM     17  C   UNL A   1      32.285  22.431  25.443  1.00  0.00     0.016 C 
ATOM     18  C   UNL A   1      34.068  23.878  26.383  1.00  0.00     0.016 C 
ATOM     19  C   UNL A   1      34.211  23.135  24.000  1.00  0.00     0.016 C 
ATOM     20  C   UNL A   1      33.086  21.209  25.945  1.00  0.00    -0.010 C 
ATOM     21  C   UNL A   1      34.898  22.690  26.843  1.00  0.00    -0.010 C 
ATOM     22  C   UNL A   1      35.017  21.906  24.475  1.00  0.00    -0.010 C 
ATOM     23  C   UNL A   1      34.054  20.760  24.840  1.00  0.00     0.007 C 
ATOM     24  C   UNL A   1      33.910  21.572  27.192  1.00  0.00     0.007 C 
ATOM     25  C   UNL A   1      35.839  22.282  25.714  1.00  0.00     0.007 C 
ENDBRANCH  14  16
ENDBRANCH  11  14
ENDBRANCH   9  11
ENDBRANCH   7   9
ENDBRANCH   4   7
ENDBRANCH   2   3
ENDBRANCH   1   2
BRANCH   1  26
ATOM     26  C   UNL A   1      32.802  28.452  26.976  1.00  0.00     0.023 C 
BRANCH  26  27
ATOM     27  C   UNL A   1      33.907  29.395  26.525  1.00  0.00     0.116 C 
BRANCH  27  28
ATOM     28  N   UNL A   1      33.744  30.719  27.111  1.00  0.00    -0.352 N 
ATOM     29  C   UNL A   1      34.459  31.320  28.109  1.00  0.00     0.251 C 
ATOM     30  H   UNL A   1      33.013  31.260  26.733  1.00  0.00     0.163 HD
ATOM     31  O   UNL A   1      34.029  32.332  28.645  1.00  0.00    -0.269 OA
BRANCH  29  32
ATOM     32  C   UNL A   1      35.737  30.719  28.519  1.00  0.00     0.039 A 
ATOM     33  C   UNL A   1      36.910  31.149  27.902  1.00  0.00     0.014 A 
ATOM     34  C   UNL A   1      35.764  29.743  29.520  1.00  0.00     0.014 A 
ATOM     35  C   UNL A   1      38.124  30.614  28.321  1.00  0.00     0.010 A 
ATOM     36  C   UNL A   1      36.980  29.290  30.004  1.00  0.00     0.010 A 
ATOM     37  C   UNL A   1      38.169  29.704  29.391  1.00  0.00    -0.014 A 
BRANCH  37  38
ATOM     38  C   UNL A   1      39.461  29.156  29.858  1.00  0.00     0.031 A 
ATOM     39  C   UNL A   1      40.139  29.758  31.056  1.00  0.00     0.074 A 
ATOM     40  C   UNL A   1      40.020  28.134  29.182  1.00  0.00     0.049 A 
ATOM     41  N   UNL A   1      41.265  29.412  31.625  1.00  0.00    -0.248 NA
ATOM     42  C   UNL A   1      39.484  30.920  31.678  1.00  0.00     0.031 C 
ATOM     43  C   UNL A   1      39.465  27.518  27.974  1.00  0.00     0.029 A 
ATOM     44  N   UNL A   1      41.167  27.426  29.419  1.00  0.00    -0.354 N 
ATOM     45  C   UNL A   1      41.453  30.314  32.667  1.00  0.00     0.074 A 
ATOM     46  C   UNL A   1      40.369  31.269  32.598  1.00  0.00     0.031 C 
ATOM     47  C   UNL A   1      40.247  26.491  27.607  1.00  0.00     0.029 A 
ATOM     48  C   UNL A   1      41.380  26.408  28.520  1.00  0.00     0.049 A 
ATOM     49  H   UNL A   1      41.781  27.628  30.161  1.00  0.00     0.167 HD
ATOM     50  C   UNL A   1      42.423  30.322  33.613  1.00  0.00     0.034 A 
ATOM     51  C   UNL A   1      42.379  25.508  28.448  1.00  0.00     0.034 A 
ATOM     52  C   UNL A   1      43.489  29.352  33.660  1.00  0.00     0.049 A 
ATOM     53  C   UNL A   1      43.457  25.549  29.500  1.00  0.00     0.074 A 
ATOM     54  C   UNL A   1      44.504  29.232  34.592  1.00  0.00     0.029 A 
ATOM     55  N   UNL A   1      43.684  28.340  32.726  1.00  0.00    -0.354 N 
ATOM     56  N   UNL A   1      43.590  26.370  30.518  1.00  0.00    -0.248 NA
ATOM     57  C   UNL A   1      44.507  24.531  29.404  1.00  0.00     0.031 C 
ATOM     58  C   UNL A   1      45.354  28.198  34.182  1.00  0.00     0.029 A 
ATOM     59  C   UNL A   1      44.821  27.612  33.044  1.00  0.00     0.049 A 
ATOM     60  H   UNL A   1      43.101  28.166  31.954  1.00  0.00     0.167 HD
ATOM     61  C   UNL A   1      44.725  25.944  31.202  1.00  0.00     0.074 A 
ATOM     62  C   UNL A   1      45.219  24.780  30.493  1.00  0.00     0.031 C 
ATOM     63  C   UNL A   1      45.308  26.464  32.313  1.00  0.00     0.034 A 
BRANCH  50  64
ATOM     64  C   UNL A   1      42.378  31.423  34.646  1.00  0.00     0.023 A 
ATOM     65  C   UNL A   1      41.403  31.448  35.660  1.00  0.00     0.031 A 
ATOM     66  C   UNL A   1      43.301  32.482  34.600  1.00  0.00     0.131 A 
ATOM     67  C   UNL A   1      41.324  32.544  36.533  1.00  0.00     0.055 A 
ATOM     68  C   UNL A   1      43.274  33.525  35.529  1.00  0.00     0.041 A 
ATOM     69  F   UNL A   1      44.239  32.530  33.640  1.00  0.00    -0.206 F 
ATOM     70  C   UNL A   1      42.272  33.569  36.493  1.00  0.00     0.022 A 
BRANCH  67  71
ATOM     71  S   UNL A   1      39.878  32.685  37.619  1.00  0.00     0.124 S 
ATOM     72  O   UNL A   1      40.477  32.486  38.936  1.00  0.00    -0.237 OA
ATOM     73  O   UNL A   1      39.398  34.031  37.331  1.00  0.00    -0.237 OA
ATOM     74  O   UNL A   1      39.006  31.601  37.171  1.00  0.00    -0.744 OA
ENDBRANCH  67  71
ENDBRANCH  50  64
BRANCH  51  75
ATOM     75  C   UNL A   1      42.408  24.496  27.353  1.00  0.00     0.023 A 
ATOM     76  C   UNL A   1      41.583  23.360  27.394  1.00  0.00     0.031 A 
ATOM     77  C   UNL A   1      43.293  24.628  26.268  1.00  0.00     0.131 A 
ATOM     78  C   UNL A   1      41.699  22.376  26.401  1.00  0.00     0.055 A 
ATOM     79  C   UNL A   1      43.361  23.675  25.250  1.00  0.00     0.041 A 
ATOM     80  F   UNL A   1      44.100  25.697  26.175  1.00  0.00    -0.206 F 
ATOM     81  C   UNL A   1      42.571  22.532  25.321  1.00  0.00     0.022 A 
BRANCH  78  82
ATOM     82  S   UNL A   1      40.762  20.834  26.594  1.00  0.00     0.124 S 
ATOM     83  O   UNL A   1      41.525  19.917  25.756  1.00  0.00    -0.237 OA
ATOM     84  O   UNL A   1      40.846  20.608  28.033  1.00  0.00    -0.237 OA
ATOM     85  O   UNL A   1      39.433  21.180  26.095  1.00  0.00    -0.744 OA
ENDBRANCH  78  82
ENDBRANCH  51  75
BRANCH  63  86
ATOM     86  C   UNL A   1      46.521  25.740  32.846  1.00  0.00     0.023 A 
ATOM     87  C   UNL A   1      46.410  24.707  33.794  1.00  0.00     0.031 A 
ATOM     88  C   UNL A   1      47.811  26.112  32.426  1.00  0.00     0.131 A 
ATOM     89  C   UNL A   1      47.566  24.142  34.351  1.00  0.00     0.055 A 
ATOM     90  C   UNL A   1      48.956  25.492  32.925  1.00  0.00     0.041 A 
ATOM     91  F   UNL A   1      47.979  27.094  31.524  1.00  0.00    -0.206 F 
ATOM     92  C   UNL A   1      48.838  24.514  33.908  1.00  0.00     0.022 A 
BRANCH  89  93
ATOM     93  S   UNL A   1      47.388  23.015  35.760  1.00  0.00     0.124 S 
ATOM     94  O   UNL A   1      48.512  22.105  35.563  1.00  0.00    -0.237 OA
ATOM     95  O   UNL A   1      47.493  23.920  36.899  1.00  0.00    -0.237 OA
ATOM     96  O   UNL A   1      46.068  22.420  35.559  1.00  0.00    -0.744 OA
ENDBRANCH  89  93
ENDBRANCH  63  86
ENDBRANCH  37  38
ENDBRANCH  29  32
ENDBRANCH  27  28
ENDBRANCH  26  27
ENDBRANCH   1  26
TORSDOF 18
ENDMDL
MODEL 2
REMARK VINA RESULT:     -11.2      2.804      4.029
REMARK SMILES C[C@H]([NH2+][C@@H](C)[C@]12C[C@H]3C[C@H](C[C@H](C3)C1)C2)[C@@H](C)C(=O)NCCCCNC(=O)c1ccc(-c2c3nc(c(-c4cc(S(=O)(=O)[O-])ccc4F)c4ccc([nH]4)c(-c4cc(S(=O)(=O)[O-])ccc4F)c4nc(c(-c5cc(S(=O)(=O)[O-])ccc5F)c5ccc2[nH]5)C=C4)C=C3)cc1
REMARK SMILES IDX 22 1 21 2 20 3 18 4 19 5 16 7 17 8 2 9 1 10 3 11 4 14 5 15
REMARK SMILES IDX 6 16 7 17 14 18 15 19 8 20 12 21 10 22 9 23 13 24 11 25
REMARK SMILES IDX 23 26 24 27 25 28 26 29 27 31 28 32 29 33 90 34 30 35 89 36
REMARK SMILES IDX 31 37 32 38 33 39 83 40 34 41 88 42 82 43 84 44 35 45 87 46
REMARK SMILES IDX 81 47 80 48 36 50 68 51 48 52 67 53 49 54 52 55 66 56 85 57
REMARK SMILES IDX 50 58 51 59 65 61 86 62 53 63 37 64 38 65 46 66 39 67 45 68
REMARK SMILES IDX 47 69 44 70 40 71 41 72 42 73 43 74 69 75 70 76 78 77 71 78
REMARK SMILES IDX 77 79 79 80 76 81 72 82 73 83 74 84 75 85 54 86 55 87 63 88
REMARK SMILES IDX 56 89 62 90 64 91 61 92 57 93 58 94 59 95 60 96
REMARK H PARENT 20 6 3 12 3 13 25 30 84 49 52 60
REMARK Flexibility Score: inf
ROOT
ATOM      1  C   UNL A   1      34.949  31.545  28.089  1.00  0.00     0.023 C 
ENDROOT
BRANCH   1   2
ATOM      2  C   UNL A   1      34.836  30.207  27.345  1.00  0.00     0.116 C 
BRANCH   2   3
ATOM      3  N   UNL A   1      33.641  29.443  27.656  1.00  0.00    -0.356 N 
ATOM      4  C   UNL A   1      32.512  29.223  26.930  1.00  0.00     0.228 C 
ATOM      5  O   UNL A   1      31.656  28.473  27.411  1.00  0.00    -0.275 OA
ATOM      6  H   UNL A   1      33.650  29.011  28.540  1.00  0.00     0.163 HD
BRANCH   4   7
ATOM      7  C   UNL A   1      32.268  29.891  25.578  1.00  0.00     0.133 C 
ATOM      8  C   UNL A   1      31.198  30.974  25.698  1.00  0.00     0.024 C 
BRANCH   7   9
ATOM      9  C   UNL A   1      32.072  28.892  24.400  1.00  0.00     0.191 C 
ATOM     10  C   UNL A   1      30.584  28.862  24.014  1.00  0.00     0.076 C 
BRANCH   9  11
ATOM     11  N   UNL A   1      32.693  27.588  24.758  1.00  0.00    -0.341 N 
ATOM     12  H   UNL A   1      32.197  27.229  25.574  1.00  0.00     0.346 HD
ATOM     13  H   UNL A   1      33.680  27.808  24.897  1.00  0.00     0.346 HD
BRANCH  11  14
ATOM     14  C   UNL A   1      32.698  26.518  23.746  1.00  0.00     0.185 C 
ATOM     15  C   UNL A   1      33.407  27.119  22.515  1.00  0.00     0.076 C 
BRANCH  14  16
ATOM     16  C   UNL A   1      33.366  25.158  24.226  1.00  0.00     0.023 C 
ATOM     17  C   UNL A   1      34.413  25.451  25.341  1.00  0.00     0.016 C 
ATOM     18  C   UNL A   1      34.145  24.463  23.080  1.00  0.00     0.016 C 
ATOM     19  C   UNL A   1      32.357  24.124  24.794  1.00  0.00     0.016 C 
ATOM     20  C   UNL A   1      35.154  24.162  25.758  1.00  0.00    -0.010 C 
ATOM     21  C   UNL A   1      34.828  23.165  23.481  1.00  0.00    -0.010 C 
ATOM     22  C   UNL A   1      33.076  22.829  25.229  1.00  0.00    -0.010 C 
ATOM     23  C   UNL A   1      34.132  23.154  26.303  1.00  0.00     0.007 C 
ATOM     24  C   UNL A   1      35.864  23.526  24.551  1.00  0.00     0.007 C 
ATOM     25  C   UNL A   1      33.774  22.200  24.017  1.00  0.00     0.007 C 
ENDBRANCH  14  16
ENDBRANCH  11  14
ENDBRANCH   9  11
ENDBRANCH   7   9
ENDBRANCH   4   7
ENDBRANCH   2   3
ENDBRANCH   1   2
BRANCH   1  26
ATOM     26  C   UNL A   1      33.701  32.421  28.003  1.00  0.00     0.023 C 
BRANCH  26  27
ATOM     27  C   UNL A   1      34.029  33.903  27.905  1.00  0.00     0.116 C 
BRANCH  27  28
ATOM     28  N   UNL A   1      33.383  34.660  28.969  1.00  0.00    -0.352 N 
ATOM     29  C   UNL A   1      33.615  34.634  30.316  1.00  0.00     0.251 C 
ATOM     30  H   UNL A   1      32.676  35.280  28.676  1.00  0.00     0.163 HD
ATOM     31  O   UNL A   1      32.813  35.146  31.084  1.00  0.00    -0.269 OA
BRANCH  29  32
ATOM     32  C   UNL A   1      34.834  33.975  30.808  1.00  0.00     0.039 A 
ATOM     33  C   UNL A   1      34.709  32.847  31.615  1.00  0.00     0.014 A 
ATOM     34  C   UNL A   1      36.092  34.474  30.455  1.00  0.00     0.014 A 
ATOM     35  C   UNL A   1      35.861  32.195  32.043  1.00  0.00     0.010 A 
ATOM     36  C   UNL A   1      37.232  33.765  30.797  1.00  0.00     0.010 A 
ATOM     37  C   UNL A   1      37.126  32.633  31.615  1.00  0.00    -0.014 A 
BRANCH  37  38
ATOM     38  C   UNL A   1      38.352  31.926  32.044  1.00  0.00     0.031 A 
ATOM     39  C   UNL A   1      39.000  32.279  33.353  1.00  0.00     0.074 A 
ATOM     40  C   UNL A   1      38.881  30.987  31.237  1.00  0.00     0.049 A 
ATOM     41  N   UNL A   1      40.068  31.768  33.908  1.00  0.00    -0.248 NA
ATOM     42  C   UNL A   1      38.386  33.372  34.126  1.00  0.00     0.031 C 
ATOM     43  C   UNL A   1      38.357  30.612  29.921  1.00  0.00     0.029 A 
ATOM     44  N   UNL A   1      39.966  30.170  31.407  1.00  0.00    -0.354 N 
ATOM     45  C   UNL A   1      40.254  32.477  35.090  1.00  0.00     0.074 A 
ATOM     46  C   UNL A   1      39.239  33.506  35.129  1.00  0.00     0.031 C 
ATOM     47  C   UNL A   1      39.091  29.603  29.427  1.00  0.00     0.029 A 
ATOM     48  C   UNL A   1      40.164  29.295  30.365  1.00  0.00     0.049 A 
ATOM     49  H   UNL A   1      40.550  30.206  32.199  1.00  0.00     0.167 HD
ATOM     50  C   UNL A   1      41.168  32.264  36.068  1.00  0.00     0.034 A 
ATOM     51  C   UNL A   1      41.106  28.348  30.192  1.00  0.00     0.034 A 
ATOM     52  C   UNL A   1      42.166  31.226  36.004  1.00  0.00     0.049 A 
ATOM     53  C   UNL A   1      42.124  28.144  31.284  1.00  0.00     0.074 A 
ATOM     54  C   UNL A   1      43.118  30.886  36.948  1.00  0.00     0.029 A 
ATOM     55  N   UNL A   1      42.349  30.363  34.928  1.00  0.00    -0.354 N 
ATOM     56  N   UNL A   1      42.252  28.781  32.427  1.00  0.00    -0.248 NA
ATOM     57  C   UNL A   1      43.111  27.082  31.071  1.00  0.00     0.031 C 
ATOM     58  C   UNL A   1      43.922  29.872  36.414  1.00  0.00     0.029 A 
ATOM     59  C   UNL A   1      43.417  29.514  35.173  1.00  0.00     0.049 A 
ATOM     60  H   UNL A   1      41.799  30.356  34.112  1.00  0.00     0.167 HD
ATOM     61  C   UNL A   1      43.318  28.172  33.083  1.00  0.00     0.074 A 
ATOM     62  C   UNL A   1      43.775  27.103  32.217  1.00  0.00     0.031 C 
ATOM     63  C   UNL A   1      43.870  28.465  34.289  1.00  0.00     0.034 A 
BRANCH  50  64
ATOM     64  C   UNL A   1      41.136  33.188  37.263  1.00  0.00     0.023 A 
ATOM     65  C   UNL A   1      40.452  32.846  38.444  1.00  0.00     0.031 A 
ATOM     66  C   UNL A   1      41.769  34.441  37.212  1.00  0.00     0.131 A 
ATOM     67  C   UNL A   1      40.351  33.775  39.491  1.00  0.00     0.055 A 
ATOM     68  C   UNL A   1      41.742  35.326  38.293  1.00  0.00     0.041 A 
ATOM     69  F   UNL A   1      42.415  34.837  36.103  1.00  0.00    -0.206 F 
ATOM     70  C   UNL A   1      41.016  35.002  39.436  1.00  0.00     0.022 A 
BRANCH  67  71
ATOM     71  S   UNL A   1      39.214  33.420  40.858  1.00  0.00     0.124 S 
ATOM     72  O   UNL A   1      37.931  33.825  40.288  1.00  0.00    -0.237 OA
ATOM     73  O   UNL A   1      39.400  31.989  41.061  1.00  0.00    -0.237 OA
ATOM     74  O   UNL A   1      39.701  34.273  41.940  1.00  0.00    -0.744 OA
ENDBRANCH  67  71
ENDBRANCH  50  64
BRANCH  51  75
ATOM     75  C   UNL A   1      41.131  27.524  28.950  1.00  0.00     0.023 A 
ATOM     76  C   UNL A   1      42.100  27.739  27.957  1.00  0.00     0.031 A 
ATOM     77  C   UNL A   1      40.158  26.535  28.717  1.00  0.00     0.131 A 
ATOM     78  C   UNL A   1      42.042  27.017  26.755  1.00  0.00     0.055 A 
ATOM     79  C   UNL A   1      40.142  25.776  27.546  1.00  0.00     0.041 A 
ATOM     80  F   UNL A   1      39.212  26.283  29.636  1.00  0.00    -0.206 F 
ATOM     81  C   UNL A   1      41.080  26.026  26.549  1.00  0.00     0.022 A 
BRANCH  78  82
ATOM     82  S   UNL A   1      43.188  27.461  25.420  1.00  0.00     0.124 S 
ATOM     83  O   UNL A   1      43.605  26.148  24.940  1.00  0.00    -0.237 OA
ATOM     84  O   UNL A   1      42.326  28.227  24.526  1.00  0.00    -0.237 OA
ATOM     85  O   UNL A   1      44.222  28.235  26.103  1.00  0.00    -0.744 OA
ENDBRANCH  78  82
ENDBRANCH  51  75
BRANCH  63  86
ATOM     86  C   UNL A   1      45.003  27.580  34.750  1.00  0.00     0.023 A 
ATOM     87  C   UNL A   1      44.779  26.270  35.209  1.00  0.00     0.031 A 
ATOM     88  C   UNL A   1      46.322  28.067  34.766  1.00  0.00     0.131 A 
ATOM     89  C   UNL A   1      45.841  25.524  35.740  1.00  0.00     0.055 A 
ATOM     90  C   UNL A   1      47.388  27.292  35.222  1.00  0.00     0.041 A 
ATOM     91  F   UNL A   1      46.596  29.312  34.343  1.00  0.00    -0.206 F 
ATOM     92  C   UNL A   1      47.148  26.020  35.731  1.00  0.00     0.022 A 
BRANCH  89  93
ATOM     93  S   UNL A   1      45.470  23.954  36.568  1.00  0.00     0.124 S 
ATOM     94  O   UNL A   1      44.070  23.748  36.211  1.00  0.00    -0.237 OA
ATOM     95  O   UNL A   1      46.426  23.042  35.950  1.00  0.00    -0.237 OA
ATOM     96  O   UNL A   1      45.713  24.245  37.980  1.00  0.00    -0.744 OA
ENDBRANCH  89  93
ENDBRANCH  63  86
ENDBRANCH  37  38
ENDBRANCH  29  32
ENDBRANCH  27  28
ENDBRANCH  26  27
ENDBRANCH   1  26
TORSDOF 18
ENDMDL
MODEL 3
REMARK VINA RESULT:     -11.2      5.231      8.620
REMARK SMILES C[C@H]([NH2+][C@@H](C)[C@]12C[C@H]3C[C@H](C[C@H](C3)C1)C2)[C@@H](C)C(=O)NCCCCNC(=O)c1ccc(-c2c3nc(c(-c4cc(S(=O)(=O)[O-])ccc4F)c4ccc([nH]4)c(-c4cc(S(=O)(=O)[O-])ccc4F)c4nc(c(-c5cc(S(=O)(=O)[O-])ccc5F)c5ccc2[nH]5)C=C4)C=C3)cc1
REMARK SMILES IDX 22 1 21 2 20 3 18 4 19 5 16 7 17 8 2 9 1 10 3 11 4 14 5 15
REMARK SMILES IDX 6 16 7 17 14 18 15 19 8 20 12 21 10 22 9 23 13 24 11 25
REMARK SMILES IDX 23 26 24 27 25 28 26 29 27 31 28 32 29 33 90 34 30 35 89 36
REMARK SMILES IDX 31 37 32 38 33 39 83 40 34 41 88 42 82 43 84 44 35 45 87 46
REMARK SMILES IDX 81 47 80 48 36 50 68 51 48 52 67 53 49 54 52 55 66 56 85 57
REMARK SMILES IDX 50 58 51 59 65 61 86 62 53 63 37 64 38 65 46 66 39 67 45 68
REMARK SMILES IDX 47 69 44 70 40 71 41 72 42 73 43 74 69 75 70 76 78 77 71 78
REMARK SMILES IDX 77 79 79 80 76 81 72 82 73 83 74 84 75 85 54 86 55 87 63 88
REMARK SMILES IDX 56 89 62 90 64 91 61 92 57 93 58 94 59 95 60 96
REMARK H PARENT 20 6 3 12 3 13 25 30 84 49 52 60
REMARK Flexibility Score: inf
ROOT
ATOM      1  C   UNL A   1      36.595  20.136  24.973  1.00  0.00     0.023 C 
ENDROOT
BRANCH   1   2
ATOM      2  C   UNL A   1      36.560  21.661  25.139  1.00  0.00     0.116 C 
BRANCH   2   3
ATOM      3  N   UNL A   1      36.167  22.389  23.947  1.00  0.00    -0.356 N 
ATOM      4  C   UNL A   1      34.936  22.738  23.482  1.00  0.00     0.228 C 
ATOM      5  O   UNL A   1      34.882  23.420  22.454  1.00  0.00    -0.275 OA
ATOM      6  H   UNL A   1      36.916  22.680  23.379  1.00  0.00     0.163 HD
BRANCH   4   7
ATOM      7  C   UNL A   1      33.648  22.291  24.170  1.00  0.00     0.133 C 
ATOM      8  C   UNL A   1      32.465  22.385  23.209  1.00  0.00     0.024 C 
BRANCH   7   9
ATOM      9  C   UNL A   1      33.418  22.930  25.571  1.00  0.00     0.191 C 
ATOM     10  C   UNL A   1      33.059  21.820  26.572  1.00  0.00     0.076 C 
BRANCH   9  11
ATOM     11  N   UNL A   1      32.448  24.051  25.443  1.00  0.00    -0.341 N 
ATOM     12  H   UNL A   1      31.655  23.835  26.047  1.00  0.00     0.346 HD
ATOM     13  H   UNL A   1      32.247  24.098  24.444  1.00  0.00     0.346 HD
BRANCH  11  14
ATOM     14  C   UNL A   1      32.903  25.408  25.788  1.00  0.00     0.185 C 
ATOM     15  C   UNL A   1      34.442  25.327  25.834  1.00  0.00     0.076 C 
BRANCH  14  16
ATOM     16  C   UNL A   1      32.386  26.547  24.808  1.00  0.00     0.023 C 
ATOM     17  C   UNL A   1      32.774  26.196  23.342  1.00  0.00     0.016 C 
ATOM     18  C   UNL A   1      33.050  27.914  25.111  1.00  0.00     0.016 C 
ATOM     19  C   UNL A   1      30.848  26.762  24.844  1.00  0.00     0.016 C 
ATOM     20  C   UNL A   1      32.375  27.332  22.375  1.00  0.00    -0.010 C 
ATOM     21  C   UNL A   1      32.614  29.043  24.192  1.00  0.00    -0.010 C 
ATOM     22  C   UNL A   1      30.423  27.887  23.877  1.00  0.00    -0.010 C 
ATOM     23  C   UNL A   1      30.854  27.532  22.441  1.00  0.00     0.007 C 
ATOM     24  C   UNL A   1      33.054  28.653  22.777  1.00  0.00     0.007 C 
ATOM     25  C   UNL A   1      31.099  29.200  24.291  1.00  0.00     0.007 C 
ENDBRANCH  14  16
ENDBRANCH  11  14
ENDBRANCH   9  11
ENDBRANCH   7   9
ENDBRANCH   4   7
ENDBRANCH   2   3
ENDBRANCH   1   2
BRANCH   1  26
ATOM     26  C   UNL A   1      38.000  19.543  24.895  1.00  0.00     0.023 C 
BRANCH  26  27
ATOM     27  C   UNL A   1      38.967  20.194  25.871  1.00  0.00     0.116 C 
BRANCH  27  28
ATOM     28  N   UNL A   1      40.090  19.314  26.170  1.00  0.00    -0.352 N 
ATOM     29  C   UNL A   1      41.401  19.626  26.400  1.00  0.00     0.251 C 
ATOM     30  H   UNL A   1      39.872  18.354  26.214  1.00  0.00     0.163 HD
ATOM     31  O   UNL A   1      42.250  18.747  26.387  1.00  0.00    -0.269 OA
BRANCH  29  32
ATOM     32  C   UNL A   1      41.755  21.031  26.650  1.00  0.00     0.039 A 
ATOM     33  C   UNL A   1      42.358  21.366  27.860  1.00  0.00     0.014 A 
ATOM     34  C   UNL A   1      41.497  22.004  25.679  1.00  0.00     0.014 A 
ATOM     35  C   UNL A   1      42.736  22.687  28.080  1.00  0.00     0.010 A 
ATOM     36  C   UNL A   1      41.966  23.294  25.859  1.00  0.00     0.010 A 
ATOM     37  C   UNL A   1      42.568  23.651  27.072  1.00  0.00    -0.014 A 
BRANCH  37  38
ATOM     38  C   UNL A   1      42.994  25.051  27.291  1.00  0.00     0.031 A 
ATOM     39  C   UNL A   1      42.065  26.019  27.967  1.00  0.00     0.074 A 
ATOM     40  C   UNL A   1      44.208  25.440  26.857  1.00  0.00     0.049 A 
ATOM     41  N   UNL A   1      42.258  27.279  28.259  1.00  0.00    -0.248 NA
ATOM     42  C   UNL A   1      40.732  25.515  28.336  1.00  0.00     0.031 C 
ATOM     43  C   UNL A   1      45.160  24.588  26.139  1.00  0.00     0.029 A 
ATOM     44  N   UNL A   1      44.854  26.642  26.964  1.00  0.00    -0.354 N 
ATOM     45  C   UNL A   1      41.073  27.716  28.842  1.00  0.00     0.074 A 
ATOM     46  C   UNL A   1      40.142  26.611  28.785  1.00  0.00     0.031 C 
ATOM     47  C   UNL A   1      46.288  25.280  25.917  1.00  0.00     0.029 A 
ATOM     48  C   UNL A   1      46.121  26.635  26.430  1.00  0.00     0.049 A 
ATOM     49  H   UNL A   1      44.449  27.436  27.382  1.00  0.00     0.167 HD
ATOM     50  C   UNL A   1      40.802  28.920  29.402  1.00  0.00     0.034 A 
ATOM     51  C   UNL A   1      47.042  27.615  26.367  1.00  0.00     0.034 A 
ATOM     52  C   UNL A   1      41.753  30.003  29.449  1.00  0.00     0.049 A 
ATOM     53  C   UNL A   1      46.709  28.951  26.980  1.00  0.00     0.074 A 
ATOM     54  C   UNL A   1      41.609  31.251  30.026  1.00  0.00     0.029 A 
ATOM     55  N   UNL A   1      43.025  29.968  28.887  1.00  0.00    -0.354 N 
ATOM     56  N   UNL A   1      45.606  29.333  27.583  1.00  0.00    -0.248 NA
ATOM     57  C   UNL A   1      47.752  29.979  26.919  1.00  0.00     0.031 C 
ATOM     58  C   UNL A   1      42.760  31.997  29.748  1.00  0.00     0.029 A 
ATOM     59  C   UNL A   1      43.662  31.185  29.077  1.00  0.00     0.049 A 
ATOM     60  H   UNL A   1      43.415  29.193  28.424  1.00  0.00     0.167 HD
ATOM     61  C   UNL A   1      45.838  30.640  28.002  1.00  0.00     0.074 A 
ATOM     62  C   UNL A   1      47.193  30.965  27.604  1.00  0.00     0.031 C 
ATOM     63  C   UNL A   1      45.010  31.496  28.656  1.00  0.00     0.034 A 
BRANCH  50  64
ATOM     64  C   UNL A   1      39.420  29.122  29.979  1.00  0.00     0.023 A 
ATOM     65  C   UNL A   1      38.419  29.818  29.276  1.00  0.00     0.031 A 
ATOM     66  C   UNL A   1      39.106  28.643  31.262  1.00  0.00     0.131 A 
ATOM     67  C   UNL A   1      37.185  30.082  29.888  1.00  0.00     0.055 A 
ATOM     68  C   UNL A   1      37.844  28.831  31.831  1.00  0.00     0.041 A 
ATOM     69  F   UNL A   1      40.026  27.996  31.995  1.00  0.00    -0.206 F 
ATOM     70  C   UNL A   1      36.879  29.568  31.150  1.00  0.00     0.022 A 
BRANCH  67  71
ATOM     71  S   UNL A   1      36.044  31.235  29.077  1.00  0.00     0.124 S 
ATOM     72  O   UNL A   1      36.969  32.200  28.487  1.00  0.00    -0.237 OA
ATOM     73  O   UNL A   1      35.336  30.372  28.139  1.00  0.00    -0.237 OA
ATOM     74  O   UNL A   1      35.237  31.753  30.181  1.00  0.00    -0.744 OA
ENDBRANCH  67  71
ENDBRANCH  50  64
BRANCH  51  75
ATOM     75  C   UNL A   1      48.359  27.374  25.710  1.00  0.00     0.023 A 
ATOM     76  C   UNL A   1      48.520  27.544  24.325  1.00  0.00     0.031 A 
ATOM     77  C   UNL A   1      49.468  26.927  26.452  1.00  0.00     0.131 A 
ATOM     78  C   UNL A   1      49.741  27.216  23.718  1.00  0.00     0.055 A 
ATOM     79  C   UNL A   1      50.699  26.662  25.851  1.00  0.00     0.041 A 
ATOM     80  F   UNL A   1      49.372  26.754  27.780  1.00  0.00    -0.206 F 
ATOM     81  C   UNL A   1      50.837  26.792  24.473  1.00  0.00     0.022 A 
BRANCH  78  82
ATOM     82  S   UNL A   1      49.849  27.259  21.907  1.00  0.00     0.124 S 
ATOM     83  O   UNL A   1      49.480  28.640  21.622  1.00  0.00    -0.237 OA
ATOM     84  O   UNL A   1      51.247  26.908  21.680  1.00  0.00    -0.237 OA
ATOM     85  O   UNL A   1      48.878  26.251  21.485  1.00  0.00    -0.744 OA
ENDBRANCH  78  82
ENDBRANCH  51  75
BRANCH  63  86
ATOM     86  C   UNL A   1      45.576  32.849  29.015  1.00  0.00     0.023 A 
ATOM     87  C   UNL A   1      45.375  33.975  28.198  1.00  0.00     0.031 A 
ATOM     88  C   UNL A   1      46.359  33.006  30.172  1.00  0.00     0.131 A 
ATOM     89  C   UNL A   1      46.016  35.184  28.503  1.00  0.00     0.055 A 
ATOM     90  C   UNL A   1      46.929  34.232  30.515  1.00  0.00     0.041 A 
ATOM     91  F   UNL A   1      46.587  31.965  30.989  1.00  0.00    -0.206 F 
ATOM     92  C   UNL A   1      46.776  35.325  29.667  1.00  0.00     0.022 A 
BRANCH  89  93
ATOM     93  S   UNL A   1      45.957  36.529  27.288  1.00  0.00     0.124 S 
ATOM     94  O   UNL A   1      44.573  36.978  27.402  1.00  0.00    -0.237 OA
ATOM     95  O   UNL A   1      46.969  37.450  27.794  1.00  0.00    -0.237 OA
ATOM     96  O   UNL A   1      46.292  35.869  26.028  1.00  0.00    -0.744 OA
ENDBRANCH  89  93
ENDBRANCH  63  86
ENDBRANCH  37  38
ENDBRANCH  29  32
ENDBRANCH  27  28
ENDBRANCH  26  27
ENDBRANCH   1  26
TORSDOF 18
ENDMDL
