MODEL 1
REMARK VINA RESULT:     -12.1      0.000      0.000
REMARK SMILES C[C@H](Oc1ccc(-c2ccccc2)cc1)C(=O)N[C@H](C)C(=O)NCCCCNC(=O)c1ccc(-c2c3nc(c(-c4cc(S(=O)(=O)[O-])ccc4F)c4ccc([nH]4)c(-c4cc(S(=O)(=O)[O-])ccc4F)c4nc(c(-c5cc(S(=O)(=O)[O-])ccc5F)c5ccc2[nH]5)C=C4)C=C3)cc1
REMARK SMILES IDX 24 1 23 2 21 3 22 4 19 6 20 7 18 8 16 9 17 10 2 12 1 13 3 14
REMARK SMILES IDX 4 15 5 16 15 17 6 18 14 19 7 20 8 21 9 22 13 23 10 24 12 25
REMARK SMILES IDX 11 26 25 27 26 28 27 29 28 30 29 31 30 33 31 34 32 35 93 36
REMARK SMILES IDX 33 37 92 38 34 39 35 40 36 41 86 42 37 43 91 44 85 45 87 46
REMARK SMILES IDX 38 47 90 48 84 49 83 50 39 52 71 53 51 54 70 55 52 56 55 57
REMARK SMILES IDX 69 58 88 59 53 60 54 61 68 63 89 64 56 65 40 66 41 67 49 68
REMARK SMILES IDX 42 69 48 70 50 71 47 72 43 73 44 74 45 75 46 76 72 77 73 78
REMARK SMILES IDX 81 79 74 80 80 81 82 82 79 83 75 84 76 85 77 86 78 87 57 88
REMARK SMILES IDX 58 89 66 90 59 91 65 92 67 93 64 94 60 95 61 96 62 97 63 98
REMARK H PARENT 23 5 18 11 28 32 87 51 55 62
REMARK Flexibility Score: inf
ROOT
ATOM      1  C   UNL A   1      37.116  21.928  25.615  1.00  0.00     0.116 C 
ENDROOT
BRANCH   1   2
ATOM      2  N   UNL A   1      35.967  22.478  26.297  1.00  0.00    -0.354 N 
ATOM      3  C   UNL A   1      35.057  23.397  25.857  1.00  0.00     0.242 C 
ATOM      4  O   UNL A   1      34.135  23.706  26.619  1.00  0.00    -0.273 OA
ATOM      5  H   UNL A   1      35.819  22.142  27.211  1.00  0.00     0.163 HD
BRANCH   3   6
ATOM      6  C   UNL A   1      35.233  24.123  24.501  1.00  0.00     0.168 C 
ATOM      7  C   UNL A   1      35.287  23.087  23.403  1.00  0.00     0.041 C 
BRANCH   6   8
ATOM      8  N   UNL A   1      34.347  25.292  24.384  1.00  0.00    -0.341 N 
ATOM      9  C   UNL A   1      33.337  25.755  23.607  1.00  0.00     0.261 C 
ATOM     10  O   UNL A   1      32.994  26.923  23.847  1.00  0.00    -0.271 OA
ATOM     11  H   UNL A   1      34.552  25.944  25.092  1.00  0.00     0.164 HD
BRANCH   9  12
ATOM     12  C   UNL A   1      32.520  24.942  22.578  1.00  0.00     0.258 C 
ATOM     13  C   UNL A   1      32.184  25.844  21.397  1.00  0.00     0.064 C 
BRANCH  12  14
ATOM     14  O   UNL A   1      31.561  24.115  23.214  1.00  0.00    -0.481 OA
BRANCH  14  15
ATOM     15  C   UNL A   1      31.671  22.816  23.587  1.00  0.00     0.120 A 
ATOM     16  C   UNL A   1      31.747  22.282  24.862  1.00  0.00     0.047 A 
ATOM     17  C   UNL A   1      31.836  21.949  22.498  1.00  0.00     0.047 A 
ATOM     18  C   UNL A   1      32.108  20.941  25.049  1.00  0.00     0.012 A 
ATOM     19  C   UNL A   1      32.181  20.605  22.681  1.00  0.00     0.012 A 
ATOM     20  C   UNL A   1      32.351  20.084  23.967  1.00  0.00    -0.018 A 
BRANCH  20  21
ATOM     21  C   UNL A   1      32.776  18.694  24.200  1.00  0.00    -0.018 A 
ATOM     22  C   UNL A   1      32.530  18.072  25.436  1.00  0.00     0.009 A 
ATOM     23  C   UNL A   1      33.477  17.964  23.226  1.00  0.00     0.009 A 
ATOM     24  C   UNL A   1      32.979  16.778  25.699  1.00  0.00     0.001 A 
ATOM     25  C   UNL A   1      33.925  16.665  23.485  1.00  0.00     0.001 A 
ATOM     26  C   UNL A   1      33.680  16.075  24.723  1.00  0.00     0.000 A 
ENDBRANCH  20  21
ENDBRANCH  14  15
ENDBRANCH  12  14
ENDBRANCH   9  12
ENDBRANCH   6   8
ENDBRANCH   3   6
ENDBRANCH   1   2
BRANCH   1  27
ATOM     27  C   UNL A   1      36.871  20.526  25.061  1.00  0.00     0.023 C 
BRANCH  27  28
ATOM     28  C   UNL A   1      38.097  19.618  25.035  1.00  0.00     0.023 C 
BRANCH  28  29
ATOM     29  C   UNL A   1      39.303  20.142  25.803  1.00  0.00     0.116 C 
BRANCH  29  30
ATOM     30  N   UNL A   1      40.327  19.135  26.034  1.00  0.00    -0.352 N 
ATOM     31  C   UNL A   1      41.653  19.315  26.352  1.00  0.00     0.251 C 
ATOM     32  H   UNL A   1      40.032  18.201  25.951  1.00  0.00     0.163 HD
ATOM     33  O   UNL A   1      42.403  18.343  26.394  1.00  0.00    -0.269 OA
BRANCH  31  34
ATOM     34  C   UNL A   1      42.172  20.680  26.596  1.00  0.00     0.039 A 
ATOM     35  C   UNL A   1      42.565  21.454  25.502  1.00  0.00     0.014 A 
ATOM     36  C   UNL A   1      42.243  21.208  27.889  1.00  0.00     0.014 A 
ATOM     37  C   UNL A   1      42.966  22.776  25.701  1.00  0.00     0.010 A 
ATOM     38  C   UNL A   1      42.554  22.552  28.075  1.00  0.00     0.010 A 
ATOM     39  C   UNL A   1      42.925  23.351  26.984  1.00  0.00    -0.014 A 
BRANCH  39  40
ATOM     40  C   UNL A   1      43.266  24.784  27.184  1.00  0.00     0.031 A 
ATOM     41  C   UNL A   1      42.285  25.718  27.843  1.00  0.00     0.074 A 
ATOM     42  C   UNL A   1      44.452  25.249  26.740  1.00  0.00     0.049 A 
ATOM     43  N   UNL A   1      42.417  26.988  28.127  1.00  0.00    -0.248 NA
ATOM     44  C   UNL A   1      40.974  25.159  28.204  1.00  0.00     0.031 C 
ATOM     45  C   UNL A   1      45.459  24.454  26.030  1.00  0.00     0.029 A 
ATOM     46  N   UNL A   1      45.020  26.495  26.829  1.00  0.00    -0.354 N 
ATOM     47  C   UNL A   1      41.207  27.382  28.689  1.00  0.00     0.074 A 
ATOM     48  C   UNL A   1      40.332  26.231  28.643  1.00  0.00     0.031 C 
ATOM     49  C   UNL A   1      46.538  25.218  25.796  1.00  0.00     0.029 A 
ATOM     50  C   UNL A   1      46.290  26.564  26.299  1.00  0.00     0.049 A 
ATOM     51  H   UNL A   1      44.564  27.268  27.233  1.00  0.00     0.167 HD
ATOM     52  C   UNL A   1      40.867  28.583  29.218  1.00  0.00     0.034 A 
ATOM     53  C   UNL A   1      47.157  27.594  26.234  1.00  0.00     0.034 A 
ATOM     54  C   UNL A   1      41.760  29.716  29.272  1.00  0.00     0.049 A 
ATOM     55  C   UNL A   1      46.751  28.919  26.831  1.00  0.00     0.074 A 
ATOM     56  C   UNL A   1      41.544  30.956  29.849  1.00  0.00     0.029 A 
ATOM     57  N   UNL A   1      43.034  29.754  28.718  1.00  0.00    -0.354 N 
ATOM     58  N   UNL A   1      45.633  29.248  27.436  1.00  0.00    -0.248 NA
ATOM     59  C   UNL A   1      47.737  30.004  26.753  1.00  0.00     0.031 C 
ATOM     60  C   UNL A   1      42.654  31.765  29.579  1.00  0.00     0.029 A 
ATOM     61  C   UNL A   1      43.600  31.006  28.909  1.00  0.00     0.049 A 
ATOM     62  H   UNL A   1      43.472  29.001  28.259  1.00  0.00     0.167 HD
ATOM     63  C   UNL A   1      45.798  30.571  27.841  1.00  0.00     0.074 A 
ATOM     64  C   UNL A   1      47.133  30.962  27.437  1.00  0.00     0.031 C 
ATOM     65  C   UNL A   1      44.927  31.389  28.487  1.00  0.00     0.034 A 
BRANCH  52  66
ATOM     66  C   UNL A   1      39.463  28.740  29.757  1.00  0.00     0.023 A 
ATOM     67  C   UNL A   1      38.418  29.259  28.971  1.00  0.00     0.031 A 
ATOM     68  C   UNL A   1      39.167  28.376  31.083  1.00  0.00     0.131 A 
ATOM     69  C   UNL A   1      37.149  29.462  29.536  1.00  0.00     0.055 A 
ATOM     70  C   UNL A   1      37.883  28.505  31.614  1.00  0.00     0.041 A 
ATOM     71  F   UNL A   1      40.127  27.897  31.890  1.00  0.00    -0.206 F 
ATOM     72  C   UNL A   1      36.868  29.063  30.844  1.00  0.00     0.022 A 
BRANCH  69  73
ATOM     73  S   UNL A   1      35.913  30.385  28.581  1.00  0.00     0.124 S 
ATOM     74  O   UNL A   1      34.992  29.322  28.187  1.00  0.00    -0.237 OA
ATOM     75  O   UNL A   1      35.407  31.339  29.561  1.00  0.00    -0.237 OA
ATOM     76  O   UNL A   1      36.688  30.965  27.487  1.00  0.00    -0.744 OA
ENDBRANCH  69  73
ENDBRANCH  52  66
BRANCH  53  77
ATOM     77  C   UNL A   1      48.496  27.429  25.597  1.00  0.00     0.023 A 
ATOM     78  C   UNL A   1      48.662  27.594  24.212  1.00  0.00     0.031 A 
ATOM     79  C   UNL A   1      49.617  27.037  26.350  1.00  0.00     0.131 A 
ATOM     80  C   UNL A   1      49.898  27.306  23.614  1.00  0.00     0.055 A 
ATOM     81  C   UNL A   1      50.863  26.812  25.759  1.00  0.00     0.041 A 
ATOM     82  F   UNL A   1      49.519  26.868  27.679  1.00  0.00    -0.206 F 
ATOM     83  C   UNL A   1      51.004  26.930  24.379  1.00  0.00     0.022 A 
BRANCH  80  84
ATOM     84  S   UNL A   1      50.012  27.322  21.803  1.00  0.00     0.124 S 
ATOM     85  O   UNL A   1      49.798  28.733  21.505  1.00  0.00    -0.237 OA
ATOM     86  O   UNL A   1      51.363  26.816  21.581  1.00  0.00    -0.237 OA
ATOM     87  O   UNL A   1      48.936  26.425  21.387  1.00  0.00    -0.744 OA
ENDBRANCH  80  84
ENDBRANCH  53  77
BRANCH  65  88
ATOM     88  C   UNL A   1      45.422  32.776  28.827  1.00  0.00     0.023 A 
ATOM     89  C   UNL A   1      45.071  33.896  28.053  1.00  0.00     0.031 A 
ATOM     90  C   UNL A   1      46.299  32.971  29.909  1.00  0.00     0.131 A 
ATOM     91  C   UNL A   1      45.661  35.141  28.317  1.00  0.00     0.055 A 
ATOM     92  C   UNL A   1      46.822  34.229  30.215  1.00  0.00     0.041 A 
ATOM     93  F   UNL A   1      46.673  31.940  30.683  1.00  0.00    -0.206 F 
ATOM     94  C   UNL A   1      46.521  35.320  29.404  1.00  0.00     0.022 A 
BRANCH  91  95
ATOM     95  S   UNL A   1      45.403  36.492  27.133  1.00  0.00     0.124 S 
ATOM     96  O   UNL A   1      46.459  36.245  26.157  1.00  0.00    -0.237 OA
ATOM     97  O   UNL A   1      44.040  36.245  26.672  1.00  0.00    -0.237 OA
ATOM     98  O   UNL A   1      45.576  37.696  27.943  1.00  0.00    -0.744 OA
ENDBRANCH  91  95
ENDBRANCH  65  88
ENDBRANCH  39  40
ENDBRANCH  31  34
ENDBRANCH  29  30
ENDBRANCH  28  29
ENDBRANCH  27  28
ENDBRANCH   1  27
TORSDOF 19
ENDMDL
MODEL 2
REMARK VINA RESULT:     -11.9      2.149      4.456
REMARK SMILES C[C@H](Oc1ccc(-c2ccccc2)cc1)C(=O)N[C@H](C)C(=O)NCCCCNC(=O)c1ccc(-c2c3nc(c(-c4cc(S(=O)(=O)[O-])ccc4F)c4ccc([nH]4)c(-c4cc(S(=O)(=O)[O-])ccc4F)c4nc(c(-c5cc(S(=O)(=O)[O-])ccc5F)c5ccc2[nH]5)C=C4)C=C3)cc1
REMARK SMILES IDX 24 1 23 2 21 3 22 4 19 6 20 7 18 8 16 9 17 10 2 12 1 13 3 14
REMARK SMILES IDX 4 15 5 16 15 17 6 18 14 19 7 20 8 21 9 22 13 23 10 24 12 25
REMARK SMILES IDX 11 26 25 27 26 28 27 29 28 30 29 31 30 33 31 34 32 35 93 36
REMARK SMILES IDX 33 37 92 38 34 39 35 40 36 41 86 42 37 43 91 44 85 45 87 46
REMARK SMILES IDX 38 47 90 48 84 49 83 50 39 52 71 53 51 54 70 55 52 56 55 57
REMARK SMILES IDX 69 58 88 59 53 60 54 61 68 63 89 64 56 65 40 66 41 67 49 68
REMARK SMILES IDX 42 69 48 70 50 71 47 72 43 73 44 74 45 75 46 76 72 77 73 78
REMARK SMILES IDX 81 79 74 80 80 81 82 82 79 83 75 84 76 85 77 86 78 87 57 88
REMARK SMILES IDX 58 89 66 90 59 91 65 92 67 93 64 94 60 95 61 96 62 97 63 98
REMARK H PARENT 23 5 18 11 28 32 87 51 55 62
REMARK Flexibility Score: inf
ROOT
ATOM      1  C   UNL A   1      35.888  21.154  25.048  1.00  0.00     0.116 C 
ENDROOT
BRANCH   1   2
ATOM      2  N   UNL A   1      35.397  21.449  26.375  1.00  0.00    -0.354 N 
ATOM      3  C   UNL A   1      34.109  21.530  26.823  1.00  0.00     0.242 C 
ATOM      4  O   UNL A   1      33.930  21.780  28.019  1.00  0.00    -0.273 OA
ATOM      5  H   UNL A   1      36.091  21.615  27.053  1.00  0.00     0.163 HD
BRANCH   3   6
ATOM      6  C   UNL A   1      32.909  21.435  25.851  1.00  0.00     0.168 C 
ATOM      7  C   UNL A   1      32.778  20.004  25.384  1.00  0.00     0.041 C 
BRANCH   6   8
ATOM      8  N   UNL A   1      31.735  22.168  26.354  1.00  0.00    -0.341 N 
ATOM      9  C   UNL A   1      30.961  23.234  26.031  1.00  0.00     0.261 C 
ATOM     10  O   UNL A   1      30.127  23.547  26.895  1.00  0.00    -0.271 OA
ATOM     11  H   UNL A   1      31.410  21.755  27.185  1.00  0.00     0.164 HD
BRANCH   9  12
ATOM     12  C   UNL A   1      30.939  23.980  24.678  1.00  0.00     0.258 C 
ATOM     13  C   UNL A   1      31.566  23.087  23.616  1.00  0.00     0.064 C 
BRANCH  12  14
ATOM     14  O   UNL A   1      31.280  25.348  24.834  1.00  0.00    -0.481 OA
BRANCH  14  15
ATOM     15  C   UNL A   1      30.562  26.447  24.495  1.00  0.00     0.120 A 
ATOM     16  C   UNL A   1      29.292  26.521  23.947  1.00  0.00     0.047 A 
ATOM     17  C   UNL A   1      31.289  27.636  24.637  1.00  0.00     0.047 A 
ATOM     18  C   UNL A   1      28.812  27.732  23.433  1.00  0.00     0.012 A 
ATOM     19  C   UNL A   1      30.805  28.852  24.139  1.00  0.00     0.012 A 
ATOM     20  C   UNL A   1      29.564  28.913  23.500  1.00  0.00    -0.018 A 
BRANCH  20  21
ATOM     21  C   UNL A   1      29.048  30.157  22.906  1.00  0.00    -0.018 A 
ATOM     22  C   UNL A   1      28.564  30.168  21.587  1.00  0.00     0.009 A 
ATOM     23  C   UNL A   1      29.064  31.372  23.611  1.00  0.00     0.009 A 
ATOM     24  C   UNL A   1      28.128  31.349  20.985  1.00  0.00     0.001 A 
ATOM     25  C   UNL A   1      28.624  32.557  23.011  1.00  0.00     0.001 A 
ATOM     26  C   UNL A   1      28.161  32.544  21.697  1.00  0.00     0.000 A 
ENDBRANCH  20  21
ENDBRANCH  14  15
ENDBRANCH  12  14
ENDBRANCH   9  12
ENDBRANCH   6   8
ENDBRANCH   3   6
ENDBRANCH   1   2
BRANCH   1  27
ATOM     27  C   UNL A   1      36.686  19.854  24.979  1.00  0.00     0.023 C 
BRANCH  27  28
ATOM     28  C   UNL A   1      38.169  20.023  24.661  1.00  0.00     0.023 C 
BRANCH  28  29
ATOM     29  C   UNL A   1      39.069  20.221  25.873  1.00  0.00     0.116 C 
BRANCH  29  30
ATOM     30  N   UNL A   1      40.095  19.199  26.008  1.00  0.00    -0.352 N 
ATOM     31  C   UNL A   1      41.443  19.358  26.236  1.00  0.00     0.251 C 
ATOM     32  H   UNL A   1      39.785  18.270  25.925  1.00  0.00     0.163 HD
ATOM     33  O   UNL A   1      42.182  18.378  26.202  1.00  0.00    -0.269 OA
BRANCH  31  34
ATOM     34  C   UNL A   1      41.993  20.711  26.472  1.00  0.00     0.039 A 
ATOM     35  C   UNL A   1      42.253  21.532  25.373  1.00  0.00     0.014 A 
ATOM     36  C   UNL A   1      42.224  21.183  27.768  1.00  0.00     0.014 A 
ATOM     37  C   UNL A   1      42.680  22.846  25.578  1.00  0.00     0.010 A 
ATOM     38  C   UNL A   1      42.561  22.518  27.972  1.00  0.00     0.010 A 
ATOM     39  C   UNL A   1      42.799  23.364  26.880  1.00  0.00    -0.014 A 
BRANCH  39  40
ATOM     40  C   UNL A   1      43.169  24.788  27.098  1.00  0.00     0.031 A 
ATOM     41  C   UNL A   1      42.210  25.730  27.777  1.00  0.00     0.074 A 
ATOM     42  C   UNL A   1      44.360  25.237  26.652  1.00  0.00     0.049 A 
ATOM     43  N   UNL A   1      42.367  26.993  28.079  1.00  0.00    -0.248 NA
ATOM     44  C   UNL A   1      40.890  25.190  28.140  1.00  0.00     0.031 C 
ATOM     45  C   UNL A   1      45.346  24.435  25.924  1.00  0.00     0.029 A 
ATOM     46  N   UNL A   1      44.952  26.471  26.755  1.00  0.00    -0.354 N 
ATOM     47  C   UNL A   1      41.168  27.401  28.655  1.00  0.00     0.074 A 
ATOM     48  C   UNL A   1      40.272  26.267  28.598  1.00  0.00     0.031 C 
ATOM     49  C   UNL A   1      46.439  25.181  25.693  1.00  0.00     0.029 A 
ATOM     50  C   UNL A   1      46.219  26.525  26.217  1.00  0.00     0.049 A 
ATOM     51  H   UNL A   1      44.513  27.246  27.174  1.00  0.00     0.167 HD
ATOM     52  C   UNL A   1      40.854  28.601  29.203  1.00  0.00     0.034 A 
ATOM     53  C   UNL A   1      47.104  27.540  26.161  1.00  0.00     0.034 A 
ATOM     54  C   UNL A   1      41.768  29.716  29.267  1.00  0.00     0.049 A 
ATOM     55  C   UNL A   1      46.727  28.862  26.780  1.00  0.00     0.074 A 
ATOM     56  C   UNL A   1      41.580  30.951  29.864  1.00  0.00     0.029 A 
ATOM     57  N   UNL A   1      43.039  29.738  28.706  1.00  0.00    -0.354 N 
ATOM     58  N   UNL A   1      45.619  29.203  27.397  1.00  0.00    -0.248 NA
ATOM     59  C   UNL A   1      47.732  29.930  26.711  1.00  0.00     0.031 C 
ATOM     60  C   UNL A   1      42.702  31.743  29.598  1.00  0.00     0.029 A 
ATOM     61  C   UNL A   1      43.630  30.976  28.911  1.00  0.00     0.049 A 
ATOM     62  H   UNL A   1      43.460  28.984  28.233  1.00  0.00     0.167 HD
ATOM     63  C   UNL A   1      45.811  30.517  27.820  1.00  0.00     0.074 A 
ATOM     64  C   UNL A   1      47.151  30.889  27.412  1.00  0.00     0.031 C 
ATOM     65  C   UNL A   1      44.961  31.342  28.484  1.00  0.00     0.034 A 
BRANCH  52  66
ATOM     66  C   UNL A   1      39.457  28.775  29.755  1.00  0.00     0.023 A 
ATOM     67  C   UNL A   1      38.412  29.308  28.978  1.00  0.00     0.031 A 
ATOM     68  C   UNL A   1      39.168  28.415  31.084  1.00  0.00     0.131 A 
ATOM     69  C   UNL A   1      37.151  29.528  29.554  1.00  0.00     0.055 A 
ATOM     70  C   UNL A   1      37.890  28.560  31.626  1.00  0.00     0.041 A 
ATOM     71  F   UNL A   1      40.129  27.923  31.882  1.00  0.00    -0.206 F 
ATOM     72  C   UNL A   1      36.876  29.132  30.865  1.00  0.00     0.022 A 
BRANCH  69  73
ATOM     73  S   UNL A   1      35.918  30.466  28.611  1.00  0.00     0.124 S 
ATOM     74  O   UNL A   1      35.132  29.395  28.006  1.00  0.00    -0.237 OA
ATOM     75  O   UNL A   1      35.251  31.242  29.649  1.00  0.00    -0.237 OA
ATOM     76  O   UNL A   1      36.725  31.244  27.672  1.00  0.00    -0.744 OA
ENDBRANCH  69  73
ENDBRANCH  52  66
BRANCH  53  77
ATOM     77  C   UNL A   1      48.436  27.358  25.512  1.00  0.00     0.023 A 
ATOM     78  C   UNL A   1      48.604  27.582  24.135  1.00  0.00     0.031 A 
ATOM     79  C   UNL A   1      49.545  26.895  26.242  1.00  0.00     0.131 A 
ATOM     80  C   UNL A   1      49.829  27.280  23.520  1.00  0.00     0.055 A 
ATOM     81  C   UNL A   1      50.780  26.656  25.637  1.00  0.00     0.041 A 
ATOM     82  F   UNL A   1      49.443  26.668  27.562  1.00  0.00    -0.206 F 
ATOM     83  C   UNL A   1      50.922  26.832  24.263  1.00  0.00     0.022 A 
BRANCH  80  84
ATOM     84  S   UNL A   1      49.939  27.377  21.712  1.00  0.00     0.124 S 
ATOM     85  O   UNL A   1      49.009  26.332  21.301  1.00  0.00    -0.237 OA
ATOM     86  O   UNL A   1      49.516  28.751  21.457  1.00  0.00    -0.237 OA
ATOM     87  O   UNL A   1      51.348  27.101  21.441  1.00  0.00    -0.744 OA
ENDBRANCH  80  84
ENDBRANCH  53  77
BRANCH  65  88
ATOM     88  C   UNL A   1      45.484  32.714  28.841  1.00  0.00     0.023 A 
ATOM     89  C   UNL A   1      45.256  33.829  28.015  1.00  0.00     0.031 A 
ATOM     90  C   UNL A   1      46.264  32.898  29.996  1.00  0.00     0.131 A 
ATOM     91  C   UNL A   1      45.874  35.054  28.307  1.00  0.00     0.055 A 
ATOM     92  C   UNL A   1      46.812  34.140  30.324  1.00  0.00     0.041 A 
ATOM     93  F   UNL A   1      46.519  31.871  30.822  1.00  0.00    -0.206 F 
ATOM     94  C   UNL A   1      46.637  35.222  29.466  1.00  0.00     0.022 A 
BRANCH  91  95
ATOM     95  S   UNL A   1      45.787  36.384  27.077  1.00  0.00     0.124 S 
ATOM     96  O   UNL A   1      46.423  37.492  27.782  1.00  0.00    -0.237 OA
ATOM     97  O   UNL A   1      46.540  35.825  25.960  1.00  0.00    -0.237 OA
ATOM     98  O   UNL A   1      44.353  36.540  26.842  1.00  0.00    -0.744 OA
ENDBRANCH  91  95
ENDBRANCH  65  88
ENDBRANCH  39  40
ENDBRANCH  31  34
ENDBRANCH  29  30
ENDBRANCH  28  29
ENDBRANCH  27  28
ENDBRANCH   1  27
TORSDOF 19
ENDMDL
MODEL 3
REMARK VINA RESULT:     -11.8      1.984      2.340
REMARK SMILES C[C@H](Oc1ccc(-c2ccccc2)cc1)C(=O)N[C@H](C)C(=O)NCCCCNC(=O)c1ccc(-c2c3nc(c(-c4cc(S(=O)(=O)[O-])ccc4F)c4ccc([nH]4)c(-c4cc(S(=O)(=O)[O-])ccc4F)c4nc(c(-c5cc(S(=O)(=O)[O-])ccc5F)c5ccc2[nH]5)C=C4)C=C3)cc1
REMARK SMILES IDX 24 1 23 2 21 3 22 4 19 6 20 7 18 8 16 9 17 10 2 12 1 13 3 14
REMARK SMILES IDX 4 15 5 16 15 17 6 18 14 19 7 20 8 21 9 22 13 23 10 24 12 25
REMARK SMILES IDX 11 26 25 27 26 28 27 29 28 30 29 31 30 33 31 34 32 35 93 36
REMARK SMILES IDX 33 37 92 38 34 39 35 40 36 41 86 42 37 43 91 44 85 45 87 46
REMARK SMILES IDX 38 47 90 48 84 49 83 50 39 52 71 53 51 54 70 55 52 56 55 57
REMARK SMILES IDX 69 58 88 59 53 60 54 61 68 63 89 64 56 65 40 66 41 67 49 68
REMARK SMILES IDX 42 69 48 70 50 71 47 72 43 73 44 74 45 75 46 76 72 77 73 78
REMARK SMILES IDX 81 79 74 80 80 81 82 82 79 83 75 84 76 85 77 86 78 87 57 88
REMARK SMILES IDX 58 89 66 90 59 91 65 92 67 93 64 94 60 95 61 96 62 97 63 98
REMARK H PARENT 23 5 18 11 28 32 87 51 55 62
REMARK Flexibility Score: inf
ROOT
ATOM      1  C   UNL A   1      37.010  22.089  25.645  1.00  0.00     0.116 C 
ENDROOT
BRANCH   1   2
ATOM      2  N   UNL A   1      35.839  22.512  26.379  1.00  0.00    -0.354 N 
ATOM      3  C   UNL A   1      34.875  23.412  26.025  1.00  0.00     0.242 C 
ATOM      4  O   UNL A   1      33.945  23.601  26.816  1.00  0.00    -0.273 OA
ATOM      5  H   UNL A   1      35.719  22.090  27.260  1.00  0.00     0.163 HD
BRANCH   3   6
ATOM      6  C   UNL A   1      34.996  24.261  24.737  1.00  0.00     0.168 C 
ATOM      7  C   UNL A   1      35.268  23.337  23.573  1.00  0.00     0.041 C 
BRANCH   6   8
ATOM      8  N   UNL A   1      33.939  25.283  24.649  1.00  0.00    -0.341 N 
ATOM      9  C   UNL A   1      32.964  25.698  23.803  1.00  0.00     0.261 C 
ATOM     10  O   UNL A   1      32.396  26.746  24.145  1.00  0.00    -0.271 OA
ATOM     11  H   UNL A   1      33.941  25.840  25.460  1.00  0.00     0.164 HD
BRANCH   9  12
ATOM     12  C   UNL A   1      32.432  24.937  22.568  1.00  0.00     0.258 C 
ATOM     13  C   UNL A   1      32.255  25.926  21.423  1.00  0.00     0.064 C 
BRANCH  12  14
ATOM     14  O   UNL A   1      31.442  23.990  22.928  1.00  0.00    -0.481 OA
BRANCH  14  15
ATOM     15  C   UNL A   1      31.602  22.719  23.375  1.00  0.00     0.120 A 
ATOM     16  C   UNL A   1      31.704  22.263  24.678  1.00  0.00     0.047 A 
ATOM     17  C   UNL A   1      31.793  21.798  22.336  1.00  0.00     0.047 A 
ATOM     18  C   UNL A   1      32.115  20.949  24.939  1.00  0.00     0.012 A 
ATOM     19  C   UNL A   1      32.188  20.480  22.593  1.00  0.00     0.012 A 
ATOM     20  C   UNL A   1      32.384  20.040  23.905  1.00  0.00    -0.018 A 
BRANCH  20  21
ATOM     21  C   UNL A   1      32.861  18.683  24.215  1.00  0.00    -0.018 A 
ATOM     22  C   UNL A   1      33.457  17.892  23.217  1.00  0.00     0.009 A 
ATOM     23  C   UNL A   1      32.699  18.118  25.491  1.00  0.00     0.009 A 
ATOM     24  C   UNL A   1      33.859  16.582  23.476  1.00  0.00     0.001 A 
ATOM     25  C   UNL A   1      33.106  16.806  25.754  1.00  0.00     0.001 A 
ATOM     26  C   UNL A   1      33.681  16.038  24.744  1.00  0.00     0.000 A 
ENDBRANCH  20  21
ENDBRANCH  14  15
ENDBRANCH  12  14
ENDBRANCH   9  12
ENDBRANCH   6   8
ENDBRANCH   3   6
ENDBRANCH   1   2
BRANCH   1  27
ATOM     27  C   UNL A   1      37.003  20.598  25.311  1.00  0.00     0.023 C 
BRANCH  27  28
ATOM     28  C   UNL A   1      38.358  20.019  24.917  1.00  0.00     0.023 C 
BRANCH  28  29
ATOM     29  C   UNL A   1      39.479  20.262  25.919  1.00  0.00     0.116 C 
BRANCH  29  30
ATOM     30  N   UNL A   1      40.446  19.177  25.984  1.00  0.00    -0.352 N 
ATOM     31  C   UNL A   1      41.808  19.248  26.164  1.00  0.00     0.251 C 
ATOM     32  H   UNL A   1      40.077  18.270  25.885  1.00  0.00     0.163 HD
ATOM     33  O   UNL A   1      42.485  18.227  26.072  1.00  0.00    -0.269 OA
BRANCH  31  34
ATOM     34  C   UNL A   1      42.448  20.558  26.418  1.00  0.00     0.039 A 
ATOM     35  C   UNL A   1      42.864  21.325  25.329  1.00  0.00     0.014 A 
ATOM     36  C   UNL A   1      42.609  21.044  27.720  1.00  0.00     0.014 A 
ATOM     37  C   UNL A   1      43.381  22.605  25.543  1.00  0.00     0.010 A 
ATOM     38  C   UNL A   1      43.038  22.353  27.925  1.00  0.00     0.010 A 
ATOM     39  C   UNL A   1      43.435  23.147  26.840  1.00  0.00    -0.014 A 
BRANCH  39  40
ATOM     40  C   UNL A   1      43.902  24.541  27.059  1.00  0.00     0.031 A 
ATOM     41  C   UNL A   1      42.957  25.589  27.584  1.00  0.00     0.074 A 
ATOM     42  C   UNL A   1      45.175  24.868  26.753  1.00  0.00     0.049 A 
ATOM     43  N   UNL A   1      43.190  26.846  27.865  1.00  0.00    -0.248 NA
ATOM     44  C   UNL A   1      41.559  25.180  27.795  1.00  0.00     0.031 C 
ATOM     45  C   UNL A   1      46.166  23.954  26.178  1.00  0.00     0.029 A 
ATOM     46  N   UNL A   1      45.859  26.049  26.892  1.00  0.00    -0.354 N 
ATOM     47  C   UNL A   1      41.971  27.378  28.274  1.00  0.00     0.074 A 
ATOM     48  C   UNL A   1      40.990  26.324  28.139  1.00  0.00     0.031 C 
ATOM     49  C   UNL A   1      47.342  24.594  26.064  1.00  0.00     0.029 A 
ATOM     50  C   UNL A   1      47.182  25.971  26.516  1.00  0.00     0.049 A 
ATOM     51  H   UNL A   1      45.444  26.876  27.229  1.00  0.00     0.167 HD
ATOM     52  C   UNL A   1      41.702  28.622  28.742  1.00  0.00     0.034 A 
ATOM     53  C   UNL A   1      48.155  26.903  26.540  1.00  0.00     0.034 A 
ATOM     54  C   UNL A   1      42.699  29.656  28.887  1.00  0.00     0.049 A 
ATOM     55  C   UNL A   1      47.827  28.278  27.067  1.00  0.00     0.074 A 
ATOM     56  C   UNL A   1      42.551  30.926  29.418  1.00  0.00     0.029 A 
ATOM     57  N   UNL A   1      44.025  29.546  28.488  1.00  0.00    -0.354 N 
ATOM     58  N   UNL A   1      46.687  28.738  27.531  1.00  0.00    -0.248 NA
ATOM     59  C   UNL A   1      48.925  29.251  27.093  1.00  0.00     0.031 C 
ATOM     60  C   UNL A   1      43.765  31.608  29.271  1.00  0.00     0.029 A 
ATOM     61  C   UNL A   1      44.696  30.736  28.729  1.00  0.00     0.049 A 
ATOM     62  H   UNL A   1      44.431  28.740  28.095  1.00  0.00     0.167 HD
ATOM     63  C   UNL A   1      46.944  30.046  27.935  1.00  0.00     0.074 A 
ATOM     64  C   UNL A   1      48.352  30.285  27.687  1.00  0.00     0.031 C 
ATOM     65  C   UNL A   1      46.097  30.968  28.462  1.00  0.00     0.034 A 
BRANCH  52  66
ATOM     66  C   UNL A   1      40.270  28.938  29.109  1.00  0.00     0.023 A 
ATOM     67  C   UNL A   1      39.835  28.974  30.447  1.00  0.00     0.031 A 
ATOM     68  C   UNL A   1      39.320  29.195  28.104  1.00  0.00     0.131 A 
ATOM     69  C   UNL A   1      38.480  29.192  30.739  1.00  0.00     0.055 A 
ATOM     70  C   UNL A   1      37.989  29.492  28.406  1.00  0.00     0.041 A 
ATOM     71  F   UNL A   1      39.668  29.152  26.808  1.00  0.00    -0.206 F 
ATOM     72  C   UNL A   1      37.559  29.478  29.729  1.00  0.00     0.022 A 
BRANCH  69  73
ATOM     73  S   UNL A   1      37.912  28.957  32.446  1.00  0.00     0.124 S 
ATOM     74  O   UNL A   1      36.526  29.411  32.361  1.00  0.00    -0.237 OA
ATOM     75  O   UNL A   1      38.105  27.525  32.647  1.00  0.00    -0.237 OA
ATOM     76  O   UNL A   1      38.797  29.822  33.223  1.00  0.00    -0.744 OA
ENDBRANCH  69  73
ENDBRANCH  52  66
BRANCH  53  77
ATOM     77  C   UNL A   1      49.535  26.582  26.069  1.00  0.00     0.023 A 
ATOM     78  C   UNL A   1      50.003  27.056  24.833  1.00  0.00     0.031 A 
ATOM     79  C   UNL A   1      50.381  25.741  26.814  1.00  0.00     0.131 A 
ATOM     80  C   UNL A   1      51.252  26.636  24.349  1.00  0.00     0.055 A 
ATOM     81  C   UNL A   1      51.648  25.375  26.356  1.00  0.00     0.041 A 
ATOM     82  F   UNL A   1      49.986  25.261  28.005  1.00  0.00    -0.206 F 
ATOM     83  C   UNL A   1      52.084  25.810  25.107  1.00  0.00     0.022 A 
BRANCH  80  84
ATOM     84  S   UNL A   1      51.726  27.096  22.659  1.00  0.00     0.124 S 
ATOM     85  O   UNL A   1      50.497  26.830  21.922  1.00  0.00    -0.237 OA
ATOM     86  O   UNL A   1      52.089  28.501  22.820  1.00  0.00    -0.237 OA
ATOM     87  O   UNL A   1      52.840  26.198  22.362  1.00  0.00    -0.744 OA
ENDBRANCH  80  84
ENDBRANCH  53  77
BRANCH  65  88
ATOM     88  C   UNL A   1      46.694  32.303  28.839  1.00  0.00     0.023 A 
ATOM     89  C   UNL A   1      47.200  32.549  30.128  1.00  0.00     0.031 A 
ATOM     90  C   UNL A   1      46.711  33.361  27.912  1.00  0.00     0.131 A 
ATOM     91  C   UNL A   1      47.617  33.841  30.482  1.00  0.00     0.055 A 
ATOM     92  C   UNL A   1      47.201  34.625  28.247  1.00  0.00     0.041 A 
ATOM     93  F   UNL A   1      46.240  33.189  26.667  1.00  0.00    -0.206 F 
ATOM     94  C   UNL A   1      47.637  34.877  29.544  1.00  0.00     0.022 A 
BRANCH  91  95
ATOM     95  S   UNL A   1      47.996  34.184  32.222  1.00  0.00     0.124 S 
ATOM     96  O   UNL A   1      46.664  34.316  32.802  1.00  0.00    -0.237 OA
ATOM     97  O   UNL A   1      48.747  32.997  32.617  1.00  0.00    -0.237 OA
ATOM     98  O   UNL A   1      48.774  35.420  32.167  1.00  0.00    -0.744 OA
ENDBRANCH  91  95
ENDBRANCH  65  88
ENDBRANCH  39  40
ENDBRANCH  31  34
ENDBRANCH  29  30
ENDBRANCH  28  29
ENDBRANCH  27  28
ENDBRANCH   1  27
TORSDOF 19
ENDMDL
