MODEL 1
REMARK VINA RESULT:     -12.3      0.000      0.000
REMARK SMILES C[C@H]1CCCCN1S(=O)(=O)c1ccc(Br)c(C(=O)NCCCCNC(=O)c2ccc(-c3c4nc(c(-c5cc(S(=O)(=O)[O-])ccc5F)c5ccc([nH]5)c(-c5cc(S(=O)(=O)[O-])ccc5F)c5nc(c(-c6cc(S(=O)(=O)[O-])ccc6F)c6ccc3[nH]6)C=C5)C=C4)cc2)c1
REMARK SMILES IDX 22 1 21 2 20 3 19 4 17 5 18 6 16 8 11 9 12 10 90 11 13 12
REMARK SMILES IDX 14 13 15 14 8 15 9 16 10 17 7 18 1 19 2 20 3 21 4 22 6 23
REMARK SMILES IDX 5 24 23 25 24 26 25 27 26 29 27 30 28 31 89 32 29 33 88 34
REMARK SMILES IDX 30 35 31 36 32 37 82 38 33 39 87 40 81 41 83 42 34 43 86 44
REMARK SMILES IDX 80 45 79 46 35 48 67 49 47 50 66 51 48 52 51 53 65 54 84 55
REMARK SMILES IDX 49 56 50 57 64 59 85 60 52 61 36 62 37 63 45 64 38 65 44 66
REMARK SMILES IDX 46 67 43 68 39 69 40 70 41 71 42 72 68 73 69 74 77 75 70 76
REMARK SMILES IDX 76 77 78 78 75 79 71 80 72 81 73 82 74 83 53 84 54 85 62 86
REMARK SMILES IDX 55 87 61 88 63 89 60 90 56 91 57 92 58 93 59 94
REMARK H PARENT 19 7 24 28 83 47 51 58
REMARK Flexibility Score: inf
ROOT
ATOM      1  C   UNL A   1      37.648  21.407  25.007  1.00  0.00     0.023 C 
ENDROOT
BRANCH   1   2
ATOM      2  C   UNL A   1      37.055  22.759  24.641  1.00  0.00     0.023 C 
BRANCH   2   3
ATOM      3  C   UNL A   1      36.390  23.553  25.754  1.00  0.00     0.116 C 
BRANCH   3   4
ATOM      4  N   UNL A   1      35.635  22.810  26.748  1.00  0.00    -0.352 N 
ATOM      5  C   UNL A   1      34.358  22.274  26.703  1.00  0.00     0.252 C 
ATOM      6  O   UNL A   1      34.018  21.522  27.617  1.00  0.00    -0.269 OA
ATOM      7  H   UNL A   1      36.111  22.661  27.596  1.00  0.00     0.163 HD
BRANCH   5   8
ATOM      8  C   UNL A   1      33.329  22.672  25.691  1.00  0.00     0.055 A 
ATOM      9  C   UNL A   1      31.810  24.392  24.905  1.00  0.00     0.083 A 
ATOM     10  C   UNL A   1      31.960  23.934  23.595  1.00  0.00     0.023 A 
ATOM     11  C   UNL A   1      32.598  23.852  25.929  1.00  0.00     0.036 A 
ATOM     12  C   UNL A   1      32.542  22.688  23.400  1.00  0.00     0.018 A 
ATOM     13  C   UNL A   1      33.062  21.998  24.499  1.00  0.00     0.030 A 
ATOM     14  Br  UNL A   1      32.838  20.095  24.457  1.00  0.00    -0.050 Br
BRANCH   9  15
ATOM     15  S   UNL A   1      30.614  25.660  25.224  1.00  0.00     0.243 S 
ATOM     16  O   UNL A   1      30.003  25.372  26.506  1.00  0.00    -0.207 OA
ATOM     17  O   UNL A   1      29.793  25.786  24.036  1.00  0.00    -0.207 OA
BRANCH  15  18
ATOM     18  N   UNL A   1      31.497  27.195  25.415  1.00  0.00    -0.195 NA
ATOM     19  C   UNL A   1      32.883  27.552  23.319  1.00  0.00     0.026 C 
ATOM     20  C   UNL A   1      32.899  27.265  24.823  1.00  0.00     0.070 C 
ATOM     21  C   UNL A   1      33.732  28.448  25.371  1.00  0.00     0.020 C 
ATOM     22  C   UNL A   1      33.699  28.598  26.872  1.00  0.00     0.003 C 
ATOM     23  C   UNL A   1      31.487  27.479  26.906  1.00  0.00     0.103 C 
ATOM     24  C   UNL A   1      32.253  28.730  27.294  1.00  0.00     0.017 C 
ENDBRANCH  15  18
ENDBRANCH   9  15
ENDBRANCH   5   8
ENDBRANCH   3   4
ENDBRANCH   2   3
ENDBRANCH   1   2
BRANCH   1  25
ATOM     25  C   UNL A   1      38.974  21.423  25.762  1.00  0.00     0.116 C 
BRANCH  25  26
ATOM     26  N   UNL A   1      39.669  20.140  25.793  1.00  0.00    -0.352 N 
ATOM     27  C   UNL A   1      40.997  19.869  26.049  1.00  0.00     0.251 C 
ATOM     28  H   UNL A   1      39.108  19.353  25.603  1.00  0.00     0.163 HD
ATOM     29  O   UNL A   1      41.416  18.718  25.973  1.00  0.00    -0.269 OA
BRANCH  27  30
ATOM     30  C   UNL A   1      41.919  20.983  26.355  1.00  0.00     0.039 A 
ATOM     31  C   UNL A   1      42.363  21.799  25.311  1.00  0.00     0.014 A 
ATOM     32  C   UNL A   1      42.261  21.281  27.676  1.00  0.00     0.014 A 
ATOM     33  C   UNL A   1      43.031  22.989  25.605  1.00  0.00     0.010 A 
ATOM     34  C   UNL A   1      42.850  22.508  27.970  1.00  0.00     0.010 A 
ATOM     35  C   UNL A   1      43.209  23.390  26.939  1.00  0.00    -0.014 A 
BRANCH  35  36
ATOM     36  C   UNL A   1      43.693  24.758  27.277  1.00  0.00     0.031 A 
ATOM     37  C   UNL A   1      42.739  25.793  27.808  1.00  0.00     0.074 A 
ATOM     38  C   UNL A   1      44.977  25.086  27.020  1.00  0.00     0.049 A 
ATOM     39  N   UNL A   1      42.957  27.055  28.070  1.00  0.00    -0.248 NA
ATOM     40  C   UNL A   1      41.355  25.358  28.051  1.00  0.00     0.031 C 
ATOM     41  C   UNL A   1      45.988  24.178  26.470  1.00  0.00     0.029 A 
ATOM     42  N   UNL A   1      45.655  26.271  27.175  1.00  0.00    -0.354 N 
ATOM     43  C   UNL A   1      41.740  27.570  28.498  1.00  0.00     0.074 A 
ATOM     44  C   UNL A   1      40.776  26.493  28.415  1.00  0.00     0.031 C 
ATOM     45  C   UNL A   1      47.157  24.829  26.363  1.00  0.00     0.029 A 
ATOM     46  C   UNL A   1      46.972  26.216  26.774  1.00  0.00     0.049 A 
ATOM     47  H   UNL A   1      45.238  27.085  27.538  1.00  0.00     0.167 HD
ATOM     48  C   UNL A   1      41.457  28.822  28.934  1.00  0.00     0.034 A 
ATOM     49  C   UNL A   1      47.918  27.177  26.719  1.00  0.00     0.034 A 
ATOM     50  C   UNL A   1      42.432  29.880  29.024  1.00  0.00     0.049 A 
ATOM     51  C   UNL A   1      47.554  28.576  27.156  1.00  0.00     0.074 A 
ATOM     52  C   UNL A   1      42.267  31.159  29.530  1.00  0.00     0.029 A 
ATOM     53  N   UNL A   1      43.745  29.797  28.581  1.00  0.00    -0.354 N 
ATOM     54  N   UNL A   1      46.415  29.021  27.635  1.00  0.00    -0.248 NA
ATOM     55  C   UNL A   1      48.601  29.600  27.045  1.00  0.00     0.031 C 
ATOM     56  C   UNL A   1      43.448  31.873  29.311  1.00  0.00     0.029 A 
ATOM     57  C   UNL A   1      44.382  31.017  28.749  1.00  0.00     0.049 A 
ATOM     58  H   UNL A   1      44.163  28.990  28.203  1.00  0.00     0.167 HD
ATOM     59  C   UNL A   1      46.621  30.372  27.904  1.00  0.00     0.074 A 
ATOM     60  C   UNL A   1      47.998  30.660  27.562  1.00  0.00     0.031 C 
ATOM     61  C   UNL A   1      45.751  31.295  28.389  1.00  0.00     0.034 A 
BRANCH  48  62
ATOM     62  C   UNL A   1      40.032  29.131  29.321  1.00  0.00     0.023 A 
ATOM     63  C   UNL A   1      39.621  29.182  30.663  1.00  0.00     0.031 A 
ATOM     64  C   UNL A   1      39.074  29.403  28.327  1.00  0.00     0.131 A 
ATOM     65  C   UNL A   1      38.278  29.451  30.974  1.00  0.00     0.055 A 
ATOM     66  C   UNL A   1      37.759  29.744  28.645  1.00  0.00     0.041 A 
ATOM     67  F   UNL A   1      39.404  29.347  27.027  1.00  0.00    -0.206 F 
ATOM     68  C   UNL A   1      37.351  29.758  29.975  1.00  0.00     0.022 A 
BRANCH  65  69
ATOM     69  S   UNL A   1      37.735  29.283  32.696  1.00  0.00     0.124 S 
ATOM     70  O   UNL A   1      37.729  27.832  32.864  1.00  0.00    -0.237 OA
ATOM     71  O   UNL A   1      38.770  30.006  33.426  1.00  0.00    -0.237 OA
ATOM     72  O   UNL A   1      36.415  29.908  32.702  1.00  0.00    -0.744 OA
ENDBRANCH  65  69
ENDBRANCH  48  62
BRANCH  49  73
ATOM     73  C   UNL A   1      49.288  26.882  26.205  1.00  0.00     0.023 A 
ATOM     74  C   UNL A   1      49.717  27.388  24.967  1.00  0.00     0.031 A 
ATOM     75  C   UNL A   1      50.162  26.025  26.899  1.00  0.00     0.131 A 
ATOM     76  C   UNL A   1      50.947  26.981  24.430  1.00  0.00     0.055 A 
ATOM     77  C   UNL A   1      51.416  25.677  26.393  1.00  0.00     0.041 A 
ATOM     78  F   UNL A   1      49.806  25.508  28.086  1.00  0.00    -0.206 F 
ATOM     79  C   UNL A   1      51.808  26.141  25.141  1.00  0.00     0.022 A 
BRANCH  76  80
ATOM     80  S   UNL A   1      51.350  27.459  22.727  1.00  0.00     0.124 S 
ATOM     81  O   UNL A   1      50.406  26.650  21.962  1.00  0.00    -0.237 OA
ATOM     82  O   UNL A   1      51.096  28.895  22.748  1.00  0.00    -0.237 OA
ATOM     83  O   UNL A   1      52.754  27.077  22.589  1.00  0.00    -0.744 OA
ENDBRANCH  76  80
ENDBRANCH  49  73
BRANCH  61  84
ATOM     84  C   UNL A   1      46.278  32.693  28.598  1.00  0.00     0.023 A 
ATOM     85  C   UNL A   1      46.203  33.666  27.585  1.00  0.00     0.031 A 
ATOM     86  C   UNL A   1      46.864  33.058  29.824  1.00  0.00     0.131 A 
ATOM     87  C   UNL A   1      46.753  34.940  27.798  1.00  0.00     0.055 A 
ATOM     88  C   UNL A   1      47.347  34.346  30.052  1.00  0.00     0.041 A 
ATOM     89  F   UNL A   1      46.966  32.169  30.824  1.00  0.00    -0.206 F 
ATOM     90  C   UNL A   1      47.305  35.292  29.032  1.00  0.00     0.022 A 
BRANCH  87  91
ATOM     91  S   UNL A   1      46.812  36.103  26.409  1.00  0.00     0.124 S 
ATOM     92  O   UNL A   1      46.482  35.242  25.278  1.00  0.00    -0.237 OA
ATOM     93  O   UNL A   1      45.799  37.086  26.779  1.00  0.00    -0.237 OA
ATOM     94  O   UNL A   1      48.189  36.596  26.433  1.00  0.00    -0.744 OA
ENDBRANCH  87  91
ENDBRANCH  61  84
ENDBRANCH  35  36
ENDBRANCH  27  30
ENDBRANCH  25  26
ENDBRANCH   1  25
TORSDOF 16
ENDMDL
MODEL 2
REMARK VINA RESULT:     -12.2      1.780      7.766
REMARK SMILES C[C@H]1CCCCN1S(=O)(=O)c1ccc(Br)c(C(=O)NCCCCNC(=O)c2ccc(-c3c4nc(c(-c5cc(S(=O)(=O)[O-])ccc5F)c5ccc([nH]5)c(-c5cc(S(=O)(=O)[O-])ccc5F)c5nc(c(-c6cc(S(=O)(=O)[O-])ccc6F)c6ccc3[nH]6)C=C5)C=C4)cc2)c1
REMARK SMILES IDX 22 1 21 2 20 3 19 4 17 5 18 6 16 8 11 9 12 10 90 11 13 12
REMARK SMILES IDX 14 13 15 14 8 15 9 16 10 17 7 18 1 19 2 20 3 21 4 22 6 23
REMARK SMILES IDX 5 24 23 25 24 26 25 27 26 29 27 30 28 31 89 32 29 33 88 34
REMARK SMILES IDX 30 35 31 36 32 37 82 38 33 39 87 40 81 41 83 42 34 43 86 44
REMARK SMILES IDX 80 45 79 46 35 48 67 49 47 50 66 51 48 52 51 53 65 54 84 55
REMARK SMILES IDX 49 56 50 57 64 59 85 60 52 61 36 62 37 63 45 64 38 65 44 66
REMARK SMILES IDX 46 67 43 68 39 69 40 70 41 71 42 72 68 73 69 74 77 75 70 76
REMARK SMILES IDX 76 77 78 78 75 79 71 80 72 81 73 82 74 83 53 84 54 85 62 86
REMARK SMILES IDX 55 87 61 88 63 89 60 90 56 91 57 92 58 93 59 94
REMARK H PARENT 19 7 24 28 83 47 51 58
REMARK Flexibility Score: inf
ROOT
ATOM      1  C   UNL A   1      37.966  20.058  24.769  1.00  0.00     0.023 C 
ENDROOT
BRANCH   1   2
ATOM      2  C   UNL A   1      36.498  20.450  24.835  1.00  0.00     0.023 C 
BRANCH   2   3
ATOM      3  C   UNL A   1      36.171  21.847  25.337  1.00  0.00     0.116 C 
BRANCH   3   4
ATOM      4  N   UNL A   1      35.415  21.955  26.573  1.00  0.00    -0.352 N 
ATOM      5  C   UNL A   1      34.054  22.093  26.795  1.00  0.00     0.252 C 
ATOM      6  O   UNL A   1      33.645  21.973  27.951  1.00  0.00    -0.269 OA
ATOM      7  H   UNL A   1      35.962  21.924  27.391  1.00  0.00     0.163 HD
BRANCH   5   8
ATOM      8  C   UNL A   1      33.083  22.520  25.740  1.00  0.00     0.055 A 
ATOM      9  C   UNL A   1      31.673  24.294  24.873  1.00  0.00     0.083 A 
ATOM     10  C   UNL A   1      31.853  23.811  23.576  1.00  0.00     0.023 A 
ATOM     11  C   UNL A   1      32.396  23.734  25.933  1.00  0.00     0.036 A 
ATOM     12  C   UNL A   1      32.386  22.537  23.420  1.00  0.00     0.018 A 
ATOM     13  C   UNL A   1      32.833  21.842  24.547  1.00  0.00     0.030 A 
ATOM     14  Br  UNL A   1      32.527  19.949  24.520  1.00  0.00    -0.050 Br
BRANCH   9  15
ATOM     15  S   UNL A   1      30.523  25.616  25.129  1.00  0.00     0.243 S 
ATOM     16  O   UNL A   1      29.839  25.365  26.382  1.00  0.00    -0.207 OA
ATOM     17  O   UNL A   1      29.765  25.772  23.902  1.00  0.00    -0.207 OA
BRANCH  15  18
ATOM     18  N   UNL A   1      31.465  27.111  25.355  1.00  0.00    -0.195 NA
ATOM     19  C   UNL A   1      32.899  27.438  23.287  1.00  0.00     0.026 C 
ATOM     20  C   UNL A   1      32.879  27.131  24.786  1.00  0.00     0.070 C 
ATOM     21  C   UNL A   1      33.750  28.270  25.364  1.00  0.00     0.020 C 
ATOM     22  C   UNL A   1      33.699  28.402  26.867  1.00  0.00     0.003 C 
ATOM     23  C   UNL A   1      31.442  27.375  26.850  1.00  0.00     0.103 C 
ATOM     24  C   UNL A   1      32.253  28.588  27.268  1.00  0.00     0.017 C 
ENDBRANCH  15  18
ENDBRANCH   9  15
ENDBRANCH   5   8
ENDBRANCH   3   4
ENDBRANCH   2   3
ENDBRANCH   1   2
BRANCH   1  25
ATOM     25  C   UNL A   1      38.619  19.627  26.079  1.00  0.00     0.116 C 
BRANCH  25  26
ATOM     26  N   UNL A   1      39.986  19.135  25.942  1.00  0.00    -0.352 N 
ATOM     27  C   UNL A   1      41.179  19.787  26.174  1.00  0.00     0.251 C 
ATOM     28  H   UNL A   1      40.069  18.201  25.639  1.00  0.00     0.163 HD
ATOM     29  O   UNL A   1      42.245  19.221  25.945  1.00  0.00    -0.269 OA
BRANCH  27  30
ATOM     30  C   UNL A   1      41.162  21.190  26.641  1.00  0.00     0.039 A 
ATOM     31  C   UNL A   1      41.885  21.528  27.787  1.00  0.00     0.014 A 
ATOM     32  C   UNL A   1      40.520  22.180  25.894  1.00  0.00     0.014 A 
ATOM     33  C   UNL A   1      42.080  22.874  28.104  1.00  0.00     0.010 A 
ATOM     34  C   UNL A   1      40.786  23.520  26.164  1.00  0.00     0.010 A 
ATOM     35  C   UNL A   1      41.598  23.880  27.250  1.00  0.00    -0.014 A 
BRANCH  35  36
ATOM     36  C   UNL A   1      41.998  25.303  27.429  1.00  0.00     0.031 A 
ATOM     37  C   UNL A   1      43.308  25.800  26.883  1.00  0.00     0.074 A 
ATOM     38  C   UNL A   1      41.214  26.123  28.162  1.00  0.00     0.049 A 
ATOM     39  N   UNL A   1      43.865  26.976  27.019  1.00  0.00    -0.248 NA
ATOM     40  C   UNL A   1      44.109  24.843  26.104  1.00  0.00     0.031 C 
ATOM     41  C   UNL A   1      39.937  25.745  28.775  1.00  0.00     0.029 A 
ATOM     42  N   UNL A   1      41.373  27.437  28.527  1.00  0.00    -0.354 N 
ATOM     43  C   UNL A   1      45.083  26.900  26.355  1.00  0.00     0.074 A 
ATOM     44  C   UNL A   1      45.205  25.545  25.858  1.00  0.00     0.031 C 
ATOM     45  C   UNL A   1      39.419  26.807  29.411  1.00  0.00     0.029 A 
ATOM     46  C   UNL A   1      40.350  27.925  29.310  1.00  0.00     0.049 A 
ATOM     47  H   UNL A   1      42.148  27.980  28.256  1.00  0.00     0.167 HD
ATOM     48  C   UNL A   1      46.006  27.873  26.167  1.00  0.00     0.034 A 
ATOM     49  C   UNL A   1      40.188  29.128  29.900  1.00  0.00     0.034 A 
ATOM     50  C   UNL A   1      45.862  29.222  26.659  1.00  0.00     0.049 A 
ATOM     51  C   UNL A   1      41.264  30.173  29.720  1.00  0.00     0.074 A 
ATOM     52  C   UNL A   1      46.701  30.305  26.451  1.00  0.00     0.029 A 
ATOM     53  N   UNL A   1      44.831  29.671  27.471  1.00  0.00    -0.354 N 
ATOM     54  N   UNL A   1      42.372  30.105  29.019  1.00  0.00    -0.248 NA
ATOM     55  C   UNL A   1      41.068  31.455  30.411  1.00  0.00     0.031 C 
ATOM     56  C   UNL A   1      46.225  31.378  27.209  1.00  0.00     0.029 A 
ATOM     57  C   UNL A   1      45.042  30.996  27.820  1.00  0.00     0.049 A 
ATOM     58  H   UNL A   1      44.061  29.127  27.758  1.00  0.00     0.167 HD
ATOM     59  C   UNL A   1      42.990  31.344  29.166  1.00  0.00     0.074 A 
ATOM     60  C   UNL A   1      42.118  32.147  29.997  1.00  0.00     0.031 C 
ATOM     61  C   UNL A   1      44.172  31.781  28.663  1.00  0.00     0.034 A 
BRANCH  48  62
ATOM     62  C   UNL A   1      47.269  27.516  25.424  1.00  0.00     0.023 A 
ATOM     63  C   UNL A   1      47.398  27.716  24.039  1.00  0.00     0.031 A 
ATOM     64  C   UNL A   1      48.372  26.989  26.120  1.00  0.00     0.131 A 
ATOM     65  C   UNL A   1      48.585  27.347  23.387  1.00  0.00     0.055 A 
ATOM     66  C   UNL A   1      49.576  26.695  25.478  1.00  0.00     0.041 A 
ATOM     67  F   UNL A   1      48.299  26.757  27.440  1.00  0.00    -0.206 F 
ATOM     68  C   UNL A   1      49.684  26.863  24.101  1.00  0.00     0.022 A 
BRANCH  65  69
ATOM     69  S   UNL A   1      48.633  27.404  21.574  1.00  0.00     0.124 S 
ATOM     70  O   UNL A   1      47.350  28.028  21.264  1.00  0.00    -0.237 OA
ATOM     71  O   UNL A   1      49.817  28.215  21.316  1.00  0.00    -0.237 OA
ATOM     72  O   UNL A   1      48.744  25.998  21.191  1.00  0.00    -0.744 OA
ENDBRANCH  65  69
ENDBRANCH  48  62
BRANCH  49  73
ATOM     73  C   UNL A   1      38.992  29.419  30.746  1.00  0.00     0.023 A 
ATOM     74  C   UNL A   1      37.985  30.287  30.293  1.00  0.00     0.031 A 
ATOM     75  C   UNL A   1      38.876  28.905  32.050  1.00  0.00     0.131 A 
ATOM     76  C   UNL A   1      36.946  30.667  31.156  1.00  0.00     0.055 A 
ATOM     77  C   UNL A   1      37.803  29.231  32.882  1.00  0.00     0.041 A 
ATOM     78  F   UNL A   1      39.810  28.074  32.539  1.00  0.00    -0.206 F 
ATOM     79  C   UNL A   1      36.838  30.133  32.442  1.00  0.00     0.022 A 
BRANCH  76  80
ATOM     80  S   UNL A   1      35.808  31.974  30.620  1.00  0.00     0.124 S 
ATOM     81  O   UNL A   1      34.846  31.995  31.716  1.00  0.00    -0.237 OA
ATOM     82  O   UNL A   1      36.697  33.127  30.523  1.00  0.00    -0.237 OA
ATOM     83  O   UNL A   1      35.293  31.476  29.347  1.00  0.00    -0.744 OA
ENDBRANCH  76  80
ENDBRANCH  49  73
BRANCH  61  84
ATOM     84  C   UNL A   1      44.573  33.200  28.981  1.00  0.00     0.023 A 
ATOM     85  C   UNL A   1      44.160  34.278  28.180  1.00  0.00     0.031 A 
ATOM     86  C   UNL A   1      45.381  33.478  30.099  1.00  0.00     0.131 A 
ATOM     87  C   UNL A   1      44.599  35.578  28.477  1.00  0.00     0.055 A 
ATOM     88  C   UNL A   1      45.758  34.780  30.427  1.00  0.00     0.041 A 
ATOM     89  F   UNL A   1      45.809  32.486  30.896  1.00  0.00    -0.206 F 
ATOM     90  C   UNL A   1      45.378  35.838  29.607  1.00  0.00     0.022 A 
BRANCH  87  91
ATOM     91  S   UNL A   1      44.208  36.914  27.315  1.00  0.00     0.124 S 
ATOM     92  O   UNL A   1      43.803  37.989  28.216  1.00  0.00    -0.237 OA
ATOM     93  O   UNL A   1      45.476  37.108  26.621  1.00  0.00    -0.237 OA
ATOM     94  O   UNL A   1      43.134  36.353  26.496  1.00  0.00    -0.744 OA
ENDBRANCH  87  91
ENDBRANCH  61  84
ENDBRANCH  35  36
ENDBRANCH  27  30
ENDBRANCH  25  26
ENDBRANCH   1  25
TORSDOF 16
ENDMDL
MODEL 3
REMARK VINA RESULT:     -12.0      5.846     11.212
REMARK SMILES C[C@H]1CCCCN1S(=O)(=O)c1ccc(Br)c(C(=O)NCCCCNC(=O)c2ccc(-c3c4nc(c(-c5cc(S(=O)(=O)[O-])ccc5F)c5ccc([nH]5)c(-c5cc(S(=O)(=O)[O-])ccc5F)c5nc(c(-c6cc(S(=O)(=O)[O-])ccc6F)c6ccc3[nH]6)C=C5)C=C4)cc2)c1
REMARK SMILES IDX 22 1 21 2 20 3 19 4 17 5 18 6 16 8 11 9 12 10 90 11 13 12
REMARK SMILES IDX 14 13 15 14 8 15 9 16 10 17 7 18 1 19 2 20 3 21 4 22 6 23
REMARK SMILES IDX 5 24 23 25 24 26 25 27 26 29 27 30 28 31 89 32 29 33 88 34
REMARK SMILES IDX 30 35 31 36 32 37 82 38 33 39 87 40 81 41 83 42 34 43 86 44
REMARK SMILES IDX 80 45 79 46 35 48 67 49 47 50 66 51 48 52 51 53 65 54 84 55
REMARK SMILES IDX 49 56 50 57 64 59 85 60 52 61 36 62 37 63 45 64 38 65 44 66
REMARK SMILES IDX 46 67 43 68 39 69 40 70 41 71 42 72 68 73 69 74 77 75 70 76
REMARK SMILES IDX 76 77 78 78 75 79 71 80 72 81 73 82 74 83 53 84 54 85 62 86
REMARK SMILES IDX 55 87 61 88 63 89 60 90 56 91 57 92 58 93 59 94
REMARK H PARENT 19 7 24 28 83 47 51 58
REMARK Flexibility Score: inf
ROOT
ATOM      1  C   UNL A   1      32.763  30.859  26.904  1.00  0.00     0.023 C 
ENDROOT
BRANCH   1   2
ATOM      2  C   UNL A   1      33.081  29.468  27.430  1.00  0.00     0.023 C 
BRANCH   2   3
ATOM      3  C   UNL A   1      33.275  28.361  26.406  1.00  0.00     0.116 C 
BRANCH   3   4
ATOM      4  N   UNL A   1      33.782  28.741  25.098  1.00  0.00    -0.352 N 
ATOM      5  C   UNL A   1      33.374  28.374  23.826  1.00  0.00     0.252 C 
ATOM      6  O   UNL A   1      33.853  28.986  22.870  1.00  0.00    -0.269 OA
ATOM      7  H   UNL A   1      34.544  29.363  25.120  1.00  0.00     0.163 HD
BRANCH   5   8
ATOM      8  C   UNL A   1      32.503  27.190  23.546  1.00  0.00     0.055 A 
ATOM      9  C   UNL A   1      32.360  24.778  23.322  1.00  0.00     0.083 A 
ATOM     10  C   UNL A   1      31.040  24.809  23.772  1.00  0.00     0.023 A 
ATOM     11  C   UNL A   1      33.132  25.947  23.340  1.00  0.00     0.036 A 
ATOM     12  C   UNL A   1      30.389  26.036  23.812  1.00  0.00     0.018 A 
ATOM     13  C   UNL A   1      31.108  27.198  23.519  1.00  0.00     0.030 A 
ATOM     14  Br  UNL A   1      30.136  28.548  22.565  1.00  0.00    -0.050 Br
BRANCH   9  15
ATOM     15  S   UNL A   1      33.018  23.240  22.739  1.00  0.00     0.243 S 
ATOM     16  O   UNL A   1      33.691  23.501  21.482  1.00  0.00    -0.207 OA
ATOM     17  O   UNL A   1      31.949  22.262  22.806  1.00  0.00    -0.207 OA
BRANCH  15  18
ATOM     18  N   UNL A   1      34.274  22.723  23.890  1.00  0.00    -0.195 NA
ATOM     19  C   UNL A   1      33.166  22.421  26.154  1.00  0.00     0.026 C 
ATOM     20  C   UNL A   1      34.157  23.238  25.320  1.00  0.00     0.070 C 
ATOM     21  C   UNL A   1      35.466  23.087  26.129  1.00  0.00     0.020 C 
ATOM     22  C   UNL A   1      36.707  23.562  25.414  1.00  0.00     0.003 C 
ATOM     23  C   UNL A   1      35.592  23.111  23.245  1.00  0.00     0.103 C 
ATOM     24  C   UNL A   1      36.805  22.809  24.106  1.00  0.00     0.017 C 
ENDBRANCH  15  18
ENDBRANCH   9  15
ENDBRANCH   5   8
ENDBRANCH   3   4
ENDBRANCH   2   3
ENDBRANCH   1   2
BRANCH   1  25
ATOM     25  C   UNL A   1      33.689  31.988  27.348  1.00  0.00     0.116 C 
BRANCH  25  26
ATOM     26  N   UNL A   1      33.010  33.245  27.648  1.00  0.00    -0.352 N 
ATOM     27  C   UNL A   1      33.312  34.197  28.599  1.00  0.00     0.251 C 
ATOM     28  H   UNL A   1      32.223  33.442  27.090  1.00  0.00     0.163 HD
ATOM     29  O   UNL A   1      32.584  35.175  28.744  1.00  0.00    -0.269 OA
BRANCH  27  30
ATOM     30  C   UNL A   1      34.483  33.999  29.480  1.00  0.00     0.039 A 
ATOM     31  C   UNL A   1      34.310  33.319  30.688  1.00  0.00     0.014 A 
ATOM     32  C   UNL A   1      35.758  34.391  29.067  1.00  0.00     0.014 A 
ATOM     33  C   UNL A   1      35.432  32.912  31.414  1.00  0.00     0.010 A 
ATOM     34  C   UNL A   1      36.874  33.910  29.746  1.00  0.00     0.010 A 
ATOM     35  C   UNL A   1      36.723  33.136  30.906  1.00  0.00    -0.014 A 
BRANCH  35  36
ATOM     36  C   UNL A   1      37.918  32.501  31.528  1.00  0.00     0.031 A 
ATOM     37  C   UNL A   1      38.604  31.345  30.854  1.00  0.00     0.074 A 
ATOM     38  C   UNL A   1      38.328  32.917  32.746  1.00  0.00     0.049 A 
ATOM     39  N   UNL A   1      39.596  30.611  31.285  1.00  0.00    -0.248 NA
ATOM     40  C   UNL A   1      38.090  30.946  29.534  1.00  0.00     0.031 C 
ATOM     41  C   UNL A   1      37.719  34.006  33.516  1.00  0.00     0.029 A 
ATOM     42  N   UNL A   1      39.344  32.474  33.557  1.00  0.00    -0.354 N 
ATOM     43  C   UNL A   1      39.821  29.657  30.300  1.00  0.00     0.074 A 
ATOM     44  C   UNL A   1      38.828  29.878  29.269  1.00  0.00     0.031 C 
ATOM     45  C   UNL A   1      38.390  34.163  34.669  1.00  0.00     0.029 A 
ATOM     46  C   UNL A   1      39.436  33.149  34.754  1.00  0.00     0.049 A 
ATOM     47  H   UNL A   1      39.950  31.739  33.307  1.00  0.00     0.167 HD
ATOM     48  C   UNL A   1      40.775  28.697  30.254  1.00  0.00     0.034 A 
ATOM     49  C   UNL A   1      40.252  32.961  35.812  1.00  0.00     0.034 A 
ATOM     50  C   UNL A   1      41.766  28.499  31.284  1.00  0.00     0.049 A 
ATOM     51  C   UNL A   1      41.267  31.843  35.754  1.00  0.00     0.074 A 
ATOM     52  C   UNL A   1      42.827  27.609  31.294  1.00  0.00     0.029 A 
ATOM     53  N   UNL A   1      41.809  29.180  32.492  1.00  0.00    -0.354 N 
ATOM     54  N   UNL A   1      41.515  31.004  34.775  1.00  0.00    -0.248 NA
ATOM     55  C   UNL A   1      42.109  31.648  36.942  1.00  0.00     0.031 C 
ATOM     56  C   UNL A   1      43.454  27.690  32.540  1.00  0.00     0.029 A 
ATOM     57  C   UNL A   1      42.842  28.690  33.277  1.00  0.00     0.049 A 
ATOM     58  H   UNL A   1      41.196  29.905  32.754  1.00  0.00     0.167 HD
ATOM     59  C   UNL A   1      42.559  30.199  35.224  1.00  0.00     0.074 A 
ATOM     60  C   UNL A   1      42.912  30.673  36.546  1.00  0.00     0.031 C 
ATOM     61  C   UNL A   1      43.172  29.161  34.601  1.00  0.00     0.034 A 
BRANCH  48  62
ATOM     62  C   UNL A   1      40.784  27.764  29.068  1.00  0.00     0.023 A 
ATOM     63  C   UNL A   1      41.701  27.909  28.015  1.00  0.00     0.031 A 
ATOM     64  C   UNL A   1      39.871  26.695  29.006  1.00  0.00     0.131 A 
ATOM     65  C   UNL A   1      41.656  27.031  26.921  1.00  0.00     0.055 A 
ATOM     66  C   UNL A   1      39.880  25.780  27.952  1.00  0.00     0.041 A 
ATOM     67  F   UNL A   1      38.957  26.520  29.973  1.00  0.00    -0.206 F 
ATOM     68  C   UNL A   1      40.769  25.951  26.896  1.00  0.00     0.022 A 
BRANCH  65  69
ATOM     69  S   UNL A   1      42.697  27.384  25.479  1.00  0.00     0.124 S 
ATOM     70  O   UNL A   1      42.030  28.555  24.913  1.00  0.00    -0.237 OA
ATOM     71  O   UNL A   1      44.002  27.623  26.082  1.00  0.00    -0.237 OA
ATOM     72  O   UNL A   1      42.593  26.169  24.675  1.00  0.00    -0.744 OA
ENDBRANCH  65  69
ENDBRANCH  48  62
BRANCH  49  73
ATOM     73  C   UNL A   1      40.139  33.811  37.035  1.00  0.00     0.023 A 
ATOM     74  C   UNL A   1      40.976  34.924  37.218  1.00  0.00     0.031 A 
ATOM     75  C   UNL A   1      39.256  33.478  38.079  1.00  0.00     0.131 A 
ATOM     76  C   UNL A   1      40.961  35.621  38.435  1.00  0.00     0.055 A 
ATOM     77  C   UNL A   1      39.195  34.217  39.262  1.00  0.00     0.041 A 
ATOM     78  F   UNL A   1      38.435  32.422  37.963  1.00  0.00    -0.206 F 
ATOM     79  C   UNL A   1      40.065  35.286  39.453  1.00  0.00     0.022 A 
BRANCH  76  80
ATOM     80  S   UNL A   1      42.224  36.892  38.722  1.00  0.00     0.124 S 
ATOM     81  O   UNL A   1      43.099  36.227  39.681  1.00  0.00    -0.237 OA
ATOM     82  O   UNL A   1      42.768  37.084  37.382  1.00  0.00    -0.237 OA
ATOM     83  O   UNL A   1      41.459  38.019  39.251  1.00  0.00    -0.744 OA
ENDBRANCH  76  80
ENDBRANCH  49  73
BRANCH  61  84
ATOM     84  C   UNL A   1      44.302  28.486  35.339  1.00  0.00     0.023 A 
ATOM     85  C   UNL A   1      44.059  27.524  36.334  1.00  0.00     0.031 A 
ATOM     86  C   UNL A   1      45.639  28.813  35.046  1.00  0.00     0.131 A 
ATOM     87  C   UNL A   1      45.135  26.958  37.037  1.00  0.00     0.055 A 
ATOM     88  C   UNL A   1      46.705  28.197  35.702  1.00  0.00     0.041 A 
ATOM     89  F   UNL A   1      45.929  29.728  34.109  1.00  0.00    -0.206 F 
ATOM     90  C   UNL A   1      46.456  27.273  36.713  1.00  0.00     0.022 A 
BRANCH  87  91
ATOM     91  S   UNL A   1      44.778  25.868  38.441  1.00  0.00     0.124 S 
ATOM     92  O   UNL A   1      43.499  26.389  38.912  1.00  0.00    -0.237 OA
ATOM     93  O   UNL A   1      44.738  24.551  37.814  1.00  0.00    -0.237 OA
ATOM     94  O   UNL A   1      45.908  26.089  39.342  1.00  0.00    -0.744 OA
ENDBRANCH  87  91
ENDBRANCH  61  84
ENDBRANCH  35  36
ENDBRANCH  27  30
ENDBRANCH  25  26
ENDBRANCH   1  25
TORSDOF 16
ENDMDL
