MODEL 1
REMARK VINA RESULT:     -14.2      0.000      0.000
REMARK SMILES CC1=C(C(=O)Nc2ccccc2)[C@@H](c2ccc(C(=O)NCCCCNC(=O)c3ccc(-c4c5nc(c(-c6cc(S(=O)(=O)[O-])ccc6F)c6ccc([nH]6)c(-c6cc(S(=O)(=O)[O-])ccc6F)c6nc(c(-c7cc(S(=O)(=O)[O-])ccc7F)c7ccc4[nH]7)C=C6)C=C5)cc3)cc2)n2ncnc2N1
REMARK SMILES IDX 22 1 21 2 20 3 18 4 19 5 17 7 14 8 15 9 92 10 16 11 91 12
REMARK SMILES IDX 13 13 1 14 2 15 3 16 98 17 97 18 93 20 96 21 94 22 95 23
REMARK SMILES IDX 4 24 5 25 6 26 7 28 8 29 12 30 9 31 11 32 10 33 23 34 24 35
REMARK SMILES IDX 25 36 26 37 27 39 28 40 29 41 90 42 30 43 89 44 31 45 32 46
REMARK SMILES IDX 33 47 83 48 34 49 88 50 82 51 84 52 35 53 87 54 81 55 80 56
REMARK SMILES IDX 36 58 68 59 48 60 67 61 49 62 52 63 66 64 85 65 50 66 51 67
REMARK SMILES IDX 65 69 86 70 53 71 37 72 38 73 46 74 39 75 45 76 47 77 44 78
REMARK SMILES IDX 40 79 41 80 42 81 43 82 69 83 70 84 78 85 71 86 77 87 79 88
REMARK SMILES IDX 76 89 72 90 73 91 74 92 75 93 54 94 55 95 63 96 56 97 62 98
REMARK SMILES IDX 64 99 61 100 57 101 58 102 59 103 60 104
REMARK H PARENT 20 6 98 19 6 27 25 38 84 57 52 68
REMARK Flexibility Score: inf
ROOT
ATOM      1  C   UNL A   1      32.814  28.900  27.254  1.00  0.00     0.023 C 
ENDROOT
BRANCH   1   2
ATOM      2  C   UNL A   1      31.958  28.390  26.084  1.00  0.00     0.116 C 
BRANCH   2   3
ATOM      3  N   UNL A   1      32.427  28.924  24.817  1.00  0.00    -0.352 N 
ATOM      4  C   UNL A   1      33.150  28.376  23.786  1.00  0.00     0.251 C 
ATOM      5  O   UNL A   1      33.416  29.099  22.825  1.00  0.00    -0.269 OA
ATOM      6  H   UNL A   1      32.178  29.864  24.668  1.00  0.00     0.163 HD
BRANCH   4   7
ATOM      7  C   UNL A   1      33.589  26.952  23.754  1.00  0.00     0.039 A 
ATOM      8  C   UNL A   1      34.263  24.216  23.544  1.00  0.00    -0.019 A 
ATOM      9  C   UNL A   1      33.974  24.957  22.393  1.00  0.00     0.007 A 
ATOM     10  C   UNL A   1      34.276  24.874  24.782  1.00  0.00     0.007 A 
ATOM     11  C   UNL A   1      33.630  26.310  22.503  1.00  0.00     0.014 A 
ATOM     12  C   UNL A   1      33.977  26.229  24.879  1.00  0.00     0.014 A 
BRANCH   8  13
ATOM     13  C   UNL A   1      34.545  22.724  23.528  1.00  0.00     0.179 C 
ATOM     14  C   UNL A   1      32.553  19.462  24.352  1.00  0.00     0.065 C 
ATOM     15  C   UNL A   1      33.462  20.661  24.423  1.00  0.00     0.026 C 
ATOM     16  C   UNL A   1      33.322  21.809  23.708  1.00  0.00     0.065 C 
ATOM     17  N   UNL A   1      34.586  20.458  25.218  1.00  0.00    -0.328 N 
ATOM     18  C   UNL A   1      35.647  21.280  25.239  1.00  0.00     0.226 A 
ATOM     19  H   UNL A   1      34.604  19.663  25.798  1.00  0.00     0.169 HD
ATOM     20  N   UNL A   1      35.644  22.385  24.440  1.00  0.00    -0.219 N 
ATOM     21  N   UNL A   1      36.785  21.200  25.879  1.00  0.00    -0.200 NA
ATOM     22  N   UNL A   1      36.842  23.003  24.464  1.00  0.00    -0.157 NA
ATOM     23  C   UNL A   1      37.482  22.273  25.383  1.00  0.00     0.248 A 
BRANCH  16  24
ATOM     24  C   UNL A   1      32.187  22.183  22.812  1.00  0.00     0.255 C 
ATOM     25  O   UNL A   1      32.080  21.608  21.725  1.00  0.00    -0.269 OA
ATOM     26  N   UNL A   1      31.232  23.109  23.120  1.00  0.00    -0.322 N 
ATOM     27  H   UNL A   1      30.653  23.366  22.366  1.00  0.00     0.170 HD
BRANCH  26  28
ATOM     28  C   UNL A   1      30.935  23.754  24.325  1.00  0.00     0.041 A 
ATOM     29  C   UNL A   1      30.492  25.078  24.211  1.00  0.00     0.026 A 
ATOM     30  C   UNL A   1      30.943  23.127  25.569  1.00  0.00     0.026 A 
ATOM     31  C   UNL A   1      29.904  25.716  25.302  1.00  0.00     0.002 A 
ATOM     32  C   UNL A   1      30.402  23.792  26.676  1.00  0.00     0.002 A 
ATOM     33  C   UNL A   1      29.846  25.066  26.532  1.00  0.00     0.000 A 
ENDBRANCH  26  28
ENDBRANCH  16  24
ENDBRANCH   8  13
ENDBRANCH   4   7
ENDBRANCH   2   3
ENDBRANCH   1   2
BRANCH   1  34
ATOM     34  C   UNL A   1      34.003  29.790  26.865  1.00  0.00     0.023 C 
BRANCH  34  35
ATOM     35  C   UNL A   1      35.333  29.393  27.490  1.00  0.00     0.116 C 
BRANCH  35  36
ATOM     36  N   UNL A   1      35.505  29.903  28.855  1.00  0.00    -0.352 N 
ATOM     37  C   UNL A   1      36.468  29.544  29.793  1.00  0.00     0.251 C 
ATOM     38  H   UNL A   1      34.858  30.586  29.144  1.00  0.00     0.163 HD
ATOM     39  O   UNL A   1      36.270  29.690  30.985  1.00  0.00    -0.269 OA
BRANCH  37  40
ATOM     40  C   UNL A   1      37.748  29.012  29.288  1.00  0.00     0.039 A 
ATOM     41  C   UNL A   1      38.376  29.473  28.128  1.00  0.00     0.014 A 
ATOM     42  C   UNL A   1      38.345  28.042  30.082  1.00  0.00     0.014 A 
ATOM     43  C   UNL A   1      39.650  28.987  27.824  1.00  0.00     0.010 A 
ATOM     44  C   UNL A   1      39.671  27.771  29.923  1.00  0.00     0.010 A 
ATOM     45  C   UNL A   1      40.292  28.138  28.740  1.00  0.00    -0.014 A 
BRANCH  45  46
ATOM     46  C   UNL A   1      41.661  27.667  28.579  1.00  0.00     0.031 A 
ATOM     47  C   UNL A   1      41.777  26.413  27.797  1.00  0.00     0.074 A 
ATOM     48  C   UNL A   1      42.724  28.460  28.855  1.00  0.00     0.049 A 
ATOM     49  N   UNL A   1      42.079  25.238  28.237  1.00  0.00    -0.248 NA
ATOM     50  C   UNL A   1      41.324  26.416  26.395  1.00  0.00     0.031 C 
ATOM     51  C   UNL A   1      42.730  29.852  29.329  1.00  0.00     0.029 A 
ATOM     52  N   UNL A   1      44.046  28.226  28.651  1.00  0.00    -0.354 N 
ATOM     53  C   UNL A   1      42.132  24.417  27.116  1.00  0.00     0.074 A 
ATOM     54  C   UNL A   1      41.415  25.120  26.088  1.00  0.00     0.031 C 
ATOM     55  C   UNL A   1      43.955  30.397  29.144  1.00  0.00     0.029 A 
ATOM     56  C   UNL A   1      44.864  29.354  28.708  1.00  0.00     0.049 A 
ATOM     57  H   UNL A   1      44.401  27.324  28.475  1.00  0.00     0.167 HD
ATOM     58  C   UNL A   1      43.005  23.373  27.057  1.00  0.00     0.034 A 
ATOM     59  C   UNL A   1      46.192  29.428  28.406  1.00  0.00     0.034 A 
ATOM     60  C   UNL A   1      43.552  23.091  28.370  1.00  0.00     0.049 A 
ATOM     61  C   UNL A   1      46.713  28.041  28.515  1.00  0.00     0.074 A 
ATOM     62  C   UNL A   1      43.003  22.764  29.596  1.00  0.00     0.029 A 
ATOM     63  N   UNL A   1      44.821  23.554  28.651  1.00  0.00    -0.354 N 
ATOM     64  N   UNL A   1      46.731  27.378  29.641  1.00  0.00    -0.248 NA
ATOM     65  C   UNL A   1      46.702  27.216  27.316  1.00  0.00     0.031 C 
ATOM     66  C   UNL A   1      43.744  23.534  30.543  1.00  0.00     0.029 A 
ATOM     67  C   UNL A   1      44.768  24.200  29.864  1.00  0.00     0.049 A 
ATOM     68  H   UNL A   1      45.619  23.441  28.087  1.00  0.00     0.167 HD
ATOM     69  C   UNL A   1      46.283  26.105  29.317  1.00  0.00     0.074 A 
ATOM     70  C   UNL A   1      46.370  26.038  27.856  1.00  0.00     0.031 C 
ATOM     71  C   UNL A   1      45.600  25.337  30.221  1.00  0.00     0.034 A 
BRANCH  58  72
ATOM     72  C   UNL A   1      43.669  22.859  25.796  1.00  0.00     0.023 A 
ATOM     73  C   UNL A   1      43.652  21.464  25.592  1.00  0.00     0.031 A 
ATOM     74  C   UNL A   1      44.537  23.588  24.951  1.00  0.00     0.131 A 
ATOM     75  C   UNL A   1      44.540  20.853  24.691  1.00  0.00     0.055 A 
ATOM     76  C   UNL A   1      45.369  22.979  24.007  1.00  0.00     0.041 A 
ATOM     77  F   UNL A   1      44.705  24.911  25.043  1.00  0.00    -0.206 F 
ATOM     78  C   UNL A   1      45.402  21.601  23.896  1.00  0.00     0.022 A 
BRANCH  75  79
ATOM     79  S   UNL A   1      44.676  19.048  24.717  1.00  0.00     0.124 S 
ATOM     80  O   UNL A   1      45.006  18.758  23.326  1.00  0.00    -0.237 OA
ATOM     81  O   UNL A   1      45.744  18.843  25.690  1.00  0.00    -0.237 OA
ATOM     82  O   UNL A   1      43.349  18.616  25.147  1.00  0.00    -0.744 OA
ENDBRANCH  75  79
ENDBRANCH  58  72
BRANCH  59  83
ATOM     83  C   UNL A   1      46.903  30.531  27.687  1.00  0.00     0.023 A 
ATOM     84  C   UNL A   1      46.244  31.605  27.045  1.00  0.00     0.031 A 
ATOM     85  C   UNL A   1      48.303  30.662  27.847  1.00  0.00     0.131 A 
ATOM     86  C   UNL A   1      46.979  32.735  26.597  1.00  0.00     0.055 A 
ATOM     87  C   UNL A   1      49.019  31.779  27.409  1.00  0.00     0.041 A 
ATOM     88  F   UNL A   1      49.012  29.739  28.516  1.00  0.00    -0.206 F 
ATOM     89  C   UNL A   1      48.359  32.825  26.790  1.00  0.00     0.022 A 
BRANCH  86  90
ATOM     90  S   UNL A   1      46.139  34.159  25.817  1.00  0.00     0.124 S 
ATOM     91  O   UNL A   1      45.105  33.513  25.017  1.00  0.00    -0.237 OA
ATOM     92  O   UNL A   1      45.682  34.926  26.970  1.00  0.00    -0.237 OA
ATOM     93  O   UNL A   1      47.201  34.802  25.040  1.00  0.00    -0.744 OA
ENDBRANCH  86  90
ENDBRANCH  59  83
BRANCH  71  94
ATOM     94  C   UNL A   1      45.547  25.803  31.668  1.00  0.00     0.023 A 
ATOM     95  C   UNL A   1      44.393  26.291  32.329  1.00  0.00     0.031 A 
ATOM     96  C   UNL A   1      46.705  25.621  32.443  1.00  0.00     0.131 A 
ATOM     97  C   UNL A   1      44.437  26.587  33.708  1.00  0.00     0.055 A 
ATOM     98  C   UNL A   1      46.739  25.892  33.810  1.00  0.00     0.041 A 
ATOM     99  F   UNL A   1      47.827  25.135  31.885  1.00  0.00    -0.206 F 
ATOM    100  C   UNL A   1      45.605  26.382  34.448  1.00  0.00     0.022 A 
BRANCH  97 101
ATOM    101  S   UNL A   1      42.978  27.264  34.572  1.00  0.00     0.124 S 
ATOM    102  O   UNL A   1      42.118  27.718  33.485  1.00  0.00    -0.237 OA
ATOM    103  O   UNL A   1      42.496  26.116  35.333  1.00  0.00    -0.237 OA
ATOM    104  O   UNL A   1      43.538  28.341  35.392  1.00  0.00    -0.744 OA
ENDBRANCH  97 101
ENDBRANCH  71  94
ENDBRANCH  45  46
ENDBRANCH  37  40
ENDBRANCH  35  36
ENDBRANCH  34  35
ENDBRANCH   1  34
TORSDOF 17
ENDMDL
MODEL 2
REMARK VINA RESULT:     -14.1      3.024      8.409
REMARK SMILES CC1=C(C(=O)Nc2ccccc2)[C@@H](c2ccc(C(=O)NCCCCNC(=O)c3ccc(-c4c5nc(c(-c6cc(S(=O)(=O)[O-])ccc6F)c6ccc([nH]6)c(-c6cc(S(=O)(=O)[O-])ccc6F)c6nc(c(-c7cc(S(=O)(=O)[O-])ccc7F)c7ccc4[nH]7)C=C6)C=C5)cc3)cc2)n2ncnc2N1
REMARK SMILES IDX 22 1 21 2 20 3 18 4 19 5 17 7 14 8 15 9 92 10 16 11 91 12
REMARK SMILES IDX 13 13 1 14 2 15 3 16 98 17 97 18 93 20 96 21 94 22 95 23
REMARK SMILES IDX 4 24 5 25 6 26 7 28 8 29 12 30 9 31 11 32 10 33 23 34 24 35
REMARK SMILES IDX 25 36 26 37 27 39 28 40 29 41 90 42 30 43 89 44 31 45 32 46
REMARK SMILES IDX 33 47 83 48 34 49 88 50 82 51 84 52 35 53 87 54 81 55 80 56
REMARK SMILES IDX 36 58 68 59 48 60 67 61 49 62 52 63 66 64 85 65 50 66 51 67
REMARK SMILES IDX 65 69 86 70 53 71 37 72 38 73 46 74 39 75 45 76 47 77 44 78
REMARK SMILES IDX 40 79 41 80 42 81 43 82 69 83 70 84 78 85 71 86 77 87 79 88
REMARK SMILES IDX 76 89 72 90 73 91 74 92 75 93 54 94 55 95 63 96 56 97 62 98
REMARK SMILES IDX 64 99 61 100 57 101 58 102 59 103 60 104
REMARK H PARENT 20 6 98 19 6 27 25 38 84 57 52 68
REMARK Flexibility Score: inf
ROOT
ATOM      1  C   UNL A   1      36.392  21.316  24.407  1.00  0.00     0.023 C 
ENDROOT
BRANCH   1   2
ATOM      2  C   UNL A   1      35.997  22.357  25.466  1.00  0.00     0.116 C 
BRANCH   2   3
ATOM      3  N   UNL A   1      35.180  21.761  26.510  1.00  0.00    -0.352 N 
ATOM      4  C   UNL A   1      34.015  22.157  27.121  1.00  0.00     0.251 C 
ATOM      5  O   UNL A   1      33.558  21.433  28.005  1.00  0.00    -0.269 OA
ATOM      6  H   UNL A   1      35.530  20.904  26.845  1.00  0.00     0.163 HD
BRANCH   4   7
ATOM      7  C   UNL A   1      33.264  23.387  26.742  1.00  0.00     0.039 A 
ATOM      8  C   UNL A   1      32.017  25.835  26.083  1.00  0.00    -0.019 A 
ATOM      9  C   UNL A   1      33.351  25.610  25.729  1.00  0.00     0.007 A 
ATOM     10  C   UNL A   1      31.302  24.801  26.704  1.00  0.00     0.007 A 
ATOM     11  C   UNL A   1      33.968  24.400  26.067  1.00  0.00     0.014 A 
ATOM     12  C   UNL A   1      31.909  23.583  26.998  1.00  0.00     0.014 A 
BRANCH   8  13
ATOM     13  C   UNL A   1      31.299  27.153  25.847  1.00  0.00     0.179 C 
ATOM     14  C   UNL A   1      29.562  28.924  22.826  1.00  0.00     0.065 C 
ATOM     15  C   UNL A   1      30.550  28.486  23.875  1.00  0.00     0.026 C 
ATOM     16  C   UNL A   1      30.558  27.281  24.506  1.00  0.00     0.065 C 
ATOM     17  N   UNL A   1      31.425  29.494  24.268  1.00  0.00    -0.328 N 
ATOM     18  C   UNL A   1      32.223  29.416  25.345  1.00  0.00     0.226 A 
ATOM     19  H   UNL A   1      31.461  30.313  23.724  1.00  0.00     0.169 HD
ATOM     20  N   UNL A   1      32.186  28.291  26.116  1.00  0.00    -0.219 N 
ATOM     21  N   UNL A   1      33.047  30.285  25.870  1.00  0.00    -0.200 NA
ATOM     22  N   UNL A   1      32.921  28.448  27.235  1.00  0.00    -0.157 NA
ATOM     23  C   UNL A   1      33.456  29.654  27.017  1.00  0.00     0.248 A 
BRANCH  16  24
ATOM     24  C   UNL A   1      29.691  26.101  24.213  1.00  0.00     0.255 C 
ATOM     25  O   UNL A   1      28.496  26.156  24.519  1.00  0.00    -0.269 OA
ATOM     26  N   UNL A   1      30.122  24.959  23.600  1.00  0.00    -0.322 N 
ATOM     27  H   UNL A   1      29.480  24.213  23.630  1.00  0.00     0.170 HD
BRANCH  26  28
ATOM     28  C   UNL A   1      31.319  24.670  22.938  1.00  0.00     0.041 A 
ATOM     29  C   UNL A   1      31.886  23.422  23.227  1.00  0.00     0.026 A 
ATOM     30  C   UNL A   1      31.882  25.479  21.954  1.00  0.00     0.026 A 
ATOM     31  C   UNL A   1      32.907  22.914  22.426  1.00  0.00     0.002 A 
ATOM     32  C   UNL A   1      32.946  24.988  21.187  1.00  0.00     0.002 A 
ATOM     33  C   UNL A   1      33.427  23.693  21.396  1.00  0.00     0.000 A 
ENDBRANCH  26  28
ENDBRANCH  16  24
ENDBRANCH   8  13
ENDBRANCH   4   7
ENDBRANCH   2   3
ENDBRANCH   1   2
BRANCH   1  34
ATOM     34  C   UNL A   1      37.295  20.177  24.904  1.00  0.00     0.023 C 
BRANCH  34  35
ATOM     35  C   UNL A   1      38.653  20.619  25.431  1.00  0.00     0.116 C 
BRANCH  35  36
ATOM     36  N   UNL A   1      39.552  19.497  25.724  1.00  0.00    -0.352 N 
ATOM     37  C   UNL A   1      40.919  19.534  25.983  1.00  0.00     0.251 C 
ATOM     38  H   UNL A   1      39.136  18.605  25.740  1.00  0.00     0.163 HD
ATOM     39  O   UNL A   1      41.623  18.561  25.787  1.00  0.00    -0.269 OA
BRANCH  37  40
ATOM     40  C   UNL A   1      41.476  20.784  26.534  1.00  0.00     0.039 A 
ATOM     41  C   UNL A   1      42.204  21.707  25.779  1.00  0.00     0.014 A 
ATOM     42  C   UNL A   1      41.177  21.034  27.866  1.00  0.00     0.014 A 
ATOM     43  C   UNL A   1      42.564  22.917  26.377  1.00  0.00     0.010 A 
ATOM     44  C   UNL A   1      41.303  22.300  28.355  1.00  0.00     0.010 A 
ATOM     45  C   UNL A   1      42.097  23.205  27.669  1.00  0.00    -0.014 A 
BRANCH  45  46
ATOM     46  C   UNL A   1      42.315  24.479  28.340  1.00  0.00     0.031 A 
ATOM     47  C   UNL A   1      41.243  25.476  28.101  1.00  0.00     0.074 A 
ATOM     48  C   UNL A   1      43.242  24.620  29.318  1.00  0.00     0.049 A 
ATOM     49  N   UNL A   1      41.311  26.545  27.382  1.00  0.00    -0.248 NA
ATOM     50  C   UNL A   1      39.877  25.159  28.556  1.00  0.00     0.031 C 
ATOM     51  C   UNL A   1      44.148  23.605  29.875  1.00  0.00     0.029 A 
ATOM     52  N   UNL A   1      43.490  25.689  30.118  1.00  0.00    -0.354 N 
ATOM     53  C   UNL A   1      40.082  27.178  27.532  1.00  0.00     0.074 A 
ATOM     54  C   UNL A   1      39.185  26.170  28.028  1.00  0.00     0.031 C 
ATOM     55  C   UNL A   1      44.656  24.035  31.053  1.00  0.00     0.029 A 
ATOM     56  C   UNL A   1      44.258  25.417  31.251  1.00  0.00     0.049 A 
ATOM     57  H   UNL A   1      43.153  26.591  29.914  1.00  0.00     0.167 HD
ATOM     58  C   UNL A   1      39.990  28.537  27.508  1.00  0.00     0.034 A 
ATOM     59  C   UNL A   1      44.536  26.263  32.284  1.00  0.00     0.034 A 
ATOM     60  C   UNL A   1      41.215  29.122  26.998  1.00  0.00     0.049 A 
ATOM     61  C   UNL A   1      44.329  27.636  31.754  1.00  0.00     0.074 A 
ATOM     62  C   UNL A   1      41.931  28.995  25.822  1.00  0.00     0.029 A 
ATOM     63  N   UNL A   1      42.107  29.645  27.912  1.00  0.00    -0.354 N 
ATOM     64  N   UNL A   1      45.056  28.140  30.791  1.00  0.00    -0.248 NA
ATOM     65  C   UNL A   1      43.008  28.228  31.901  1.00  0.00     0.031 C 
ATOM     66  C   UNL A   1      43.297  28.937  26.233  1.00  0.00     0.029 A 
ATOM     67  C   UNL A   1      43.351  29.140  27.615  1.00  0.00     0.049 A 
ATOM     68  H   UNL A   1      41.892  30.267  28.644  1.00  0.00     0.167 HD
ATOM     69  C   UNL A   1      44.151  28.768  29.948  1.00  0.00     0.074 A 
ATOM     70  C   UNL A   1      42.917  28.869  30.731  1.00  0.00     0.031 C 
ATOM     71  C   UNL A   1      44.383  28.873  28.603  1.00  0.00     0.034 A 
BRANCH  58  72
ATOM     72  C   UNL A   1      38.986  29.359  28.290  1.00  0.00     0.023 A 
ATOM     73  C   UNL A   1      39.152  29.403  29.689  1.00  0.00     0.031 A 
ATOM     74  C   UNL A   1      37.752  29.852  27.808  1.00  0.00     0.131 A 
ATOM     75  C   UNL A   1      38.100  29.796  30.532  1.00  0.00     0.055 A 
ATOM     76  C   UNL A   1      36.732  30.307  28.649  1.00  0.00     0.041 A 
ATOM     77  F   UNL A   1      37.416  29.840  26.514  1.00  0.00    -0.206 F 
ATOM     78  C   UNL A   1      36.887  30.247  30.023  1.00  0.00     0.022 A 
BRANCH  75  79
ATOM     79  S   UNL A   1      38.284  29.525  32.313  1.00  0.00     0.124 S 
ATOM     80  O   UNL A   1      39.569  28.836  32.373  1.00  0.00    -0.237 OA
ATOM     81  O   UNL A   1      38.260  30.889  32.827  1.00  0.00    -0.237 OA
ATOM     82  O   UNL A   1      37.121  28.709  32.652  1.00  0.00    -0.744 OA
ENDBRANCH  75  79
ENDBRANCH  58  72
BRANCH  59  83
ATOM     83  C   UNL A   1      44.593  25.933  33.742  1.00  0.00     0.023 A 
ATOM     84  C   UNL A   1      43.553  26.220  34.656  1.00  0.00     0.031 A 
ATOM     85  C   UNL A   1      45.619  25.078  34.210  1.00  0.00     0.131 A 
ATOM     86  C   UNL A   1      43.570  25.665  35.963  1.00  0.00     0.055 A 
ATOM     87  C   UNL A   1      45.628  24.531  35.496  1.00  0.00     0.041 A 
ATOM     88  F   UNL A   1      46.609  24.676  33.398  1.00  0.00    -0.206 F 
ATOM     89  C   UNL A   1      44.598  24.815  36.376  1.00  0.00     0.022 A 
BRANCH  86  90
ATOM     90  S   UNL A   1      42.207  25.976  37.140  1.00  0.00     0.124 S 
ATOM     91  O   UNL A   1      41.497  24.701  37.139  1.00  0.00    -0.237 OA
ATOM     92  O   UNL A   1      42.919  26.321  38.364  1.00  0.00    -0.237 OA
ATOM     93  O   UNL A   1      41.470  27.085  36.530  1.00  0.00    -0.744 OA
ENDBRANCH  86  90
ENDBRANCH  59  83
BRANCH  71  94
ATOM     94  C   UNL A   1      45.760  28.501  28.078  1.00  0.00     0.023 A 
ATOM     95  C   UNL A   1      46.136  27.224  27.595  1.00  0.00     0.031 A 
ATOM     96  C   UNL A   1      46.699  29.540  27.951  1.00  0.00     0.131 A 
ATOM     97  C   UNL A   1      47.412  27.027  27.024  1.00  0.00     0.055 A 
ATOM     98  C   UNL A   1      47.950  29.348  27.366  1.00  0.00     0.041 A 
ATOM     99  F   UNL A   1      46.398  30.783  28.363  1.00  0.00    -0.206 F 
ATOM    100  C   UNL A   1      48.314  28.089  26.905  1.00  0.00     0.022 A 
BRANCH  97 101
ATOM    101  S   UNL A   1      47.938  25.380  26.441  1.00  0.00     0.124 S 
ATOM    102  O   UNL A   1      47.126  25.165  25.249  1.00  0.00    -0.237 OA
ATOM    103  O   UNL A   1      49.369  25.563  26.216  1.00  0.00    -0.237 OA
ATOM    104  O   UNL A   1      47.610  24.500  27.565  1.00  0.00    -0.744 OA
ENDBRANCH  97 101
ENDBRANCH  71  94
ENDBRANCH  45  46
ENDBRANCH  37  40
ENDBRANCH  35  36
ENDBRANCH  34  35
ENDBRANCH   1  34
TORSDOF 17
ENDMDL
MODEL 3
REMARK VINA RESULT:     -13.8      2.212      6.694
REMARK SMILES CC1=C(C(=O)Nc2ccccc2)[C@@H](c2ccc(C(=O)NCCCCNC(=O)c3ccc(-c4c5nc(c(-c6cc(S(=O)(=O)[O-])ccc6F)c6ccc([nH]6)c(-c6cc(S(=O)(=O)[O-])ccc6F)c6nc(c(-c7cc(S(=O)(=O)[O-])ccc7F)c7ccc4[nH]7)C=C6)C=C5)cc3)cc2)n2ncnc2N1
REMARK SMILES IDX 22 1 21 2 20 3 18 4 19 5 17 7 14 8 15 9 92 10 16 11 91 12
REMARK SMILES IDX 13 13 1 14 2 15 3 16 98 17 97 18 93 20 96 21 94 22 95 23
REMARK SMILES IDX 4 24 5 25 6 26 7 28 8 29 12 30 9 31 11 32 10 33 23 34 24 35
REMARK SMILES IDX 25 36 26 37 27 39 28 40 29 41 90 42 30 43 89 44 31 45 32 46
REMARK SMILES IDX 33 47 83 48 34 49 88 50 82 51 84 52 35 53 87 54 81 55 80 56
REMARK SMILES IDX 36 58 68 59 48 60 67 61 49 62 52 63 66 64 85 65 50 66 51 67
REMARK SMILES IDX 65 69 86 70 53 71 37 72 38 73 46 74 39 75 45 76 47 77 44 78
REMARK SMILES IDX 40 79 41 80 42 81 43 82 69 83 70 84 78 85 71 86 77 87 79 88
REMARK SMILES IDX 76 89 72 90 73 91 74 92 75 93 54 94 55 95 63 96 56 97 62 98
REMARK SMILES IDX 64 99 61 100 57 101 58 102 59 103 60 104
REMARK H PARENT 20 6 98 19 6 27 25 38 84 57 52 68
REMARK Flexibility Score: inf
ROOT
ATOM      1  C   UNL A   1      32.541  28.890  27.035  1.00  0.00     0.023 C 
ENDROOT
BRANCH   1   2
ATOM      2  C   UNL A   1      31.696  28.435  25.835  1.00  0.00     0.116 C 
BRANCH   2   3
ATOM      3  N   UNL A   1      32.226  28.960  24.589  1.00  0.00    -0.352 N 
ATOM      4  C   UNL A   1      33.014  28.412  23.607  1.00  0.00     0.251 C 
ATOM      5  O   UNL A   1      33.320  29.127  22.653  1.00  0.00    -0.269 OA
ATOM      6  H   UNL A   1      31.969  29.894  24.413  1.00  0.00     0.163 HD
BRANCH   4   7
ATOM      7  C   UNL A   1      33.479  26.996  23.619  1.00  0.00     0.039 A 
ATOM      8  C   UNL A   1      34.197  24.266  23.498  1.00  0.00    -0.019 A 
ATOM      9  C   UNL A   1      33.870  24.958  22.327  1.00  0.00     0.007 A 
ATOM     10  C   UNL A   1      34.225  24.971  24.710  1.00  0.00     0.007 A 
ATOM     11  C   UNL A   1      33.504  26.308  22.394  1.00  0.00     0.014 A 
ATOM     12  C   UNL A   1      33.903  26.324  24.762  1.00  0.00     0.014 A 
BRANCH   8  13
ATOM     13  C   UNL A   1      34.506  22.780  23.533  1.00  0.00     0.179 C 
ATOM     14  C   UNL A   1      32.565  19.510  24.441  1.00  0.00     0.065 C 
ATOM     15  C   UNL A   1      33.451  20.727  24.484  1.00  0.00     0.026 C 
ATOM     16  C   UNL A   1      33.298  21.849  23.730  1.00  0.00     0.065 C 
ATOM     17  N   UNL A   1      34.571  20.569  25.294  1.00  0.00    -0.328 N 
ATOM     18  C   UNL A   1      35.616  21.411  25.300  1.00  0.00     0.226 A 
ATOM     19  H   UNL A   1      34.598  19.794  25.900  1.00  0.00     0.169 HD
ATOM     20  N   UNL A   1      35.602  22.490  24.465  1.00  0.00    -0.219 N 
ATOM     21  N   UNL A   1      36.749  21.372  25.953  1.00  0.00    -0.200 NA
ATOM     22  N   UNL A   1      36.788  23.131  24.482  1.00  0.00    -0.157 NA
ATOM     23  C   UNL A   1      37.432  22.441  25.429  1.00  0.00     0.248 A 
BRANCH  16  24
ATOM     24  C   UNL A   1      32.166  22.173  22.812  1.00  0.00     0.255 C 
ATOM     25  O   UNL A   1      32.075  21.556  21.747  1.00  0.00    -0.269 OA
ATOM     26  N   UNL A   1      31.196  23.097  23.078  1.00  0.00    -0.322 N 
ATOM     27  H   UNL A   1      30.621  23.318  22.309  1.00  0.00     0.170 HD
BRANCH  26  28
ATOM     28  C   UNL A   1      30.881  23.783  24.255  1.00  0.00     0.041 A 
ATOM     29  C   UNL A   1      30.439  25.102  24.088  1.00  0.00     0.026 A 
ATOM     30  C   UNL A   1      30.871  23.200  25.519  1.00  0.00     0.026 A 
ATOM     31  C   UNL A   1      29.834  25.777  25.147  1.00  0.00     0.002 A 
ATOM     32  C   UNL A   1      30.313  23.903  26.595  1.00  0.00     0.002 A 
ATOM     33  C   UNL A   1      29.759  25.170  26.398  1.00  0.00     0.000 A 
ENDBRANCH  26  28
ENDBRANCH  16  24
ENDBRANCH   8  13
ENDBRANCH   4   7
ENDBRANCH   2   3
ENDBRANCH   1   2
BRANCH   1  34
ATOM     34  C   UNL A   1      33.222  30.258  26.883  1.00  0.00     0.023 C 
BRANCH  34  35
ATOM     35  C   UNL A   1      34.356  30.523  27.864  1.00  0.00     0.116 C 
BRANCH  35  36
ATOM     36  N   UNL A   1      35.057  31.787  27.610  1.00  0.00    -0.352 N 
ATOM     37  C   UNL A   1      36.255  32.232  28.159  1.00  0.00     0.251 C 
ATOM     38  H   UNL A   1      34.624  32.397  26.970  1.00  0.00     0.163 HD
ATOM     39  O   UNL A   1      36.515  33.419  28.221  1.00  0.00    -0.269 OA
BRANCH  37  40
ATOM     40  C   UNL A   1      37.210  31.212  28.632  1.00  0.00     0.039 A 
ATOM     41  C   UNL A   1      37.083  29.847  28.362  1.00  0.00     0.014 A 
ATOM     42  C   UNL A   1      38.308  31.700  29.328  1.00  0.00     0.014 A 
ATOM     43  C   UNL A   1      38.121  28.995  28.747  1.00  0.00     0.010 A 
ATOM     44  C   UNL A   1      39.414  30.917  29.467  1.00  0.00     0.010 A 
ATOM     45  C   UNL A   1      39.290  29.548  29.294  1.00  0.00    -0.014 A 
BRANCH  45  46
ATOM     46  C   UNL A   1      40.474  28.766  29.623  1.00  0.00     0.031 A 
ATOM     47  C   UNL A   1      40.695  28.591  31.078  1.00  0.00     0.074 A 
ATOM     48  C   UNL A   1      41.121  28.027  28.689  1.00  0.00     0.049 A 
ATOM     49  N   UNL A   1      41.611  29.138  31.805  1.00  0.00    -0.248 NA
ATOM     50  C   UNL A   1      39.672  27.877  31.863  1.00  0.00     0.031 C 
ATOM     51  C   UNL A   1      40.794  27.859  27.265  1.00  0.00     0.029 A 
ATOM     52  N   UNL A   1      42.153  27.158  28.846  1.00  0.00    -0.354 N 
ATOM     53  C   UNL A   1      41.448  28.607  33.080  1.00  0.00     0.074 A 
ATOM     54  C   UNL A   1      40.115  28.068  33.106  1.00  0.00     0.031 C 
ATOM     55  C   UNL A   1      41.447  26.785  26.765  1.00  0.00     0.029 A 
ATOM     56  C   UNL A   1      42.370  26.294  27.772  1.00  0.00     0.049 A 
ATOM     57  H   UNL A   1      42.708  27.139  29.659  1.00  0.00     0.167 HD
ATOM     58  C   UNL A   1      42.521  28.405  33.894  1.00  0.00     0.034 A 
ATOM     59  C   UNL A   1      43.237  25.243  27.719  1.00  0.00     0.034 A 
ATOM     60  C   UNL A   1      43.687  29.099  33.381  1.00  0.00     0.049 A 
ATOM     61  C   UNL A   1      44.252  25.498  28.774  1.00  0.00     0.074 A 
ATOM     62  C   UNL A   1      43.971  30.417  33.076  1.00  0.00     0.029 A 
ATOM     63  N   UNL A   1      44.629  28.356  32.701  1.00  0.00    -0.354 N 
ATOM     64  N   UNL A   1      45.067  26.519  28.740  1.00  0.00    -0.248 NA
ATOM     65  C   UNL A   1      44.002  24.953  30.101  1.00  0.00     0.031 C 
ATOM     66  C   UNL A   1      44.694  30.357  31.846  1.00  0.00     0.029 A 
ATOM     67  C   UNL A   1      44.906  29.013  31.525  1.00  0.00     0.049 A 
ATOM     68  H   UNL A   1      45.032  27.510  33.003  1.00  0.00     0.167 HD
ATOM     69  C   UNL A   1      45.071  27.020  30.034  1.00  0.00     0.074 A 
ATOM     70  C   UNL A   1      44.471  25.959  30.848  1.00  0.00     0.031 C 
ATOM     71  C   UNL A   1      45.274  28.349  30.285  1.00  0.00     0.034 A 
BRANCH  58  72
ATOM     72  C   UNL A   1      42.646  27.293  34.915  1.00  0.00     0.023 A 
ATOM     73  C   UNL A   1      43.443  26.187  34.556  1.00  0.00     0.031 A 
ATOM     74  C   UNL A   1      41.838  27.115  36.061  1.00  0.00     0.131 A 
ATOM     75  C   UNL A   1      43.328  24.961  35.232  1.00  0.00     0.055 A 
ATOM     76  C   UNL A   1      41.779  25.912  36.772  1.00  0.00     0.041 A 
ATOM     77  F   UNL A   1      40.991  28.047  36.510  1.00  0.00    -0.206 F 
ATOM     78  C   UNL A   1      42.499  24.814  36.338  1.00  0.00     0.022 A 
BRANCH  75  79
ATOM     79  S   UNL A   1      44.143  23.512  34.517  1.00  0.00     0.124 S 
ATOM     80  O   UNL A   1      43.079  22.956  33.688  1.00  0.00    -0.237 OA
ATOM     81  O   UNL A   1      45.264  24.119  33.807  1.00  0.00    -0.237 OA
ATOM     82  O   UNL A   1      44.504  22.715  35.687  1.00  0.00    -0.744 OA
ENDBRANCH  75  79
ENDBRANCH  58  72
BRANCH  59  83
ATOM     83  C   UNL A   1      43.010  23.907  27.086  1.00  0.00     0.023 A 
ATOM     84  C   UNL A   1      43.882  23.329  26.134  1.00  0.00     0.031 A 
ATOM     85  C   UNL A   1      42.017  23.054  27.622  1.00  0.00     0.131 A 
ATOM     86  C   UNL A   1      43.738  21.967  25.759  1.00  0.00     0.055 A 
ATOM     87  C   UNL A   1      41.883  21.713  27.253  1.00  0.00     0.041 A 
ATOM     88  F   UNL A   1      41.191  23.478  28.593  1.00  0.00    -0.206 F 
ATOM     89  C   UNL A   1      42.749  21.160  26.327  1.00  0.00     0.022 A 
BRANCH  86  90
ATOM     90  S   UNL A   1      44.890  21.185  24.575  1.00  0.00     0.124 S 
ATOM     91  O   UNL A   1      44.722  22.011  23.384  1.00  0.00    -0.237 OA
ATOM     92  O   UNL A   1      46.171  21.292  25.263  1.00  0.00    -0.237 OA
ATOM     93  O   UNL A   1      44.379  19.819  24.447  1.00  0.00    -0.744 OA
ENDBRANCH  86  90
ENDBRANCH  59  83
BRANCH  71  94
ATOM     94  C   UNL A   1      45.733  29.237  29.139  1.00  0.00     0.023 A 
ATOM     95  C   UNL A   1      44.897  30.085  28.373  1.00  0.00     0.031 A 
ATOM     96  C   UNL A   1      47.117  29.310  28.900  1.00  0.00     0.131 A 
ATOM     97  C   UNL A   1      45.455  30.951  27.408  1.00  0.00     0.055 A 
ATOM     98  C   UNL A   1      47.668  30.182  27.962  1.00  0.00     0.041 A 
ATOM     99  F   UNL A   1      47.969  28.553  29.610  1.00  0.00    -0.206 F 
ATOM    100  C   UNL A   1      46.838  31.003  27.207  1.00  0.00     0.022 A 
BRANCH  97 101
ATOM    101  S   UNL A   1      44.394  32.017  26.374  1.00  0.00     0.124 S 
ATOM    102  O   UNL A   1      43.328  31.121  25.940  1.00  0.00    -0.237 OA
ATOM    103  O   UNL A   1      44.002  33.073  27.303  1.00  0.00    -0.237 OA
ATOM    104  O   UNL A   1      45.291  32.456  25.303  1.00  0.00    -0.744 OA
ENDBRANCH  97 101
ENDBRANCH  71  94
ENDBRANCH  45  46
ENDBRANCH  37  40
ENDBRANCH  35  36
ENDBRANCH  34  35
ENDBRANCH   1  34
TORSDOF 17
ENDMDL
