MODEL 1
REMARK VINA RESULT:     -12.9      0.000      0.000
REMARK SMILES Cc1ccc(Nc2c(Cl)cccc2Cl)c(CC(=O)NCCCCNC(=O)c2ccc(-c3c4nc(c(-c5cc(S(=O)(=O)[O-])ccc5F)c5ccc([nH]5)c(-c5cc(S(=O)(=O)[O-])ccc5F)c5nc(c(-c6cc(S(=O)(=O)[O-])ccc6F)c6ccc3[nH]6)C=C5)C=C4)cc2)c1
REMARK SMILES IDX 21 1 20 2 19 3 17 4 18 5 16 7 15 8 1 9 2 10 3 11 90 12 4 13
REMARK SMILES IDX 5 14 6 15 7 17 8 18 13 19 9 20 10 21 12 22 14 23 11 24 22 25
REMARK SMILES IDX 23 26 24 27 25 28 26 30 27 31 28 32 89 33 29 34 88 35 30 36
REMARK SMILES IDX 31 37 32 38 82 39 33 40 87 41 81 42 83 43 34 44 86 45 80 46
REMARK SMILES IDX 79 47 35 49 67 50 47 51 66 52 48 53 51 54 65 55 84 56 49 57
REMARK SMILES IDX 50 58 64 60 85 61 52 62 36 63 37 64 45 65 38 66 44 67 46 68
REMARK SMILES IDX 43 69 39 70 40 71 41 72 42 73 68 74 69 75 77 76 70 77 76 78
REMARK SMILES IDX 78 79 75 80 71 81 72 82 73 83 74 84 53 85 54 86 62 87 55 88
REMARK SMILES IDX 61 89 63 90 60 91 56 92 57 93 58 94 59 95
REMARK H PARENT 19 6 6 16 24 29 83 48 51 59
REMARK Flexibility Score: inf
ROOT
ATOM      1  C   UNL A   1      32.145  29.620  26.830  1.00  0.00     0.023 C 
ENDROOT
BRANCH   1   2
ATOM      2  C   UNL A   1      32.649  28.217  27.208  1.00  0.00     0.116 C 
BRANCH   2   3
ATOM      3  N   UNL A   1      31.642  27.179  26.999  1.00  0.00    -0.356 N 
ATOM      4  C   UNL A   1      31.784  25.923  26.490  1.00  0.00     0.224 C 
ATOM      5  O   UNL A   1      30.770  25.249  26.277  1.00  0.00    -0.275 OA
ATOM      6  H   UNL A   1      30.726  27.423  27.265  1.00  0.00     0.163 HD
BRANCH   4   7
ATOM      7  C   UNL A   1      33.152  25.360  26.154  1.00  0.00     0.137 C 
BRANCH   7   8
ATOM      8  C   UNL A   1      33.249  24.833  24.739  1.00  0.00    -0.015 A 
ATOM      9  C   UNL A   1      31.860  25.987  21.375  1.00  0.00     0.044 C 
ATOM     10  C   UNL A   1      32.587  25.178  22.408  1.00  0.00    -0.051 A 
ATOM     11  C   UNL A   1      33.074  23.910  22.102  1.00  0.00     0.005 A 
ATOM     12  C   UNL A   1      32.710  25.644  23.717  1.00  0.00     0.009 A 
ATOM     13  C   UNL A   1      33.663  23.118  23.095  1.00  0.00     0.026 A 
ATOM     14  C   UNL A   1      33.752  23.549  24.430  1.00  0.00     0.042 A 
BRANCH  14  15
ATOM     15  N   UNL A   1      34.345  22.734  25.426  1.00  0.00    -0.353 N 
ATOM     16  H   UNL A   1      33.896  22.743  26.302  1.00  0.00     0.167 HD
BRANCH  15  17
ATOM     17  C   UNL A   1      35.493  21.907  25.338  1.00  0.00     0.076 A 
ATOM     18  C   UNL A   1      36.806  22.395  25.489  1.00  0.00     0.066 A 
ATOM     19  C   UNL A   1      35.347  20.544  25.000  1.00  0.00     0.066 A 
ATOM     20  Cl  UNL A   1      37.137  24.013  26.016  1.00  0.00    -0.082 Cl
ATOM     21  C   UNL A   1      37.917  21.565  25.279  1.00  0.00     0.023 A 
ATOM     22  C   UNL A   1      36.457  19.715  24.799  1.00  0.00     0.023 A 
ATOM     23  Cl  UNL A   1      33.781  19.835  24.787  1.00  0.00    -0.082 Cl
ATOM     24  C   UNL A   1      37.743  20.229  24.929  1.00  0.00     0.003 A 
ENDBRANCH  15  17
ENDBRANCH  14  15
ENDBRANCH   7   8
ENDBRANCH   4   7
ENDBRANCH   2   3
ENDBRANCH   1   2
BRANCH   1  25
ATOM     25  C   UNL A   1      33.053  30.781  27.233  1.00  0.00     0.023 C 
BRANCH  25  26
ATOM     26  C   UNL A   1      34.466  30.353  27.597  1.00  0.00     0.116 C 
BRANCH  26  27
ATOM     27  N   UNL A   1      35.218  31.325  28.382  1.00  0.00    -0.352 N 
ATOM     28  C   UNL A   1      36.424  31.135  29.040  1.00  0.00     0.251 C 
ATOM     29  H   UNL A   1      34.823  32.223  28.452  1.00  0.00     0.163 HD
ATOM     30  O   UNL A   1      36.925  32.000  29.741  1.00  0.00    -0.269 OA
BRANCH  28  31
ATOM     31  C   UNL A   1      37.170  29.883  28.765  1.00  0.00     0.039 A 
ATOM     32  C   UNL A   1      37.352  29.008  29.842  1.00  0.00     0.014 A 
ATOM     33  C   UNL A   1      37.904  29.728  27.591  1.00  0.00     0.014 A 
ATOM     34  C   UNL A   1      38.437  28.138  29.835  1.00  0.00     0.010 A 
ATOM     35  C   UNL A   1      39.033  28.926  27.620  1.00  0.00     0.010 A 
ATOM     36  C   UNL A   1      39.340  28.194  28.774  1.00  0.00    -0.014 A 
BRANCH  36  37
ATOM     37  C   UNL A   1      40.697  27.663  28.870  1.00  0.00     0.031 A 
ATOM     38  C   UNL A   1      40.989  26.250  28.559  1.00  0.00     0.074 A 
ATOM     39  C   UNL A   1      41.714  28.474  29.241  1.00  0.00     0.049 A 
ATOM     40  N   UNL A   1      42.070  25.645  28.923  1.00  0.00    -0.248 NA
ATOM     41  C   UNL A   1      40.037  25.364  27.895  1.00  0.00     0.031 C 
ATOM     42  C   UNL A   1      43.148  28.205  29.160  1.00  0.00     0.029 A 
ATOM     43  N   UNL A   1      41.621  29.590  30.075  1.00  0.00    -0.354 N 
ATOM     44  C   UNL A   1      42.106  24.436  28.281  1.00  0.00     0.074 A 
ATOM     45  C   UNL A   1      40.763  24.245  27.795  1.00  0.00     0.031 C 
ATOM     46  C   UNL A   1      43.774  28.909  30.114  1.00  0.00     0.029 A 
ATOM     47  C   UNL A   1      42.754  29.559  30.914  1.00  0.00     0.049 A 
ATOM     48  H   UNL A   1      40.904  30.266  30.076  1.00  0.00     0.167 HD
ATOM     49  C   UNL A   1      43.308  23.819  28.114  1.00  0.00     0.034 A 
ATOM     50  C   UNL A   1      42.620  29.473  32.269  1.00  0.00     0.034 A 
ATOM     51  C   UNL A   1      44.321  24.348  29.040  1.00  0.00     0.049 A 
ATOM     52  C   UNL A   1      43.257  28.239  32.882  1.00  0.00     0.074 A 
ATOM     53  C   UNL A   1      45.514  25.041  28.924  1.00  0.00     0.029 A 
ATOM     54  N   UNL A   1      44.030  24.333  30.399  1.00  0.00    -0.354 N 
ATOM     55  N   UNL A   1      43.899  27.322  32.209  1.00  0.00    -0.248 NA
ATOM     56  C   UNL A   1      43.132  27.895  34.298  1.00  0.00     0.031 C 
ATOM     57  C   UNL A   1      45.906  25.475  30.232  1.00  0.00     0.029 A 
ATOM     58  C   UNL A   1      44.973  25.014  31.143  1.00  0.00     0.049 A 
ATOM     59  H   UNL A   1      43.243  23.888  30.787  1.00  0.00     0.167 HD
ATOM     60  C   UNL A   1      44.195  26.267  33.036  1.00  0.00     0.074 A 
ATOM     61  C   UNL A   1      43.698  26.677  34.337  1.00  0.00     0.031 C 
ATOM     62  C   UNL A   1      44.774  25.112  32.585  1.00  0.00     0.034 A 
BRANCH  49  63
ATOM     63  C   UNL A   1      43.617  22.821  27.008  1.00  0.00     0.023 A 
ATOM     64  C   UNL A   1      42.927  21.589  26.981  1.00  0.00     0.031 A 
ATOM     65  C   UNL A   1      44.652  22.941  26.050  1.00  0.00     0.131 A 
ATOM     66  C   UNL A   1      43.269  20.573  26.061  1.00  0.00     0.055 A 
ATOM     67  C   UNL A   1      44.944  21.959  25.095  1.00  0.00     0.041 A 
ATOM     68  F   UNL A   1      45.499  23.975  26.017  1.00  0.00    -0.206 F 
ATOM     69  C   UNL A   1      44.258  20.762  25.101  1.00  0.00     0.022 A 
BRANCH  66  70
ATOM     70  S   UNL A   1      42.479  18.945  26.192  1.00  0.00     0.124 S 
ATOM     71  O   UNL A   1      42.607  18.655  27.615  1.00  0.00    -0.237 OA
ATOM     72  O   UNL A   1      41.131  19.214  25.701  1.00  0.00    -0.237 OA
ATOM     73  O   UNL A   1      43.294  18.100  25.319  1.00  0.00    -0.744 OA
ENDBRANCH  66  70
ENDBRANCH  49  63
BRANCH  50  74
ATOM     74  C   UNL A   1      41.411  30.196  32.768  1.00  0.00     0.023 A 
ATOM     75  C   UNL A   1      41.480  31.609  32.769  1.00  0.00     0.031 A 
ATOM     76  C   UNL A   1      40.144  29.606  32.838  1.00  0.00     0.131 A 
ATOM     77  C   UNL A   1      40.317  32.374  32.626  1.00  0.00     0.055 A 
ATOM     78  C   UNL A   1      38.978  30.383  32.805  1.00  0.00     0.041 A 
ATOM     79  F   UNL A   1      40.004  28.273  32.805  1.00  0.00    -0.206 F 
ATOM     80  C   UNL A   1      39.061  31.768  32.643  1.00  0.00     0.022 A 
BRANCH  77  81
ATOM     81  S   UNL A   1      40.486  34.104  32.081  1.00  0.00     0.124 S 
ATOM     82  O   UNL A   1      40.832  34.786  33.323  1.00  0.00    -0.237 OA
ATOM     83  O   UNL A   1      41.548  34.029  31.079  1.00  0.00    -0.237 OA
ATOM     84  O   UNL A   1      39.169  34.417  31.532  1.00  0.00    -0.744 OA
ENDBRANCH  77  81
ENDBRANCH  50  74
BRANCH  62  85
ATOM     85  C   UNL A   1      45.131  23.945  33.484  1.00  0.00     0.023 A 
ATOM     86  C   UNL A   1      46.448  23.690  33.905  1.00  0.00     0.031 A 
ATOM     87  C   UNL A   1      44.160  23.003  33.898  1.00  0.00     0.131 A 
ATOM     88  C   UNL A   1      46.740  22.619  34.771  1.00  0.00     0.055 A 
ATOM     89  C   UNL A   1      44.466  21.893  34.693  1.00  0.00     0.041 A 
ATOM     90  F   UNL A   1      42.866  23.134  33.578  1.00  0.00    -0.206 F 
ATOM     91  C   UNL A   1      45.760  21.706  35.152  1.00  0.00     0.022 A 
BRANCH  88  92
ATOM     92  S   UNL A   1      48.415  22.482  35.449  1.00  0.00     0.124 S 
ATOM     93  O   UNL A   1      49.250  22.839  34.307  1.00  0.00    -0.237 OA
ATOM     94  O   UNL A   1      48.375  23.458  36.535  1.00  0.00    -0.237 OA
ATOM     95  O   UNL A   1      48.504  21.086  35.873  1.00  0.00    -0.744 OA
ENDBRANCH  88  92
ENDBRANCH  62  85
ENDBRANCH  36  37
ENDBRANCH  28  31
ENDBRANCH  26  27
ENDBRANCH  25  26
ENDBRANCH   1  25
TORSDOF 17
ENDMDL
MODEL 2
REMARK VINA RESULT:     -12.4      1.397      2.789
REMARK SMILES Cc1ccc(Nc2c(Cl)cccc2Cl)c(CC(=O)NCCCCNC(=O)c2ccc(-c3c4nc(c(-c5cc(S(=O)(=O)[O-])ccc5F)c5ccc([nH]5)c(-c5cc(S(=O)(=O)[O-])ccc5F)c5nc(c(-c6cc(S(=O)(=O)[O-])ccc6F)c6ccc3[nH]6)C=C5)C=C4)cc2)c1
REMARK SMILES IDX 21 1 20 2 19 3 17 4 18 5 16 7 15 8 1 9 2 10 3 11 90 12 4 13
REMARK SMILES IDX 5 14 6 15 7 17 8 18 13 19 9 20 10 21 12 22 14 23 11 24 22 25
REMARK SMILES IDX 23 26 24 27 25 28 26 30 27 31 28 32 89 33 29 34 88 35 30 36
REMARK SMILES IDX 31 37 32 38 82 39 33 40 87 41 81 42 83 43 34 44 86 45 80 46
REMARK SMILES IDX 79 47 35 49 67 50 47 51 66 52 48 53 51 54 65 55 84 56 49 57
REMARK SMILES IDX 50 58 64 60 85 61 52 62 36 63 37 64 45 65 38 66 44 67 46 68
REMARK SMILES IDX 43 69 39 70 40 71 41 72 42 73 68 74 69 75 77 76 70 77 76 78
REMARK SMILES IDX 78 79 75 80 71 81 72 82 73 83 74 84 53 85 54 86 62 87 55 88
REMARK SMILES IDX 61 89 63 90 60 91 56 92 57 93 58 94 59 95
REMARK H PARENT 19 6 6 16 24 29 83 48 51 59
REMARK Flexibility Score: inf
ROOT
ATOM      1  C   UNL A   1      32.207  29.833  26.923  1.00  0.00     0.023 C 
ENDROOT
BRANCH   1   2
ATOM      2  C   UNL A   1      32.517  28.589  27.774  1.00  0.00     0.116 C 
BRANCH   2   3
ATOM      3  N   UNL A   1      31.663  27.450  27.443  1.00  0.00    -0.356 N 
ATOM      4  C   UNL A   1      31.909  26.394  26.619  1.00  0.00     0.224 C 
ATOM      5  O   UNL A   1      30.992  25.601  26.378  1.00  0.00    -0.275 OA
ATOM      6  H   UNL A   1      30.781  27.446  27.880  1.00  0.00     0.163 HD
BRANCH   4   7
ATOM      7  C   UNL A   1      33.269  26.197  25.975  1.00  0.00     0.137 C 
BRANCH   7   8
ATOM      8  C   UNL A   1      33.450  24.821  25.372  1.00  0.00    -0.015 A 
ATOM      9  C   UNL A   1      34.380  21.401  26.792  1.00  0.00     0.044 C 
ATOM     10  C   UNL A   1      34.005  22.480  25.818  1.00  0.00    -0.051 A 
ATOM     11  C   UNL A   1      34.088  22.257  24.446  1.00  0.00     0.005 A 
ATOM     12  C   UNL A   1      33.652  23.752  26.271  1.00  0.00     0.009 A 
ATOM     13  C   UNL A   1      33.834  23.297  23.544  1.00  0.00     0.026 A 
ATOM     14  C   UNL A   1      33.525  24.597  23.979  1.00  0.00     0.042 A 
BRANCH  14  15
ATOM     15  N   UNL A   1      33.276  25.641  23.053  1.00  0.00    -0.353 N 
ATOM     16  H   UNL A   1      33.910  25.698  22.302  1.00  0.00     0.167 HD
BRANCH  15  17
ATOM     17  C   UNL A   1      32.244  26.613  23.057  1.00  0.00     0.076 A 
ATOM     18  C   UNL A   1      32.494  27.999  23.080  1.00  0.00     0.066 A 
ATOM     19  C   UNL A   1      30.897  26.199  23.129  1.00  0.00     0.066 A 
ATOM     20  Cl  UNL A   1      34.087  28.656  22.880  1.00  0.00    -0.082 Cl
ATOM     21  C   UNL A   1      31.446  28.923  23.201  1.00  0.00     0.023 A 
ATOM     22  C   UNL A   1      29.851  27.123  23.242  1.00  0.00     0.023 A 
ATOM     23  Cl  UNL A   1      30.470  24.521  23.112  1.00  0.00    -0.082 Cl
ATOM     24  C   UNL A   1      30.127  28.486  23.288  1.00  0.00     0.003 A 
ENDBRANCH  15  17
ENDBRANCH  14  15
ENDBRANCH   7   8
ENDBRANCH   4   7
ENDBRANCH   2   3
ENDBRANCH   1   2
BRANCH   1  25
ATOM     25  C   UNL A   1      33.067  31.063  27.209  1.00  0.00     0.023 C 
BRANCH  25  26
ATOM     26  C   UNL A   1      34.522  30.735  27.504  1.00  0.00     0.116 C 
BRANCH  26  27
ATOM     27  N   UNL A   1      35.135  31.550  28.546  1.00  0.00    -0.352 N 
ATOM     28  C   UNL A   1      36.196  31.214  29.374  1.00  0.00     0.251 C 
ATOM     29  H   UNL A   1      34.750  32.446  28.678  1.00  0.00     0.163 HD
ATOM     30  O   UNL A   1      36.575  31.946  30.274  1.00  0.00    -0.269 OA
BRANCH  28  31
ATOM     31  C   UNL A   1      36.957  29.981  29.055  1.00  0.00     0.039 A 
ATOM     32  C   UNL A   1      37.170  29.082  30.105  1.00  0.00     0.014 A 
ATOM     33  C   UNL A   1      37.673  29.868  27.865  1.00  0.00     0.014 A 
ATOM     34  C   UNL A   1      38.268  28.230  30.058  1.00  0.00     0.010 A 
ATOM     35  C   UNL A   1      38.814  29.085  27.854  1.00  0.00     0.010 A 
ATOM     36  C   UNL A   1      39.152  28.328  28.983  1.00  0.00    -0.014 A 
BRANCH  36  37
ATOM     37  C   UNL A   1      40.519  27.816  29.043  1.00  0.00     0.031 A 
ATOM     38  C   UNL A   1      40.828  26.418  28.686  1.00  0.00     0.074 A 
ATOM     39  C   UNL A   1      41.529  28.632  29.424  1.00  0.00     0.049 A 
ATOM     40  N   UNL A   1      41.924  25.821  29.015  1.00  0.00    -0.248 NA
ATOM     41  C   UNL A   1      39.881  25.537  28.009  1.00  0.00     0.031 C 
ATOM     42  C   UNL A   1      42.965  28.389  29.314  1.00  0.00     0.029 A 
ATOM     43  N   UNL A   1      41.430  29.720  30.293  1.00  0.00    -0.354 N 
ATOM     44  C   UNL A   1      41.969  24.632  28.336  1.00  0.00     0.074 A 
ATOM     45  C   UNL A   1      40.622  24.434  27.864  1.00  0.00     0.031 C 
ATOM     46  C   UNL A   1      43.594  29.074  30.280  1.00  0.00     0.029 A 
ATOM     47  C   UNL A   1      42.577  29.682  31.114  1.00  0.00     0.049 A 
ATOM     48  H   UNL A   1      40.703  30.384  30.325  1.00  0.00     0.167 HD
ATOM     49  C   UNL A   1      43.179  24.039  28.133  1.00  0.00     0.034 A 
ATOM     50  C   UNL A   1      42.464  29.553  32.468  1.00  0.00     0.034 A 
ATOM     51  C   UNL A   1      44.196  24.557  29.059  1.00  0.00     0.049 A 
ATOM     52  C   UNL A   1      43.130  28.312  33.033  1.00  0.00     0.074 A 
ATOM     53  C   UNL A   1      45.377  25.273  28.947  1.00  0.00     0.029 A 
ATOM     54  N   UNL A   1      43.927  24.496  30.421  1.00  0.00    -0.354 N 
ATOM     55  N   UNL A   1      43.776  27.427  32.324  1.00  0.00    -0.248 NA
ATOM     56  C   UNL A   1      43.032  27.924  34.440  1.00  0.00     0.031 C 
ATOM     57  C   UNL A   1      45.782  25.673  30.262  1.00  0.00     0.029 A 
ATOM     58  C   UNL A   1      44.870  25.170  31.172  1.00  0.00     0.049 A 
ATOM     59  H   UNL A   1      43.153  24.027  30.807  1.00  0.00     0.167 HD
ATOM     60  C   UNL A   1      44.101  26.352  33.113  1.00  0.00     0.074 A 
ATOM     61  C   UNL A   1      43.617  26.714  34.433  1.00  0.00     0.031 C 
ATOM     62  C   UNL A   1      44.692  25.221  32.619  1.00  0.00     0.034 A 
BRANCH  49  63
ATOM     63  C   UNL A   1      43.487  23.081  26.992  1.00  0.00     0.023 A 
ATOM     64  C   UNL A   1      42.896  21.798  26.994  1.00  0.00     0.031 A 
ATOM     65  C   UNL A   1      44.437  23.293  25.966  1.00  0.00     0.131 A 
ATOM     66  C   UNL A   1      43.252  20.821  26.038  1.00  0.00     0.055 A 
ATOM     67  C   UNL A   1      44.738  22.347  24.978  1.00  0.00     0.041 A 
ATOM     68  F   UNL A   1      45.195  24.392  25.890  1.00  0.00    -0.206 F 
ATOM     69  C   UNL A   1      44.152  21.099  25.014  1.00  0.00     0.022 A 
BRANCH  66  70
ATOM     70  S   UNL A   1      42.605  19.134  26.198  1.00  0.00     0.124 S 
ATOM     71  O   UNL A   1      43.691  18.335  25.643  1.00  0.00    -0.237 OA
ATOM     72  O   UNL A   1      42.383  19.022  27.636  1.00  0.00    -0.237 OA
ATOM     73  O   UNL A   1      41.386  19.159  25.388  1.00  0.00    -0.744 OA
ENDBRANCH  66  70
ENDBRANCH  49  63
BRANCH  50  74
ATOM     74  C   UNL A   1      41.252  30.242  33.006  1.00  0.00     0.023 A 
ATOM     75  C   UNL A   1      41.292  31.655  33.034  1.00  0.00     0.031 A 
ATOM     76  C   UNL A   1      39.998  29.624  33.091  1.00  0.00     0.131 A 
ATOM     77  C   UNL A   1      40.111  32.399  32.930  1.00  0.00     0.055 A 
ATOM     78  C   UNL A   1      38.817  30.377  33.097  1.00  0.00     0.041 A 
ATOM     79  F   UNL A   1      39.885  28.289  33.033  1.00  0.00    -0.206 F 
ATOM     80  C   UNL A   1      38.868  31.767  32.962  1.00  0.00     0.022 A 
BRANCH  77  81
ATOM     81  S   UNL A   1      40.233  34.142  32.417  1.00  0.00     0.124 S 
ATOM     82  O   UNL A   1      41.501  34.551  33.010  1.00  0.00    -0.237 OA
ATOM     83  O   UNL A   1      40.212  34.055  30.957  1.00  0.00    -0.237 OA
ATOM     84  O   UNL A   1      39.037  34.751  32.994  1.00  0.00    -0.744 OA
ENDBRANCH  77  81
ENDBRANCH  50  74
BRANCH  62  85
ATOM     85  C   UNL A   1      45.081  24.033  33.476  1.00  0.00     0.023 A 
ATOM     86  C   UNL A   1      46.380  23.860  33.984  1.00  0.00     0.031 A 
ATOM     87  C   UNL A   1      44.166  22.992  33.761  1.00  0.00     0.131 A 
ATOM     88  C   UNL A   1      46.698  22.765  34.809  1.00  0.00     0.055 A 
ATOM     89  C   UNL A   1      44.507  21.863  34.514  1.00  0.00     0.041 A 
ATOM     90  F   UNL A   1      42.892  23.037  33.349  1.00  0.00    -0.206 F 
ATOM     91  C   UNL A   1      45.775  21.753  35.061  1.00  0.00     0.022 A 
BRANCH  88  92
ATOM     92  S   UNL A   1      48.325  22.721  35.606  1.00  0.00     0.124 S 
ATOM     93  O   UNL A   1      49.199  22.287  34.522  1.00  0.00    -0.237 OA
ATOM     94  O   UNL A   1      48.484  24.110  36.030  1.00  0.00    -0.237 OA
ATOM     95  O   UNL A   1      48.154  21.758  36.692  1.00  0.00    -0.744 OA
ENDBRANCH  88  92
ENDBRANCH  62  85
ENDBRANCH  36  37
ENDBRANCH  28  31
ENDBRANCH  26  27
ENDBRANCH  25  26
ENDBRANCH   1  25
TORSDOF 17
ENDMDL
MODEL 3
REMARK VINA RESULT:     -12.2      4.200     10.668
REMARK SMILES Cc1ccc(Nc2c(Cl)cccc2Cl)c(CC(=O)NCCCCNC(=O)c2ccc(-c3c4nc(c(-c5cc(S(=O)(=O)[O-])ccc5F)c5ccc([nH]5)c(-c5cc(S(=O)(=O)[O-])ccc5F)c5nc(c(-c6cc(S(=O)(=O)[O-])ccc6F)c6ccc3[nH]6)C=C5)C=C4)cc2)c1
REMARK SMILES IDX 21 1 20 2 19 3 17 4 18 5 16 7 15 8 1 9 2 10 3 11 90 12 4 13
REMARK SMILES IDX 5 14 6 15 7 17 8 18 13 19 9 20 10 21 12 22 14 23 11 24 22 25
REMARK SMILES IDX 23 26 24 27 25 28 26 30 27 31 28 32 89 33 29 34 88 35 30 36
REMARK SMILES IDX 31 37 32 38 82 39 33 40 87 41 81 42 83 43 34 44 86 45 80 46
REMARK SMILES IDX 79 47 35 49 67 50 47 51 66 52 48 53 51 54 65 55 84 56 49 57
REMARK SMILES IDX 50 58 64 60 85 61 52 62 36 63 37 64 45 65 38 66 44 67 46 68
REMARK SMILES IDX 43 69 39 70 40 71 41 72 42 73 68 74 69 75 77 76 70 77 76 78
REMARK SMILES IDX 78 79 75 80 71 81 72 82 73 83 74 84 53 85 54 86 62 87 55 88
REMARK SMILES IDX 61 89 63 90 60 91 56 92 57 93 58 94 59 95
REMARK H PARENT 19 6 6 16 24 29 83 48 51 59
REMARK Flexibility Score: inf
ROOT
ATOM      1  C   UNL A   1      38.309  21.078  25.380  1.00  0.00     0.023 C 
ENDROOT
BRANCH   1   2
ATOM      2  C   UNL A   1      36.851  20.819  24.963  1.00  0.00     0.116 C 
BRANCH   2   3
ATOM      3  N   UNL A   1      35.932  20.801  26.099  1.00  0.00    -0.356 N 
ATOM      4  C   UNL A   1      34.889  21.629  26.383  1.00  0.00     0.224 C 
ATOM      5  O   UNL A   1      34.317  21.515  27.473  1.00  0.00    -0.275 OA
ATOM      6  H   UNL A   1      36.090  20.085  26.755  1.00  0.00     0.163 HD
BRANCH   4   7
ATOM      7  C   UNL A   1      34.445  22.701  25.405  1.00  0.00     0.137 C 
BRANCH   7   8
ATOM      8  C   UNL A   1      33.458  22.196  24.375  1.00  0.00    -0.015 A 
ATOM      9  C   UNL A   1      32.360  18.724  23.228  1.00  0.00     0.044 C 
ATOM     10  C   UNL A   1      32.466  20.217  23.332  1.00  0.00    -0.051 A 
ATOM     11  C   UNL A   1      31.892  21.038  22.365  1.00  0.00     0.005 A 
ATOM     12  C   UNL A   1      33.216  20.806  24.350  1.00  0.00     0.009 A 
ATOM     13  C   UNL A   1      32.078  22.424  22.411  1.00  0.00     0.026 A 
ATOM     14  C   UNL A   1      32.869  23.033  23.400  1.00  0.00     0.042 A 
BRANCH  14  15
ATOM     15  N   UNL A   1      33.054  24.438  23.430  1.00  0.00    -0.353 N 
ATOM     16  H   UNL A   1      33.990  24.740  23.475  1.00  0.00     0.167 HD
BRANCH  15  17
ATOM     17  C   UNL A   1      32.081  25.468  23.405  1.00  0.00     0.076 A 
ATOM     18  C   UNL A   1      31.770  26.204  22.245  1.00  0.00     0.066 A 
ATOM     19  C   UNL A   1      31.441  25.852  24.604  1.00  0.00     0.066 A 
ATOM     20  Cl  UNL A   1      32.387  25.775  20.683  1.00  0.00    -0.082 Cl
ATOM     21  C   UNL A   1      30.885  27.292  22.292  1.00  0.00     0.023 A 
ATOM     22  C   UNL A   1      30.551  26.932  24.646  1.00  0.00     0.023 A 
ATOM     23  Cl  UNL A   1      31.747  25.020  26.092  1.00  0.00    -0.082 Cl
ATOM     24  C   UNL A   1      30.281  27.660  23.492  1.00  0.00     0.003 A 
ENDBRANCH  15  17
ENDBRANCH  14  15
ENDBRANCH   7   8
ENDBRANCH   4   7
ENDBRANCH   2   3
ENDBRANCH   1   2
BRANCH   1  25
ATOM     25  C   UNL A   1      38.644  22.519  25.762  1.00  0.00     0.023 C 
BRANCH  25  26
ATOM     26  C   UNL A   1      39.569  22.632  26.964  1.00  0.00     0.116 C 
BRANCH  26  27
ATOM     27  N   UNL A   1      40.947  22.989  26.645  1.00  0.00    -0.352 N 
ATOM     28  C   UNL A   1      41.483  24.260  26.500  1.00  0.00     0.251 C 
ATOM     29  H   UNL A   1      41.570  22.239  26.517  1.00  0.00     0.163 HD
ATOM     30  O   UNL A   1      42.638  24.441  26.147  1.00  0.00    -0.269 OA
BRANCH  28  31
ATOM     31  C   UNL A   1      40.649  25.413  26.916  1.00  0.00     0.039 A 
ATOM     32  C   UNL A   1      40.804  26.598  26.189  1.00  0.00     0.014 A 
ATOM     33  C   UNL A   1      39.979  25.411  28.138  1.00  0.00     0.014 A 
ATOM     34  C   UNL A   1      40.507  27.813  26.798  1.00  0.00     0.010 A 
ATOM     35  C   UNL A   1      39.767  26.621  28.776  1.00  0.00     0.010 A 
ATOM     36  C   UNL A   1      40.108  27.818  28.135  1.00  0.00    -0.014 A 
BRANCH  36  37
ATOM     37  C   UNL A   1      40.194  29.010  28.975  1.00  0.00     0.031 A 
ATOM     38  C   UNL A   1      39.167  30.068  28.908  1.00  0.00     0.074 A 
ATOM     39  C   UNL A   1      41.225  29.152  29.839  1.00  0.00     0.049 A 
ATOM     40  N   UNL A   1      39.339  31.262  29.366  1.00  0.00    -0.248 NA
ATOM     41  C   UNL A   1      37.888  29.899  28.226  1.00  0.00     0.031 C 
ATOM     42  C   UNL A   1      41.359  30.129  30.918  1.00  0.00     0.029 A 
ATOM     43  N   UNL A   1      42.510  28.630  29.687  1.00  0.00    -0.354 N 
ATOM     44  C   UNL A   1      38.126  31.896  29.341  1.00  0.00     0.074 A 
ATOM     45  C   UNL A   1      37.308  31.076  28.483  1.00  0.00     0.031 C 
ATOM     46  C   UNL A   1      42.661  30.358  31.132  1.00  0.00     0.029 A 
ATOM     47  C   UNL A   1      43.403  29.631  30.122  1.00  0.00     0.049 A 
ATOM     48  H   UNL A   1      42.746  27.737  29.345  1.00  0.00     0.167 HD
ATOM     49  C   UNL A   1      37.923  32.957  30.171  1.00  0.00     0.034 A 
ATOM     50  C   UNL A   1      44.332  30.159  29.271  1.00  0.00     0.034 A 
ATOM     51  C   UNL A   1      39.196  33.521  30.647  1.00  0.00     0.049 A 
ATOM     52  C   UNL A   1      44.193  31.653  29.045  1.00  0.00     0.074 A 
ATOM     53  C   UNL A   1      39.834  33.654  31.868  1.00  0.00     0.029 A 
ATOM     54  N   UNL A   1      40.130  33.910  29.695  1.00  0.00    -0.354 N 
ATOM     55  N   UNL A   1      43.288  32.408  29.606  1.00  0.00    -0.248 NA
ATOM     56  C   UNL A   1      45.011  32.395  28.086  1.00  0.00     0.031 C 
ATOM     57  C   UNL A   1      41.177  34.088  31.625  1.00  0.00     0.029 A 
ATOM     58  C   UNL A   1      41.342  34.253  30.262  1.00  0.00     0.049 A 
ATOM     59  H   UNL A   1      39.950  33.938  28.728  1.00  0.00     0.167 HD
ATOM     60  C   UNL A   1      43.333  33.666  29.058  1.00  0.00     0.074 A 
ATOM     61  C   UNL A   1      44.434  33.608  28.112  1.00  0.00     0.031 C 
ATOM     62  C   UNL A   1      42.432  34.646  29.374  1.00  0.00     0.034 A 
BRANCH  49  63
ATOM     63  C   UNL A   1      36.561  33.408  30.674  1.00  0.00     0.023 A 
ATOM     64  C   UNL A   1      35.674  34.047  29.779  1.00  0.00     0.031 A 
ATOM     65  C   UNL A   1      36.123  33.377  32.020  1.00  0.00     0.131 A 
ATOM     66  C   UNL A   1      34.456  34.608  30.222  1.00  0.00     0.055 A 
ATOM     67  C   UNL A   1      34.884  33.873  32.445  1.00  0.00     0.041 A 
ATOM     68  F   UNL A   1      36.887  32.939  33.025  1.00  0.00    -0.206 F 
ATOM     69  C   UNL A   1      34.045  34.500  31.547  1.00  0.00     0.022 A 
BRANCH  66  70
ATOM     70  S   UNL A   1      33.445  35.578  29.070  1.00  0.00     0.124 S 
ATOM     71  O   UNL A   1      32.756  36.498  29.966  1.00  0.00    -0.237 OA
ATOM     72  O   UNL A   1      34.452  36.159  28.188  1.00  0.00    -0.237 OA
ATOM     73  O   UNL A   1      32.585  34.573  28.443  1.00  0.00    -0.744 OA
ENDBRANCH  66  70
ENDBRANCH  49  63
BRANCH  50  74
ATOM     74  C   UNL A   1      44.846  29.150  28.295  1.00  0.00     0.023 A 
ATOM     75  C   UNL A   1      45.761  28.197  28.799  1.00  0.00     0.031 A 
ATOM     76  C   UNL A   1      44.199  28.857  27.088  1.00  0.00     0.131 A 
ATOM     77  C   UNL A   1      45.845  26.924  28.224  1.00  0.00     0.055 A 
ATOM     78  C   UNL A   1      44.370  27.619  26.455  1.00  0.00     0.041 A 
ATOM     79  F   UNL A   1      43.292  29.700  26.573  1.00  0.00    -0.206 F 
ATOM     80  C   UNL A   1      45.152  26.627  27.050  1.00  0.00     0.022 A 
BRANCH  77  81
ATOM     81  S   UNL A   1      46.589  25.583  29.206  1.00  0.00     0.124 S 
ATOM     82  O   UNL A   1      48.010  25.907  29.146  1.00  0.00    -0.237 OA
ATOM     83  O   UNL A   1      45.955  25.745  30.514  1.00  0.00    -0.237 OA
ATOM     84  O   UNL A   1      46.184  24.374  28.493  1.00  0.00    -0.744 OA
ENDBRANCH  77  81
ENDBRANCH  50  74
BRANCH  62  85
ATOM     85  C   UNL A   1      42.477  36.048  28.799  1.00  0.00     0.023 A 
ATOM     86  C   UNL A   1      42.917  37.156  29.544  1.00  0.00     0.031 A 
ATOM     87  C   UNL A   1      42.016  36.328  27.492  1.00  0.00     0.131 A 
ATOM     88  C   UNL A   1      42.983  38.438  28.967  1.00  0.00     0.055 A 
ATOM     89  C   UNL A   1      42.007  37.617  26.948  1.00  0.00     0.041 A 
ATOM     90  F   UNL A   1      41.583  35.362  26.671  1.00  0.00    -0.206 F 
ATOM     91  C   UNL A   1      42.511  38.681  27.679  1.00  0.00     0.022 A 
BRANCH  88  92
ATOM     92  S   UNL A   1      43.764  39.775  29.909  1.00  0.00     0.124 S 
ATOM     93  O   UNL A   1      45.047  39.933  29.232  1.00  0.00    -0.237 OA
ATOM     94  O   UNL A   1      42.810  40.865  29.722  1.00  0.00    -0.237 OA
ATOM     95  O   UNL A   1      43.839  39.244  31.268  1.00  0.00    -0.744 OA
ENDBRANCH  88  92
ENDBRANCH  62  85
ENDBRANCH  36  37
ENDBRANCH  28  31
ENDBRANCH  26  27
ENDBRANCH  25  26
ENDBRANCH   1  25
TORSDOF 17
ENDMDL
