MODEL 1
REMARK VINA RESULT:     -10.8      0.000      0.000
REMARK SMILES CC(C)N1C[C@@H](C(=O)N[C@@H](C)CC(=O)NCCCCNC(=O)c2ccc(-c3c4nc(c(-c5cc(S(=O)(=O)[O-])ccc5F)c5ccc([nH]5)c(-c5cc(S(=O)(=O)[O-])ccc5F)c5nc(c(-c6cc(S(=O)(=O)[O-])ccc6F)c6ccc3[nH]6)C=C5)C=C4)cc2)CC1=O
REMARK SMILES IDX 17 1 16 2 15 3 13 4 14 5 12 7 10 8 11 9 9 10 7 11 8 12 6 14
REMARK SMILES IDX 4 15 5 16 87 17 86 18 88 19 2 20 1 21 3 22 18 23 19 24 20 25
REMARK SMILES IDX 21 26 22 28 23 29 24 30 85 31 25 32 84 33 26 34 27 35 28 36
REMARK SMILES IDX 78 37 29 38 83 39 77 40 79 41 30 42 82 43 76 44 75 45 31 47
REMARK SMILES IDX 63 48 43 49 62 50 44 51 47 52 61 53 80 54 45 55 46 56 60 58
REMARK SMILES IDX 81 59 48 60 32 61 33 62 41 63 34 64 40 65 42 66 39 67 35 68
REMARK SMILES IDX 36 69 37 70 38 71 64 72 65 73 73 74 66 75 72 76 74 77 71 78
REMARK SMILES IDX 67 79 68 80 69 81 70 82 49 83 50 84 58 85 51 86 57 87 59 88
REMARK SMILES IDX 56 89 52 90 53 91 54 92 55 93
REMARK H PARENT 15 6 9 13 20 27 79 46 47 57
REMARK Flexibility Score: inf
ROOT
ATOM      1  C   UNL A   1      32.023  30.537  26.824  1.00  0.00     0.023 C 
ENDROOT
BRANCH   1   2
ATOM      2  C   UNL A   1      32.435  30.031  25.446  1.00  0.00     0.116 C 
BRANCH   2   3
ATOM      3  N   UNL A   1      33.380  28.935  25.566  1.00  0.00    -0.356 N 
ATOM      4  C   UNL A   1      33.135  27.599  25.681  1.00  0.00     0.222 C 
ATOM      5  O   UNL A   1      34.073  26.846  25.944  1.00  0.00    -0.275 OA
ATOM      6  H   UNL A   1      34.330  29.193  25.565  1.00  0.00     0.163 HD
BRANCH   4   7
ATOM      7  C   UNL A   1      31.739  27.052  25.473  1.00  0.00     0.124 C 
BRANCH   7   8
ATOM      8  C   UNL A   1      31.281  27.008  24.006  1.00  0.00     0.088 C 
ATOM      9  C   UNL A   1      30.007  26.160  23.917  1.00  0.00     0.031 C 
BRANCH   8  10
ATOM     10  N   UNL A   1      32.271  26.385  23.128  1.00  0.00    -0.353 N 
ATOM     11  C   UNL A   1      32.873  25.170  23.125  1.00  0.00     0.225 C 
ATOM     12  O   UNL A   1      33.814  25.035  22.337  1.00  0.00    -0.275 OA
ATOM     13  H   UNL A   1      32.560  26.967  22.388  1.00  0.00     0.163 HD
BRANCH  11  14
ATOM     14  C   UNL A   1      32.481  24.008  24.017  1.00  0.00     0.107 C 
ATOM     15  N   UNL A   1      33.397  22.016  24.861  1.00  0.00    -0.339 N 
ATOM     16  C   UNL A   1      33.532  23.449  24.959  1.00  0.00     0.133 C 
ATOM     17  C   UNL A   1      32.534  21.619  23.855  1.00  0.00     0.223 C 
ATOM     18  C   UNL A   1      31.964  22.841  23.196  1.00  0.00     0.115 C 
ATOM     19  O   UNL A   1      32.278  20.479  23.511  1.00  0.00    -0.275 OA
BRANCH  15  20
ATOM     20  C   UNL A   1      34.209  21.112  25.679  1.00  0.00     0.078 C 
ATOM     21  C   UNL A   1      35.543  20.779  25.011  1.00  0.00     0.031 C 
ATOM     22  C   UNL A   1      34.420  21.678  27.083  1.00  0.00     0.031 C 
ENDBRANCH  15  20
ENDBRANCH  11  14
ENDBRANCH   8  10
ENDBRANCH   7   8
ENDBRANCH   4   7
ENDBRANCH   2   3
ENDBRANCH   1   2
BRANCH   1  23
ATOM     23  C   UNL A   1      31.443  31.938  26.876  1.00  0.00     0.023 C 
BRANCH  23  24
ATOM     24  C   UNL A   1      32.462  33.045  26.689  1.00  0.00     0.116 C 
BRANCH  24  25
ATOM     25  N   UNL A   1      32.293  34.152  27.622  1.00  0.00    -0.352 N 
ATOM     26  C   UNL A   1      33.071  34.492  28.706  1.00  0.00     0.251 C 
ATOM     27  H   UNL A   1      31.518  34.736  27.455  1.00  0.00     0.163 HD
ATOM     28  O   UNL A   1      32.730  35.399  29.456  1.00  0.00    -0.269 OA
BRANCH  26  29
ATOM     29  C   UNL A   1      34.290  33.702  28.976  1.00  0.00     0.039 A 
ATOM     30  C   UNL A   1      35.537  34.279  28.733  1.00  0.00     0.014 A 
ATOM     31  C   UNL A   1      34.192  32.452  29.590  1.00  0.00     0.014 A 
ATOM     32  C   UNL A   1      36.686  33.646  29.211  1.00  0.00     0.010 A 
ATOM     33  C   UNL A   1      35.321  31.887  30.166  1.00  0.00     0.010 A 
ATOM     34  C   UNL A   1      36.580  32.483  29.992  1.00  0.00    -0.014 A 
BRANCH  34  35
ATOM     35  C   UNL A   1      37.765  31.882  30.656  1.00  0.00     0.031 A 
ATOM     36  C   UNL A   1      38.551  30.811  29.954  1.00  0.00     0.074 A 
ATOM     37  C   UNL A   1      38.070  32.231  31.924  1.00  0.00     0.049 A 
ATOM     38  N   UNL A   1      39.544  30.086  30.400  1.00  0.00    -0.248 NA
ATOM     39  C   UNL A   1      38.138  30.485  28.581  1.00  0.00     0.031 C 
ATOM     40  C   UNL A   1      37.341  33.215  32.727  1.00  0.00     0.029 A 
ATOM     41  N   UNL A   1      39.060  31.788  32.764  1.00  0.00    -0.354 N 
ATOM     42  C   UNL A   1      39.860  29.205  29.370  1.00  0.00     0.074 A 
ATOM     43  C   UNL A   1      38.905  29.441  28.310  1.00  0.00     0.031 C 
ATOM     44  C   UNL A   1      37.921  33.316  33.933  1.00  0.00     0.029 A 
ATOM     45  C   UNL A   1      39.025  32.364  34.014  1.00  0.00     0.049 A 
ATOM     46  H   UNL A   1      39.734  31.121  32.499  1.00  0.00     0.167 HD
ATOM     47  C   UNL A   1      40.871  28.304  29.308  1.00  0.00     0.034 A 
ATOM     48  C   UNL A   1      39.775  32.135  35.110  1.00  0.00     0.034 A 
ATOM     49  C   UNL A   1      41.817  28.095  30.377  1.00  0.00     0.049 A 
ATOM     50  C   UNL A   1      40.873  31.106  35.032  1.00  0.00     0.074 A 
ATOM     51  C   UNL A   1      42.926  27.271  30.393  1.00  0.00     0.029 A 
ATOM     52  N   UNL A   1      41.751  28.699  31.628  1.00  0.00    -0.354 N 
ATOM     53  N   UNL A   1      41.214  30.340  34.021  1.00  0.00    -0.248 NA
ATOM     54  C   UNL A   1      41.691  30.915  36.236  1.00  0.00     0.031 C 
ATOM     55  C   UNL A   1      43.477  27.306  31.679  1.00  0.00     0.029 A 
ATOM     56  C   UNL A   1      42.768  28.223  32.440  1.00  0.00     0.049 A 
ATOM     57  H   UNL A   1      41.080  29.367  31.897  1.00  0.00     0.167 HD
ATOM     58  C   UNL A   1      42.297  29.586  34.465  1.00  0.00     0.074 A 
ATOM     59  C   UNL A   1      42.564  30.007  35.825  1.00  0.00     0.031 C 
ATOM     60  C   UNL A   1      43.007  28.634  33.806  1.00  0.00     0.034 A 
BRANCH  47  61
ATOM     61  C   UNL A   1      40.972  27.459  28.058  1.00  0.00     0.023 A 
ATOM     62  C   UNL A   1      40.609  26.101  28.050  1.00  0.00     0.031 A 
ATOM     63  C   UNL A   1      41.483  28.008  26.869  1.00  0.00     0.131 A 
ATOM     64  C   UNL A   1      40.853  25.316  26.912  1.00  0.00     0.055 A 
ATOM     65  C   UNL A   1      41.632  27.244  25.709  1.00  0.00     0.041 A 
ATOM     66  F   UNL A   1      41.869  29.292  26.818  1.00  0.00    -0.206 F 
ATOM     67  C   UNL A   1      41.336  25.885  25.732  1.00  0.00     0.022 A 
BRANCH  64  68
ATOM     68  S   UNL A   1      40.704  23.514  27.058  1.00  0.00     0.124 S 
ATOM     69  O   UNL A   1      41.587  23.057  25.986  1.00  0.00    -0.237 OA
ATOM     70  O   UNL A   1      41.170  23.268  28.417  1.00  0.00    -0.237 OA
ATOM     71  O   UNL A   1      39.282  23.268  26.828  1.00  0.00    -0.744 OA
ENDBRANCH  64  68
ENDBRANCH  47  61
BRANCH  48  72
ATOM     72  C   UNL A   1      39.485  32.861  36.382  1.00  0.00     0.023 A 
ATOM     73  C   UNL A   1      38.597  32.342  37.336  1.00  0.00     0.031 A 
ATOM     74  C   UNL A   1      40.089  34.103  36.652  1.00  0.00     0.131 A 
ATOM     75  C   UNL A   1      38.314  33.075  38.501  1.00  0.00     0.055 A 
ATOM     76  C   UNL A   1      39.847  34.803  37.836  1.00  0.00     0.041 A 
ATOM     77  F   UNL A   1      40.947  34.647  35.773  1.00  0.00    -0.206 F 
ATOM     78  C   UNL A   1      38.946  34.291  38.764  1.00  0.00     0.022 A 
BRANCH  75  79
ATOM     79  S   UNL A   1      37.048  32.448  39.640  1.00  0.00     0.124 S 
ATOM     80  O   UNL A   1      37.295  33.252  40.830  1.00  0.00    -0.237 OA
ATOM     81  O   UNL A   1      35.816  32.738  38.911  1.00  0.00    -0.237 OA
ATOM     82  O   UNL A   1      37.376  31.030  39.764  1.00  0.00    -0.744 OA
ENDBRANCH  75  79
ENDBRANCH  48  72
BRANCH  60  83
ATOM     83  C   UNL A   1      44.157  27.996  34.547  1.00  0.00     0.023 A 
ATOM     84  C   UNL A   1      43.995  26.808  35.281  1.00  0.00     0.031 A 
ATOM     85  C   UNL A   1      45.436  28.581  34.509  1.00  0.00     0.131 A 
ATOM     86  C   UNL A   1      45.082  26.268  35.986  1.00  0.00     0.055 A 
ATOM     87  C   UNL A   1      46.528  28.004  35.157  1.00  0.00     0.041 A 
ATOM     88  F   UNL A   1      45.648  29.719  33.829  1.00  0.00    -0.206 F 
ATOM     89  C   UNL A   1      46.353  26.847  35.910  1.00  0.00     0.022 A 
BRANCH  86  90
ATOM     90  S   UNL A   1      44.796  24.847  37.073  1.00  0.00     0.124 S 
ATOM     91  O   UNL A   1      46.045  24.787  37.826  1.00  0.00    -0.237 OA
ATOM     92  O   UNL A   1      43.616  25.260  37.826  1.00  0.00    -0.237 OA
ATOM     93  O   UNL A   1      44.581  23.740  36.143  1.00  0.00    -0.744 OA
ENDBRANCH  86  90
ENDBRANCH  60  83
ENDBRANCH  34  35
ENDBRANCH  26  29
ENDBRANCH  24  25
ENDBRANCH  23  24
ENDBRANCH   1  23
TORSDOF 18
ENDMDL
MODEL 2
REMARK VINA RESULT:     -10.7      6.253     11.405
REMARK SMILES CC(C)N1C[C@@H](C(=O)N[C@@H](C)CC(=O)NCCCCNC(=O)c2ccc(-c3c4nc(c(-c5cc(S(=O)(=O)[O-])ccc5F)c5ccc([nH]5)c(-c5cc(S(=O)(=O)[O-])ccc5F)c5nc(c(-c6cc(S(=O)(=O)[O-])ccc6F)c6ccc3[nH]6)C=C5)C=C4)cc2)CC1=O
REMARK SMILES IDX 17 1 16 2 15 3 13 4 14 5 12 7 10 8 11 9 9 10 7 11 8 12 6 14
REMARK SMILES IDX 4 15 5 16 87 17 86 18 88 19 2 20 1 21 3 22 18 23 19 24 20 25
REMARK SMILES IDX 21 26 22 28 23 29 24 30 85 31 25 32 84 33 26 34 27 35 28 36
REMARK SMILES IDX 78 37 29 38 83 39 77 40 79 41 30 42 82 43 76 44 75 45 31 47
REMARK SMILES IDX 63 48 43 49 62 50 44 51 47 52 61 53 80 54 45 55 46 56 60 58
REMARK SMILES IDX 81 59 48 60 32 61 33 62 41 63 34 64 40 65 42 66 39 67 35 68
REMARK SMILES IDX 36 69 37 70 38 71 64 72 65 73 73 74 66 75 72 76 74 77 71 78
REMARK SMILES IDX 67 79 68 80 69 81 70 82 49 83 50 84 58 85 51 86 57 87 59 88
REMARK SMILES IDX 56 89 52 90 53 91 54 92 55 93
REMARK H PARENT 15 6 9 13 20 27 79 46 47 57
REMARK Flexibility Score: inf
ROOT
ATOM      1  C   UNL A   1      37.260  22.650  24.802  1.00  0.00     0.023 C 
ENDROOT
BRANCH   1   2
ATOM      2  C   UNL A   1      36.576  23.681  25.693  1.00  0.00     0.116 C 
BRANCH   2   3
ATOM      3  N   UNL A   1      35.848  23.027  26.766  1.00  0.00    -0.356 N 
ATOM      4  C   UNL A   1      34.573  22.546  26.769  1.00  0.00     0.222 C 
ATOM      5  O   UNL A   1      34.081  22.178  27.836  1.00  0.00    -0.275 OA
ATOM      6  H   UNL A   1      36.345  22.917  27.609  1.00  0.00     0.163 HD
BRANCH   4   7
ATOM      7  C   UNL A   1      33.784  22.452  25.480  1.00  0.00     0.124 C 
BRANCH   7   8
ATOM      8  C   UNL A   1      32.581  21.494  25.535  1.00  0.00     0.088 C 
ATOM      9  C   UNL A   1      32.074  21.264  24.108  1.00  0.00     0.031 C 
BRANCH   8  10
ATOM     10  N   UNL A   1      31.463  22.041  26.303  1.00  0.00    -0.353 N 
ATOM     11  C   UNL A   1      30.946  23.289  26.427  1.00  0.00     0.225 C 
ATOM     12  O   UNL A   1      30.104  23.438  27.318  1.00  0.00    -0.275 OA
ATOM     13  H   UNL A   1      30.989  21.366  26.840  1.00  0.00     0.163 HD
BRANCH  11  14
ATOM     14  C   UNL A   1      31.342  24.477  25.573  1.00  0.00     0.107 C 
ATOM     15  N   UNL A   1      31.228  26.824  25.616  1.00  0.00    -0.339 N 
ATOM     16  C   UNL A   1      31.870  25.714  26.277  1.00  0.00     0.133 C 
ATOM     17  C   UNL A   1      30.244  26.430  24.727  1.00  0.00     0.223 C 
ATOM     18  C   UNL A   1      30.185  24.931  24.701  1.00  0.00     0.115 C 
ATOM     19  O   UNL A   1      29.505  27.150  24.078  1.00  0.00    -0.275 OA
BRANCH  15  20
ATOM     20  C   UNL A   1      31.532  28.211  25.976  1.00  0.00     0.078 C 
ATOM     21  C   UNL A   1      31.911  28.348  27.451  1.00  0.00     0.031 C 
ATOM     22  C   UNL A   1      32.618  28.791  25.070  1.00  0.00     0.031 C 
ENDBRANCH  15  20
ENDBRANCH  11  14
ENDBRANCH   8  10
ENDBRANCH   7   8
ENDBRANCH   4   7
ENDBRANCH   2   3
ENDBRANCH   1   2
BRANCH   1  23
ATOM     23  C   UNL A   1      37.792  21.411  25.499  1.00  0.00     0.023 C 
BRANCH  23  24
ATOM     24  C   UNL A   1      39.232  21.521  25.957  1.00  0.00     0.116 C 
BRANCH  24  25
ATOM     25  N   UNL A   1      39.923  20.238  26.011  1.00  0.00    -0.352 N 
ATOM     26  C   UNL A   1      41.262  19.987  26.212  1.00  0.00     0.251 C 
ATOM     27  H   UNL A   1      39.355  19.443  25.887  1.00  0.00     0.163 HD
ATOM     28  O   UNL A   1      41.701  18.847  26.124  1.00  0.00    -0.269 OA
BRANCH  26  29
ATOM     29  C   UNL A   1      42.162  21.128  26.475  1.00  0.00     0.039 A 
ATOM     30  C   UNL A   1      42.549  21.945  25.411  1.00  0.00     0.014 A 
ATOM     31  C   UNL A   1      42.509  21.459  27.786  1.00  0.00     0.014 A 
ATOM     32  C   UNL A   1      43.189  23.155  25.678  1.00  0.00     0.010 A 
ATOM     33  C   UNL A   1      43.036  22.714  28.055  1.00  0.00     0.010 A 
ATOM     34  C   UNL A   1      43.373  23.581  27.004  1.00  0.00    -0.014 A 
BRANCH  34  35
ATOM     35  C   UNL A   1      43.894  24.936  27.321  1.00  0.00     0.031 A 
ATOM     36  C   UNL A   1      42.973  25.973  27.898  1.00  0.00     0.074 A 
ATOM     37  C   UNL A   1      45.165  25.256  27.000  1.00  0.00     0.049 A 
ATOM     38  N   UNL A   1      43.199  27.239  28.141  1.00  0.00    -0.248 NA
ATOM     39  C   UNL A   1      41.601  25.539  28.203  1.00  0.00     0.031 C 
ATOM     40  C   UNL A   1      46.134  24.349  26.379  1.00  0.00     0.029 A 
ATOM     41  N   UNL A   1      45.856  26.434  27.132  1.00  0.00    -0.354 N 
ATOM     42  C   UNL A   1      41.995  27.754  28.608  1.00  0.00     0.074 A 
ATOM     43  C   UNL A   1      41.026  26.682  28.542  1.00  0.00     0.031 C 
ATOM     44  C   UNL A   1      47.296  24.996  26.208  1.00  0.00     0.029 A 
ATOM     45  C   UNL A   1      47.143  26.380  26.647  1.00  0.00     0.049 A 
ATOM     46  H   UNL A   1      45.468  27.244  27.538  1.00  0.00     0.167 HD
ATOM     47  C   UNL A   1      41.731  29.000  29.073  1.00  0.00     0.034 A 
ATOM     48  C   UNL A   1      48.085  27.339  26.540  1.00  0.00     0.034 A 
ATOM     49  C   UNL A   1      42.718  30.050  29.136  1.00  0.00     0.049 A 
ATOM     50  C   UNL A   1      47.763  28.725  27.033  1.00  0.00     0.074 A 
ATOM     51  C   UNL A   1      42.587  31.322  29.662  1.00  0.00     0.029 A 
ATOM     52  N   UNL A   1      44.013  29.957  28.637  1.00  0.00    -0.354 N 
ATOM     53  N   UNL A   1      46.643  29.177  27.551  1.00  0.00    -0.248 NA
ATOM     54  C   UNL A   1      48.829  29.730  26.933  1.00  0.00     0.031 C 
ATOM     55  C   UNL A   1      43.768  32.026  29.401  1.00  0.00     0.029 A 
ATOM     56  C   UNL A   1      44.671  31.167  28.794  1.00  0.00     0.049 A 
ATOM     57  H   UNL A   1      44.404  29.151  28.232  1.00  0.00     0.167 HD
ATOM     58  C   UNL A   1      46.877  30.515  27.852  1.00  0.00     0.074 A 
ATOM     59  C   UNL A   1      48.250  30.789  27.479  1.00  0.00     0.031 C 
ATOM     60  C   UNL A   1      46.034  31.434  28.392  1.00  0.00     0.034 A 
BRANCH  47  61
ATOM     61  C   UNL A   1      40.313  29.293  29.508  1.00  0.00     0.023 A 
ATOM     62  C   UNL A   1      39.968  29.437  30.864  1.00  0.00     0.031 A 
ATOM     63  C   UNL A   1      39.282  29.383  28.557  1.00  0.00     0.131 A 
ATOM     64  C   UNL A   1      38.621  29.564  31.236  1.00  0.00     0.055 A 
ATOM     65  C   UNL A   1      37.954  29.607  28.928  1.00  0.00     0.041 A 
ATOM     66  F   UNL A   1      39.542  29.231  27.249  1.00  0.00    -0.206 F 
ATOM     67  C   UNL A   1      37.614  29.678  30.275  1.00  0.00     0.022 A 
BRANCH  64  68
ATOM     68  S   UNL A   1      38.190  29.391  32.990  1.00  0.00     0.124 S 
ATOM     69  O   UNL A   1      39.508  29.255  33.606  1.00  0.00    -0.237 OA
ATOM     70  O   UNL A   1      37.482  30.635  33.264  1.00  0.00    -0.237 OA
ATOM     71  O   UNL A   1      37.369  28.182  33.022  1.00  0.00    -0.744 OA
ENDBRANCH  64  68
ENDBRANCH  47  61
BRANCH  48  72
ATOM     72  C   UNL A   1      49.400  27.029  25.905  1.00  0.00     0.023 A 
ATOM     73  C   UNL A   1      49.708  27.465  24.607  1.00  0.00     0.031 A 
ATOM     74  C   UNL A   1      50.368  26.273  26.592  1.00  0.00     0.131 A 
ATOM     75  C   UNL A   1      50.939  27.117  24.026  1.00  0.00     0.055 A 
ATOM     76  C   UNL A   1      51.611  25.976  26.031  1.00  0.00     0.041 A 
ATOM     77  F   UNL A   1      50.126  25.831  27.838  1.00  0.00    -0.206 F 
ATOM     78  C   UNL A   1      51.897  26.391  24.736  1.00  0.00     0.022 A 
BRANCH  75  79
ATOM     79  S   UNL A   1      51.242  27.566  22.294  1.00  0.00     0.124 S 
ATOM     80  O   UNL A   1      50.939  28.992  22.299  1.00  0.00    -0.237 OA
ATOM     81  O   UNL A   1      52.648  27.208  22.131  1.00  0.00    -0.237 OA
ATOM     82  O   UNL A   1      50.300  26.729  21.556  1.00  0.00    -0.744 OA
ENDBRANCH  75  79
ENDBRANCH  48  72
BRANCH  60  83
ATOM     83  C   UNL A   1      46.585  32.819  28.628  1.00  0.00     0.023 A 
ATOM     84  C   UNL A   1      46.590  33.794  27.615  1.00  0.00     0.031 A 
ATOM     85  C   UNL A   1      47.102  33.172  29.888  1.00  0.00     0.131 A 
ATOM     86  C   UNL A   1      47.145  35.059  27.866  1.00  0.00     0.055 A 
ATOM     87  C   UNL A   1      47.591  34.451  30.150  1.00  0.00     0.041 A 
ATOM     88  F   UNL A   1      47.128  32.279  30.891  1.00  0.00    -0.206 F 
ATOM     89  C   UNL A   1      47.625  35.400  29.133  1.00  0.00     0.022 A 
BRANCH  86  90
ATOM     90  S   UNL A   1      47.309  36.226  26.489  1.00  0.00     0.124 S 
ATOM     91  O   UNL A   1      47.917  35.392  25.457  1.00  0.00    -0.237 OA
ATOM     92  O   UNL A   1      45.927  36.628  26.251  1.00  0.00    -0.237 OA
ATOM     93  O   UNL A   1      48.175  37.274  27.027  1.00  0.00    -0.744 OA
ENDBRANCH  86  90
ENDBRANCH  60  83
ENDBRANCH  34  35
ENDBRANCH  26  29
ENDBRANCH  24  25
ENDBRANCH  23  24
ENDBRANCH   1  23
TORSDOF 18
ENDMDL
MODEL 3
REMARK VINA RESULT:     -10.6      5.385     10.421
REMARK SMILES CC(C)N1C[C@@H](C(=O)N[C@@H](C)CC(=O)NCCCCNC(=O)c2ccc(-c3c4nc(c(-c5cc(S(=O)(=O)[O-])ccc5F)c5ccc([nH]5)c(-c5cc(S(=O)(=O)[O-])ccc5F)c5nc(c(-c6cc(S(=O)(=O)[O-])ccc6F)c6ccc3[nH]6)C=C5)C=C4)cc2)CC1=O
REMARK SMILES IDX 17 1 16 2 15 3 13 4 14 5 12 7 10 8 11 9 9 10 7 11 8 12 6 14
REMARK SMILES IDX 4 15 5 16 87 17 86 18 88 19 2 20 1 21 3 22 18 23 19 24 20 25
REMARK SMILES IDX 21 26 22 28 23 29 24 30 85 31 25 32 84 33 26 34 27 35 28 36
REMARK SMILES IDX 78 37 29 38 83 39 77 40 79 41 30 42 82 43 76 44 75 45 31 47
REMARK SMILES IDX 63 48 43 49 62 50 44 51 47 52 61 53 80 54 45 55 46 56 60 58
REMARK SMILES IDX 81 59 48 60 32 61 33 62 41 63 34 64 40 65 42 66 39 67 35 68
REMARK SMILES IDX 36 69 37 70 38 71 64 72 65 73 73 74 66 75 72 76 74 77 71 78
REMARK SMILES IDX 67 79 68 80 69 81 70 82 49 83 50 84 58 85 51 86 57 87 59 88
REMARK SMILES IDX 56 89 52 90 53 91 54 92 55 93
REMARK H PARENT 15 6 9 13 20 27 79 46 47 57
REMARK Flexibility Score: inf
ROOT
ATOM      1  C   UNL A   1      35.336  23.466  25.960  1.00  0.00     0.023 C 
ENDROOT
BRANCH   1   2
ATOM      2  C   UNL A   1      34.902  24.689  25.160  1.00  0.00     0.116 C 
BRANCH   2   3
ATOM      3  N   UNL A   1      33.999  25.516  25.939  1.00  0.00    -0.356 N 
ATOM      4  C   UNL A   1      33.544  26.773  25.677  1.00  0.00     0.222 C 
ATOM      5  O   UNL A   1      32.916  27.371  26.552  1.00  0.00    -0.275 OA
ATOM      6  H   UNL A   1      33.670  25.112  26.775  1.00  0.00     0.163 HD
BRANCH   4   7
ATOM      7  C   UNL A   1      33.793  27.416  24.329  1.00  0.00     0.124 C 
BRANCH   7   8
ATOM      8  C   UNL A   1      32.562  27.469  23.408  1.00  0.00     0.088 C 
ATOM      9  C   UNL A   1      32.335  28.922  22.978  1.00  0.00     0.031 C 
BRANCH   8  10
ATOM     10  N   UNL A   1      31.341  27.025  24.078  1.00  0.00    -0.353 N 
ATOM     11  C   UNL A   1      30.562  25.923  23.951  1.00  0.00     0.225 C 
ATOM     12  O   UNL A   1      29.482  25.952  24.550  1.00  0.00    -0.275 OA
ATOM     13  H   UNL A   1      31.017  27.657  24.761  1.00  0.00     0.163 HD
BRANCH  11  14
ATOM     14  C   UNL A   1      30.921  24.701  23.129  1.00  0.00     0.107 C 
ATOM     15  N   UNL A   1      32.212  22.746  23.305  1.00  0.00    -0.339 N 
ATOM     16  C   UNL A   1      31.028  23.367  23.846  1.00  0.00     0.133 C 
ATOM     17  C   UNL A   1      32.944  23.590  22.490  1.00  0.00     0.223 C 
ATOM     18  C   UNL A   1      32.231  24.907  22.391  1.00  0.00     0.115 C 
ATOM     19  O   UNL A   1      34.010  23.352  21.949  1.00  0.00    -0.275 OA
BRANCH  15  20
ATOM     20  C   UNL A   1      32.623  21.399  23.708  1.00  0.00     0.078 C 
ATOM     21  C   UNL A   1      32.150  21.057  25.122  1.00  0.00     0.031 C 
ATOM     22  C   UNL A   1      32.151  20.352  22.699  1.00  0.00     0.031 C 
ENDBRANCH  15  20
ENDBRANCH  11  14
ENDBRANCH   8  10
ENDBRANCH   7   8
ENDBRANCH   4   7
ENDBRANCH   2   3
ENDBRANCH   1   2
BRANCH   1  23
ATOM     23  C   UNL A   1      35.728  22.243  25.153  1.00  0.00     0.023 C 
BRANCH  23  24
ATOM     24  C   UNL A   1      37.142  22.278  24.609  1.00  0.00     0.116 C 
BRANCH  24  25
ATOM     25  N   UNL A   1      37.935  21.113  24.981  1.00  0.00    -0.352 N 
ATOM     26  C   UNL A   1      39.029  21.045  25.815  1.00  0.00     0.251 C 
ATOM     27  H   UNL A   1      37.651  20.258  24.582  1.00  0.00     0.163 HD
ATOM     28  O   UNL A   1      39.650  19.996  25.942  1.00  0.00    -0.269 OA
BRANCH  26  29
ATOM     29  C   UNL A   1      39.469  22.275  26.504  1.00  0.00     0.039 A 
ATOM     30  C   UNL A   1      40.514  22.197  27.427  1.00  0.00     0.014 A 
ATOM     31  C   UNL A   1      38.937  23.512  26.136  1.00  0.00     0.014 A 
ATOM     32  C   UNL A   1      41.099  23.374  27.895  1.00  0.00     0.010 A 
ATOM     33  C   UNL A   1      39.596  24.674  26.509  1.00  0.00     0.010 A 
ATOM     34  C   UNL A   1      40.691  24.619  27.386  1.00  0.00    -0.014 A 
BRANCH  34  35
ATOM     35  C   UNL A   1      41.406  25.873  27.733  1.00  0.00     0.031 A 
ATOM     36  C   UNL A   1      40.679  26.971  28.458  1.00  0.00     0.074 A 
ATOM     37  C   UNL A   1      42.675  26.059  27.313  1.00  0.00     0.049 A 
ATOM     38  N   UNL A   1      41.085  28.178  28.755  1.00  0.00    -0.248 NA
ATOM     39  C   UNL A   1      39.294  26.685  28.865  1.00  0.00     0.031 C 
ATOM     40  C   UNL A   1      43.462  25.089  26.549  1.00  0.00     0.029 A 
ATOM     41  N   UNL A   1      43.520  27.132  27.451  1.00  0.00    -0.354 N 
ATOM     42  C   UNL A   1      40.001  28.801  29.365  1.00  0.00     0.074 A 
ATOM     43  C   UNL A   1      38.901  27.861  29.327  1.00  0.00     0.031 C 
ATOM     44  C   UNL A   1      44.679  25.601  26.308  1.00  0.00     0.029 A 
ATOM     45  C   UNL A   1      44.742  26.957  26.843  1.00  0.00     0.049 A 
ATOM     46  H   UNL A   1      43.275  27.951  27.941  1.00  0.00     0.167 HD
ATOM     47  C   UNL A   1      39.940  30.033  29.928  1.00  0.00     0.034 A 
ATOM     48  C   UNL A   1      45.785  27.800  26.706  1.00  0.00     0.034 A 
ATOM     49  C   UNL A   1      41.054  30.948  29.961  1.00  0.00     0.049 A 
ATOM     50  C   UNL A   1      45.687  29.176  27.311  1.00  0.00     0.074 A 
ATOM     51  C   UNL A   1      41.133  32.184  30.575  1.00  0.00     0.029 A 
ATOM     52  N   UNL A   1      42.278  30.734  29.337  1.00  0.00    -0.354 N 
ATOM     53  N   UNL A   1      44.684  29.721  27.960  1.00  0.00    -0.248 NA
ATOM     54  C   UNL A   1      46.860  30.048  27.172  1.00  0.00     0.031 C 
ATOM     55  C   UNL A   1      42.367  32.757  30.245  1.00  0.00     0.029 A 
ATOM     56  C   UNL A   1      43.097  31.841  29.504  1.00  0.00     0.049 A 
ATOM     57  H   UNL A   1      42.527  29.918  28.848  1.00  0.00     0.167 HD
ATOM     58  C   UNL A   1      45.112  30.996  28.319  1.00  0.00     0.074 A 
ATOM     59  C   UNL A   1      46.471  31.128  27.834  1.00  0.00     0.031 C 
ATOM     60  C   UNL A   1      44.443  31.968  28.991  1.00  0.00     0.034 A 
BRANCH  47  61
ATOM     61  C   UNL A   1      38.614  30.464  30.514  1.00  0.00     0.023 A 
ATOM     62  C   UNL A   1      37.646  31.133  29.746  1.00  0.00     0.031 A 
ATOM     63  C   UNL A   1      38.333  30.244  31.875  1.00  0.00     0.131 A 
ATOM     64  C   UNL A   1      36.492  31.644  30.359  1.00  0.00     0.055 A 
ATOM     65  C   UNL A   1      37.138  30.669  32.459  1.00  0.00     0.041 A 
ATOM     66  F   UNL A   1      39.226  29.632  32.667  1.00  0.00    -0.206 F 
ATOM     67  C   UNL A   1      36.218  31.391  31.705  1.00  0.00     0.022 A 
BRANCH  64  68
ATOM     68  S   UNL A   1      35.451  32.795  29.420  1.00  0.00     0.124 S 
ATOM     69  O   UNL A   1      36.272  34.004  29.423  1.00  0.00    -0.237 OA
ATOM     70  O   UNL A   1      35.314  32.119  28.136  1.00  0.00    -0.237 OA
ATOM     71  O   UNL A   1      34.229  32.880  30.217  1.00  0.00    -0.744 OA
ENDBRANCH  64  68
ENDBRANCH  47  61
BRANCH  48  72
ATOM     72  C   UNL A   1      46.990  27.379  25.931  1.00  0.00     0.023 A 
ATOM     73  C   UNL A   1      47.158  27.738  24.585  1.00  0.00     0.031 A 
ATOM     74  C   UNL A   1      47.992  26.594  26.532  1.00  0.00     0.131 A 
ATOM     75  C   UNL A   1      48.283  27.287  23.876  1.00  0.00     0.055 A 
ATOM     76  C   UNL A   1      49.135  26.194  25.839  1.00  0.00     0.041 A 
ATOM     77  F   UNL A   1      47.883  26.222  27.819  1.00  0.00    -0.206 F 
ATOM     78  C   UNL A   1      49.280  26.533  24.498  1.00  0.00     0.022 A 
BRANCH  75  79
ATOM     79  S   UNL A   1      48.393  27.640  22.099  1.00  0.00     0.124 S 
ATOM     80  O   UNL A   1      48.649  26.315  21.548  1.00  0.00    -0.237 OA
ATOM     81  O   UNL A   1      47.077  28.208  21.822  1.00  0.00    -0.237 OA
ATOM     82  O   UNL A   1      49.506  28.581  22.008  1.00  0.00    -0.744 OA
ENDBRANCH  75  79
ENDBRANCH  48  72
BRANCH  60  83
ATOM     83  C   UNL A   1      45.184  33.256  29.258  1.00  0.00     0.023 A 
ATOM     84  C   UNL A   1      45.057  34.371  28.410  1.00  0.00     0.031 A 
ATOM     85  C   UNL A   1      46.021  33.372  30.383  1.00  0.00     0.131 A 
ATOM     86  C   UNL A   1      45.792  35.536  28.674  1.00  0.00     0.055 A 
ATOM     87  C   UNL A   1      46.697  34.556  30.677  1.00  0.00     0.041 A 
ATOM     88  F   UNL A   1      46.185  32.338  31.224  1.00  0.00    -0.206 F 
ATOM     89  C   UNL A   1      46.594  35.644  29.814  1.00  0.00     0.022 A 
BRANCH  86  90
ATOM     90  S   UNL A   1      45.755  36.883  27.462  1.00  0.00     0.124 S 
ATOM     91  O   UNL A   1      47.121  36.865  26.949  1.00  0.00    -0.237 OA
ATOM     92  O   UNL A   1      44.719  36.442  26.534  1.00  0.00    -0.237 OA
ATOM     93  O   UNL A   1      45.409  38.057  28.263  1.00  0.00    -0.744 OA
ENDBRANCH  86  90
ENDBRANCH  60  83
ENDBRANCH  34  35
ENDBRANCH  26  29
ENDBRANCH  24  25
ENDBRANCH  23  24
ENDBRANCH   1  23
TORSDOF 18
ENDMDL
