MODEL 1
REMARK VINA RESULT:     -11.5      0.000      0.000
REMARK SMILES CCOc1cc(N2CCOCC2)ccc1[C@H]([NH3+])C(=O)NCCCCNC(=O)c1ccc(-c2c3nc(c(-c4cc(S(=O)(=O)[O-])ccc4F)c4ccc([nH]4)c(-c4cc(S(=O)(=O)[O-])ccc4F)c4nc(c(-c5cc(S(=O)(=O)[O-])ccc5F)c5ccc2[nH]5)C=C4)C=C3)cc1
REMARK SMILES IDX 22 1 21 2 20 3 18 4 19 5 16 7 15 8 4 9 5 10 6 11 14 12 13 13
REMARK SMILES IDX 3 14 2 15 1 16 7 17 8 18 12 19 9 20 11 21 10 22 17 23 23 27
REMARK SMILES IDX 24 28 25 29 26 30 27 32 28 33 29 34 90 35 30 36 89 37 31 38
REMARK SMILES IDX 32 39 33 40 83 41 34 42 88 43 82 44 84 45 35 46 87 47 81 48
REMARK SMILES IDX 80 49 36 51 68 52 48 53 67 54 49 55 52 56 66 57 85 58 50 59
REMARK SMILES IDX 51 60 65 62 86 63 53 64 37 65 38 66 46 67 39 68 45 69 47 70
REMARK SMILES IDX 44 71 40 72 41 73 42 74 43 75 69 76 70 77 78 78 71 79 77 80
REMARK SMILES IDX 79 81 76 82 72 83 73 84 74 85 75 86 54 87 55 88 63 89 56 90
REMARK SMILES IDX 62 91 64 92 61 93 57 94 58 95 59 96 60 97
REMARK H PARENT 20 6 17 24 17 25 17 26 25 31 84 50 52 61
REMARK Flexibility Score: inf
ROOT
ATOM      1  C   UNL A   1      33.924  28.284  25.435  1.00  0.00     0.023 C 
ENDROOT
BRANCH   1   2
ATOM      2  C   UNL A   1      33.351  26.866  25.457  1.00  0.00     0.116 C 
BRANCH   2   3
ATOM      3  N   UNL A   1      34.089  25.996  24.568  1.00  0.00    -0.351 N 
ATOM      4  C   UNL A   1      33.753  25.341  23.431  1.00  0.00     0.283 C 
ATOM      5  O   UNL A   1      34.594  24.513  23.041  1.00  0.00    -0.268 OA
ATOM      6  H   UNL A   1      35.023  25.851  24.845  1.00  0.00     0.163 HD
BRANCH   4   7
ATOM      7  C   UNL A   1      32.445  25.500  22.619  1.00  0.00     0.306 C 
BRANCH   7   8
ATOM      8  C   UNL A   1      31.524  26.680  22.863  1.00  0.00     0.061 A 
ATOM      9  C   UNL A   1      30.317  26.633  23.588  1.00  0.00     0.131 A 
ATOM     10  C   UNL A   1      29.412  27.706  23.545  1.00  0.00     0.072 A 
ATOM     11  C   UNL A   1      29.695  28.846  22.781  1.00  0.00     0.040 A 
ATOM     12  C   UNL A   1      31.864  27.893  22.241  1.00  0.00     0.016 A 
ATOM     13  C   UNL A   1      30.959  28.953  22.199  1.00  0.00     0.027 A 
BRANCH   9  14
ATOM     14  O   UNL A   1      29.918  25.465  24.192  1.00  0.00    -0.493 OA
BRANCH  14  15
ATOM     15  C   UNL A   1      30.001  25.498  25.622  1.00  0.00     0.226 C 
ATOM     16  C   UNL A   1      30.797  24.282  26.075  1.00  0.00     0.049 C 
ENDBRANCH  14  15
ENDBRANCH   9  14
BRANCH  11  17
ATOM     17  N   UNL A   1      28.714  29.757  22.466  1.00  0.00    -0.367 N 
ATOM     18  C   UNL A   1      28.964  30.722  21.388  1.00  0.00     0.145 C 
ATOM     19  C   UNL A   1      27.504  29.967  23.254  1.00  0.00     0.145 C 
ATOM     20  C   UNL A   1      28.838  32.149  21.930  1.00  0.00     0.181 C 
ATOM     21  C   UNL A   1      27.409  31.450  23.675  1.00  0.00     0.181 C 
ATOM     22  O   UNL A   1      27.561  32.349  22.558  1.00  0.00    -0.378 OA
ENDBRANCH  11  17
ENDBRANCH   7   8
BRANCH   7  23
ATOM     23  N   UNL A   1      31.754  24.196  22.501  1.00  0.00    -0.343 N 
ATOM     24  H   UNL A   1      30.757  24.351  22.358  1.00  0.00     0.345 HD
ATOM     25  H   UNL A   1      31.896  23.657  23.356  1.00  0.00     0.345 HD
ATOM     26  H   UNL A   1      32.134  23.679  21.707  1.00  0.00     0.345 HD
ENDBRANCH   7  23
ENDBRANCH   4   7
ENDBRANCH   2   3
ENDBRANCH   1   2
BRANCH   1  27
ATOM     27  C   UNL A   1      32.870  29.389  25.425  1.00  0.00     0.023 C 
BRANCH  27  28
ATOM     28  C   UNL A   1      32.426  29.844  26.809  1.00  0.00     0.116 C 
BRANCH  28  29
ATOM     29  N   UNL A   1      32.177  31.274  26.884  1.00  0.00    -0.352 N 
ATOM     30  C   UNL A   1      32.998  32.255  27.402  1.00  0.00     0.251 C 
ATOM     31  H   UNL A   1      31.315  31.581  26.519  1.00  0.00     0.163 HD
ATOM     32  O   UNL A   1      32.599  33.407  27.511  1.00  0.00    -0.269 OA
BRANCH  30  33
ATOM     33  C   UNL A   1      34.349  31.870  27.859  1.00  0.00     0.039 A 
ATOM     34  C   UNL A   1      35.362  32.830  27.884  1.00  0.00     0.014 A 
ATOM     35  C   UNL A   1      34.575  30.583  28.352  1.00  0.00     0.014 A 
ATOM     36  C   UNL A   1      36.586  32.522  28.486  1.00  0.00     0.010 A 
ATOM     37  C   UNL A   1      35.760  30.306  29.020  1.00  0.00     0.010 A 
ATOM     38  C   UNL A   1      36.775  31.274  29.099  1.00  0.00    -0.014 A 
BRANCH  38  39
ATOM     39  C   UNL A   1      38.028  30.922  29.818  1.00  0.00     0.031 A 
ATOM     40  C   UNL A   1      38.971  29.931  29.197  1.00  0.00     0.074 A 
ATOM     41  C   UNL A   1      38.251  31.384  31.064  1.00  0.00     0.049 A 
ATOM     42  N   UNL A   1      39.986  29.302  29.729  1.00  0.00    -0.248 NA
ATOM     43  C   UNL A   1      38.694  29.564  27.801  1.00  0.00     0.031 C 
ATOM     44  C   UNL A   1      37.392  32.325  31.785  1.00  0.00     0.029 A 
ATOM     45  N   UNL A   1      39.253  31.097  31.957  1.00  0.00    -0.354 N 
ATOM     46  C   UNL A   1      40.450  28.439  28.742  1.00  0.00     0.074 A 
ATOM     47  C   UNL A   1      39.560  28.583  27.609  1.00  0.00     0.031 C 
ATOM     48  C   UNL A   1      37.901  32.532  33.010  1.00  0.00     0.029 A 
ATOM     49  C   UNL A   1      39.090  31.702  33.181  1.00  0.00     0.049 A 
ATOM     50  H   UNL A   1      40.016  30.514  31.742  1.00  0.00     0.167 HD
ATOM     51  C   UNL A   1      41.530  27.618  28.770  1.00  0.00     0.034 A 
ATOM     52  C   UNL A   1      39.798  31.578  34.322  1.00  0.00     0.034 A 
ATOM     53  C   UNL A   1      42.413  27.505  29.906  1.00  0.00     0.049 A 
ATOM     54  C   UNL A   1      40.989  30.654  34.345  1.00  0.00     0.074 A 
ATOM     55  C   UNL A   1      43.561  26.745  30.036  1.00  0.00     0.029 A 
ATOM     56  N   UNL A   1      42.242  28.175  31.112  1.00  0.00    -0.354 N 
ATOM     57  N   UNL A   1      41.434  29.859  33.399  1.00  0.00    -0.248 NA
ATOM     58  C   UNL A   1      41.778  30.616  35.583  1.00  0.00     0.031 C 
ATOM     59  C   UNL A   1      44.051  26.909  31.336  1.00  0.00     0.029 A 
ATOM     60  C   UNL A   1      43.251  27.829  31.996  1.00  0.00     0.049 A 
ATOM     61  H   UNL A   1      41.510  28.803  31.309  1.00  0.00     0.167 HD
ATOM     62  C   UNL A   1      42.574  29.253  33.917  1.00  0.00     0.074 A 
ATOM     63  C   UNL A   1      42.747  29.769  35.259  1.00  0.00     0.031 C 
ATOM     64  C   UNL A   1      43.409  28.357  33.331  1.00  0.00     0.034 A 
BRANCH  51  65
ATOM     65  C   UNL A   1      41.781  26.770  27.546  1.00  0.00     0.023 A 
ATOM     66  C   UNL A   1      41.362  25.430  27.482  1.00  0.00     0.031 A 
ATOM     67  C   UNL A   1      42.515  27.279  26.460  1.00  0.00     0.131 A 
ATOM     68  C   UNL A   1      41.774  24.615  26.417  1.00  0.00     0.055 A 
ATOM     69  C   UNL A   1      42.836  26.489  25.354  1.00  0.00     0.041 A 
ATOM     70  F   UNL A   1      42.962  28.545  26.468  1.00  0.00    -0.206 F 
ATOM     71  C   UNL A   1      42.486  25.142  25.339  1.00  0.00     0.022 A 
BRANCH  68  72
ATOM     72  S   UNL A   1      41.537  22.823  26.566  1.00  0.00     0.124 S 
ATOM     73  O   UNL A   1      42.481  22.318  25.571  1.00  0.00    -0.237 OA
ATOM     74  O   UNL A   1      41.885  22.573  27.960  1.00  0.00    -0.237 OA
ATOM     75  O   UNL A   1      40.129  22.634  26.227  1.00  0.00    -0.744 OA
ENDBRANCH  68  72
ENDBRANCH  51  65
BRANCH  52  76
ATOM     76  C   UNL A   1      39.381  32.323  35.543  1.00  0.00     0.023 A 
ATOM     77  C   UNL A   1      38.609  31.708  36.540  1.00  0.00     0.031 A 
ATOM     78  C   UNL A   1      39.748  33.669  35.726  1.00  0.00     0.131 A 
ATOM     79  C   UNL A   1      38.202  32.446  37.663  1.00  0.00     0.055 A 
ATOM     80  C   UNL A   1      39.378  34.385  36.865  1.00  0.00     0.041 A 
ATOM     81  F   UNL A   1      40.495  34.299  34.806  1.00  0.00    -0.206 F 
ATOM     82  C   UNL A   1      38.591  33.776  37.838  1.00  0.00     0.022 A 
BRANCH  79  83
ATOM     83  S   UNL A   1      37.111  31.653  38.876  1.00  0.00     0.124 S 
ATOM     84  O   UNL A   1      36.939  30.326  38.296  1.00  0.00    -0.237 OA
ATOM     85  O   UNL A   1      37.909  31.724  40.094  1.00  0.00    -0.237 OA
ATOM     86  O   UNL A   1      35.919  32.499  38.866  1.00  0.00    -0.744 OA
ENDBRANCH  79  83
ENDBRANCH  52  76
BRANCH  64  87
ATOM     87  C   UNL A   1      44.625  27.932  34.110  1.00  0.00     0.023 A 
ATOM     88  C   UNL A   1      44.622  26.795  34.935  1.00  0.00     0.031 A 
ATOM     89  C   UNL A   1      45.821  28.664  33.988  1.00  0.00     0.131 A 
ATOM     90  C   UNL A   1      45.789  26.436  35.630  1.00  0.00     0.055 A 
ATOM     91  C   UNL A   1      46.989  28.277  34.645  1.00  0.00     0.041 A 
ATOM     92  F   UNL A   1      45.875  29.757  33.210  1.00  0.00    -0.206 F 
ATOM     93  C   UNL A   1      46.975  27.161  35.476  1.00  0.00     0.022 A 
BRANCH  90  94
ATOM     94  S   UNL A   1      45.731  25.028  36.771  1.00  0.00     0.124 S 
ATOM     95  O   UNL A   1      45.049  25.603  37.926  1.00  0.00    -0.237 OA
ATOM     96  O   UNL A   1      44.975  24.038  36.011  1.00  0.00    -0.237 OA
ATOM     97  O   UNL A   1      47.139  24.699  36.983  1.00  0.00    -0.744 OA
ENDBRANCH  90  94
ENDBRANCH  64  87
ENDBRANCH  38  39
ENDBRANCH  30  33
ENDBRANCH  28  29
ENDBRANCH  27  28
ENDBRANCH   1  27
TORSDOF 19
ENDMDL
MODEL 2
REMARK VINA RESULT:     -11.2      2.431      3.092
REMARK SMILES CCOc1cc(N2CCOCC2)ccc1[C@H]([NH3+])C(=O)NCCCCNC(=O)c1ccc(-c2c3nc(c(-c4cc(S(=O)(=O)[O-])ccc4F)c4ccc([nH]4)c(-c4cc(S(=O)(=O)[O-])ccc4F)c4nc(c(-c5cc(S(=O)(=O)[O-])ccc5F)c5ccc2[nH]5)C=C4)C=C3)cc1
REMARK SMILES IDX 22 1 21 2 20 3 18 4 19 5 16 7 15 8 4 9 5 10 6 11 14 12 13 13
REMARK SMILES IDX 3 14 2 15 1 16 7 17 8 18 12 19 9 20 11 21 10 22 17 23 23 27
REMARK SMILES IDX 24 28 25 29 26 30 27 32 28 33 29 34 90 35 30 36 89 37 31 38
REMARK SMILES IDX 32 39 33 40 83 41 34 42 88 43 82 44 84 45 35 46 87 47 81 48
REMARK SMILES IDX 80 49 36 51 68 52 48 53 67 54 49 55 52 56 66 57 85 58 50 59
REMARK SMILES IDX 51 60 65 62 86 63 53 64 37 65 38 66 46 67 39 68 45 69 47 70
REMARK SMILES IDX 44 71 40 72 41 73 42 74 43 75 69 76 70 77 78 78 71 79 77 80
REMARK SMILES IDX 79 81 76 82 72 83 73 84 74 85 75 86 54 87 55 88 63 89 56 90
REMARK SMILES IDX 62 91 64 92 61 93 57 94 58 95 59 96 60 97
REMARK H PARENT 20 6 17 24 17 25 17 26 25 31 84 50 52 61
REMARK Flexibility Score: inf
ROOT
ATOM      1  C   UNL A   1      32.703  29.043  27.151  1.00  0.00     0.023 C 
ENDROOT
BRANCH   1   2
ATOM      2  C   UNL A   1      32.011  28.195  26.083  1.00  0.00     0.116 C 
BRANCH   2   3
ATOM      3  N   UNL A   1      31.723  26.868  26.583  1.00  0.00    -0.351 N 
ATOM      4  C   UNL A   1      31.200  25.760  26.006  1.00  0.00     0.283 C 
ATOM      5  O   UNL A   1      30.906  24.851  26.801  1.00  0.00    -0.268 OA
ATOM      6  H   UNL A   1      31.953  26.747  27.533  1.00  0.00     0.163 HD
BRANCH   4   7
ATOM      7  C   UNL A   1      30.914  25.542  24.501  1.00  0.00     0.306 C 
BRANCH   7   8
ATOM      8  C   UNL A   1      30.144  26.578  23.704  1.00  0.00     0.061 A 
ATOM      9  C   UNL A   1      30.697  27.426  22.725  1.00  0.00     0.131 A 
ATOM     10  C   UNL A   1      29.967  28.518  22.227  1.00  0.00     0.072 A 
ATOM     11  C   UNL A   1      28.674  28.783  22.694  1.00  0.00     0.040 A 
ATOM     12  C   UNL A   1      28.791  26.761  24.036  1.00  0.00     0.016 A 
ATOM     13  C   UNL A   1      28.074  27.850  23.541  1.00  0.00     0.027 A 
BRANCH   9  14
ATOM     14  O   UNL A   1      32.022  27.314  22.381  1.00  0.00    -0.493 OA
BRANCH  14  15
ATOM     15  C   UNL A   1      32.887  28.180  23.125  1.00  0.00     0.226 C 
ATOM     16  C   UNL A   1      34.052  28.570  22.226  1.00  0.00     0.049 C 
ENDBRANCH  14  15
ENDBRANCH   9  14
BRANCH  11  17
ATOM     17  N   UNL A   1      28.067  29.997  22.472  1.00  0.00    -0.367 N 
ATOM     18  C   UNL A   1      27.966  30.497  21.096  1.00  0.00     0.145 C 
ATOM     19  C   UNL A   1      27.680  30.927  23.529  1.00  0.00     0.145 C 
ATOM     20  C   UNL A   1      28.662  31.857  20.986  1.00  0.00     0.181 C 
ATOM     21  C   UNL A   1      28.349  32.297  23.285  1.00  0.00     0.181 C 
ATOM     22  O   UNL A   1      28.130  32.785  21.946  1.00  0.00    -0.378 OA
ENDBRANCH  11  17
ENDBRANCH   7   8
BRANCH   7  23
ATOM     23  N   UNL A   1      30.494  24.143  24.257  1.00  0.00    -0.343 N 
ATOM     24  H   UNL A   1      30.311  23.683  25.148  1.00  0.00     0.345 HD
ATOM     25  H   UNL A   1      31.236  23.646  23.763  1.00  0.00     0.345 HD
ATOM     26  H   UNL A   1      29.646  24.136  23.690  1.00  0.00     0.345 HD
ENDBRANCH   7  23
ENDBRANCH   4   7
ENDBRANCH   2   3
ENDBRANCH   1   2
BRANCH   1  27
ATOM     27  C   UNL A   1      32.287  30.512  27.155  1.00  0.00     0.023 C 
BRANCH  27  28
ATOM     28  C   UNL A   1      33.416  31.482  27.483  1.00  0.00     0.116 C 
BRANCH  28  29
ATOM     29  N   UNL A   1      32.973  32.865  27.553  1.00  0.00    -0.352 N 
ATOM     30  C   UNL A   1      33.433  33.865  28.387  1.00  0.00     0.251 C 
ATOM     31  H   UNL A   1      32.257  33.121  26.928  1.00  0.00     0.163 HD
ATOM     32  O   UNL A   1      32.876  34.954  28.419  1.00  0.00    -0.269 OA
BRANCH  30  33
ATOM     33  C   UNL A   1      34.583  33.570  29.266  1.00  0.00     0.039 A 
ATOM     34  C   UNL A   1      34.400  32.748  30.380  1.00  0.00     0.014 A 
ATOM     35  C   UNL A   1      35.855  34.032  28.924  1.00  0.00     0.014 A 
ATOM     36  C   UNL A   1      35.513  32.317  31.107  1.00  0.00     0.010 A 
ATOM     37  C   UNL A   1      36.965  33.538  29.597  1.00  0.00     0.010 A 
ATOM     38  C   UNL A   1      36.806  32.671  30.691  1.00  0.00    -0.014 A 
BRANCH  38  39
ATOM     39  C   UNL A   1      38.027  32.179  31.382  1.00  0.00     0.031 A 
ATOM     40  C   UNL A   1      38.826  31.075  30.749  1.00  0.00     0.074 A 
ATOM     41  C   UNL A   1      38.338  32.623  32.615  1.00  0.00     0.049 A 
ATOM     42  N   UNL A   1      39.773  30.334  31.261  1.00  0.00    -0.248 NA
ATOM     43  C   UNL A   1      38.468  30.731  29.365  1.00  0.00     0.031 C 
ATOM     44  C   UNL A   1      37.619  33.667  33.346  1.00  0.00     0.029 A 
ATOM     45  N   UNL A   1      39.323  32.226  33.485  1.00  0.00    -0.354 N 
ATOM     46  C   UNL A   1      40.102  29.412  30.274  1.00  0.00     0.074 A 
ATOM     47  C   UNL A   1      39.204  29.651  29.163  1.00  0.00     0.031 C 
ATOM     48  C   UNL A   1      38.184  33.823  34.555  1.00  0.00     0.029 A 
ATOM     49  C   UNL A   1      39.269  32.858  34.705  1.00  0.00     0.049 A 
ATOM     50  H   UNL A   1      40.004  31.553  33.257  1.00  0.00     0.167 HD
ATOM     51  C   UNL A   1      41.077  28.467  30.284  1.00  0.00     0.034 A 
ATOM     52  C   UNL A   1      39.988  32.660  35.828  1.00  0.00     0.034 A 
ATOM     53  C   UNL A   1      41.970  28.260  31.397  1.00  0.00     0.049 A 
ATOM     54  C   UNL A   1      41.060  31.600  35.832  1.00  0.00     0.074 A 
ATOM     55  C   UNL A   1      43.022  27.368  31.507  1.00  0.00     0.029 A 
ATOM     56  N   UNL A   1      41.915  28.957  32.599  1.00  0.00    -0.354 N 
ATOM     57  N   UNL A   1      41.379  30.749  34.884  1.00  0.00    -0.248 NA
ATOM     58  C   UNL A   1      41.873  31.479  37.049  1.00  0.00     0.031 C 
ATOM     59  C   UNL A   1      43.565  27.484  32.791  1.00  0.00     0.029 A 
ATOM     60  C   UNL A   1      42.899  28.501  33.460  1.00  0.00     0.049 A 
ATOM     61  H   UNL A   1      41.269  29.671  32.807  1.00  0.00     0.167 HD
ATOM     62  C   UNL A   1      42.453  30.014  35.380  1.00  0.00     0.074 A 
ATOM     63  C   UNL A   1      42.723  30.519  36.710  1.00  0.00     0.031 C 
ATOM     64  C   UNL A   1      43.157  29.019  34.783  1.00  0.00     0.034 A 
BRANCH  51  65
ATOM     65  C   UNL A   1      41.190  27.584  29.065  1.00  0.00     0.023 A 
ATOM     66  C   UNL A   1      42.196  27.784  28.103  1.00  0.00     0.031 A 
ATOM     67  C   UNL A   1      40.239  26.578  28.818  1.00  0.00     0.131 A 
ATOM     68  C   UNL A   1      42.161  27.075  26.893  1.00  0.00     0.055 A 
ATOM     69  C   UNL A   1      40.270  25.805  27.654  1.00  0.00     0.041 A 
ATOM     70  F   UNL A   1      39.241  26.349  29.687  1.00  0.00    -0.206 F 
ATOM     71  C   UNL A   1      41.220  26.068  26.673  1.00  0.00     0.022 A 
BRANCH  68  72
ATOM     72  S   UNL A   1      43.236  27.631  25.542  1.00  0.00     0.124 S 
ATOM     73  O   UNL A   1      44.062  28.631  26.216  1.00  0.00    -0.237 OA
ATOM     74  O   UNL A   1      43.914  26.401  25.152  1.00  0.00    -0.237 OA
ATOM     75  O   UNL A   1      42.299  28.169  24.558  1.00  0.00    -0.744 OA
ENDBRANCH  68  72
ENDBRANCH  51  65
BRANCH  52  76
ATOM     76  C   UNL A   1      39.698  33.463  37.049  1.00  0.00     0.023 A 
ATOM     77  C   UNL A   1      40.438  34.615  37.353  1.00  0.00     0.031 A 
ATOM     78  C   UNL A   1      38.674  33.083  37.935  1.00  0.00     0.131 A 
ATOM     79  C   UNL A   1      40.165  35.332  38.528  1.00  0.00     0.055 A 
ATOM     80  C   UNL A   1      38.376  33.823  39.080  1.00  0.00     0.041 A 
ATOM     81  F   UNL A   1      37.929  31.994  37.684  1.00  0.00    -0.206 F 
ATOM     82  C   UNL A   1      39.132  34.951  39.387  1.00  0.00     0.022 A 
BRANCH  79  83
ATOM     83  S   UNL A   1      41.215  36.750  38.947  1.00  0.00     0.124 S 
ATOM     84  O   UNL A   1      41.983  36.229  40.072  1.00  0.00    -0.237 OA
ATOM     85  O   UNL A   1      41.954  36.957  37.706  1.00  0.00    -0.237 OA
ATOM     86  O   UNL A   1      40.255  37.800  39.278  1.00  0.00    -0.744 OA
ENDBRANCH  79  83
ENDBRANCH  52  76
BRANCH  64  87
ATOM     87  C   UNL A   1      44.335  28.458  35.535  1.00  0.00     0.023 A 
ATOM     88  C   UNL A   1      44.188  27.466  36.518  1.00  0.00     0.031 A 
ATOM     89  C   UNL A   1      45.634  28.904  35.228  1.00  0.00     0.131 A 
ATOM     90  C   UNL A   1      45.322  26.968  37.180  1.00  0.00     0.055 A 
ATOM     91  C   UNL A   1      46.760  28.374  35.857  1.00  0.00     0.041 A 
ATOM     92  F   UNL A   1      45.826  29.850  34.295  1.00  0.00    -0.206 F 
ATOM     93  C   UNL A   1      46.607  27.405  36.843  1.00  0.00     0.022 A 
BRANCH  90  94
ATOM     94  S   UNL A   1      45.098  25.766  38.519  1.00  0.00     0.124 S 
ATOM     95  O   UNL A   1      46.449  25.659  39.059  1.00  0.00    -0.237 OA
ATOM     96  O   UNL A   1      44.118  26.427  39.375  1.00  0.00    -0.237 OA
ATOM     97  O   UNL A   1      44.609  24.572  37.831  1.00  0.00    -0.744 OA
ENDBRANCH  90  94
ENDBRANCH  64  87
ENDBRANCH  38  39
ENDBRANCH  30  33
ENDBRANCH  28  29
ENDBRANCH  27  28
ENDBRANCH   1  27
TORSDOF 19
ENDMDL
MODEL 3
REMARK VINA RESULT:     -11.2      4.706      7.369
REMARK SMILES CCOc1cc(N2CCOCC2)ccc1[C@H]([NH3+])C(=O)NCCCCNC(=O)c1ccc(-c2c3nc(c(-c4cc(S(=O)(=O)[O-])ccc4F)c4ccc([nH]4)c(-c4cc(S(=O)(=O)[O-])ccc4F)c4nc(c(-c5cc(S(=O)(=O)[O-])ccc5F)c5ccc2[nH]5)C=C4)C=C3)cc1
REMARK SMILES IDX 22 1 21 2 20 3 18 4 19 5 16 7 15 8 4 9 5 10 6 11 14 12 13 13
REMARK SMILES IDX 3 14 2 15 1 16 7 17 8 18 12 19 9 20 11 21 10 22 17 23 23 27
REMARK SMILES IDX 24 28 25 29 26 30 27 32 28 33 29 34 90 35 30 36 89 37 31 38
REMARK SMILES IDX 32 39 33 40 83 41 34 42 88 43 82 44 84 45 35 46 87 47 81 48
REMARK SMILES IDX 80 49 36 51 68 52 48 53 67 54 49 55 52 56 66 57 85 58 50 59
REMARK SMILES IDX 51 60 65 62 86 63 53 64 37 65 38 66 46 67 39 68 45 69 47 70
REMARK SMILES IDX 44 71 40 72 41 73 42 74 43 75 69 76 70 77 78 78 71 79 77 80
REMARK SMILES IDX 79 81 76 82 72 83 73 84 74 85 75 86 54 87 55 88 63 89 56 90
REMARK SMILES IDX 62 91 64 92 61 93 57 94 58 95 59 96 60 97
REMARK H PARENT 20 6 17 24 17 25 17 26 25 31 84 50 52 61
REMARK Flexibility Score: inf
ROOT
ATOM      1  C   UNL A   1      35.071  23.890  23.719  1.00  0.00     0.023 C 
ENDROOT
BRANCH   1   2
ATOM      2  C   UNL A   1      33.931  24.845  23.360  1.00  0.00     0.116 C 
BRANCH   2   3
ATOM      3  N   UNL A   1      32.649  24.273  23.710  1.00  0.00    -0.351 N 
ATOM      4  C   UNL A   1      31.669  24.663  24.559  1.00  0.00     0.283 C 
ATOM      5  O   UNL A   1      30.786  23.811  24.758  1.00  0.00    -0.268 OA
ATOM      6  H   UNL A   1      32.450  23.434  23.236  1.00  0.00     0.163 HD
BRANCH   4   7
ATOM      7  C   UNL A   1      31.568  26.014  25.307  1.00  0.00     0.306 C 
BRANCH   7   8
ATOM      8  C   UNL A   1      31.081  27.258  24.589  1.00  0.00     0.061 A 
ATOM      9  C   UNL A   1      31.378  28.582  24.963  1.00  0.00     0.131 A 
ATOM     10  C   UNL A   1      30.681  29.663  24.398  1.00  0.00     0.072 A 
ATOM     11  C   UNL A   1      29.677  29.442  23.446  1.00  0.00     0.040 A 
ATOM     12  C   UNL A   1      30.192  27.068  23.517  1.00  0.00     0.016 A 
ATOM     13  C   UNL A   1      29.499  28.145  22.963  1.00  0.00     0.027 A 
BRANCH   9  14
ATOM     14  O   UNL A   1      32.218  28.830  26.023  1.00  0.00    -0.493 OA
BRANCH  14  15
ATOM     15  C   UNL A   1      33.270  29.754  25.722  1.00  0.00     0.226 C 
ATOM     16  C   UNL A   1      33.782  30.329  27.036  1.00  0.00     0.049 C 
ENDBRANCH  14  15
ENDBRANCH   9  14
BRANCH  11  17
ATOM     17  N   UNL A   1      28.776  30.427  23.116  1.00  0.00    -0.367 N 
ATOM     18  C   UNL A   1      27.955  30.260  21.910  1.00  0.00     0.145 C 
ATOM     19  C   UNL A   1      28.703  31.728  23.773  1.00  0.00     0.145 C 
ATOM     20  C   UNL A   1      28.196  31.432  20.953  1.00  0.00     0.181 C 
ATOM     21  C   UNL A   1      28.857  32.849  22.722  1.00  0.00     0.181 C 
ATOM     22  O   UNL A   1      27.956  32.688  21.609  1.00  0.00    -0.378 OA
ENDBRANCH  11  17
ENDBRANCH   7   8
BRANCH   7  23
ATOM     23  N   UNL A   1      32.766  26.223  26.151  1.00  0.00    -0.343 N 
ATOM     24  H   UNL A   1      32.615  27.023  26.765  1.00  0.00     0.345 HD
ATOM     25  H   UNL A   1      33.576  26.399  25.556  1.00  0.00     0.345 HD
ATOM     26  H   UNL A   1      32.935  25.390  26.715  1.00  0.00     0.345 HD
ENDBRANCH   7  23
ENDBRANCH   4   7
ENDBRANCH   2   3
ENDBRANCH   1   2
BRANCH   1  27
ATOM     27  C   UNL A   1      35.248  23.658  25.218  1.00  0.00     0.023 C 
BRANCH  27  28
ATOM     28  C   UNL A   1      36.644  23.974  25.741  1.00  0.00     0.116 C 
BRANCH  28  29
ATOM     29  N   UNL A   1      37.452  22.785  25.955  1.00  0.00    -0.352 N 
ATOM     30  C   UNL A   1      38.754  22.712  26.412  1.00  0.00     0.251 C 
ATOM     31  H   UNL A   1      37.019  21.925  25.750  1.00  0.00     0.163 HD
ATOM     32  O   UNL A   1      39.350  21.643  26.423  1.00  0.00    -0.269 OA
BRANCH  30  33
ATOM     33  C   UNL A   1      39.416  23.960  26.844  1.00  0.00     0.039 A 
ATOM     34  C   UNL A   1      40.061  24.755  25.895  1.00  0.00     0.014 A 
ATOM     35  C   UNL A   1      39.309  24.380  28.171  1.00  0.00     0.014 A 
ATOM     36  C   UNL A   1      40.527  26.021  26.262  1.00  0.00     0.010 A 
ATOM     37  C   UNL A   1      39.699  25.668  28.513  1.00  0.00     0.010 A 
ATOM     38  C   UNL A   1      40.307  26.503  27.561  1.00  0.00    -0.014 A 
BRANCH  38  39
ATOM     39  C   UNL A   1      40.713  27.870  27.982  1.00  0.00     0.031 A 
ATOM     40  C   UNL A   1      42.175  28.180  28.136  1.00  0.00     0.074 A 
ATOM     41  C   UNL A   1      39.785  28.776  28.344  1.00  0.00     0.049 A 
ATOM     42  N   UNL A   1      42.754  29.205  28.705  1.00  0.00    -0.248 NA
ATOM     43  C   UNL A   1      43.108  27.167  27.622  1.00  0.00     0.031 C 
ATOM     44  C   UNL A   1      38.336  28.581  28.270  1.00  0.00     0.029 A 
ATOM     45  N   UNL A   1      39.923  30.033  28.879  1.00  0.00    -0.354 N 
ATOM     46  C   UNL A   1      44.118  28.944  28.649  1.00  0.00     0.074 A 
ATOM     47  C   UNL A   1      44.269  27.634  28.049  1.00  0.00     0.031 C 
ATOM     48  C   UNL A   1      37.721  29.675  28.747  1.00  0.00     0.029 A 
ATOM     49  C   UNL A   1      38.728  30.627  29.209  1.00  0.00     0.049 A 
ATOM     50  H   UNL A   1      40.796  30.467  29.015  1.00  0.00     0.167 HD
ATOM     51  C   UNL A   1      45.151  29.732  29.041  1.00  0.00     0.034 A 
ATOM     52  C   UNL A   1      38.471  31.790  29.840  1.00  0.00     0.034 A 
ATOM     53  C   UNL A   1      44.976  31.041  29.620  1.00  0.00     0.049 A 
ATOM     54  C   UNL A   1      39.626  32.652  30.281  1.00  0.00     0.074 A 
ATOM     55  C   UNL A   1      45.943  31.949  30.014  1.00  0.00     0.029 A 
ATOM     56  N   UNL A   1      43.746  31.630  29.891  1.00  0.00    -0.354 N 
ATOM     57  N   UNL A   1      40.914  32.407  30.201  1.00  0.00    -0.248 NA
ATOM     58  C   UNL A   1      39.296  33.948  30.889  1.00  0.00     0.031 C 
ATOM     59  C   UNL A   1      45.301  33.059  30.574  1.00  0.00     0.029 A 
ATOM     60  C   UNL A   1      43.931  32.877  30.464  1.00  0.00     0.049 A 
ATOM     61  H   UNL A   1      42.871  31.219  29.704  1.00  0.00     0.167 HD
ATOM     62  C   UNL A   1      41.547  33.534  30.718  1.00  0.00     0.074 A 
ATOM     63  C   UNL A   1      40.502  34.456  31.110  1.00  0.00     0.031 C 
ATOM     64  C   UNL A   1      42.875  33.786  30.846  1.00  0.00     0.034 A 
BRANCH  51  65
ATOM     65  C   UNL A   1      46.544  29.172  28.875  1.00  0.00     0.023 A 
ATOM     66  C   UNL A   1      47.151  29.073  27.611  1.00  0.00     0.031 A 
ATOM     67  C   UNL A   1      47.246  28.660  29.980  1.00  0.00     0.131 A 
ATOM     68  C   UNL A   1      48.360  28.378  27.464  1.00  0.00     0.055 A 
ATOM     69  C   UNL A   1      48.499  28.057  29.841  1.00  0.00     0.041 A 
ATOM     70  F   UNL A   1      46.714  28.705  31.212  1.00  0.00    -0.206 F 
ATOM     71  C   UNL A   1      49.051  27.892  28.575  1.00  0.00     0.022 A 
BRANCH  68  72
ATOM     72  S   UNL A   1      48.905  27.947  25.789  1.00  0.00     0.124 S 
ATOM     73  O   UNL A   1      50.078  28.805  25.633  1.00  0.00    -0.237 OA
ATOM     74  O   UNL A   1      49.170  26.518  25.901  1.00  0.00    -0.237 OA
ATOM     75  O   UNL A   1      47.763  28.311  24.953  1.00  0.00    -0.744 OA
ENDBRANCH  68  72
ENDBRANCH  51  65
BRANCH  52  76
ATOM     76  C   UNL A   1      37.063  32.191  30.118  1.00  0.00     0.023 A 
ATOM     77  C   UNL A   1      36.326  32.941  29.189  1.00  0.00     0.031 A 
ATOM     78  C   UNL A   1      36.435  31.832  31.324  1.00  0.00     0.131 A 
ATOM     79  C   UNL A   1      35.013  33.334  29.494  1.00  0.00     0.055 A 
ATOM     80  C   UNL A   1      35.116  32.187  31.604  1.00  0.00     0.041 A 
ATOM     81  F   UNL A   1      37.094  31.105  32.241  1.00  0.00    -0.206 F 
ATOM     82  C   UNL A   1      34.399  32.952  30.688  1.00  0.00     0.022 A 
BRANCH  79  83
ATOM     83  S   UNL A   1      34.130  34.399  28.320  1.00  0.00     0.124 S 
ATOM     84  O   UNL A   1      35.099  34.513  27.236  1.00  0.00    -0.237 OA
ATOM     85  O   UNL A   1      32.936  33.610  28.034  1.00  0.00    -0.237 OA
ATOM     86  O   UNL A   1      33.895  35.624  29.080  1.00  0.00    -0.744 OA
ENDBRANCH  79  83
ENDBRANCH  52  76
BRANCH  64  87
ATOM     87  C   UNL A   1      43.275  35.141  31.368  1.00  0.00     0.023 A 
ATOM     88  C   UNL A   1      43.576  36.211  30.510  1.00  0.00     0.031 A 
ATOM     89  C   UNL A   1      43.315  35.368  32.756  1.00  0.00     0.131 A 
ATOM     90  C   UNL A   1      43.931  37.458  31.050  1.00  0.00     0.055 A 
ATOM     91  C   UNL A   1      43.625  36.620  33.286  1.00  0.00     0.041 A 
ATOM     92  F   UNL A   1      43.034  34.376  33.617  1.00  0.00    -0.206 F 
ATOM     93  C   UNL A   1      43.941  37.671  32.432  1.00  0.00     0.022 A 
BRANCH  90  94
ATOM     94  S   UNL A   1      44.419  38.794  29.925  1.00  0.00     0.124 S 
ATOM     95  O   UNL A   1      43.138  39.185  29.346  1.00  0.00    -0.237 OA
ATOM     96  O   UNL A   1      45.032  39.760  30.832  1.00  0.00    -0.237 OA
ATOM     97  O   UNL A   1      45.345  38.143  29.000  1.00  0.00    -0.744 OA
ENDBRANCH  90  94
ENDBRANCH  64  87
ENDBRANCH  38  39
ENDBRANCH  30  33
ENDBRANCH  28  29
ENDBRANCH  27  28
ENDBRANCH   1  27
TORSDOF 19
ENDMDL
