MODEL 1
REMARK VINA RESULT:     -11.0      0.000      0.000
REMARK SMILES CCN1CC(=O)N(C[C@@H]([NH3+])C(=O)NCCCCNC(=O)c2ccc(-c3c4nc(c(-c5cc(S(=O)(=O)[O-])ccc5F)c5ccc([nH]5)c(-c5cc(S(=O)(=O)[O-])ccc5F)c5nc(c(-c6cc(S(=O)(=O)[O-])ccc6F)c6ccc3[nH]6)C=C5)C=C4)cc2)CC1=O
REMARK SMILES IDX 15 1 14 2 13 3 11 4 12 5 9 7 8 8 7 9 3 10 4 11 85 12 5 13
REMARK SMILES IDX 84 14 86 15 6 16 2 17 1 18 10 19 16 23 17 24 18 25 19 26
REMARK SMILES IDX 20 28 21 29 22 30 83 31 23 32 82 33 24 34 25 35 26 36 76 37
REMARK SMILES IDX 27 38 81 39 75 40 77 41 28 42 80 43 74 44 73 45 29 47 61 48
REMARK SMILES IDX 41 49 60 50 42 51 45 52 59 53 78 54 43 55 44 56 58 58 79 59
REMARK SMILES IDX 46 60 30 61 31 62 39 63 32 64 38 65 40 66 37 67 33 68 34 69
REMARK SMILES IDX 35 70 36 71 62 72 63 73 71 74 64 75 70 76 72 77 69 78 65 79
REMARK SMILES IDX 66 80 67 81 68 82 47 83 48 84 56 85 49 86 55 87 57 88 54 89
REMARK SMILES IDX 50 90 51 91 52 92 53 93
REMARK H PARENT 13 6 10 20 10 21 10 22 18 27 77 46 45 57
REMARK Flexibility Score: inf
ROOT
ATOM      1  C   UNL A   1      31.708  30.255  26.694  1.00  0.00     0.023 C 
ENDROOT
BRANCH   1   2
ATOM      2  C   UNL A   1      32.178  29.658  25.366  1.00  0.00     0.116 C 
BRANCH   2   3
ATOM      3  N   UNL A   1      31.116  29.698  24.373  1.00  0.00    -0.351 N 
ATOM      4  C   UNL A   1      30.965  28.984  23.219  1.00  0.00     0.280 C 
ATOM      5  O   UNL A   1      29.964  29.200  22.532  1.00  0.00    -0.268 OA
ATOM      6  H   UNL A   1      30.394  30.339  24.563  1.00  0.00     0.163 HD
BRANCH   4   7
ATOM      7  C   UNL A   1      31.970  27.885  22.813  1.00  0.00     0.290 C 
BRANCH   7   8
ATOM      8  C   UNL A   1      31.234  26.677  22.190  1.00  0.00     0.195 C 
BRANCH   8   9
ATOM      9  N   UNL A   1      31.720  25.344  22.556  1.00  0.00    -0.325 N 
ATOM     10  N   UNL A   1      32.829  23.351  24.172  1.00  0.00    -0.332 N 
ATOM     11  C   UNL A   1      33.410  23.594  22.845  1.00  0.00     0.219 C 
ATOM     12  C   UNL A   1      31.494  23.675  24.391  1.00  0.00     0.242 C 
ATOM     13  C   UNL A   1      33.013  24.949  22.254  1.00  0.00     0.242 C 
ATOM     14  C   UNL A   1      30.822  24.407  23.232  1.00  0.00     0.220 C 
ATOM     15  O   UNL A   1      30.838  23.308  25.362  1.00  0.00    -0.273 OA
ATOM     16  O   UNL A   1      33.750  25.564  21.485  1.00  0.00    -0.273 OA
BRANCH  10  17
ATOM     17  C   UNL A   1      33.688  22.761  25.198  1.00  0.00     0.116 C 
ATOM     18  C   UNL A   1      34.756  23.658  25.808  1.00  0.00     0.027 C 
ENDBRANCH  10  17
ENDBRANCH   8   9
ENDBRANCH   7   8
BRANCH   7  19
ATOM     19  N   UNL A   1      33.051  28.506  22.000  1.00  0.00    -0.346 N 
ATOM     20  H   UNL A   1      33.814  27.840  21.884  1.00  0.00     0.345 HD
ATOM     21  H   UNL A   1      33.397  29.339  22.475  1.00  0.00     0.345 HD
ATOM     22  H   UNL A   1      32.682  28.764  21.085  1.00  0.00     0.345 HD
ENDBRANCH   7  19
ENDBRANCH   4   7
ENDBRANCH   2   3
ENDBRANCH   1   2
BRANCH   1  23
ATOM     23  C   UNL A   1      31.627  31.783  26.706  1.00  0.00     0.023 C 
BRANCH  23  24
ATOM     24  C   UNL A   1      32.853  32.490  27.271  1.00  0.00     0.116 C 
BRANCH  24  25
ATOM     25  N   UNL A   1      32.595  33.881  27.605  1.00  0.00    -0.352 N 
ATOM     26  C   UNL A   1      33.166  34.660  28.579  1.00  0.00     0.251 C 
ATOM     27  H   UNL A   1      31.913  34.327  27.053  1.00  0.00     0.163 HD
ATOM     28  O   UNL A   1      32.695  35.772  28.816  1.00  0.00    -0.269 OA
BRANCH  26  29
ATOM     29  C   UNL A   1      34.313  34.153  29.363  1.00  0.00     0.039 A 
ATOM     30  C   UNL A   1      34.058  33.361  30.486  1.00  0.00     0.014 A 
ATOM     31  C   UNL A   1      35.631  34.447  29.001  1.00  0.00     0.014 A 
ATOM     32  C   UNL A   1      35.123  32.813  31.202  1.00  0.00     0.010 A 
ATOM     33  C   UNL A   1      36.690  33.836  29.669  1.00  0.00     0.010 A 
ATOM     34  C   UNL A   1      36.448  33.010  30.777  1.00  0.00    -0.014 A 
BRANCH  34  35
ATOM     35  C   UNL A   1      37.572  32.329  31.474  1.00  0.00     0.031 A 
ATOM     36  C   UNL A   1      38.324  31.209  30.807  1.00  0.00     0.074 A 
ATOM     37  C   UNL A   1      37.891  32.707  32.729  1.00  0.00     0.049 A 
ATOM     38  N   UNL A   1      39.333  30.510  31.260  1.00  0.00    -0.248 NA
ATOM     39  C   UNL A   1      37.868  30.804  29.468  1.00  0.00     0.031 C 
ATOM     40  C   UNL A   1      37.194  33.742  33.499  1.00  0.00     0.029 A 
ATOM     41  N   UNL A   1      38.876  32.272  33.579  1.00  0.00    -0.354 N 
ATOM     42  C   UNL A   1      39.630  29.580  30.268  1.00  0.00     0.074 A 
ATOM     43  C   UNL A   1      38.654  29.769  29.215  1.00  0.00     0.031 C 
ATOM     44  C   UNL A   1      37.798  33.886  34.688  1.00  0.00     0.029 A 
ATOM     45  C   UNL A   1      38.890  32.925  34.791  1.00  0.00     0.049 A 
ATOM     46  H   UNL A   1      39.515  31.561  33.344  1.00  0.00     0.167 HD
ATOM     47  C   UNL A   1      40.634  28.670  30.233  1.00  0.00     0.034 A 
ATOM     48  C   UNL A   1      39.683  32.762  35.869  1.00  0.00     0.034 A 
ATOM     49  C   UNL A   1      41.602  28.502  31.291  1.00  0.00     0.049 A 
ATOM     50  C   UNL A   1      40.784  31.733  35.807  1.00  0.00     0.074 A 
ATOM     51  C   UNL A   1      42.702  27.662  31.325  1.00  0.00     0.029 A 
ATOM     52  N   UNL A   1      41.580  29.173  32.508  1.00  0.00    -0.354 N 
ATOM     53  N   UNL A   1      41.101  30.919  34.825  1.00  0.00    -0.248 NA
ATOM     54  C   UNL A   1      41.644  31.613  36.990  1.00  0.00     0.031 C 
ATOM     55  C   UNL A   1      43.292  27.760  32.590  1.00  0.00     0.029 A 
ATOM     56  C   UNL A   1      42.619  28.730  33.315  1.00  0.00     0.049 A 
ATOM     57  H   UNL A   1      40.923  29.861  32.761  1.00  0.00     0.167 HD
ATOM     58  C   UNL A   1      42.213  30.208  35.268  1.00  0.00     0.074 A 
ATOM     59  C   UNL A   1      42.528  30.712  36.589  1.00  0.00     0.031 C 
ATOM     60  C   UNL A   1      42.910  29.225  34.642  1.00  0.00     0.034 A 
BRANCH  47  61
ATOM     61  C   UNL A   1      40.719  27.762  29.028  1.00  0.00     0.023 A 
ATOM     62  C   UNL A   1      41.660  27.971  28.002  1.00  0.00     0.031 A 
ATOM     63  C   UNL A   1      39.849  26.664  28.904  1.00  0.00     0.131 A 
ATOM     64  C   UNL A   1      41.667  27.135  26.876  1.00  0.00     0.055 A 
ATOM     65  C   UNL A   1      39.914  25.788  27.819  1.00  0.00     0.041 A 
ATOM     66  F   UNL A   1      38.914  26.424  29.838  1.00  0.00    -0.206 F 
ATOM     67  C   UNL A   1      40.819  26.028  26.789  1.00  0.00     0.022 A 
BRANCH  64  68
ATOM     68  S   UNL A   1      42.710  27.590  25.463  1.00  0.00     0.124 S 
ATOM     69  O   UNL A   1      42.020  28.774  24.957  1.00  0.00    -0.237 OA
ATOM     70  O   UNL A   1      44.006  27.823  26.089  1.00  0.00    -0.237 OA
ATOM     71  O   UNL A   1      42.639  26.417  24.592  1.00  0.00    -0.744 OA
ENDBRANCH  64  68
ENDBRANCH  47  61
BRANCH  48  72
ATOM     72  C   UNL A   1      39.460  33.568  37.105  1.00  0.00     0.023 A 
ATOM     73  C   UNL A   1      40.206  34.730  37.363  1.00  0.00     0.031 A 
ATOM     74  C   UNL A   1      38.530  33.156  38.077  1.00  0.00     0.131 A 
ATOM     75  C   UNL A   1      40.050  35.406  38.584  1.00  0.00     0.055 A 
ATOM     76  C   UNL A   1      38.333  33.867  39.261  1.00  0.00     0.041 A 
ATOM     77  F   UNL A   1      37.789  32.052  37.884  1.00  0.00    -0.206 F 
ATOM     78  C   UNL A   1      39.108  34.991  39.527  1.00  0.00     0.022 A 
BRANCH  75  79
ATOM     79  S   UNL A   1      41.177  36.774  38.971  1.00  0.00     0.124 S 
ATOM     80  O   UNL A   1      41.897  36.249  40.125  1.00  0.00    -0.237 OA
ATOM     81  O   UNL A   1      41.944  36.892  37.735  1.00  0.00    -0.237 OA
ATOM     82  O   UNL A   1      40.274  37.889  39.251  1.00  0.00    -0.744 OA
ENDBRANCH  75  79
ENDBRANCH  48  72
BRANCH  60  83
ATOM     83  C   UNL A   1      44.102  28.657  35.378  1.00  0.00     0.023 A 
ATOM     84  C   UNL A   1      43.965  27.615  36.313  1.00  0.00     0.031 A 
ATOM     85  C   UNL A   1      45.388  29.187  35.166  1.00  0.00     0.131 A 
ATOM     86  C   UNL A   1      45.077  27.190  37.054  1.00  0.00     0.055 A 
ATOM     87  C   UNL A   1      46.504  28.706  35.851  1.00  0.00     0.041 A 
ATOM     88  F   UNL A   1      45.580  30.185  34.289  1.00  0.00    -0.206 F 
ATOM     89  C   UNL A   1      46.349  27.714  36.816  1.00  0.00     0.022 A 
BRANCH  86  90
ATOM     90  S   UNL A   1      44.815  26.030  38.424  1.00  0.00     0.124 S 
ATOM     91  O   UNL A   1      46.067  25.281  38.429  1.00  0.00    -0.237 OA
ATOM     92  O   UNL A   1      44.605  26.926  39.557  1.00  0.00    -0.237 OA
ATOM     93  O   UNL A   1      43.638  25.268  38.008  1.00  0.00    -0.744 OA
ENDBRANCH  86  90
ENDBRANCH  60  83
ENDBRANCH  34  35
ENDBRANCH  26  29
ENDBRANCH  24  25
ENDBRANCH  23  24
ENDBRANCH   1  23
TORSDOF 18
ENDMDL
MODEL 2
REMARK VINA RESULT:     -10.9      2.263      8.238
REMARK SMILES CCN1CC(=O)N(C[C@@H]([NH3+])C(=O)NCCCCNC(=O)c2ccc(-c3c4nc(c(-c5cc(S(=O)(=O)[O-])ccc5F)c5ccc([nH]5)c(-c5cc(S(=O)(=O)[O-])ccc5F)c5nc(c(-c6cc(S(=O)(=O)[O-])ccc6F)c6ccc3[nH]6)C=C5)C=C4)cc2)CC1=O
REMARK SMILES IDX 15 1 14 2 13 3 11 4 12 5 9 7 8 8 7 9 3 10 4 11 85 12 5 13
REMARK SMILES IDX 84 14 86 15 6 16 2 17 1 18 10 19 16 23 17 24 18 25 19 26
REMARK SMILES IDX 20 28 21 29 22 30 83 31 23 32 82 33 24 34 25 35 26 36 76 37
REMARK SMILES IDX 27 38 81 39 75 40 77 41 28 42 80 43 74 44 73 45 29 47 61 48
REMARK SMILES IDX 41 49 60 50 42 51 45 52 59 53 78 54 43 55 44 56 58 58 79 59
REMARK SMILES IDX 46 60 30 61 31 62 39 63 32 64 38 65 40 66 37 67 33 68 34 69
REMARK SMILES IDX 35 70 36 71 62 72 63 73 71 74 64 75 70 76 72 77 69 78 65 79
REMARK SMILES IDX 66 80 67 81 68 82 47 83 48 84 56 85 49 86 55 87 57 88 54 89
REMARK SMILES IDX 50 90 51 91 52 92 53 93
REMARK H PARENT 13 6 10 20 10 21 10 22 18 27 77 46 45 57
REMARK Flexibility Score: inf
ROOT
ATOM      1  C   UNL A   1      31.192  29.095  23.864  1.00  0.00     0.023 C 
ENDROOT
BRANCH   1   2
ATOM      2  C   UNL A   1      30.972  27.677  23.333  1.00  0.00     0.116 C 
BRANCH   2   3
ATOM      3  N   UNL A   1      31.931  27.357  22.289  1.00  0.00    -0.351 N 
ATOM      4  C   UNL A   1      32.969  26.469  22.291  1.00  0.00     0.280 C 
ATOM      5  O   UNL A   1      33.653  26.377  21.269  1.00  0.00    -0.268 OA
ATOM      6  H   UNL A   1      31.815  27.858  21.450  1.00  0.00     0.163 HD
BRANCH   4   7
ATOM      7  C   UNL A   1      33.243  25.553  23.502  1.00  0.00     0.290 C 
BRANCH   7   8
ATOM      8  C   UNL A   1      33.844  24.205  23.040  1.00  0.00     0.195 C 
BRANCH   8   9
ATOM      9  N   UNL A   1      33.600  23.043  23.897  1.00  0.00    -0.325 N 
ATOM     10  N   UNL A   1      33.730  20.381  24.742  1.00  0.00    -0.332 N 
ATOM     11  C   UNL A   1      32.416  21.027  24.629  1.00  0.00     0.219 C 
ATOM     12  C   UNL A   1      34.851  21.175  24.968  1.00  0.00     0.242 C 
ATOM     13  C   UNL A   1      32.440  22.295  23.772  1.00  0.00     0.242 C 
ATOM     14  C   UNL A   1      34.585  22.677  24.916  1.00  0.00     0.220 C 
ATOM     15  O   UNL A   1      35.949  20.746  25.313  1.00  0.00    -0.273 OA
ATOM     16  O   UNL A   1      31.462  22.663  23.126  1.00  0.00    -0.273 OA
BRANCH  10  17
ATOM     17  C   UNL A   1      33.790  18.925  24.626  1.00  0.00     0.116 C 
ATOM     18  C   UNL A   1      32.528  18.150  24.976  1.00  0.00     0.027 C 
ENDBRANCH  10  17
ENDBRANCH   8   9
ENDBRANCH   7   8
BRANCH   7  19
ATOM     19  N   UNL A   1      34.016  26.321  24.515  1.00  0.00    -0.346 N 
ATOM     20  H   UNL A   1      34.168  25.740  25.339  1.00  0.00     0.345 HD
ATOM     21  H   UNL A   1      33.493  27.156  24.780  1.00  0.00     0.345 HD
ATOM     22  H   UNL A   1      34.916  26.595  24.121  1.00  0.00     0.345 HD
ENDBRANCH   7  19
ENDBRANCH   4   7
ENDBRANCH   2   3
ENDBRANCH   1   2
BRANCH   1  23
ATOM     23  C   UNL A   1      31.411  29.176  25.376  1.00  0.00     0.023 C 
BRANCH  23  24
ATOM     24  C   UNL A   1      32.687  29.891  25.806  1.00  0.00     0.116 C 
BRANCH  24  25
ATOM     25  N   UNL A   1      32.442  31.247  26.268  1.00  0.00    -0.352 N 
ATOM     26  C   UNL A   1      33.120  31.980  27.209  1.00  0.00     0.251 C 
ATOM     27  H   UNL A   1      31.681  31.705  25.845  1.00  0.00     0.163 HD
ATOM     28  O   UNL A   1      32.659  33.057  27.583  1.00  0.00    -0.269 OA
BRANCH  26  29
ATOM     29  C   UNL A   1      34.376  31.461  27.795  1.00  0.00     0.039 A 
ATOM     30  C   UNL A   1      35.434  32.350  28.001  1.00  0.00     0.014 A 
ATOM     31  C   UNL A   1      34.516  30.115  28.144  1.00  0.00     0.014 A 
ATOM     32  C   UNL A   1      36.604  31.901  28.616  1.00  0.00     0.010 A 
ATOM     33  C   UNL A   1      35.652  29.687  28.828  1.00  0.00     0.010 A 
ATOM     34  C   UNL A   1      36.709  30.576  29.073  1.00  0.00    -0.014 A 
BRANCH  34  35
ATOM     35  C   UNL A   1      37.910  30.134  29.832  1.00  0.00     0.031 A 
ATOM     36  C   UNL A   1      38.158  30.623  31.233  1.00  0.00     0.074 A 
ATOM     37  C   UNL A   1      38.796  29.310  29.235  1.00  0.00     0.049 A 
ATOM     38  N   UNL A   1      39.144  30.336  32.043  1.00  0.00    -0.248 NA
ATOM     39  C   UNL A   1      37.186  31.578  31.787  1.00  0.00     0.031 C 
ATOM     40  C   UNL A   1      38.691  28.816  27.858  1.00  0.00     0.029 A 
ATOM     41  N   UNL A   1      39.954  28.741  29.699  1.00  0.00    -0.354 N 
ATOM     42  C   UNL A   1      38.918  31.077  33.199  1.00  0.00     0.074 A 
ATOM     43  C   UNL A   1      37.731  31.871  32.958  1.00  0.00     0.031 C 
ATOM     44  C   UNL A   1      39.718  27.991  27.607  1.00  0.00     0.029 A 
ATOM     45  C   UNL A   1      40.584  27.933  28.779  1.00  0.00     0.049 A 
ATOM     46  H   UNL A   1      40.303  28.895  30.607  1.00  0.00     0.167 HD
ATOM     47  C   UNL A   1      39.623  31.079  34.357  1.00  0.00     0.034 A 
ATOM     48  C   UNL A   1      41.733  27.233  28.864  1.00  0.00     0.034 A 
ATOM     49  C   UNL A   1      40.800  30.274  34.579  1.00  0.00     0.049 A 
ATOM     50  C   UNL A   1      42.504  27.262  30.160  1.00  0.00     0.074 A 
ATOM     51  C   UNL A   1      41.547  30.144  35.739  1.00  0.00     0.029 A 
ATOM     52  N   UNL A   1      41.416  29.475  33.623  1.00  0.00    -0.354 N 
ATOM     53  N   UNL A   1      42.227  27.906  31.272  1.00  0.00    -0.248 NA
ATOM     54  C   UNL A   1      43.731  26.460  30.217  1.00  0.00     0.031 C 
ATOM     55  C   UNL A   1      42.657  29.340  35.459  1.00  0.00     0.029 A 
ATOM     56  C   UNL A   1      42.556  28.888  34.153  1.00  0.00     0.049 A 
ATOM     57  H   UNL A   1      41.090  29.344  32.703  1.00  0.00     0.167 HD
ATOM     58  C   UNL A   1      43.237  27.564  32.167  1.00  0.00     0.074 A 
ATOM     59  C   UNL A   1      44.107  26.635  31.475  1.00  0.00     0.031 C 
ATOM     60  C   UNL A   1      43.431  27.981  33.445  1.00  0.00     0.034 A 
BRANCH  47  61
ATOM     61  C   UNL A   1      39.161  32.001  35.461  1.00  0.00     0.023 A 
ATOM     62  C   UNL A   1      39.611  33.330  35.560  1.00  0.00     0.031 A 
ATOM     63  C   UNL A   1      38.248  31.545  36.430  1.00  0.00     0.131 A 
ATOM     64  C   UNL A   1      39.197  34.134  36.633  1.00  0.00     0.055 A 
ATOM     65  C   UNL A   1      37.778  32.374  37.450  1.00  0.00     0.041 A 
ATOM     66  F   UNL A   1      37.799  30.280  36.404  1.00  0.00    -0.206 F 
ATOM     67  C   UNL A   1      38.262  33.674  37.563  1.00  0.00     0.022 A 
BRANCH  64  68
ATOM     68  S   UNL A   1      39.998  35.744  36.872  1.00  0.00     0.124 S 
ATOM     69  O   UNL A   1      41.399  35.358  37.017  1.00  0.00    -0.237 OA
ATOM     70  O   UNL A   1      39.653  36.453  35.645  1.00  0.00    -0.237 OA
ATOM     71  O   UNL A   1      39.373  36.260  38.089  1.00  0.00    -0.744 OA
ENDBRANCH  64  68
ENDBRANCH  47  61
BRANCH  48  72
ATOM     72  C   UNL A   1      42.241  26.463  27.691  1.00  0.00     0.023 A 
ATOM     73  C   UNL A   1      41.875  25.124  27.482  1.00  0.00     0.031 A 
ATOM     74  C   UNL A   1      43.148  27.044  26.785  1.00  0.00     0.131 A 
ATOM     75  C   UNL A   1      42.455  24.394  26.431  1.00  0.00     0.055 A 
ATOM     76  C   UNL A   1      43.672  26.334  25.705  1.00  0.00     0.041 A 
ATOM     77  F   UNL A   1      43.534  28.322  26.935  1.00  0.00    -0.206 F 
ATOM     78  C   UNL A   1      43.339  24.995  25.533  1.00  0.00     0.022 A 
BRANCH  75  79
ATOM     79  S   UNL A   1      42.121  22.614  26.320  1.00  0.00     0.124 S 
ATOM     80  O   UNL A   1      40.669  22.576  26.454  1.00  0.00    -0.237 OA
ATOM     81  O   UNL A   1      42.653  22.289  25.001  1.00  0.00    -0.237 OA
ATOM     82  O   UNL A   1      42.867  22.057  27.446  1.00  0.00    -0.744 OA
ENDBRANCH  75  79
ENDBRANCH  48  72
BRANCH  60  83
ATOM     83  C   UNL A   1      44.618  27.403  34.180  1.00  0.00     0.023 A 
ATOM     84  C   UNL A   1      44.505  26.247  34.973  1.00  0.00     0.031 A 
ATOM     85  C   UNL A   1      45.873  28.035  34.112  1.00  0.00     0.131 A 
ATOM     86  C   UNL A   1      45.603  25.805  35.725  1.00  0.00     0.055 A 
ATOM     87  C   UNL A   1      46.982  27.545  34.802  1.00  0.00     0.041 A 
ATOM     88  F   UNL A   1      46.042  29.144  33.374  1.00  0.00    -0.206 F 
ATOM     89  C   UNL A   1      46.847  26.434  35.630  1.00  0.00     0.022 A 
BRANCH  86  90
ATOM     90  S   UNL A   1      45.350  24.470  36.928  1.00  0.00     0.124 S 
ATOM     91  O   UNL A   1      45.047  23.336  36.061  1.00  0.00    -0.237 OA
ATOM     92  O   UNL A   1      46.637  24.421  37.615  1.00  0.00    -0.237 OA
ATOM     93  O   UNL A   1      44.231  24.947  37.739  1.00  0.00    -0.744 OA
ENDBRANCH  86  90
ENDBRANCH  60  83
ENDBRANCH  34  35
ENDBRANCH  26  29
ENDBRANCH  24  25
ENDBRANCH  23  24
ENDBRANCH   1  23
TORSDOF 18
ENDMDL
MODEL 3
REMARK VINA RESULT:     -10.8      2.301      8.442
REMARK SMILES CCN1CC(=O)N(C[C@@H]([NH3+])C(=O)NCCCCNC(=O)c2ccc(-c3c4nc(c(-c5cc(S(=O)(=O)[O-])ccc5F)c5ccc([nH]5)c(-c5cc(S(=O)(=O)[O-])ccc5F)c5nc(c(-c6cc(S(=O)(=O)[O-])ccc6F)c6ccc3[nH]6)C=C5)C=C4)cc2)CC1=O
REMARK SMILES IDX 15 1 14 2 13 3 11 4 12 5 9 7 8 8 7 9 3 10 4 11 85 12 5 13
REMARK SMILES IDX 84 14 86 15 6 16 2 17 1 18 10 19 16 23 17 24 18 25 19 26
REMARK SMILES IDX 20 28 21 29 22 30 83 31 23 32 82 33 24 34 25 35 26 36 76 37
REMARK SMILES IDX 27 38 81 39 75 40 77 41 28 42 80 43 74 44 73 45 29 47 61 48
REMARK SMILES IDX 41 49 60 50 42 51 45 52 59 53 78 54 43 55 44 56 58 58 79 59
REMARK SMILES IDX 46 60 30 61 31 62 39 63 32 64 38 65 40 66 37 67 33 68 34 69
REMARK SMILES IDX 35 70 36 71 62 72 63 73 71 74 64 75 70 76 72 77 69 78 65 79
REMARK SMILES IDX 66 80 67 81 68 82 47 83 48 84 56 85 49 86 55 87 57 88 54 89
REMARK SMILES IDX 50 90 51 91 52 92 53 93
REMARK H PARENT 13 6 10 20 10 21 10 22 18 27 77 46 45 57
REMARK Flexibility Score: inf
ROOT
ATOM      1  C   UNL A   1      32.130  27.520  27.118  1.00  0.00     0.023 C 
ENDROOT
BRANCH   1   2
ATOM      2  C   UNL A   1      31.744  26.419  26.127  1.00  0.00     0.116 C 
BRANCH   2   3
ATOM      3  N   UNL A   1      32.852  26.103  25.243  1.00  0.00    -0.351 N 
ATOM      4  C   UNL A   1      32.853  25.523  24.007  1.00  0.00     0.280 C 
ATOM      5  O   UNL A   1      33.939  25.355  23.446  1.00  0.00    -0.268 OA
ATOM      6  H   UNL A   1      33.742  26.345  25.588  1.00  0.00     0.163 HD
BRANCH   4   7
ATOM      7  C   UNL A   1      31.537  25.150  23.291  1.00  0.00     0.290 C 
BRANCH   7   8
ATOM      8  C   UNL A   1      31.118  26.266  22.306  1.00  0.00     0.195 C 
BRANCH   8   9
ATOM      9  N   UNL A   1      30.466  27.445  22.879  1.00  0.00    -0.325 N 
ATOM     10  N   UNL A   1      28.773  29.667  22.986  1.00  0.00    -0.332 N 
ATOM     11  C   UNL A   1      30.191  29.838  23.331  1.00  0.00     0.219 C 
ATOM     12  C   UNL A   1      28.187  28.415  23.149  1.00  0.00     0.242 C 
ATOM     13  C   UNL A   1      31.073  28.690  22.832  1.00  0.00     0.242 C 
ATOM     14  C   UNL A   1      29.164  27.305  23.532  1.00  0.00     0.220 C 
ATOM     15  O   UNL A   1      26.978  28.203  23.126  1.00  0.00    -0.273 OA
ATOM     16  O   UNL A   1      32.252  28.860  22.530  1.00  0.00    -0.273 OA
BRANCH  10  17
ATOM     17  C   UNL A   1      28.040  30.836  22.502  1.00  0.00     0.116 C 
ATOM     18  C   UNL A   1      28.028  32.066  23.399  1.00  0.00     0.027 C 
ENDBRANCH  10  17
ENDBRANCH   8   9
ENDBRANCH   7   8
BRANCH   7  19
ATOM     19  N   UNL A   1      31.669  23.777  22.734  1.00  0.00    -0.346 N 
ATOM     20  H   UNL A   1      32.648  23.591  22.519  1.00  0.00     0.345 HD
ATOM     21  H   UNL A   1      31.113  23.701  21.883  1.00  0.00     0.345 HD
ATOM     22  H   UNL A   1      31.337  23.098  23.419  1.00  0.00     0.345 HD
ENDBRANCH   7  19
ENDBRANCH   4   7
ENDBRANCH   2   3
ENDBRANCH   1   2
BRANCH   1  23
ATOM     23  C   UNL A   1      31.643  28.918  26.731  1.00  0.00     0.023 C 
BRANCH  23  24
ATOM     24  C   UNL A   1      32.693  29.808  26.075  1.00  0.00     0.116 C 
BRANCH  24  25
ATOM     25  N   UNL A   1      32.535  31.211  26.420  1.00  0.00    -0.352 N 
ATOM     26  C   UNL A   1      33.288  31.987  27.264  1.00  0.00     0.251 C 
ATOM     27  H   UNL A   1      31.780  31.669  25.986  1.00  0.00     0.163 HD
ATOM     28  O   UNL A   1      32.896  33.116  27.555  1.00  0.00    -0.269 OA
BRANCH  26  29
ATOM     29  C   UNL A   1      34.540  31.458  27.847  1.00  0.00     0.039 A 
ATOM     30  C   UNL A   1      35.625  32.325  28.001  1.00  0.00     0.014 A 
ATOM     31  C   UNL A   1      34.652  30.122  28.243  1.00  0.00     0.014 A 
ATOM     32  C   UNL A   1      36.794  31.869  28.611  1.00  0.00     0.010 A 
ATOM     33  C   UNL A   1      35.790  29.690  28.922  1.00  0.00     0.010 A 
ATOM     34  C   UNL A   1      36.873  30.559  29.116  1.00  0.00    -0.014 A 
BRANCH  34  35
ATOM     35  C   UNL A   1      38.076  30.113  29.869  1.00  0.00     0.031 A 
ATOM     36  C   UNL A   1      38.328  30.596  31.272  1.00  0.00     0.074 A 
ATOM     37  C   UNL A   1      38.961  29.293  29.265  1.00  0.00     0.049 A 
ATOM     38  N   UNL A   1      39.316  30.305  32.078  1.00  0.00    -0.248 NA
ATOM     39  C   UNL A   1      37.357  31.547  31.833  1.00  0.00     0.031 C 
ATOM     40  C   UNL A   1      38.853  28.806  27.887  1.00  0.00     0.029 A 
ATOM     41  N   UNL A   1      40.121  28.722  29.725  1.00  0.00    -0.354 N 
ATOM     42  C   UNL A   1      39.092  31.040  33.238  1.00  0.00     0.074 A 
ATOM     43  C   UNL A   1      37.904  31.834  33.005  1.00  0.00     0.031 C 
ATOM     44  C   UNL A   1      39.879  27.982  27.629  1.00  0.00     0.029 A 
ATOM     45  C   UNL A   1      40.748  27.918  28.799  1.00  0.00     0.049 A 
ATOM     46  H   UNL A   1      40.471  28.871  30.632  1.00  0.00     0.167 HD
ATOM     47  C   UNL A   1      39.801  31.036  34.394  1.00  0.00     0.034 A 
ATOM     48  C   UNL A   1      41.898  27.218  28.877  1.00  0.00     0.034 A 
ATOM     49  C   UNL A   1      40.978  30.230  34.610  1.00  0.00     0.049 A 
ATOM     50  C   UNL A   1      42.671  27.241  30.171  1.00  0.00     0.074 A 
ATOM     51  C   UNL A   1      41.728  30.095  35.767  1.00  0.00     0.029 A 
ATOM     52  N   UNL A   1      41.592  29.436  33.648  1.00  0.00    -0.354 N 
ATOM     53  N   UNL A   1      42.398  27.879  31.287  1.00  0.00    -0.248 NA
ATOM     54  C   UNL A   1      43.899  26.439  30.222  1.00  0.00     0.031 C 
ATOM     55  C   UNL A   1      42.837  29.292  35.480  1.00  0.00     0.029 A 
ATOM     56  C   UNL A   1      42.734  28.848  34.172  1.00  0.00     0.049 A 
ATOM     57  H   UNL A   1      41.263  29.310  32.728  1.00  0.00     0.167 HD
ATOM     58  C   UNL A   1      43.410  27.533  32.178  1.00  0.00     0.074 A 
ATOM     59  C   UNL A   1      44.278  26.608  31.479  1.00  0.00     0.031 C 
ATOM     60  C   UNL A   1      43.606  27.943  33.458  1.00  0.00     0.034 A 
BRANCH  47  61
ATOM     61  C   UNL A   1      39.341  31.953  35.505  1.00  0.00     0.023 A 
ATOM     62  C   UNL A   1      39.797  33.279  35.613  1.00  0.00     0.031 A 
ATOM     63  C   UNL A   1      38.425  31.494  36.469  1.00  0.00     0.131 A 
ATOM     64  C   UNL A   1      39.385  34.077  36.690  1.00  0.00     0.055 A 
ATOM     65  C   UNL A   1      37.957  32.318  37.494  1.00  0.00     0.041 A 
ATOM     66  F   UNL A   1      37.971  30.231  36.434  1.00  0.00    -0.206 F 
ATOM     67  C   UNL A   1      38.447  33.616  37.617  1.00  0.00     0.022 A 
BRANCH  64  68
ATOM     68  S   UNL A   1      40.191  35.683  36.941  1.00  0.00     0.124 S 
ATOM     69  O   UNL A   1      39.727  36.041  38.279  1.00  0.00    -0.237 OA
ATOM     70  O   UNL A   1      41.605  35.347  36.823  1.00  0.00    -0.237 OA
ATOM     71  O   UNL A   1      39.653  36.509  35.861  1.00  0.00    -0.744 OA
ENDBRANCH  64  68
ENDBRANCH  47  61
BRANCH  48  72
ATOM     72  C   UNL A   1      42.403  26.454  27.699  1.00  0.00     0.023 A 
ATOM     73  C   UNL A   1      42.235  25.064  27.604  1.00  0.00     0.031 A 
ATOM     74  C   UNL A   1      43.112  27.102  26.670  1.00  0.00     0.131 A 
ATOM     75  C   UNL A   1      42.816  24.359  26.537  1.00  0.00     0.055 A 
ATOM     76  C   UNL A   1      43.633  26.406  25.579  1.00  0.00     0.041 A 
ATOM     77  F   UNL A   1      43.303  28.431  26.709  1.00  0.00    -0.206 F 
ATOM     78  C   UNL A   1      43.500  25.023  25.517  1.00  0.00     0.022 A 
BRANCH  75  79
ATOM     79  S   UNL A   1      42.760  22.545  26.559  1.00  0.00     0.124 S 
ATOM     80  O   UNL A   1      44.176  22.204  26.477  1.00  0.00    -0.237 OA
ATOM     81  O   UNL A   1      42.108  22.279  27.837  1.00  0.00    -0.237 OA
ATOM     82  O   UNL A   1      41.968  22.215  25.376  1.00  0.00    -0.744 OA
ENDBRANCH  75  79
ENDBRANCH  48  72
BRANCH  60  83
ATOM     83  C   UNL A   1      44.796  27.363  34.186  1.00  0.00     0.023 A 
ATOM     84  C   UNL A   1      44.700  26.168  34.923  1.00  0.00     0.031 A 
ATOM     85  C   UNL A   1      46.035  28.029  34.171  1.00  0.00     0.131 A 
ATOM     86  C   UNL A   1      45.796  25.719  35.674  1.00  0.00     0.055 A 
ATOM     87  C   UNL A   1      47.145  27.535  34.858  1.00  0.00     0.041 A 
ATOM     88  F   UNL A   1      46.187  29.175  33.489  1.00  0.00    -0.206 F 
ATOM     89  C   UNL A   1      47.024  26.384  35.631  1.00  0.00     0.022 A 
BRANCH  86  90
ATOM     90  S   UNL A   1      45.558  24.324  36.809  1.00  0.00     0.124 S 
ATOM     91  O   UNL A   1      46.519  24.627  37.865  1.00  0.00    -0.237 OA
ATOM     92  O   UNL A   1      44.151  24.453  37.172  1.00  0.00    -0.237 OA
ATOM     93  O   UNL A   1      45.883  23.157  35.990  1.00  0.00    -0.744 OA
ENDBRANCH  86  90
ENDBRANCH  60  83
ENDBRANCH  34  35
ENDBRANCH  26  29
ENDBRANCH  24  25
ENDBRANCH  23  24
ENDBRANCH   1  23
TORSDOF 18
ENDMDL
