MODEL 1
REMARK VINA RESULT:     -12.9      0.000      0.000
REMARK SMILES Cc1cccc(-c2cc(C(=O)NCCCCNC(=O)c3ccc(-c4c5nc(c(-c6cc(S(=O)(=O)[O-])ccc6F)c6ccc([nH]6)c(-c6cc(S(=O)(=O)[O-])ccc6F)c6nc(c(-c7cc(S(=O)(=O)[O-])ccc7F)c7ccc4[nH]7)C=C6)C=C5)cc3)ccn2)c1
REMARK SMILES IDX 15 1 14 2 13 3 12 4 10 5 11 6 9 8 7 9 8 10 85 11 84 12 83 13
REMARK SMILES IDX 6 14 1 15 2 16 3 17 86 18 4 19 5 20 16 21 17 22 18 23 19 25
REMARK SMILES IDX 20 26 21 27 82 28 22 29 81 30 23 31 24 32 25 33 75 34 26 35
REMARK SMILES IDX 80 36 74 37 76 38 27 39 79 40 73 41 72 42 28 44 60 45 40 46
REMARK SMILES IDX 59 47 41 48 44 49 58 50 77 51 42 52 43 53 57 55 78 56 45 57
REMARK SMILES IDX 29 58 30 59 38 60 31 61 37 62 39 63 36 64 32 65 33 66 34 67
REMARK SMILES IDX 35 68 61 69 62 70 70 71 63 72 69 73 71 74 68 75 64 76 65 77
REMARK SMILES IDX 66 78 67 79 46 80 47 81 55 82 48 83 54 84 56 85 53 86 49 87
REMARK SMILES IDX 50 88 51 89 52 90
REMARK H PARENT 12 7 17 24 76 43 44 54
REMARK Flexibility Score: inf
ROOT
ATOM      1  C   UNL A   1      38.590  21.807  25.468  1.00  0.00     0.023 C 
ENDROOT
BRANCH   1   2
ATOM      2  C   UNL A   1      37.146  21.924  24.972  1.00  0.00     0.023 C 
BRANCH   2   3
ATOM      3  C   UNL A   1      36.376  20.594  24.940  1.00  0.00     0.116 C 
BRANCH   3   4
ATOM      4  N   UNL A   1      35.269  20.595  25.890  1.00  0.00    -0.352 N 
ATOM      5  C   UNL A   1      34.065  21.248  25.941  1.00  0.00     0.251 C 
ATOM      6  O   UNL A   1      33.346  21.010  26.916  1.00  0.00    -0.269 OA
ATOM      7  H   UNL A   1      35.420  20.001  26.659  1.00  0.00     0.163 HD
BRANCH   5   8
ATOM      8  C   UNL A   1      33.558  22.200  24.909  1.00  0.00     0.043 A 
ATOM      9  C   UNL A   1      33.216  24.354  23.891  1.00  0.00     0.071 A 
ATOM     10  C   UNL A   1      33.696  23.581  24.948  1.00  0.00     0.042 A 
ATOM     11  N   UNL A   1      32.535  23.829  22.847  1.00  0.00    -0.256 NA
ATOM     12  C   UNL A   1      32.387  22.490  22.833  1.00  0.00     0.112 A 
ATOM     13  C   UNL A   1      32.880  21.649  23.815  1.00  0.00     0.034 A 
BRANCH   9  14
ATOM     14  C   UNL A   1      33.493  25.793  23.853  1.00  0.00     0.000 A 
ATOM     15  C   UNL A   1      33.999  28.624  26.369  1.00  0.00     0.044 C 
ATOM     16  C   UNL A   1      33.849  27.889  25.070  1.00  0.00    -0.050 A 
ATOM     17  C   UNL A   1      33.825  28.584  23.859  1.00  0.00     0.003 A 
ATOM     18  C   UNL A   1      33.681  26.501  25.055  1.00  0.00     0.013 A 
ATOM     19  C   UNL A   1      33.660  27.898  22.653  1.00  0.00     0.001 A 
ATOM     20  C   UNL A   1      33.505  26.510  22.650  1.00  0.00     0.010 A 
ENDBRANCH   9  14
ENDBRANCH   5   8
ENDBRANCH   3   4
ENDBRANCH   2   3
ENDBRANCH   1   2
BRANCH   1  21
ATOM     21  C   UNL A   1      39.006  22.949  26.393  1.00  0.00     0.116 C 
BRANCH  21  22
ATOM     22  N   UNL A   1      40.442  23.110  26.587  1.00  0.00    -0.352 N 
ATOM     23  C   UNL A   1      41.135  24.286  26.837  1.00  0.00     0.251 C 
ATOM     24  H   UNL A   1      40.983  22.289  26.534  1.00  0.00     0.163 HD
ATOM     25  O   UNL A   1      42.355  24.319  26.915  1.00  0.00    -0.269 OA
BRANCH  23  26
ATOM     26  C   UNL A   1      40.345  25.503  27.145  1.00  0.00     0.039 A 
ATOM     27  C   UNL A   1      40.651  26.658  26.416  1.00  0.00     0.014 A 
ATOM     28  C   UNL A   1      39.556  25.575  28.293  1.00  0.00     0.014 A 
ATOM     29  C   UNL A   1      40.378  27.904  26.970  1.00  0.00     0.010 A 
ATOM     30  C   UNL A   1      39.356  26.813  28.881  1.00  0.00     0.010 A 
ATOM     31  C   UNL A   1      39.842  27.969  28.256  1.00  0.00    -0.014 A 
BRANCH  31  32
ATOM     32  C   UNL A   1      39.938  29.172  29.081  1.00  0.00     0.031 A 
ATOM     33  C   UNL A   1      38.939  30.253  28.984  1.00  0.00     0.074 A 
ATOM     34  C   UNL A   1      40.971  29.306  29.944  1.00  0.00     0.049 A 
ATOM     35  N   UNL A   1      39.155  31.472  29.353  1.00  0.00    -0.248 NA
ATOM     36  C   UNL A   1      37.632  30.069  28.362  1.00  0.00     0.031 C 
ATOM     37  C   UNL A   1      41.128  30.303  30.999  1.00  0.00     0.029 A 
ATOM     38  N   UNL A   1      42.232  28.724  29.826  1.00  0.00    -0.354 N 
ATOM     39  C   UNL A   1      37.951  32.132  29.331  1.00  0.00     0.074 A 
ATOM     40  C   UNL A   1      37.090  31.275  28.557  1.00  0.00     0.031 C 
ATOM     41  C   UNL A   1      42.437  30.466  31.248  1.00  0.00     0.029 A 
ATOM     42  C   UNL A   1      43.167  29.675  30.275  1.00  0.00     0.049 A 
ATOM     43  H   UNL A   1      42.431  27.819  29.492  1.00  0.00     0.167 HD
ATOM     44  C   UNL A   1      37.793  33.239  30.112  1.00  0.00     0.034 A 
ATOM     45  C   UNL A   1      44.151  30.139  29.454  1.00  0.00     0.034 A 
ATOM     46  C   UNL A   1      39.094  33.774  30.541  1.00  0.00     0.049 A 
ATOM     47  C   UNL A   1      44.112  31.632  29.230  1.00  0.00     0.074 A 
ATOM     48  C   UNL A   1      39.753  33.856  31.756  1.00  0.00     0.029 A 
ATOM     49  N   UNL A   1      40.031  34.137  29.571  1.00  0.00    -0.354 N 
ATOM     50  N   UNL A   1      43.113  32.401  29.567  1.00  0.00    -0.248 NA
ATOM     51  C   UNL A   1      45.188  32.370  28.578  1.00  0.00     0.031 C 
ATOM     52  C   UNL A   1      41.117  34.177  31.496  1.00  0.00     0.029 A 
ATOM     53  C   UNL A   1      41.279  34.336  30.130  1.00  0.00     0.049 A 
ATOM     54  H   UNL A   1      39.829  34.236  28.612  1.00  0.00     0.167 HD
ATOM     55  C   UNL A   1      43.358  33.686  29.149  1.00  0.00     0.074 A 
ATOM     56  C   UNL A   1      44.693  33.620  28.578  1.00  0.00     0.031 C 
ATOM     57  C   UNL A   1      42.426  34.680  29.288  1.00  0.00     0.034 A 
BRANCH  44  58
ATOM     58  C   UNL A   1      36.459  33.707  30.697  1.00  0.00     0.023 A 
ATOM     59  C   UNL A   1      35.477  34.238  29.826  1.00  0.00     0.031 A 
ATOM     60  C   UNL A   1      36.133  33.802  32.070  1.00  0.00     0.131 A 
ATOM     61  C   UNL A   1      34.296  34.842  30.319  1.00  0.00     0.055 A 
ATOM     62  C   UNL A   1      34.944  34.362  32.554  1.00  0.00     0.041 A 
ATOM     63  F   UNL A   1      36.953  33.406  33.046  1.00  0.00    -0.206 F 
ATOM     64  C   UNL A   1      34.022  34.898  31.680  1.00  0.00     0.022 A 
BRANCH  61  65
ATOM     65  S   UNL A   1      33.141  35.635  29.164  1.00  0.00     0.124 S 
ATOM     66  O   UNL A   1      32.601  34.493  28.436  1.00  0.00    -0.237 OA
ATOM     67  O   UNL A   1      32.224  36.323  30.065  1.00  0.00    -0.237 OA
ATOM     68  O   UNL A   1      34.002  36.515  28.373  1.00  0.00    -0.744 OA
ENDBRANCH  61  65
ENDBRANCH  44  58
BRANCH  45  69
ATOM     69  C   UNL A   1      44.638  29.120  28.482  1.00  0.00     0.023 A 
ATOM     70  C   UNL A   1      45.480  28.111  28.994  1.00  0.00     0.031 A 
ATOM     71  C   UNL A   1      44.020  28.894  27.247  1.00  0.00     0.131 A 
ATOM     72  C   UNL A   1      45.536  26.856  28.377  1.00  0.00     0.055 A 
ATOM     73  C   UNL A   1      44.146  27.663  26.586  1.00  0.00     0.041 A 
ATOM     74  F   UNL A   1      43.186  29.803  26.722  1.00  0.00    -0.206 F 
ATOM     75  C   UNL A   1      44.866  26.620  27.176  1.00  0.00     0.022 A 
BRANCH  72  76
ATOM     76  S   UNL A   1      46.240  25.464  29.308  1.00  0.00     0.124 S 
ATOM     77  O   UNL A   1      46.364  24.441  28.278  1.00  0.00    -0.237 OA
ATOM     78  O   UNL A   1      47.495  26.018  29.816  1.00  0.00    -0.237 OA
ATOM     79  O   UNL A   1      45.239  25.211  30.341  1.00  0.00    -0.744 OA
ENDBRANCH  72  76
ENDBRANCH  45  69
BRANCH  57  80
ATOM     80  C   UNL A   1      42.527  36.079  28.700  1.00  0.00     0.023 A 
ATOM     81  C   UNL A   1      42.986  37.200  29.411  1.00  0.00     0.031 A 
ATOM     82  C   UNL A   1      42.208  36.319  27.339  1.00  0.00     0.131 A 
ATOM     83  C   UNL A   1      43.024  38.480  28.825  1.00  0.00     0.055 A 
ATOM     84  C   UNL A   1      42.322  37.576  26.736  1.00  0.00     0.041 A 
ATOM     85  F   UNL A   1      41.780  35.339  26.531  1.00  0.00    -0.206 F 
ATOM     86  C   UNL A   1      42.714  38.675  27.484  1.00  0.00     0.022 A 
BRANCH  83  87
ATOM     87  S   UNL A   1      43.429  39.900  29.880  1.00  0.00     0.124 S 
ATOM     88  O   UNL A   1      44.490  40.550  29.114  1.00  0.00    -0.237 OA
ATOM     89  O   UNL A   1      42.161  40.620  29.938  1.00  0.00    -0.237 OA
ATOM     90  O   UNL A   1      43.855  39.289  31.136  1.00  0.00    -0.744 OA
ENDBRANCH  83  87
ENDBRANCH  57  80
ENDBRANCH  31  32
ENDBRANCH  23  26
ENDBRANCH  21  22
ENDBRANCH   1  21
TORSDOF 15
ENDMDL
MODEL 2
REMARK VINA RESULT:     -12.2      1.789      3.548
REMARK SMILES Cc1cccc(-c2cc(C(=O)NCCCCNC(=O)c3ccc(-c4c5nc(c(-c6cc(S(=O)(=O)[O-])ccc6F)c6ccc([nH]6)c(-c6cc(S(=O)(=O)[O-])ccc6F)c6nc(c(-c7cc(S(=O)(=O)[O-])ccc7F)c7ccc4[nH]7)C=C6)C=C5)cc3)ccn2)c1
REMARK SMILES IDX 15 1 14 2 13 3 12 4 10 5 11 6 9 8 7 9 8 10 85 11 84 12 83 13
REMARK SMILES IDX 6 14 1 15 2 16 3 17 86 18 4 19 5 20 16 21 17 22 18 23 19 25
REMARK SMILES IDX 20 26 21 27 82 28 22 29 81 30 23 31 24 32 25 33 75 34 26 35
REMARK SMILES IDX 80 36 74 37 76 38 27 39 79 40 73 41 72 42 28 44 60 45 40 46
REMARK SMILES IDX 59 47 41 48 44 49 58 50 77 51 42 52 43 53 57 55 78 56 45 57
REMARK SMILES IDX 29 58 30 59 38 60 31 61 37 62 39 63 36 64 32 65 33 66 34 67
REMARK SMILES IDX 35 68 61 69 62 70 70 71 63 72 69 73 71 74 68 75 64 76 65 77
REMARK SMILES IDX 66 78 67 79 46 80 47 81 55 82 48 83 54 84 56 85 53 86 49 87
REMARK SMILES IDX 50 88 51 89 52 90
REMARK H PARENT 12 7 17 24 76 43 44 54
REMARK Flexibility Score: inf
ROOT
ATOM      1  C   UNL A   1      37.774  23.614  25.093  1.00  0.00     0.023 C 
ENDROOT
BRANCH   1   2
ATOM      2  C   UNL A   1      36.244  23.695  25.038  1.00  0.00     0.023 C 
BRANCH   2   3
ATOM      3  C   UNL A   1      35.531  23.026  26.223  1.00  0.00     0.116 C 
BRANCH   3   4
ATOM      4  N   UNL A   1      34.142  23.457  26.322  1.00  0.00    -0.352 N 
ATOM      5  C   UNL A   1      32.969  23.010  25.772  1.00  0.00     0.251 C 
ATOM      6  O   UNL A   1      31.942  23.625  26.077  1.00  0.00    -0.269 OA
ATOM      7  H   UNL A   1      34.020  24.237  26.910  1.00  0.00     0.163 HD
BRANCH   5   8
ATOM      8  C   UNL A   1      32.841  21.839  24.854  1.00  0.00     0.043 A 
ATOM      9  C   UNL A   1      33.099  19.545  24.175  1.00  0.00     0.071 A 
ATOM     10  C   UNL A   1      33.330  20.563  25.100  1.00  0.00     0.042 A 
ATOM     11  N   UNL A   1      32.484  19.755  22.989  1.00  0.00    -0.256 NA
ATOM     12  C   UNL A   1      32.035  21.003  22.753  1.00  0.00     0.112 A 
ATOM     13  C   UNL A   1      32.177  22.055  23.640  1.00  0.00     0.034 A 
BRANCH   9  14
ATOM     14  C   UNL A   1      33.478  18.166  24.498  1.00  0.00     0.000 A 
ATOM     15  C   UNL A   1      31.852  15.115  26.126  1.00  0.00     0.044 C 
ATOM     16  C   UNL A   1      32.872  16.005  25.479  1.00  0.00    -0.050 A 
ATOM     17  C   UNL A   1      34.193  15.578  25.327  1.00  0.00     0.003 A 
ATOM     18  C   UNL A   1      32.528  17.295  25.065  1.00  0.00     0.013 A 
ATOM     19  C   UNL A   1      35.146  16.419  24.748  1.00  0.00     0.001 A 
ATOM     20  C   UNL A   1      34.788  17.702  24.327  1.00  0.00     0.010 A 
ENDBRANCH   9  14
ENDBRANCH   5   8
ENDBRANCH   3   4
ENDBRANCH   2   3
ENDBRANCH   1   2
BRANCH   1  21
ATOM     21  C   UNL A   1      38.314  23.333  26.493  1.00  0.00     0.116 C 
BRANCH  21  22
ATOM     22  N   UNL A   1      39.766  23.363  26.624  1.00  0.00    -0.352 N 
ATOM     23  C   UNL A   1      40.563  24.449  26.956  1.00  0.00     0.251 C 
ATOM     24  H   UNL A   1      40.236  22.513  26.459  1.00  0.00     0.163 HD
ATOM     25  O   UNL A   1      41.783  24.381  26.971  1.00  0.00    -0.269 OA
BRANCH  23  26
ATOM     26  C   UNL A   1      39.889  25.683  27.430  1.00  0.00     0.039 A 
ATOM     27  C   UNL A   1      40.106  26.848  26.686  1.00  0.00     0.014 A 
ATOM     28  C   UNL A   1      39.320  25.747  28.701  1.00  0.00     0.014 A 
ATOM     29  C   UNL A   1      39.985  28.086  27.310  1.00  0.00     0.010 A 
ATOM     30  C   UNL A   1      39.277  26.972  29.346  1.00  0.00     0.010 A 
ATOM     31  C   UNL A   1      39.689  28.130  28.672  1.00  0.00    -0.014 A 
BRANCH  31  32
ATOM     32  C   UNL A   1      39.979  29.302  29.495  1.00  0.00     0.031 A 
ATOM     33  C   UNL A   1      39.001  30.397  29.644  1.00  0.00     0.074 A 
ATOM     34  C   UNL A   1      41.172  29.396  30.125  1.00  0.00     0.049 A 
ATOM     35  N   UNL A   1      39.311  31.601  29.997  1.00  0.00    -0.248 NA
ATOM     36  C   UNL A   1      37.590  30.249  29.306  1.00  0.00     0.031 C 
ATOM     37  C   UNL A   1      41.565  30.354  31.154  1.00  0.00     0.029 A 
ATOM     38  N   UNL A   1      42.370  28.804  29.727  1.00  0.00    -0.354 N 
ATOM     39  C   UNL A   1      38.142  32.274  30.250  1.00  0.00     0.074 A 
ATOM     40  C   UNL A   1      37.122  31.454  29.648  1.00  0.00     0.031 C 
ATOM     41  C   UNL A   1      42.900  30.494  31.127  1.00  0.00     0.029 A 
ATOM     42  C   UNL A   1      43.394  29.728  29.998  1.00  0.00     0.049 A 
ATOM     43  H   UNL A   1      42.478  27.909  29.330  1.00  0.00     0.167 HD
ATOM     44  C   UNL A   1      38.172  33.356  31.080  1.00  0.00     0.034 A 
ATOM     45  C   UNL A   1      44.193  30.209  29.003  1.00  0.00     0.034 A 
ATOM     46  C   UNL A   1      39.543  33.861  31.242  1.00  0.00     0.049 A 
ATOM     47  C   UNL A   1      44.135  31.709  28.839  1.00  0.00     0.074 A 
ATOM     48  C   UNL A   1      40.444  33.894  32.293  1.00  0.00     0.029 A 
ATOM     49  N   UNL A   1      40.263  34.246  30.108  1.00  0.00    -0.354 N 
ATOM     50  N   UNL A   1      43.243  32.478  29.402  1.00  0.00    -0.248 NA
ATOM     51  C   UNL A   1      45.063  32.457  27.998  1.00  0.00     0.031 C 
ATOM     52  C   UNL A   1      41.729  34.208  31.762  1.00  0.00     0.029 A 
ATOM     53  C   UNL A   1      41.604  34.413  30.399  1.00  0.00     0.049 A 
ATOM     54  H   UNL A   1      39.866  34.381  29.217  1.00  0.00     0.167 HD
ATOM     55  C   UNL A   1      43.418  33.773  28.982  1.00  0.00     0.074 A 
ATOM     56  C   UNL A   1      44.602  33.711  28.141  1.00  0.00     0.031 C 
ATOM     57  C   UNL A   1      42.554  34.772  29.345  1.00  0.00     0.034 A 
BRANCH  44  58
ATOM     58  C   UNL A   1      36.999  33.819  31.947  1.00  0.00     0.023 A 
ATOM     59  C   UNL A   1      35.798  34.223  31.316  1.00  0.00     0.031 A 
ATOM     60  C   UNL A   1      37.022  34.027  33.346  1.00  0.00     0.131 A 
ATOM     61  C   UNL A   1      34.741  34.819  32.044  1.00  0.00     0.055 A 
ATOM     62  C   UNL A   1      35.958  34.578  34.071  1.00  0.00     0.041 A 
ATOM     63  F   UNL A   1      38.084  33.759  34.109  1.00  0.00    -0.206 F 
ATOM     64  C   UNL A   1      34.813  34.990  33.421  1.00  0.00     0.022 A 
BRANCH  61  65
ATOM     65  S   UNL A   1      33.285  35.451  31.164  1.00  0.00     0.124 S 
ATOM     66  O   UNL A   1      33.613  36.863  31.000  1.00  0.00    -0.237 OA
ATOM     67  O   UNL A   1      33.278  34.641  29.952  1.00  0.00    -0.237 OA
ATOM     68  O   UNL A   1      32.184  35.182  32.090  1.00  0.00    -0.744 OA
ENDBRANCH  61  65
ENDBRANCH  44  58
BRANCH  45  69
ATOM     69  C   UNL A   1      44.447  29.219  27.919  1.00  0.00     0.023 A 
ATOM     70  C   UNL A   1      45.348  28.175  28.215  1.00  0.00     0.031 A 
ATOM     71  C   UNL A   1      43.585  29.050  26.829  1.00  0.00     0.131 A 
ATOM     72  C   UNL A   1      45.246  26.944  27.559  1.00  0.00     0.055 A 
ATOM     73  C   UNL A   1      43.543  27.843  26.116  1.00  0.00     0.041 A 
ATOM     74  F   UNL A   1      42.686  29.994  26.515  1.00  0.00    -0.206 F 
ATOM     75  C   UNL A   1      44.340  26.765  26.512  1.00  0.00     0.022 A 
BRANCH  72  76
ATOM     76  S   UNL A   1      46.089  25.505  28.280  1.00  0.00     0.124 S 
ATOM     77  O   UNL A   1      47.399  26.052  28.605  1.00  0.00    -0.237 OA
ATOM     78  O   UNL A   1      45.233  25.168  29.418  1.00  0.00    -0.237 OA
ATOM     79  O   UNL A   1      46.057  24.522  27.200  1.00  0.00    -0.744 OA
ENDBRANCH  72  76
ENDBRANCH  45  69
BRANCH  57  80
ATOM     80  C   UNL A   1      42.554  36.189  28.793  1.00  0.00     0.023 A 
ATOM     81  C   UNL A   1      43.230  37.266  29.391  1.00  0.00     0.031 A 
ATOM     82  C   UNL A   1      41.901  36.493  27.571  1.00  0.00     0.131 A 
ATOM     83  C   UNL A   1      43.165  38.566  28.853  1.00  0.00     0.055 A 
ATOM     84  C   UNL A   1      41.904  37.768  26.997  1.00  0.00     0.041 A 
ATOM     85  F   UNL A   1      41.236  35.558  26.876  1.00  0.00    -0.206 F 
ATOM     86  C   UNL A   1      42.522  38.823  27.648  1.00  0.00     0.022 A 
BRANCH  83  87
ATOM     87  S   UNL A   1      43.890  39.930  29.805  1.00  0.00     0.124 S 
ATOM     88  O   UNL A   1      43.375  39.667  31.147  1.00  0.00    -0.237 OA
ATOM     89  O   UNL A   1      45.321  39.713  29.625  1.00  0.00    -0.237 OA
ATOM     90  O   UNL A   1      43.356  41.127  29.159  1.00  0.00    -0.744 OA
ENDBRANCH  83  87
ENDBRANCH  57  80
ENDBRANCH  31  32
ENDBRANCH  23  26
ENDBRANCH  21  22
ENDBRANCH   1  21
TORSDOF 15
ENDMDL
MODEL 3
REMARK VINA RESULT:     -12.0      5.007     12.576
REMARK SMILES Cc1cccc(-c2cc(C(=O)NCCCCNC(=O)c3ccc(-c4c5nc(c(-c6cc(S(=O)(=O)[O-])ccc6F)c6ccc([nH]6)c(-c6cc(S(=O)(=O)[O-])ccc6F)c6nc(c(-c7cc(S(=O)(=O)[O-])ccc7F)c7ccc4[nH]7)C=C6)C=C5)cc3)ccn2)c1
REMARK SMILES IDX 15 1 14 2 13 3 12 4 10 5 11 6 9 8 7 9 8 10 85 11 84 12 83 13
REMARK SMILES IDX 6 14 1 15 2 16 3 17 86 18 4 19 5 20 16 21 17 22 18 23 19 25
REMARK SMILES IDX 20 26 21 27 82 28 22 29 81 30 23 31 24 32 25 33 75 34 26 35
REMARK SMILES IDX 80 36 74 37 76 38 27 39 79 40 73 41 72 42 28 44 60 45 40 46
REMARK SMILES IDX 59 47 41 48 44 49 58 50 77 51 42 52 43 53 57 55 78 56 45 57
REMARK SMILES IDX 29 58 30 59 38 60 31 61 37 62 39 63 36 64 32 65 33 66 34 67
REMARK SMILES IDX 35 68 61 69 62 70 70 71 63 72 69 73 71 74 68 75 64 76 65 77
REMARK SMILES IDX 66 78 67 79 46 80 47 81 55 82 48 83 54 84 56 85 53 86 49 87
REMARK SMILES IDX 50 88 51 89 52 90
REMARK H PARENT 12 7 17 24 76 43 44 54
REMARK Flexibility Score: inf
ROOT
ATOM      1  C   UNL A   1      38.999  33.839  29.473  1.00  0.00     0.023 C 
ENDROOT
BRANCH   1   2
ATOM      2  C   UNL A   1      40.473  34.172  29.729  1.00  0.00     0.023 C 
BRANCH   2   3
ATOM      3  C   UNL A   1      40.981  35.415  28.983  1.00  0.00     0.116 C 
BRANCH   3   4
ATOM      4  N   UNL A   1      42.371  35.706  29.315  1.00  0.00    -0.352 N 
ATOM      5  C   UNL A   1      43.574  35.290  28.806  1.00  0.00     0.251 C 
ATOM      6  O   UNL A   1      44.590  35.747  29.339  1.00  0.00    -0.269 OA
ATOM      7  H   UNL A   1      42.466  36.336  30.065  1.00  0.00     0.163 HD
BRANCH   5   8
ATOM      8  C   UNL A   1      43.744  34.349  27.660  1.00  0.00     0.043 A 
ATOM      9  C   UNL A   1      44.147  32.222  26.608  1.00  0.00     0.071 A 
ATOM     10  C   UNL A   1      44.065  33.003  27.762  1.00  0.00     0.042 A 
ATOM     11  N   UNL A   1      44.009  32.734  25.363  1.00  0.00    -0.256 NA
ATOM     12  C   UNL A   1      43.721  34.047  25.278  1.00  0.00     0.112 A 
ATOM     13  C   UNL A   1      43.571  34.878  26.375  1.00  0.00     0.034 A 
BRANCH   9  14
ATOM     14  C   UNL A   1      44.334  30.772  26.719  1.00  0.00     0.000 A 
ATOM     15  C   UNL A   1      47.228  28.351  27.317  1.00  0.00     0.044 C 
ATOM     16  C   UNL A   1      45.851  28.876  27.039  1.00  0.00    -0.050 A 
ATOM     17  C   UNL A   1      44.802  28.002  26.743  1.00  0.00     0.003 A 
ATOM     18  C   UNL A   1      45.606  30.253  27.022  1.00  0.00     0.013 A 
ATOM     19  C   UNL A   1      43.527  28.496  26.459  1.00  0.00     0.001 A 
ATOM     20  C   UNL A   1      43.292  29.874  26.457  1.00  0.00     0.010 A 
ENDBRANCH   9  14
ENDBRANCH   5   8
ENDBRANCH   3   4
ENDBRANCH   2   3
ENDBRANCH   1   2
BRANCH   1  21
ATOM     21  C   UNL A   1      38.600  32.447  29.960  1.00  0.00     0.116 C 
BRANCH  21  22
ATOM     22  N   UNL A   1      37.175  32.144  29.898  1.00  0.00    -0.352 N 
ATOM     23  C   UNL A   1      36.575  31.005  29.382  1.00  0.00     0.251 C 
ATOM     24  H   UNL A   1      36.569  32.827  30.266  1.00  0.00     0.163 HD
ATOM     25  O   UNL A   1      35.360  30.881  29.317  1.00  0.00    -0.269 OA
BRANCH  23  26
ATOM     26  C   UNL A   1      37.451  29.861  29.026  1.00  0.00     0.039 A 
ATOM     27  C   UNL A   1      37.615  28.864  29.994  1.00  0.00     0.014 A 
ATOM     28  C   UNL A   1      38.295  29.922  27.917  1.00  0.00     0.014 A 
ATOM     29  C   UNL A   1      38.769  28.087  29.981  1.00  0.00     0.010 A 
ATOM     30  C   UNL A   1      39.479  29.205  27.948  1.00  0.00     0.010 A 
ATOM     31  C   UNL A   1      39.749  28.350  29.025  1.00  0.00    -0.014 A 
BRANCH  31  32
ATOM     32  C   UNL A   1      41.137  27.923  29.194  1.00  0.00     0.031 A 
ATOM     33  C   UNL A   1      41.616  26.634  28.661  1.00  0.00     0.074 A 
ATOM     34  C   UNL A   1      42.001  28.719  29.865  1.00  0.00     0.049 A 
ATOM     35  N   UNL A   1      42.665  26.016  29.096  1.00  0.00    -0.248 NA
ATOM     36  C   UNL A   1      40.887  25.876  27.650  1.00  0.00     0.031 C 
ATOM     37  C   UNL A   1      43.453  28.590  29.949  1.00  0.00     0.029 A 
ATOM     38  N   UNL A   1      41.678  29.647  30.855  1.00  0.00    -0.354 N 
ATOM     39  C   UNL A   1      42.929  24.986  28.228  1.00  0.00     0.074 A 
ATOM     40  C   UNL A   1      41.717  24.845  27.463  1.00  0.00     0.031 C 
ATOM     41  C   UNL A   1      43.874  29.174  31.082  1.00  0.00     0.029 A 
ATOM     42  C   UNL A   1      42.696  29.586  31.822  1.00  0.00     0.049 A 
ATOM     43  H   UNL A   1      40.887  30.234  30.872  1.00  0.00     0.167 HD
ATOM     44  C   UNL A   1      44.200  24.496  28.157  1.00  0.00     0.034 A 
ATOM     45  C   UNL A   1      42.421  29.260  33.118  1.00  0.00     0.034 A 
ATOM     46  C   UNL A   1      44.987  24.893  29.334  1.00  0.00     0.049 A 
ATOM     47  C   UNL A   1      43.140  28.026  33.607  1.00  0.00     0.074 A 
ATOM     48  C   UNL A   1      46.062  25.742  29.537  1.00  0.00     0.029 A 
ATOM     49  N   UNL A   1      44.528  24.546  30.606  1.00  0.00    -0.354 N 
ATOM     50  N   UNL A   1      43.774  27.187  32.834  1.00  0.00    -0.248 NA
ATOM     51  C   UNL A   1      43.172  27.624  35.010  1.00  0.00     0.031 C 
ATOM     52  C   UNL A   1      46.181  25.976  30.937  1.00  0.00     0.029 A 
ATOM     53  C   UNL A   1      45.212  25.234  31.591  1.00  0.00     0.049 A 
ATOM     54  H   UNL A   1      43.809  23.895  30.779  1.00  0.00     0.167 HD
ATOM     55  C   UNL A   1      44.242  26.134  33.581  1.00  0.00     0.074 A 
ATOM     56  C   UNL A   1      43.878  26.482  34.944  1.00  0.00     0.031 C 
ATOM     57  C   UNL A   1      44.861  25.058  33.001  1.00  0.00     0.034 A 
BRANCH  44  58
ATOM     58  C   UNL A   1      44.818  23.858  26.911  1.00  0.00     0.023 A 
ATOM     59  C   UNL A   1      44.324  22.609  26.463  1.00  0.00     0.031 A 
ATOM     60  C   UNL A   1      45.955  24.321  26.208  1.00  0.00     0.131 A 
ATOM     61  C   UNL A   1      44.960  21.888  25.425  1.00  0.00     0.055 A 
ATOM     62  C   UNL A   1      46.557  23.626  25.152  1.00  0.00     0.041 A 
ATOM     63  F   UNL A   1      46.596  25.451  26.517  1.00  0.00    -0.206 F 
ATOM     64  C   UNL A   1      46.069  22.397  24.761  1.00  0.00     0.022 A 
BRANCH  61  65
ATOM     65  S   UNL A   1      44.372  20.226  24.991  1.00  0.00     0.124 S 
ATOM     66  O   UNL A   1      45.304  19.370  25.718  1.00  0.00    -0.237 OA
ATOM     67  O   UNL A   1      42.997  20.246  25.474  1.00  0.00    -0.237 OA
ATOM     68  O   UNL A   1      44.512  20.186  23.535  1.00  0.00    -0.744 OA
ENDBRANCH  61  65
ENDBRANCH  44  58
BRANCH  45  69
ATOM     69  C   UNL A   1      41.084  29.733  33.573  1.00  0.00     0.023 A 
ATOM     70  C   UNL A   1      40.990  31.086  33.960  1.00  0.00     0.031 A 
ATOM     71  C   UNL A   1      39.896  29.054  33.275  1.00  0.00     0.131 A 
ATOM     72  C   UNL A   1      39.773  31.768  33.860  1.00  0.00     0.055 A 
ATOM     73  C   UNL A   1      38.663  29.721  33.258  1.00  0.00     0.041 A 
ATOM     74  F   UNL A   1      39.922  27.775  32.874  1.00  0.00    -0.206 F 
ATOM     75  C   UNL A   1      38.604  31.096  33.502  1.00  0.00     0.022 A 
BRANCH  72  76
ATOM     76  S   UNL A   1      39.791  33.585  33.909  1.00  0.00     0.124 S 
ATOM     77  O   UNL A   1      39.502  33.854  35.311  1.00  0.00    -0.237 OA
ATOM     78  O   UNL A   1      41.146  33.905  33.460  1.00  0.00    -0.237 OA
ATOM     79  O   UNL A   1      38.746  33.956  32.959  1.00  0.00    -0.744 OA
ENDBRANCH  72  76
ENDBRANCH  45  69
BRANCH  57  80
ATOM     80  C   UNL A   1      45.250  23.770  33.710  1.00  0.00     0.023 A 
ATOM     81  C   UNL A   1      46.560  23.453  34.104  1.00  0.00     0.031 A 
ATOM     82  C   UNL A   1      44.264  22.819  34.077  1.00  0.00     0.131 A 
ATOM     83  C   UNL A   1      46.866  22.227  34.726  1.00  0.00     0.055 A 
ATOM     84  C   UNL A   1      44.559  21.637  34.767  1.00  0.00     0.041 A 
ATOM     85  F   UNL A   1      42.967  22.999  33.789  1.00  0.00    -0.206 F 
ATOM     86  C   UNL A   1      45.871  21.323  35.079  1.00  0.00     0.022 A 
BRANCH  83  87
ATOM     87  S   UNL A   1      48.611  21.814  35.006  1.00  0.00     0.124 S 
ATOM     88  O   UNL A   1      48.706  21.886  36.462  1.00  0.00    -0.237 OA
ATOM     89  O   UNL A   1      48.713  20.476  34.432  1.00  0.00    -0.237 OA
ATOM     90  O   UNL A   1      49.335  22.857  34.284  1.00  0.00    -0.744 OA
ENDBRANCH  83  87
ENDBRANCH  57  80
ENDBRANCH  31  32
ENDBRANCH  23  26
ENDBRANCH  21  22
ENDBRANCH   1  21
TORSDOF 15
ENDMDL
