MODEL 1
REMARK VINA RESULT:     -11.7      0.000      0.000
REMARK SMILES CC[C@](C)(NC(=O)[C@H]1CNc2ccccc2O1)C(=O)NCCCCNC(=O)c1ccc(-c2c3nc(c(-c4cc(S(=O)(=O)[O-])ccc4F)c4ccc([nH]4)c(-c4cc(S(=O)(=O)[O-])ccc4F)c4nc(c(-c5cc(S(=O)(=O)[O-])ccc5F)c5ccc2[nH]5)C=C4)C=C3)cc1
REMARK SMILES IDX 23 1 22 2 21 3 20 4 18 5 19 6 3 8 4 9 2 10 1 11 5 12 6 13
REMARK SMILES IDX 7 15 8 16 9 17 17 18 10 19 16 20 11 21 15 23 12 24 14 25
REMARK SMILES IDX 13 26 24 27 25 28 26 29 27 31 28 32 29 33 90 34 30 35 89 36
REMARK SMILES IDX 31 37 32 38 33 39 83 40 34 41 88 42 82 43 84 44 35 45 87 46
REMARK SMILES IDX 81 47 80 48 36 50 68 51 48 52 67 53 49 54 52 55 66 56 85 57
REMARK SMILES IDX 50 58 51 59 65 61 86 62 53 63 37 64 38 65 46 66 39 67 45 68
REMARK SMILES IDX 47 69 44 70 40 71 41 72 42 73 43 74 69 75 70 76 78 77 71 78
REMARK SMILES IDX 77 79 79 80 76 81 72 82 73 83 74 84 75 85 54 86 55 87 63 88
REMARK SMILES IDX 56 89 62 90 64 91 61 92 57 93 58 94 59 95 60 96
REMARK H PARENT 20 7 5 14 10 22 25 30 84 49 52 60
REMARK Flexibility Score: inf
ROOT
ATOM      1  C   UNL A   1      32.554  29.386  25.232  1.00  0.00     0.023 C 
ENDROOT
BRANCH   1   2
ATOM      2  C   UNL A   1      33.343  28.384  24.412  1.00  0.00     0.023 C 
BRANCH   2   3
ATOM      3  C   UNL A   1      33.526  27.032  25.086  1.00  0.00     0.116 C 
BRANCH   3   4
ATOM      4  N   UNL A   1      33.972  25.952  24.216  1.00  0.00    -0.354 N 
ATOM      5  C   UNL A   1      33.287  24.998  23.522  1.00  0.00     0.245 C 
ATOM      6  O   UNL A   1      33.871  24.468  22.571  1.00  0.00    -0.272 OA
ATOM      7  H   UNL A   1      34.949  25.902  24.108  1.00  0.00     0.163 HD
BRANCH   5   8
ATOM      8  C   UNL A   1      31.793  24.679  23.810  1.00  0.00     0.116 C 
ATOM      9  C   UNL A   1      31.368  23.310  23.249  1.00  0.00     0.045 C 
BRANCH   8  10
ATOM     10  C   UNL A   1      31.005  25.789  23.016  1.00  0.00     0.035 C 
ATOM     11  C   UNL A   1      29.969  26.618  23.764  1.00  0.00     0.007 C 
ENDBRANCH   8  10
BRANCH   8  12
ATOM     12  N   UNL A   1      31.501  24.722  25.267  1.00  0.00    -0.339 N 
ATOM     13  C   UNL A   1      31.800  23.964  26.365  1.00  0.00     0.263 C 
ATOM     14  H   UNL A   1      30.947  25.501  25.503  1.00  0.00     0.164 HD
ATOM     15  O   UNL A   1      31.039  24.208  27.322  1.00  0.00    -0.271 OA
BRANCH  13  16
ATOM     16  C   UNL A   1      32.982  22.965  26.613  1.00  0.00     0.281 C 
ATOM     17  C   UNL A   1      32.850  21.548  26.074  1.00  0.00     0.168 C 
ATOM     18  O   UNL A   1      34.204  23.652  26.266  1.00  0.00    -0.477 OA
ATOM     19  N   UNL A   1      34.076  20.776  26.134  1.00  0.00    -0.378 N 
ATOM     20  C   UNL A   1      35.286  22.871  25.941  1.00  0.00     0.143 A 
ATOM     21  C   UNL A   1      35.210  21.486  25.756  1.00  0.00     0.077 A 
ATOM     22  H   UNL A   1      34.103  19.834  26.417  1.00  0.00     0.160 HD
ATOM     23  C   UNL A   1      36.480  23.550  25.669  1.00  0.00     0.049 A 
ATOM     24  C   UNL A   1      36.304  20.822  25.187  1.00  0.00     0.029 A 
ATOM     25  C   UNL A   1      37.552  22.884  25.075  1.00  0.00     0.004 A 
ATOM     26  C   UNL A   1      37.452  21.522  24.810  1.00  0.00     0.002 A 
ENDBRANCH  13  16
ENDBRANCH   8  12
ENDBRANCH   5   8
ENDBRANCH   3   4
ENDBRANCH   2   3
ENDBRANCH   1   2
BRANCH   1  27
ATOM     27  C   UNL A   1      33.103  29.740  26.598  1.00  0.00     0.116 C 
BRANCH  27  28
ATOM     28  N   UNL A   1      33.063  31.164  26.855  1.00  0.00    -0.352 N 
ATOM     29  C   UNL A   1      33.882  31.941  27.634  1.00  0.00     0.251 C 
ATOM     30  H   UNL A   1      32.337  31.648  26.400  1.00  0.00     0.163 HD
ATOM     31  O   UNL A   1      33.539  33.102  27.869  1.00  0.00    -0.269 OA
BRANCH  29  32
ATOM     32  C   UNL A   1      35.141  31.411  28.215  1.00  0.00     0.039 A 
ATOM     33  C   UNL A   1      35.126  30.130  28.779  1.00  0.00     0.014 A 
ATOM     34  C   UNL A   1      36.318  32.162  28.263  1.00  0.00     0.014 A 
ATOM     35  C   UNL A   1      36.289  29.599  29.348  1.00  0.00     0.010 A 
ATOM     36  C   UNL A   1      37.501  31.592  28.734  1.00  0.00     0.010 A 
ATOM     37  C   UNL A   1      37.495  30.315  29.309  1.00  0.00    -0.014 A 
BRANCH  37  38
ATOM     38  C   UNL A   1      38.738  29.769  29.922  1.00  0.00     0.031 A 
ATOM     39  C   UNL A   1      39.184  30.253  31.279  1.00  0.00     0.074 A 
ATOM     40  C   UNL A   1      39.483  28.868  29.251  1.00  0.00     0.049 A 
ATOM     41  N   UNL A   1      40.264  29.952  31.955  1.00  0.00    -0.248 NA
ATOM     42  C   UNL A   1      38.314  31.230  31.951  1.00  0.00     0.031 C 
ATOM     43  C   UNL A   1      39.181  28.346  27.917  1.00  0.00     0.029 A 
ATOM     44  N   UNL A   1      40.650  28.233  29.598  1.00  0.00    -0.354 N 
ATOM     45  C   UNL A   1      40.211  30.713  33.119  1.00  0.00     0.074 A 
ATOM     46  C   UNL A   1      39.027  31.539  33.022  1.00  0.00     0.031 C 
ATOM     47  C   UNL A   1      40.121  27.452  27.572  1.00  0.00     0.029 A 
ATOM     48  C   UNL A   1      41.117  27.367  28.635  1.00  0.00     0.049 A 
ATOM     49  H   UNL A   1      41.110  28.383  30.455  1.00  0.00     0.167 HD
ATOM     50  C   UNL A   1      41.051  30.703  34.184  1.00  0.00     0.034 A 
ATOM     51  C   UNL A   1      42.226  26.601  28.607  1.00  0.00     0.034 A 
ATOM     52  C   UNL A   1      42.215  29.857  34.280  1.00  0.00     0.049 A 
ATOM     53  C   UNL A   1      43.155  26.616  29.795  1.00  0.00     0.074 A 
ATOM     54  C   UNL A   1      43.107  29.731  35.330  1.00  0.00     0.029 A 
ATOM     55  N   UNL A   1      42.652  28.991  33.285  1.00  0.00    -0.354 N 
ATOM     56  N   UNL A   1      43.066  27.313  30.904  1.00  0.00    -0.248 NA
ATOM     57  C   UNL A   1      44.325  25.731  29.732  1.00  0.00     0.031 C 
ATOM     58  C   UNL A   1      44.115  28.838  34.949  1.00  0.00     0.029 A 
ATOM     59  C   UNL A   1      43.814  28.349  33.687  1.00  0.00     0.049 A 
ATOM     60  H   UNL A   1      42.202  28.853  32.420  1.00  0.00     0.167 HD
ATOM     61  C   UNL A   1      44.156  26.929  31.682  1.00  0.00     0.074 A 
ATOM     62  C   UNL A   1      44.875  25.928  30.921  1.00  0.00     0.031 C 
ATOM     63  C   UNL A   1      44.527  27.360  32.914  1.00  0.00     0.034 A 
BRANCH  50  64
ATOM     64  C   UNL A   1      40.745  31.655  35.318  1.00  0.00     0.023 A 
ATOM     65  C   UNL A   1      39.644  31.458  36.170  1.00  0.00     0.031 A 
ATOM     66  C   UNL A   1      41.546  32.791  35.532  1.00  0.00     0.131 A 
ATOM     67  C   UNL A   1      39.326  32.422  37.139  1.00  0.00     0.055 A 
ATOM     68  C   UNL A   1      41.274  33.701  36.555  1.00  0.00     0.041 A 
ATOM     69  F   UNL A   1      42.600  33.044  34.740  1.00  0.00    -0.206 F 
ATOM     70  C   UNL A   1      40.148  33.529  37.356  1.00  0.00     0.022 A 
BRANCH  67  71
ATOM     71  S   UNL A   1      37.740  32.286  38.009  1.00  0.00     0.124 S 
ATOM     72  O   UNL A   1      36.903  33.204  37.238  1.00  0.00    -0.237 OA
ATOM     73  O   UNL A   1      37.425  30.867  37.871  1.00  0.00    -0.237 OA
ATOM     74  O   UNL A   1      38.052  32.728  39.364  1.00  0.00    -0.744 OA
ENDBRANCH  67  71
ENDBRANCH  50  64
BRANCH  51  75
ATOM     75  C   UNL A   1      42.533  25.764  27.412  1.00  0.00     0.023 A 
ATOM     76  C   UNL A   1      42.155  24.414  27.355  1.00  0.00     0.031 A 
ATOM     77  C   UNL A   1      43.249  26.295  26.324  1.00  0.00     0.131 A 
ATOM     78  C   UNL A   1      42.533  23.626  26.256  1.00  0.00     0.055 A 
ATOM     79  C   UNL A   1      43.577  25.523  25.209  1.00  0.00     0.041 A 
ATOM     80  F   UNL A   1      43.631  27.583  26.326  1.00  0.00    -0.206 F 
ATOM     81  C   UNL A   1      43.229  24.176  25.176  1.00  0.00     0.022 A 
BRANCH  78  82
ATOM     82  S   UNL A   1      42.176  21.849  26.295  1.00  0.00     0.124 S 
ATOM     83  O   UNL A   1      42.572  21.496  27.654  1.00  0.00    -0.237 OA
ATOM     84  O   UNL A   1      40.744  21.822  26.017  1.00  0.00    -0.237 OA
ATOM     85  O   UNL A   1      43.025  21.306  25.237  1.00  0.00    -0.744 OA
ENDBRANCH  78  82
ENDBRANCH  51  75
BRANCH  63  86
ATOM     86  C   UNL A   1      45.745  26.714  33.529  1.00  0.00     0.023 A 
ATOM     87  C   UNL A   1      45.658  25.519  34.263  1.00  0.00     0.031 A 
ATOM     88  C   UNL A   1      47.009  27.312  33.382  1.00  0.00     0.131 A 
ATOM     89  C   UNL A   1      46.806  24.989  34.871  1.00  0.00     0.055 A 
ATOM     90  C   UNL A   1      48.158  26.748  33.941  1.00  0.00     0.041 A 
ATOM     91  F   UNL A   1      47.150  28.455  32.691  1.00  0.00    -0.206 F 
ATOM     92  C   UNL A   1      48.058  25.586  34.701  1.00  0.00     0.022 A 
BRANCH  89  93
ATOM     93  S   UNL A   1      46.629  23.550  35.962  1.00  0.00     0.124 S 
ATOM     94  O   UNL A   1      45.288  23.745  36.506  1.00  0.00    -0.237 OA
ATOM     95  O   UNL A   1      46.784  22.433  35.035  1.00  0.00    -0.237 OA
ATOM     96  O   UNL A   1      47.718  23.712  36.923  1.00  0.00    -0.744 OA
ENDBRANCH  89  93
ENDBRANCH  63  86
ENDBRANCH  37  38
ENDBRANCH  29  32
ENDBRANCH  27  28
ENDBRANCH   1  27
TORSDOF 17
ENDMDL
MODEL 2
REMARK VINA RESULT:     -11.7      4.378      9.589
REMARK SMILES CC[C@](C)(NC(=O)[C@H]1CNc2ccccc2O1)C(=O)NCCCCNC(=O)c1ccc(-c2c3nc(c(-c4cc(S(=O)(=O)[O-])ccc4F)c4ccc([nH]4)c(-c4cc(S(=O)(=O)[O-])ccc4F)c4nc(c(-c5cc(S(=O)(=O)[O-])ccc5F)c5ccc2[nH]5)C=C4)C=C3)cc1
REMARK SMILES IDX 23 1 22 2 21 3 20 4 18 5 19 6 3 8 4 9 2 10 1 11 5 12 6 13
REMARK SMILES IDX 7 15 8 16 9 17 17 18 10 19 16 20 11 21 15 23 12 24 14 25
REMARK SMILES IDX 13 26 24 27 25 28 26 29 27 31 28 32 29 33 90 34 30 35 89 36
REMARK SMILES IDX 31 37 32 38 33 39 83 40 34 41 88 42 82 43 84 44 35 45 87 46
REMARK SMILES IDX 81 47 80 48 36 50 68 51 48 52 67 53 49 54 52 55 66 56 85 57
REMARK SMILES IDX 50 58 51 59 65 61 86 62 53 63 37 64 38 65 46 66 39 67 45 68
REMARK SMILES IDX 47 69 44 70 40 71 41 72 42 73 43 74 69 75 70 76 78 77 71 78
REMARK SMILES IDX 77 79 79 80 76 81 72 82 73 83 74 84 75 85 54 86 55 87 63 88
REMARK SMILES IDX 56 89 62 90 64 91 61 92 57 93 58 94 59 95 60 96
REMARK H PARENT 20 7 5 14 10 22 25 30 84 49 52 60
REMARK Flexibility Score: inf
ROOT
ATOM      1  C   UNL A   1      35.977  23.208  24.463  1.00  0.00     0.023 C 
ENDROOT
BRANCH   1   2
ATOM      2  C   UNL A   1      35.171  21.928  24.366  1.00  0.00     0.023 C 
BRANCH   2   3
ATOM      3  C   UNL A   1      33.853  22.074  23.620  1.00  0.00     0.116 C 
BRANCH   3   4
ATOM      4  N   UNL A   1      32.655  22.064  24.450  1.00  0.00    -0.354 N 
ATOM      5  C   UNL A   1      31.858  23.069  24.914  1.00  0.00     0.245 C 
ATOM      6  O   UNL A   1      30.711  22.763  25.255  1.00  0.00    -0.272 OA
ATOM      7  H   UNL A   1      32.367  21.164  24.727  1.00  0.00     0.163 HD
BRANCH   5   8
ATOM      8  C   UNL A   1      32.306  24.558  24.890  1.00  0.00     0.116 C 
ATOM      9  C   UNL A   1      33.174  24.927  26.107  1.00  0.00     0.045 C 
BRANCH   8  10
ATOM     10  C   UNL A   1      30.957  25.364  25.000  1.00  0.00     0.035 C 
ATOM     11  C   UNL A   1      30.836  26.432  26.079  1.00  0.00     0.007 C 
ENDBRANCH   8  10
BRANCH   8  12
ATOM     12  N   UNL A   1      33.050  24.879  23.644  1.00  0.00    -0.339 N 
ATOM     13  C   UNL A   1      33.316  25.998  22.904  1.00  0.00     0.263 C 
ATOM     14  H   UNL A   1      33.458  24.076  23.247  1.00  0.00     0.164 HD
ATOM     15  O   UNL A   1      33.689  25.716  21.748  1.00  0.00    -0.271 OA
BRANCH  13  16
ATOM     16  C   UNL A   1      33.329  27.508  23.323  1.00  0.00     0.281 C 
ATOM     17  C   UNL A   1      32.025  28.289  23.239  1.00  0.00     0.168 C 
ATOM     18  O   UNL A   1      34.028  27.597  24.583  1.00  0.00    -0.477 OA
ATOM     19  N   UNL A   1      32.074  29.593  23.871  1.00  0.00    -0.378 N 
ATOM     20  C   UNL A   1      33.759  28.693  25.368  1.00  0.00     0.143 A 
ATOM     21  C   UNL A   1      32.732  29.603  25.095  1.00  0.00     0.077 A 
ATOM     22  H   UNL A   1      31.678  30.398  23.469  1.00  0.00     0.160 HD
ATOM     23  C   UNL A   1      34.492  28.797  26.556  1.00  0.00     0.049 A 
ATOM     24  C   UNL A   1      32.380  30.535  26.080  1.00  0.00     0.029 A 
ATOM     25  C   UNL A   1      34.114  29.709  27.541  1.00  0.00     0.004 A 
ATOM     26  C   UNL A   1      33.039  30.561  27.312  1.00  0.00     0.002 A 
ENDBRANCH  13  16
ENDBRANCH   8  12
ENDBRANCH   5   8
ENDBRANCH   3   4
ENDBRANCH   2   3
ENDBRANCH   1   2
BRANCH   1  27
ATOM     27  C   UNL A   1      36.642  23.502  25.791  1.00  0.00     0.116 C 
BRANCH  27  28
ATOM     28  N   UNL A   1      37.701  22.563  26.095  1.00  0.00    -0.352 N 
ATOM     29  C   UNL A   1      38.969  22.790  26.568  1.00  0.00     0.251 C 
ATOM     30  H   UNL A   1      37.477  21.618  25.939  1.00  0.00     0.163 HD
ATOM     31  O   UNL A   1      39.773  21.854  26.563  1.00  0.00    -0.269 OA
BRANCH  29  32
ATOM     32  C   UNL A   1      39.394  24.127  27.053  1.00  0.00     0.039 A 
ATOM     33  C   UNL A   1      39.972  25.015  26.138  1.00  0.00     0.014 A 
ATOM     34  C   UNL A   1      39.284  24.507  28.393  1.00  0.00     0.014 A 
ATOM     35  C   UNL A   1      40.398  26.279  26.558  1.00  0.00     0.010 A 
ATOM     36  C   UNL A   1      39.610  25.805  28.788  1.00  0.00     0.010 A 
ATOM     37  C   UNL A   1      40.198  26.697  27.883  1.00  0.00    -0.014 A 
BRANCH  37  38
ATOM     38  C   UNL A   1      40.657  28.036  28.348  1.00  0.00     0.031 A 
ATOM     39  C   UNL A   1      42.132  28.322  28.480  1.00  0.00     0.074 A 
ATOM     40  C   UNL A   1      39.756  28.980  28.685  1.00  0.00     0.049 A 
ATOM     41  N   UNL A   1      42.733  29.396  28.926  1.00  0.00    -0.248 NA
ATOM     42  C   UNL A   1      43.052  27.244  28.086  1.00  0.00     0.031 C 
ATOM     43  C   UNL A   1      38.302  28.817  28.637  1.00  0.00     0.029 A 
ATOM     44  N   UNL A   1      39.929  30.265  29.136  1.00  0.00    -0.354 N 
ATOM     45  C   UNL A   1      44.096  29.117  28.883  1.00  0.00     0.074 A 
ATOM     46  C   UNL A   1      44.226  27.748  28.432  1.00  0.00     0.031 C 
ATOM     47  C   UNL A   1      37.718  29.965  29.015  1.00  0.00     0.029 A 
ATOM     48  C   UNL A   1      38.750  30.932  29.376  1.00  0.00     0.049 A 
ATOM     49  H   UNL A   1      40.815  30.671  29.276  1.00  0.00     0.167 HD
ATOM     50  C   UNL A   1      45.144  29.932  29.162  1.00  0.00     0.034 A 
ATOM     51  C   UNL A   1      38.525  32.176  29.844  1.00  0.00     0.034 A 
ATOM     52  C   UNL A   1      45.002  31.303  29.587  1.00  0.00     0.049 A 
ATOM     53  C   UNL A   1      39.704  33.062  30.162  1.00  0.00     0.074 A 
ATOM     54  C   UNL A   1      45.993  32.232  29.850  1.00  0.00     0.029 A 
ATOM     55  N   UNL A   1      43.790  31.943  29.814  1.00  0.00    -0.354 N 
ATOM     56  N   UNL A   1      40.986  32.793  30.076  1.00  0.00    -0.248 NA
ATOM     57  C   UNL A   1      39.403  34.422  30.627  1.00  0.00     0.031 C 
ATOM     58  C   UNL A   1      45.385  33.411  30.294  1.00  0.00     0.029 A 
ATOM     59  C   UNL A   1      44.010  33.245  30.240  1.00  0.00     0.049 A 
ATOM     60  H   UNL A   1      42.903  31.532  29.692  1.00  0.00     0.167 HD
ATOM     61  C   UNL A   1      41.644  33.962  30.452  1.00  0.00     0.074 A 
ATOM     62  C   UNL A   1      40.617  34.940  30.746  1.00  0.00     0.031 C 
ATOM     63  C   UNL A   1      42.976  34.206  30.540  1.00  0.00     0.034 A 
BRANCH  50  64
ATOM     64  C   UNL A   1      46.532  29.347  29.033  1.00  0.00     0.023 A 
ATOM     65  C   UNL A   1      47.183  29.258  27.790  1.00  0.00     0.031 A 
ATOM     66  C   UNL A   1      47.202  28.844  30.163  1.00  0.00     0.131 A 
ATOM     67  C   UNL A   1      48.423  28.607  27.692  1.00  0.00     0.055 A 
ATOM     68  C   UNL A   1      48.474  28.275  30.071  1.00  0.00     0.041 A 
ATOM     69  F   UNL A   1      46.624  28.883  31.374  1.00  0.00    -0.206 F 
ATOM     70  C   UNL A   1      49.085  28.138  28.828  1.00  0.00     0.022 A 
BRANCH  67  71
ATOM     71  S   UNL A   1      49.085  28.247  26.042  1.00  0.00     0.124 S 
ATOM     72  O   UNL A   1      49.573  26.879  26.214  1.00  0.00    -0.237 OA
ATOM     73  O   UNL A   1      47.909  28.402  25.190  1.00  0.00    -0.237 OA
ATOM     74  O   UNL A   1      50.124  29.254  25.861  1.00  0.00    -0.744 OA
ENDBRANCH  67  71
ENDBRANCH  50  64
BRANCH  51  75
ATOM     75  C   UNL A   1      37.131  32.661  30.054  1.00  0.00     0.023 A 
ATOM     76  C   UNL A   1      36.643  32.934  31.341  1.00  0.00     0.031 A 
ATOM     77  C   UNL A   1      36.249  32.815  28.968  1.00  0.00     0.131 A 
ATOM     78  C   UNL A   1      35.300  33.305  31.517  1.00  0.00     0.055 A 
ATOM     79  C   UNL A   1      34.930  33.235  29.143  1.00  0.00     0.041 A 
ATOM     80  F   UNL A   1      36.667  32.570  27.716  1.00  0.00    -0.206 F 
ATOM     81  C   UNL A   1      34.445  33.470  30.425  1.00  0.00     0.022 A 
BRANCH  78  82
ATOM     82  S   UNL A   1      34.662  33.485  33.205  1.00  0.00     0.124 S 
ATOM     83  O   UNL A   1      33.295  32.999  33.060  1.00  0.00    -0.237 OA
ATOM     84  O   UNL A   1      35.569  32.630  33.965  1.00  0.00    -0.237 OA
ATOM     85  O   UNL A   1      34.792  34.916  33.468  1.00  0.00    -0.744 OA
ENDBRANCH  78  82
ENDBRANCH  51  75
BRANCH  63  86
ATOM     86  C   UNL A   1      43.392  35.603  30.933  1.00  0.00     0.023 A 
ATOM     87  C   UNL A   1      43.359  36.038  32.270  1.00  0.00     0.031 A 
ATOM     88  C   UNL A   1      43.819  36.514  29.951  1.00  0.00     0.131 A 
ATOM     89  C   UNL A   1      43.693  37.364  32.581  1.00  0.00     0.055 A 
ATOM     90  C   UNL A   1      44.206  37.816  30.274  1.00  0.00     0.041 A 
ATOM     91  F   UNL A   1      43.868  36.153  28.658  1.00  0.00    -0.206 F 
ATOM     92  C   UNL A   1      44.132  38.251  31.595  1.00  0.00     0.022 A 
BRANCH  89  93
ATOM     93  S   UNL A   1      43.465  37.943  34.285  1.00  0.00     0.124 S 
ATOM     94  O   UNL A   1      43.015  39.317  34.081  1.00  0.00    -0.237 OA
ATOM     95  O   UNL A   1      42.464  37.015  34.800  1.00  0.00    -0.237 OA
ATOM     96  O   UNL A   1      44.796  37.807  34.875  1.00  0.00    -0.744 OA
ENDBRANCH  89  93
ENDBRANCH  63  86
ENDBRANCH  37  38
ENDBRANCH  29  32
ENDBRANCH  27  28
ENDBRANCH   1  27
TORSDOF 17
ENDMDL
MODEL 3
REMARK VINA RESULT:     -11.7      2.935      8.925
REMARK SMILES CC[C@](C)(NC(=O)[C@H]1CNc2ccccc2O1)C(=O)NCCCCNC(=O)c1ccc(-c2c3nc(c(-c4cc(S(=O)(=O)[O-])ccc4F)c4ccc([nH]4)c(-c4cc(S(=O)(=O)[O-])ccc4F)c4nc(c(-c5cc(S(=O)(=O)[O-])ccc5F)c5ccc2[nH]5)C=C4)C=C3)cc1
REMARK SMILES IDX 23 1 22 2 21 3 20 4 18 5 19 6 3 8 4 9 2 10 1 11 5 12 6 13
REMARK SMILES IDX 7 15 8 16 9 17 17 18 10 19 16 20 11 21 15 23 12 24 14 25
REMARK SMILES IDX 13 26 24 27 25 28 26 29 27 31 28 32 29 33 90 34 30 35 89 36
REMARK SMILES IDX 31 37 32 38 33 39 83 40 34 41 88 42 82 43 84 44 35 45 87 46
REMARK SMILES IDX 81 47 80 48 36 50 68 51 48 52 67 53 49 54 52 55 66 56 85 57
REMARK SMILES IDX 50 58 51 59 65 61 86 62 53 63 37 64 38 65 46 66 39 67 45 68
REMARK SMILES IDX 47 69 44 70 40 71 41 72 42 73 43 74 69 75 70 76 78 77 71 78
REMARK SMILES IDX 77 79 79 80 76 81 72 82 73 83 74 84 75 85 54 86 55 87 63 88
REMARK SMILES IDX 56 89 62 90 64 91 61 92 57 93 58 94 59 95 60 96
REMARK H PARENT 20 7 5 14 10 22 25 30 84 49 52 60
REMARK Flexibility Score: inf
ROOT
ATOM      1  C   UNL A   1      31.348  32.158  26.765  1.00  0.00     0.023 C 
ENDROOT
BRANCH   1   2
ATOM      2  C   UNL A   1      31.417  30.880  25.954  1.00  0.00     0.023 C 
BRANCH   2   3
ATOM      3  C   UNL A   1      32.754  30.157  26.040  1.00  0.00     0.116 C 
BRANCH   3   4
ATOM      4  N   UNL A   1      33.295  29.683  24.772  1.00  0.00    -0.354 N 
ATOM      5  C   UNL A   1      33.177  28.493  24.118  1.00  0.00     0.245 C 
ATOM      6  O   UNL A   1      33.403  28.496  22.903  1.00  0.00    -0.272 OA
ATOM      7  H   UNL A   1      33.849  30.347  24.301  1.00  0.00     0.163 HD
BRANCH   5   8
ATOM      8  C   UNL A   1      32.647  27.211  24.821  1.00  0.00     0.116 C 
ATOM      9  C   UNL A   1      31.427  27.496  25.715  1.00  0.00     0.045 C 
BRANCH   8  10
ATOM     10  C   UNL A   1      33.835  26.770  25.757  1.00  0.00     0.035 C 
ATOM     11  C   UNL A   1      34.355  25.342  25.644  1.00  0.00     0.007 C 
ENDBRANCH   8  10
BRANCH   8  12
ATOM     12  N   UNL A   1      32.294  26.158  23.833  1.00  0.00    -0.339 N 
ATOM     13  C   UNL A   1      31.175  25.766  23.152  1.00  0.00     0.263 C 
ATOM     14  H   UNL A   1      33.070  25.595  23.610  1.00  0.00     0.164 HD
ATOM     15  O   UNL A   1      31.284  24.611  22.698  1.00  0.00    -0.271 OA
BRANCH  13  16
ATOM     16  C   UNL A   1      29.883  26.573  22.782  1.00  0.00     0.281 C 
ATOM     17  C   UNL A   1      28.713  26.544  23.756  1.00  0.00     0.168 C 
ATOM     18  O   UNL A   1      30.305  27.885  22.354  1.00  0.00    -0.477 OA
ATOM     19  N   UNL A   1      27.668  27.503  23.454  1.00  0.00    -0.378 N 
ATOM     20  C   UNL A   1      29.378  28.897  22.442  1.00  0.00     0.143 A 
ATOM     21  C   UNL A   1      28.141  28.755  23.081  1.00  0.00     0.077 A 
ATOM     22  H   UNL A   1      26.710  27.286  23.509  1.00  0.00     0.160 HD
ATOM     23  C   UNL A   1      29.781  30.149  21.963  1.00  0.00     0.049 A 
ATOM     24  C   UNL A   1      27.380  29.904  23.334  1.00  0.00     0.029 A 
ATOM     25  C   UNL A   1      29.030  31.289  22.247  1.00  0.00     0.004 A 
ATOM     26  C   UNL A   1      27.840  31.168  22.957  1.00  0.00     0.002 A 
ENDBRANCH  13  16
ENDBRANCH   8  12
ENDBRANCH   5   8
ENDBRANCH   3   4
ENDBRANCH   2   3
ENDBRANCH   1   2
BRANCH   1  27
ATOM     27  C   UNL A   1      32.663  32.758  27.214  1.00  0.00     0.116 C 
BRANCH  27  28
ATOM     28  N   UNL A   1      32.522  34.134  27.644  1.00  0.00    -0.352 N 
ATOM     29  C   UNL A   1      33.133  34.800  28.675  1.00  0.00     0.251 C 
ATOM     30  H   UNL A   1      31.892  34.673  27.114  1.00  0.00     0.163 HD
ATOM     31  O   UNL A   1      32.710  35.917  28.984  1.00  0.00    -0.269 OA
BRANCH  29  32
ATOM     32  C   UNL A   1      34.259  34.200  29.435  1.00  0.00     0.039 A 
ATOM     33  C   UNL A   1      35.566  34.488  29.026  1.00  0.00     0.014 A 
ATOM     34  C   UNL A   1      34.058  33.324  30.505  1.00  0.00     0.014 A 
ATOM     35  C   UNL A   1      36.654  33.931  29.707  1.00  0.00     0.010 A 
ATOM     36  C   UNL A   1      35.141  32.856  31.248  1.00  0.00     0.010 A 
ATOM     37  C   UNL A   1      36.453  33.129  30.842  1.00  0.00    -0.014 A 
BRANCH  37  38
ATOM     38  C   UNL A   1      37.601  32.520  31.570  1.00  0.00     0.031 A 
ATOM     39  C   UNL A   1      38.363  31.375  30.951  1.00  0.00     0.074 A 
ATOM     40  C   UNL A   1      37.938  32.968  32.796  1.00  0.00     0.049 A 
ATOM     41  N   UNL A   1      39.346  30.668  31.447  1.00  0.00    -0.248 NA
ATOM     42  C   UNL A   1      37.940  30.949  29.609  1.00  0.00     0.031 C 
ATOM     43  C   UNL A   1      37.258  34.044  33.520  1.00  0.00     0.029 A 
ATOM     44  N   UNL A   1      38.935  32.572  33.653  1.00  0.00    -0.354 N 
ATOM     45  C   UNL A   1      39.647  29.706  30.487  1.00  0.00     0.074 A 
ATOM     46  C   UNL A   1      38.694  29.880  29.412  1.00  0.00     0.031 C 
ATOM     47  C   UNL A   1      37.875  34.240  34.696  1.00  0.00     0.029 A 
ATOM     48  C   UNL A   1      38.963  33.278  34.834  1.00  0.00     0.049 A 
ATOM     49  H   UNL A   1      39.570  31.850  33.442  1.00  0.00     0.167 HD
ATOM     50  C   UNL A   1      40.642  28.784  30.485  1.00  0.00     0.034 A 
ATOM     51  C   UNL A   1      39.768  33.157  35.909  1.00  0.00     0.034 A 
ATOM     52  C   UNL A   1      41.602  28.637  31.552  1.00  0.00     0.049 A 
ATOM     53  C   UNL A   1      40.859  32.116  35.892  1.00  0.00     0.074 A 
ATOM     54  C   UNL A   1      42.678  27.771  31.632  1.00  0.00     0.029 A 
ATOM     55  N   UNL A   1      41.600  29.375  32.730  1.00  0.00    -0.354 N 
ATOM     56  N   UNL A   1      41.153  31.242  34.958  1.00  0.00    -0.248 NA
ATOM     57  C   UNL A   1      41.734  32.056  37.070  1.00  0.00     0.031 C 
ATOM     58  C   UNL A   1      43.288  27.940  32.879  1.00  0.00     0.029 A 
ATOM     59  C   UNL A   1      42.639  28.964  33.551  1.00  0.00     0.049 A 
ATOM     60  H   UNL A   1      40.954  30.085  32.949  1.00  0.00     0.167 HD
ATOM     61  C   UNL A   1      42.265  30.546  35.426  1.00  0.00     0.074 A 
ATOM     62  C   UNL A   1      42.597  31.115  36.716  1.00  0.00     0.031 C 
ATOM     63  C   UNL A   1      42.952  29.532  34.841  1.00  0.00     0.034 A 
BRANCH  50  64
ATOM     64  C   UNL A   1      40.724  27.854  29.296  1.00  0.00     0.023 A 
ATOM     65  C   UNL A   1      41.662  28.050  28.267  1.00  0.00     0.031 A 
ATOM     66  C   UNL A   1      39.832  26.773  29.173  1.00  0.00     0.131 A 
ATOM     67  C   UNL A   1      41.633  27.234  27.126  1.00  0.00     0.055 A 
ATOM     68  C   UNL A   1      39.866  25.912  28.074  1.00  0.00     0.041 A 
ATOM     69  F   UNL A   1      38.900  26.545  30.113  1.00  0.00    -0.206 F 
ATOM     70  C   UNL A   1      40.759  26.150  27.034  1.00  0.00     0.022 A 
BRANCH  67  71
ATOM     71  S   UNL A   1      42.651  27.703  25.699  1.00  0.00     0.124 S 
ATOM     72  O   UNL A   1      42.211  29.078  25.464  1.00  0.00    -0.237 OA
ATOM     73  O   UNL A   1      44.008  27.547  26.215  1.00  0.00    -0.237 OA
ATOM     74  O   UNL A   1      42.260  26.747  24.669  1.00  0.00    -0.744 OA
ENDBRANCH  67  71
ENDBRANCH  50  64
BRANCH  51  75
ATOM     75  C   UNL A   1      39.570  34.032  37.100  1.00  0.00     0.023 A 
ATOM     76  C   UNL A   1      38.957  33.546  38.265  1.00  0.00     0.031 A 
ATOM     77  C   UNL A   1      39.953  35.386  37.071  1.00  0.00     0.131 A 
ATOM     78  C   UNL A   1      38.704  34.416  39.338  1.00  0.00     0.055 A 
ATOM     79  C   UNL A   1      39.748  36.234  38.161  1.00  0.00     0.041 A 
ATOM     80  F   UNL A   1      40.546  35.901  35.982  1.00  0.00    -0.206 F 
ATOM     81  C   UNL A   1      39.107  35.752  39.298  1.00  0.00     0.022 A 
BRANCH  78  82
ATOM     82  S   UNL A   1      37.760  33.794  40.756  1.00  0.00     0.124 S 
ATOM     83  O   UNL A   1      36.596  33.206  40.103  1.00  0.00    -0.237 OA
ATOM     84  O   UNL A   1      38.701  32.856  41.358  1.00  0.00    -0.237 OA
ATOM     85  O   UNL A   1      37.493  34.997  41.542  1.00  0.00    -0.744 OA
ENDBRANCH  78  82
ENDBRANCH  51  75
BRANCH  63  86
ATOM     86  C   UNL A   1      44.159  29.006  35.579  1.00  0.00     0.023 A 
ATOM     87  C   UNL A   1      44.058  27.961  36.514  1.00  0.00     0.031 A 
ATOM     88  C   UNL A   1      45.427  29.568  35.348  1.00  0.00     0.131 A 
ATOM     89  C   UNL A   1      45.194  27.547  37.224  1.00  0.00     0.055 A 
ATOM     90  C   UNL A   1      46.565  29.112  36.016  1.00  0.00     0.041 A 
ATOM     91  F   UNL A   1      45.581  30.570  34.467  1.00  0.00    -0.206 F 
ATOM     92  C   UNL A   1      46.450  28.104  36.969  1.00  0.00     0.022 A 
BRANCH  89  93
ATOM     93  S   UNL A   1      44.996  26.326  38.551  1.00  0.00     0.124 S 
ATOM     94  O   UNL A   1      45.343  25.081  37.871  1.00  0.00    -0.237 OA
ATOM     95  O   UNL A   1      45.951  26.793  39.551  1.00  0.00    -0.237 OA
ATOM     96  O   UNL A   1      43.591  26.456  38.930  1.00  0.00    -0.744 OA
ENDBRANCH  89  93
ENDBRANCH  63  86
ENDBRANCH  37  38
ENDBRANCH  29  32
ENDBRANCH  27  28
ENDBRANCH   1  27
TORSDOF 17
ENDMDL
