MODEL 1
REMARK VINA RESULT:     -10.9      0.000      0.000
REMARK SMILES O=C(C[C@H]1C[N@@H+](CCSc2ccccc2F)CCO1)NCCCCNC(=O)c1ccc(-c2c3nc(c(-c4cc(S(=O)(=O)[O-])ccc4F)c4ccc([nH]4)c(-c4cc(S(=O)(=O)[O-])ccc4F)c4nc(c(-c5cc(S(=O)(=O)[O-])ccc5F)c5ccc2[nH]5)C=C4)C=C3)cc1
REMARK SMILES IDX 21 1 20 2 1 3 2 4 3 6 4 7 5 8 19 9 6 10 18 11 17 12 7 14
REMARK SMILES IDX 8 15 9 16 10 17 11 18 15 19 12 20 14 21 16 22 13 23 22 24
REMARK SMILES IDX 23 25 24 26 25 27 26 28 27 30 28 31 29 32 90 33 30 34 89 35
REMARK SMILES IDX 31 36 32 37 33 38 83 39 34 40 88 41 82 42 84 43 35 44 87 45
REMARK SMILES IDX 81 46 80 47 36 49 68 50 48 51 67 52 49 53 52 54 66 55 85 56
REMARK SMILES IDX 50 57 51 58 65 60 86 61 53 62 37 63 38 64 46 65 39 66 45 67
REMARK SMILES IDX 47 68 44 69 40 70 41 71 42 72 43 73 69 74 70 75 78 76 71 77
REMARK SMILES IDX 77 78 79 79 76 80 72 81 73 82 74 83 75 84 54 85 55 86 63 87
REMARK SMILES IDX 56 88 62 89 64 90 61 91 57 92 58 93 59 94 60 95
REMARK H PARENT 20 5 6 13 25 29 84 48 52 59
REMARK Flexibility Score: inf
ROOT
ATOM      1  C   UNL A   1      35.910  23.395  25.248  1.00  0.00     0.116 C 
ENDROOT
BRANCH   1   2
ATOM      2  N   UNL A   1      35.056  24.408  25.845  1.00  0.00    -0.356 N 
ATOM      3  O   UNL A   1      34.327  25.300  23.857  1.00  0.00    -0.275 OA
ATOM      4  C   UNL A   1      34.297  25.271  25.084  1.00  0.00     0.222 C 
ATOM      5  H   UNL A   1      35.019  24.481  26.826  1.00  0.00     0.163 HD
BRANCH   4   6
ATOM      6  C   UNL A   1      33.415  26.208  25.870  1.00  0.00     0.138 C 
BRANCH   6   7
ATOM      7  C   UNL A   1      33.825  27.680  25.849  1.00  0.00     0.182 C 
ATOM      8  C   UNL A   1      33.463  28.485  24.566  1.00  0.00     0.295 C 
ATOM      9  O   UNL A   1      33.556  28.333  27.100  1.00  0.00    -0.366 OA
ATOM     10  N   UNL A   1      32.350  29.436  24.640  1.00  0.00    -0.330 N 
ATOM     11  C   UNL A   1      32.391  29.157  27.098  1.00  0.00     0.222 C 
ATOM     12  C   UNL A   1      32.388  30.126  25.915  1.00  0.00     0.291 C 
ATOM     13  H   UNL A   1      32.510  30.139  23.917  1.00  0.00     0.348 HD
BRANCH  10  14
ATOM     14  C   UNL A   1      31.044  29.015  24.117  1.00  0.00     0.273 C 
BRANCH  14  15
ATOM     15  C   UNL A   1      30.774  27.628  23.462  1.00  0.00     0.136 C 
BRANCH  15  16
ATOM     16  S   UNL A   1      29.615  26.446  24.295  1.00  0.00    -0.117 SA
BRANCH  16  17
ATOM     17  C   UNL A   1      30.487  24.877  24.333  1.00  0.00     0.043 A 
ATOM     18  C   UNL A   1      31.074  24.438  23.136  1.00  0.00     0.018 A 
ATOM     19  C   UNL A   1      30.685  24.092  25.476  1.00  0.00     0.136 A 
ATOM     20  C   UNL A   1      31.715  23.199  23.049  1.00  0.00     0.001 A 
ATOM     21  C   UNL A   1      31.373  22.873  25.408  1.00  0.00     0.040 A 
ATOM     22  F   UNL A   1      30.222  24.491  26.669  1.00  0.00    -0.206 F 
ATOM     23  C   UNL A   1      31.863  22.412  24.186  1.00  0.00     0.003 A 
ENDBRANCH  16  17
ENDBRANCH  15  16
ENDBRANCH  14  15
ENDBRANCH  10  14
ENDBRANCH   6   7
ENDBRANCH   4   6
ENDBRANCH   1   2
BRANCH   1  24
ATOM     24  C   UNL A   1      35.353  21.978  25.332  1.00  0.00     0.023 C 
BRANCH  24  25
ATOM     25  C   UNL A   1      36.357  20.863  25.041  1.00  0.00     0.023 C 
BRANCH  25  26
ATOM     26  C   UNL A   1      37.822  21.287  24.959  1.00  0.00     0.116 C 
BRANCH  26  27
ATOM     27  N   UNL A   1      38.741  20.324  25.547  1.00  0.00    -0.352 N 
ATOM     28  C   UNL A   1      39.848  20.547  26.336  1.00  0.00     0.251 C 
ATOM     29  H   UNL A   1      38.545  19.380  25.352  1.00  0.00     0.163 HD
ATOM     30  O   UNL A   1      40.580  19.609  26.644  1.00  0.00    -0.269 OA
BRANCH  28  31
ATOM     31  C   UNL A   1      40.177  21.921  26.781  1.00  0.00     0.039 A 
ATOM     32  C   UNL A   1      41.116  22.097  27.799  1.00  0.00     0.014 A 
ATOM     33  C   UNL A   1      39.584  23.034  26.177  1.00  0.00     0.014 A 
ATOM     34  C   UNL A   1      41.527  23.386  28.148  1.00  0.00     0.010 A 
ATOM     35  C   UNL A   1      40.047  24.315  26.475  1.00  0.00     0.010 A 
ATOM     36  C   UNL A   1      41.035  24.506  27.453  1.00  0.00    -0.014 A 
BRANCH  36  37
ATOM     37  C   UNL A   1      41.565  25.870  27.725  1.00  0.00     0.031 A 
ATOM     38  C   UNL A   1      42.939  26.264  27.256  1.00  0.00     0.074 A 
ATOM     39  C   UNL A   1      40.820  26.747  28.432  1.00  0.00     0.049 A 
ATOM     40  N   UNL A   1      43.585  27.386  27.448  1.00  0.00    -0.248 NA
ATOM     41  C   UNL A   1      43.694  25.262  26.487  1.00  0.00     0.031 C 
ATOM     42  C   UNL A   1      39.482  26.480  28.964  1.00  0.00     0.029 A 
ATOM     43  N   UNL A   1      41.076  28.040  28.821  1.00  0.00    -0.354 N 
ATOM     44  C   UNL A   1      44.818  27.227  26.827  1.00  0.00     0.074 A 
ATOM     45  C   UNL A   1      44.852  25.880  26.299  1.00  0.00     0.031 C 
ATOM     46  C   UNL A   1      39.020  27.585  29.571  1.00  0.00     0.029 A 
ATOM     47  C   UNL A   1      40.044  28.623  29.520  1.00  0.00     0.049 A 
ATOM     48  H   UNL A   1      41.919  28.505  28.618  1.00  0.00     0.167 HD
ATOM     49  C   UNL A   1      45.820  28.129  26.687  1.00  0.00     0.034 A 
ATOM     50  C   UNL A   1      39.932  29.851  30.068  1.00  0.00     0.034 A 
ATOM     51  C   UNL A   1      45.771  29.475  27.198  1.00  0.00     0.049 A 
ATOM     52  C   UNL A   1      41.079  30.820  29.940  1.00  0.00     0.074 A 
ATOM     53  C   UNL A   1      46.721  30.475  27.069  1.00  0.00     0.029 A 
ATOM     54  N   UNL A   1      44.726  30.014  27.935  1.00  0.00    -0.354 N 
ATOM     55  N   UNL A   1      42.234  30.651  29.342  1.00  0.00    -0.248 NA
ATOM     56  C   UNL A   1      40.908  32.141  30.561  1.00  0.00     0.031 C 
ATOM     57  C   UNL A   1      46.280  31.593  27.784  1.00  0.00     0.029 A 
ATOM     58  C   UNL A   1      45.023  31.318  28.296  1.00  0.00     0.049 A 
ATOM     59  H   UNL A   1      43.897  29.538  28.169  1.00  0.00     0.167 HD
ATOM     60  C   UNL A   1      42.919  31.853  29.495  1.00  0.00     0.074 A 
ATOM     61  C   UNL A   1      42.049  32.738  30.239  1.00  0.00     0.031 C 
ATOM     62  C   UNL A   1      44.155  32.190  29.050  1.00  0.00     0.034 A 
BRANCH  49  63
ATOM     63  C   UNL A   1      47.065  27.691  25.960  1.00  0.00     0.023 A 
ATOM     64  C   UNL A   1      47.216  27.893  24.578  1.00  0.00     0.031 A 
ATOM     65  C   UNL A   1      48.130  27.104  26.665  1.00  0.00     0.131 A 
ATOM     66  C   UNL A   1      48.393  27.475  23.937  1.00  0.00     0.055 A 
ATOM     67  C   UNL A   1      49.323  26.751  26.034  1.00  0.00     0.041 A 
ATOM     68  F   UNL A   1      48.030  26.874  27.984  1.00  0.00    -0.206 F 
ATOM     69  C   UNL A   1      49.457  26.930  24.660  1.00  0.00     0.022 A 
BRANCH  66  70
ATOM     70  S   UNL A   1      48.486  27.590  22.131  1.00  0.00     0.124 S 
ATOM     71  O   UNL A   1      47.183  28.167  21.806  1.00  0.00    -0.237 OA
ATOM     72  O   UNL A   1      49.639  28.459  21.926  1.00  0.00    -0.237 OA
ATOM     73  O   UNL A   1      48.669  26.202  21.709  1.00  0.00    -0.744 OA
ENDBRANCH  66  70
ENDBRANCH  49  63
BRANCH  50  74
ATOM     74  C   UNL A   1      38.689  30.230  30.796  1.00  0.00     0.023 A 
ATOM     75  C   UNL A   1      37.678  30.973  30.166  1.00  0.00     0.031 A 
ATOM     76  C   UNL A   1      38.491  29.847  32.135  1.00  0.00     0.131 A 
ATOM     77  C   UNL A   1      36.522  31.326  30.881  1.00  0.00     0.055 A 
ATOM     78  C   UNL A   1      37.322  30.166  32.829  1.00  0.00     0.041 A 
ATOM     79  F   UNL A   1      39.426  29.130  32.779  1.00  0.00    -0.206 F 
ATOM     80  C   UNL A   1      36.332  30.914  32.203  1.00  0.00     0.022 A 
BRANCH  77  81
ATOM     81  S   UNL A   1      35.274  32.359  30.066  1.00  0.00     0.124 S 
ATOM     82  O   UNL A   1      34.807  31.477  29.002  1.00  0.00    -0.237 OA
ATOM     83  O   UNL A   1      34.331  32.613  31.151  1.00  0.00    -0.237 OA
ATOM     84  O   UNL A   1      36.035  33.525  29.623  1.00  0.00    -0.744 OA
ENDBRANCH  77  81
ENDBRANCH  50  74
BRANCH  62  85
ATOM     85  C   UNL A   1      44.641  33.591  29.326  1.00  0.00     0.023 A 
ATOM     86  C   UNL A   1      45.419  33.890  30.455  1.00  0.00     0.031 A 
ATOM     87  C   UNL A   1      44.371  34.623  28.409  1.00  0.00     0.131 A 
ATOM     88  C   UNL A   1      45.883  35.200  30.652  1.00  0.00     0.055 A 
ATOM     89  C   UNL A   1      44.875  35.911  28.586  1.00  0.00     0.041 A 
ATOM     90  F   UNL A   1      43.634  34.386  27.312  1.00  0.00    -0.206 F 
ATOM     91  C   UNL A   1      45.634  36.206  29.715  1.00  0.00     0.022 A 
BRANCH  88  92
ATOM     92  S   UNL A   1      46.801  35.581  32.170  1.00  0.00     0.124 S 
ATOM     93  O   UNL A   1      45.744  35.554  33.176  1.00  0.00    -0.237 OA
ATOM     94  O   UNL A   1      47.771  34.493  32.235  1.00  0.00    -0.237 OA
ATOM     95  O   UNL A   1      47.371  36.901  31.903  1.00  0.00    -0.744 OA
ENDBRANCH  88  92
ENDBRANCH  62  85
ENDBRANCH  36  37
ENDBRANCH  28  31
ENDBRANCH  26  27
ENDBRANCH  25  26
ENDBRANCH  24  25
ENDBRANCH   1  24
TORSDOF 19
ENDMDL
MODEL 2
REMARK VINA RESULT:     -10.7      4.590      7.485
REMARK SMILES O=C(C[C@H]1C[N@@H+](CCSc2ccccc2F)CCO1)NCCCCNC(=O)c1ccc(-c2c3nc(c(-c4cc(S(=O)(=O)[O-])ccc4F)c4ccc([nH]4)c(-c4cc(S(=O)(=O)[O-])ccc4F)c4nc(c(-c5cc(S(=O)(=O)[O-])ccc5F)c5ccc2[nH]5)C=C4)C=C3)cc1
REMARK SMILES IDX 21 1 20 2 1 3 2 4 3 6 4 7 5 8 19 9 6 10 18 11 17 12 7 14
REMARK SMILES IDX 8 15 9 16 10 17 11 18 15 19 12 20 14 21 16 22 13 23 22 24
REMARK SMILES IDX 23 25 24 26 25 27 26 28 27 30 28 31 29 32 90 33 30 34 89 35
REMARK SMILES IDX 31 36 32 37 33 38 83 39 34 40 88 41 82 42 84 43 35 44 87 45
REMARK SMILES IDX 81 46 80 47 36 49 68 50 48 51 67 52 49 53 52 54 66 55 85 56
REMARK SMILES IDX 50 57 51 58 65 60 86 61 53 62 37 63 38 64 46 65 39 66 45 67
REMARK SMILES IDX 47 68 44 69 40 70 41 71 42 72 43 73 69 74 70 75 78 76 71 77
REMARK SMILES IDX 77 78 79 79 76 80 72 81 73 82 74 83 75 84 54 85 55 86 63 87
REMARK SMILES IDX 56 88 62 89 64 90 61 91 57 92 58 93 59 94 60 95
REMARK H PARENT 20 5 6 13 25 29 84 48 52 59
REMARK Flexibility Score: inf
ROOT
ATOM      1  C   UNL A   1      32.247  26.151  26.001  1.00  0.00     0.116 C 
ENDROOT
BRANCH   1   2
ATOM      2  N   UNL A   1      32.790  24.977  26.664  1.00  0.00    -0.356 N 
ATOM      3  O   UNL A   1      31.183  23.519  25.907  1.00  0.00    -0.275 OA
ATOM      4  C   UNL A   1      32.219  23.730  26.532  1.00  0.00     0.222 C 
ATOM      5  H   UNL A   1      33.591  25.077  27.227  1.00  0.00     0.163 HD
BRANCH   4   6
ATOM      6  C   UNL A   1      32.954  22.614  27.230  1.00  0.00     0.138 C 
BRANCH   6   7
ATOM      7  C   UNL A   1      34.214  22.108  26.529  1.00  0.00     0.182 C 
ATOM      8  C   UNL A   1      34.038  21.587  25.072  1.00  0.00     0.295 C 
ATOM      9  O   UNL A   1      35.341  22.969  26.759  1.00  0.00    -0.366 OA
ATOM     10  N   UNL A   1      34.514  22.433  23.975  1.00  0.00    -0.330 N 
ATOM     11  C   UNL A   1      35.661  23.828  25.666  1.00  0.00     0.222 C 
ATOM     12  C   UNL A   1      35.769  23.053  24.352  1.00  0.00     0.291 C 
ATOM     13  H   UNL A   1      34.713  21.816  23.187  1.00  0.00     0.348 HD
BRANCH  10  14
ATOM     14  C   UNL A   1      33.529  23.247  23.250  1.00  0.00     0.273 C 
BRANCH  14  15
ATOM     15  C   UNL A   1      33.752  24.737  22.857  1.00  0.00     0.136 C 
BRANCH  15  16
ATOM     16  S   UNL A   1      32.713  25.482  21.515  1.00  0.00    -0.117 SA
BRANCH  16  17
ATOM     17  C   UNL A   1      31.312  26.223  22.358  1.00  0.00     0.043 A 
ATOM     18  C   UNL A   1      31.154  27.613  22.242  1.00  0.00     0.018 A 
ATOM     19  C   UNL A   1      30.330  25.516  23.063  1.00  0.00     0.136 A 
ATOM     20  C   UNL A   1      30.134  28.289  22.918  1.00  0.00     0.001 A 
ATOM     21  C   UNL A   1      29.274  26.183  23.699  1.00  0.00     0.040 A 
ATOM     22  F   UNL A   1      30.375  24.179  23.144  1.00  0.00    -0.206 F 
ATOM     23  C   UNL A   1      29.192  27.575  23.651  1.00  0.00     0.003 A 
ENDBRANCH  16  17
ENDBRANCH  15  16
ENDBRANCH  14  15
ENDBRANCH  10  14
ENDBRANCH   6   7
ENDBRANCH   4   6
ENDBRANCH   1   2
BRANCH   1  24
ATOM     24  C   UNL A   1      32.039  27.349  26.922  1.00  0.00     0.023 C 
BRANCH  24  25
ATOM     25  C   UNL A   1      31.673  28.657  26.220  1.00  0.00     0.023 C 
BRANCH  25  26
ATOM     26  C   UNL A   1      32.829  29.620  25.958  1.00  0.00     0.116 C 
BRANCH  26  27
ATOM     27  N   UNL A   1      32.548  30.990  26.363  1.00  0.00    -0.352 N 
ATOM     28  C   UNL A   1      33.247  31.803  27.227  1.00  0.00     0.251 C 
ATOM     29  H   UNL A   1      31.744  31.391  25.962  1.00  0.00     0.163 HD
ATOM     30  O   UNL A   1      32.790  32.900  27.543  1.00  0.00    -0.269 OA
BRANCH  28  31
ATOM     31  C   UNL A   1      34.530  31.342  27.804  1.00  0.00     0.039 A 
ATOM     32  C   UNL A   1      35.575  32.258  27.954  1.00  0.00     0.014 A 
ATOM     33  C   UNL A   1      34.697  30.018  28.223  1.00  0.00     0.014 A 
ATOM     34  C   UNL A   1      36.748  31.870  28.607  1.00  0.00     0.010 A 
ATOM     35  C   UNL A   1      35.838  29.653  28.937  1.00  0.00     0.010 A 
ATOM     36  C   UNL A   1      36.870  30.579  29.151  1.00  0.00    -0.014 A 
BRANCH  36  37
ATOM     37  C   UNL A   1      38.059  30.198  29.962  1.00  0.00     0.031 A 
ATOM     38  C   UNL A   1      39.056  29.200  29.437  1.00  0.00     0.074 A 
ATOM     39  C   UNL A   1      38.223  30.724  31.195  1.00  0.00     0.049 A 
ATOM     40  N   UNL A   1      40.118  28.710  30.023  1.00  0.00    -0.248 NA
ATOM     41  C   UNL A   1      38.820  28.672  28.084  1.00  0.00     0.031 C 
ATOM     42  C   UNL A   1      37.316  31.683  31.830  1.00  0.00     0.029 A 
ATOM     43  N   UNL A   1      39.208  30.533  32.134  1.00  0.00    -0.354 N 
ATOM     44  C   UNL A   1      40.676  27.817  29.115  1.00  0.00     0.074 A 
ATOM     45  C   UNL A   1      39.804  27.793  27.961  1.00  0.00     0.031 C 
ATOM     46  C   UNL A   1      37.807  32.027  33.031  1.00  0.00     0.029 A 
ATOM     47  C   UNL A   1      39.035  31.277  33.278  1.00  0.00     0.049 A 
ATOM     48  H   UNL A   1      39.967  29.921  31.999  1.00  0.00     0.167 HD
ATOM     49  C   UNL A   1      41.822  27.102  29.224  1.00  0.00     0.034 A 
ATOM     50  C   UNL A   1      39.773  31.347  34.406  1.00  0.00     0.034 A 
ATOM     51  C   UNL A   1      42.695  27.147  30.370  1.00  0.00     0.049 A 
ATOM     52  C   UNL A   1      41.018  30.507  34.522  1.00  0.00     0.074 A 
ATOM     53  C   UNL A   1      43.901  26.491  30.553  1.00  0.00     0.029 A 
ATOM     54  N   UNL A   1      42.464  27.881  31.524  1.00  0.00    -0.354 N 
ATOM     55  N   UNL A   1      41.531  29.674  33.649  1.00  0.00    -0.248 NA
ATOM     56  C   UNL A   1      41.781  30.614  35.774  1.00  0.00     0.031 C 
ATOM     57  C   UNL A   1      44.362  26.774  31.842  1.00  0.00     0.029 A 
ATOM     58  C   UNL A   1      43.485  27.667  32.435  1.00  0.00     0.049 A 
ATOM     59  H   UNL A   1      41.687  28.467  31.674  1.00  0.00     0.167 HD
ATOM     60  C   UNL A   1      42.690  29.174  34.236  1.00  0.00     0.074 A 
ATOM     61  C   UNL A   1      42.802  29.801  35.536  1.00  0.00     0.031 C 
ATOM     62  C   UNL A   1      43.583  28.285  33.736  1.00  0.00     0.034 A 
BRANCH  49  63
ATOM     63  C   UNL A   1      42.200  26.199  28.079  1.00  0.00     0.023 A 
ATOM     64  C   UNL A   1      41.737  24.875  28.006  1.00  0.00     0.031 A 
ATOM     65  C   UNL A   1      42.997  26.683  27.026  1.00  0.00     0.131 A 
ATOM     66  C   UNL A   1      42.106  24.067  26.920  1.00  0.00     0.055 A 
ATOM     67  C   UNL A   1      43.307  25.894  25.918  1.00  0.00     0.041 A 
ATOM     68  F   UNL A   1      43.478  27.936  27.056  1.00  0.00    -0.206 F 
ATOM     69  C   UNL A   1      42.866  24.576  25.863  1.00  0.00     0.022 A 
BRANCH  66  70
ATOM     70  S   UNL A   1      41.638  22.316  26.941  1.00  0.00     0.124 S 
ATOM     71  O   UNL A   1      41.668  21.986  25.518  1.00  0.00    -0.237 OA
ATOM     72  O   UNL A   1      42.688  21.716  27.757  1.00  0.00    -0.237 OA
ATOM     73  O   UNL A   1      40.308  22.324  27.545  1.00  0.00    -0.744 OA
ENDBRANCH  66  70
ENDBRANCH  49  63
BRANCH  50  74
ATOM     74  C   UNL A   1      39.346  32.239  35.520  1.00  0.00     0.023 A 
ATOM     75  C   UNL A   1      39.821  33.557  35.615  1.00  0.00     0.031 A 
ATOM     76  C   UNL A   1      38.450  31.787  36.505  1.00  0.00     0.131 A 
ATOM     77  C   UNL A   1      39.411  34.372  36.682  1.00  0.00     0.055 A 
ATOM     78  C   UNL A   1      38.013  32.614  37.541  1.00  0.00     0.041 A 
ATOM     79  F   UNL A   1      37.962  30.537  36.454  1.00  0.00    -0.206 F 
ATOM     80  C   UNL A   1      38.499  33.914  37.637  1.00  0.00     0.022 A 
BRANCH  77  81
ATOM     81  S   UNL A   1      40.108  36.040  36.824  1.00  0.00     0.124 S 
ATOM     82  O   UNL A   1      41.526  35.754  37.010  1.00  0.00    -0.237 OA
ATOM     83  O   UNL A   1      39.733  36.638  35.547  1.00  0.00    -0.237 OA
ATOM     84  O   UNL A   1      39.424  36.595  37.991  1.00  0.00    -0.744 OA
ENDBRANCH  77  81
ENDBRANCH  50  74
BRANCH  62  85
ATOM     85  C   UNL A   1      44.784  27.947  34.581  1.00  0.00     0.023 A 
ATOM     86  C   UNL A   1      44.779  26.857  35.465  1.00  0.00     0.031 A 
ATOM     87  C   UNL A   1      45.970  28.693  34.448  1.00  0.00     0.131 A 
ATOM     88  C   UNL A   1      45.934  26.555  36.204  1.00  0.00     0.055 A 
ATOM     89  C   UNL A   1      47.128  28.359  35.149  1.00  0.00     0.041 A 
ATOM     90  F   UNL A   1      46.026  29.743  33.613  1.00  0.00    -0.206 F 
ATOM     91  C   UNL A   1      47.114  27.286  36.036  1.00  0.00     0.022 A 
BRANCH  88  92
ATOM     92  S   UNL A   1      45.869  25.203  37.412  1.00  0.00     0.124 S 
ATOM     93  O   UNL A   1      45.271  24.127  36.628  1.00  0.00    -0.237 OA
ATOM     94  O   UNL A   1      47.273  25.029  37.767  1.00  0.00    -0.237 OA
ATOM     95  O   UNL A   1      45.024  25.738  38.479  1.00  0.00    -0.744 OA
ENDBRANCH  88  92
ENDBRANCH  62  85
ENDBRANCH  36  37
ENDBRANCH  28  31
ENDBRANCH  26  27
ENDBRANCH  25  26
ENDBRANCH  24  25
ENDBRANCH   1  24
TORSDOF 19
ENDMDL
MODEL 3
REMARK VINA RESULT:     -10.7      5.404      8.694
REMARK SMILES O=C(C[C@H]1C[N@@H+](CCSc2ccccc2F)CCO1)NCCCCNC(=O)c1ccc(-c2c3nc(c(-c4cc(S(=O)(=O)[O-])ccc4F)c4ccc([nH]4)c(-c4cc(S(=O)(=O)[O-])ccc4F)c4nc(c(-c5cc(S(=O)(=O)[O-])ccc5F)c5ccc2[nH]5)C=C4)C=C3)cc1
REMARK SMILES IDX 21 1 20 2 1 3 2 4 3 6 4 7 5 8 19 9 6 10 18 11 17 12 7 14
REMARK SMILES IDX 8 15 9 16 10 17 11 18 15 19 12 20 14 21 16 22 13 23 22 24
REMARK SMILES IDX 23 25 24 26 25 27 26 28 27 30 28 31 29 32 90 33 30 34 89 35
REMARK SMILES IDX 31 36 32 37 33 38 83 39 34 40 88 41 82 42 84 43 35 44 87 45
REMARK SMILES IDX 81 46 80 47 36 49 68 50 48 51 67 52 49 53 52 54 66 55 85 56
REMARK SMILES IDX 50 57 51 58 65 60 86 61 53 62 37 63 38 64 46 65 39 66 45 67
REMARK SMILES IDX 47 68 44 69 40 70 41 71 42 72 43 73 69 74 70 75 78 76 71 77
REMARK SMILES IDX 77 78 79 79 76 80 72 81 73 82 74 83 75 84 54 85 55 86 63 87
REMARK SMILES IDX 56 88 62 89 64 90 61 91 57 92 58 93 59 94 60 95
REMARK H PARENT 20 5 6 13 25 29 84 48 52 59
REMARK Flexibility Score: inf
ROOT
ATOM      1  C   UNL A   1      33.461  29.659  26.349  1.00  0.00     0.116 C 
ENDROOT
BRANCH   1   2
ATOM      2  N   UNL A   1      33.446  28.402  25.620  1.00  0.00    -0.356 N 
ATOM      3  O   UNL A   1      33.442  29.346  23.526  1.00  0.00    -0.275 OA
ATOM      4  C   UNL A   1      33.470  28.350  24.243  1.00  0.00     0.222 C 
ATOM      5  H   UNL A   1      33.415  27.559  26.128  1.00  0.00     0.163 HD
BRANCH   4   6
ATOM      6  C   UNL A   1      33.522  26.962  23.657  1.00  0.00     0.138 C 
BRANCH   6   7
ATOM      7  C   UNL A   1      32.296  26.536  22.851  1.00  0.00     0.182 C 
ATOM      8  C   UNL A   1      32.148  25.013  22.559  1.00  0.00     0.295 C 
ATOM      9  O   UNL A   1      31.104  27.213  23.283  1.00  0.00    -0.366 OA
ATOM     10  N   UNL A   1      31.146  24.260  23.317  1.00  0.00    -0.330 N 
ATOM     11  C   UNL A   1      30.241  26.425  24.101  1.00  0.00     0.222 C 
ATOM     12  C   UNL A   1      29.948  25.065  23.466  1.00  0.00     0.291 C 
ATOM     13  H   UNL A   1      30.890  23.450  22.751  1.00  0.00     0.348 HD
BRANCH  10  14
ATOM     14  C   UNL A   1      31.597  23.468  24.469  1.00  0.00     0.273 C 
BRANCH  14  15
ATOM     15  C   UNL A   1      33.066  23.440  24.983  1.00  0.00     0.136 C 
BRANCH  15  16
ATOM     16  S   UNL A   1      33.816  21.823  25.491  1.00  0.00    -0.117 SA
BRANCH  16  17
ATOM     17  C   UNL A   1      35.583  22.127  25.575  1.00  0.00     0.043 A 
ATOM     18  C   UNL A   1      35.998  23.379  26.054  1.00  0.00     0.018 A 
ATOM     19  C   UNL A   1      36.578  21.191  25.264  1.00  0.00     0.136 A 
ATOM     20  C   UNL A   1      37.349  23.734  26.092  1.00  0.00     0.001 A 
ATOM     21  C   UNL A   1      37.936  21.522  25.350  1.00  0.00     0.040 A 
ATOM     22  F   UNL A   1      36.252  19.949  24.877  1.00  0.00    -0.206 F 
ATOM     23  C   UNL A   1      38.323  22.806  25.737  1.00  0.00     0.003 A 
ENDBRANCH  16  17
ENDBRANCH  15  16
ENDBRANCH  14  15
ENDBRANCH  10  14
ENDBRANCH   6   7
ENDBRANCH   4   6
ENDBRANCH   1   2
BRANCH   1  24
ATOM     24  C   UNL A   1      32.093  30.107  26.852  1.00  0.00     0.023 C 
BRANCH  24  25
ATOM     25  C   UNL A   1      31.845  31.615  26.813  1.00  0.00     0.023 C 
BRANCH  25  26
ATOM     26  C   UNL A   1      33.009  32.496  27.259  1.00  0.00     0.116 C 
BRANCH  26  27
ATOM     27  N   UNL A   1      32.612  33.850  27.619  1.00  0.00    -0.352 N 
ATOM     28  C   UNL A   1      33.110  34.669  28.607  1.00  0.00     0.251 C 
ATOM     29  H   UNL A   1      31.883  34.232  27.080  1.00  0.00     0.163 HD
ATOM     30  O   UNL A   1      32.564  35.745  28.844  1.00  0.00    -0.269 OA
BRANCH  28  31
ATOM     31  C   UNL A   1      34.278  34.238  29.409  1.00  0.00     0.039 A 
ATOM     32  C   UNL A   1      34.062  33.560  30.611  1.00  0.00     0.014 A 
ATOM     33  C   UNL A   1      35.583  34.476  28.965  1.00  0.00     0.014 A 
ATOM     34  C   UNL A   1      35.149  33.041  31.318  1.00  0.00     0.010 A 
ATOM     35  C   UNL A   1      36.660  33.895  29.634  1.00  0.00     0.010 A 
ATOM     36  C   UNL A   1      36.455  33.158  30.810  1.00  0.00    -0.014 A 
BRANCH  36  37
ATOM     37  C   UNL A   1      37.604  32.495  31.486  1.00  0.00     0.031 A 
ATOM     38  C   UNL A   1      38.316  31.342  30.829  1.00  0.00     0.074 A 
ATOM     39  C   UNL A   1      37.984  32.906  32.714  1.00  0.00     0.049 A 
ATOM     40  N   UNL A   1      39.298  30.610  31.290  1.00  0.00    -0.248 NA
ATOM     41  C   UNL A   1      37.854  30.951  29.489  1.00  0.00     0.031 C 
ATOM     42  C   UNL A   1      37.361  33.995  33.469  1.00  0.00     0.029 A 
ATOM     43  N   UNL A   1      38.986  32.462  33.544  1.00  0.00    -0.354 N 
ATOM     44  C   UNL A   1      39.570  29.673  30.301  1.00  0.00     0.074 A 
ATOM     45  C   UNL A   1      38.614  29.894  29.238  1.00  0.00     0.031 C 
ATOM     46  C   UNL A   1      38.019  34.162  34.627  1.00  0.00     0.029 A 
ATOM     47  C   UNL A   1      39.077  33.162  34.726  1.00  0.00     0.049 A 
ATOM     48  H   UNL A   1      39.583  31.715  33.313  1.00  0.00     0.167 HD
ATOM     49  C   UNL A   1      40.545  28.731  30.271  1.00  0.00     0.034 A 
ATOM     50  C   UNL A   1      39.910  33.014  35.777  1.00  0.00     0.034 A 
ATOM     51  C   UNL A   1      41.506  28.530  31.325  1.00  0.00     0.049 A 
ATOM     52  C   UNL A   1      40.954  31.929  35.740  1.00  0.00     0.074 A 
ATOM     53  C   UNL A   1      42.556  27.629  31.365  1.00  0.00     0.029 A 
ATOM     54  N   UNL A   1      41.539  29.231  32.522  1.00  0.00    -0.354 N 
ATOM     55  N   UNL A   1      41.200  31.057  34.791  1.00  0.00    -0.248 NA
ATOM     56  C   UNL A   1      41.831  31.805  36.914  1.00  0.00     0.031 C 
ATOM     57  C   UNL A   1      43.180  27.738  32.612  1.00  0.00     0.029 A 
ATOM     58  C   UNL A   1      42.569  28.759  33.320  1.00  0.00     0.049 A 
ATOM     59  H   UNL A   1      40.920  29.956  32.768  1.00  0.00     0.167 HD
ATOM     60  C   UNL A   1      42.274  30.296  35.243  1.00  0.00     0.074 A 
ATOM     61  C   UNL A   1      42.631  30.812  36.547  1.00  0.00     0.031 C 
ATOM     62  C   UNL A   1      42.910  29.270  34.626  1.00  0.00     0.034 A 
BRANCH  49  63
ATOM     63  C   UNL A   1      40.619  27.834  29.062  1.00  0.00     0.023 A 
ATOM     64  C   UNL A   1      41.534  28.077  28.024  1.00  0.00     0.031 A 
ATOM     65  C   UNL A   1      39.794  26.699  28.969  1.00  0.00     0.131 A 
ATOM     66  C   UNL A   1      41.576  27.215  26.917  1.00  0.00     0.055 A 
ATOM     67  C   UNL A   1      39.886  25.811  27.897  1.00  0.00     0.041 A 
ATOM     68  F   UNL A   1      38.892  26.432  29.926  1.00  0.00    -0.206 F 
ATOM     69  C   UNL A   1      40.777  26.070  26.860  1.00  0.00     0.022 A 
BRANCH  66  70
ATOM     70  S   UNL A   1      42.641  27.651  25.517  1.00  0.00     0.124 S 
ATOM     71  O   UNL A   1      43.929  27.850  26.179  1.00  0.00    -0.237 OA
ATOM     72  O   UNL A   1      42.539  26.475  24.661  1.00  0.00    -0.237 OA
ATOM     73  O   UNL A   1      42.027  28.865  24.985  1.00  0.00    -0.744 OA
ENDBRANCH  66  70
ENDBRANCH  49  63
BRANCH  50  74
ATOM     74  C   UNL A   1      39.783  33.912  36.959  1.00  0.00     0.023 A 
ATOM     75  C   UNL A   1      39.349  33.418  38.200  1.00  0.00     0.031 A 
ATOM     76  C   UNL A   1      40.101  35.279  36.866  1.00  0.00     0.131 A 
ATOM     77  C   UNL A   1      39.228  34.289  39.295  1.00  0.00     0.055 A 
ATOM     78  C   UNL A   1      40.017  36.132  37.967  1.00  0.00     0.041 A 
ATOM     79  F   UNL A   1      40.526  35.797  35.703  1.00  0.00    -0.206 F 
ATOM     80  C   UNL A   1      39.574  35.639  39.189  1.00  0.00     0.022 A 
BRANCH  77  81
ATOM     81  S   UNL A   1      38.584  33.639  40.860  1.00  0.00     0.124 S 
ATOM     82  O   UNL A   1      37.280  34.286  40.936  1.00  0.00    -0.237 OA
ATOM     83  O   UNL A   1      38.575  32.200  40.613  1.00  0.00    -0.237 OA
ATOM     84  O   UNL A   1      39.566  34.091  41.844  1.00  0.00    -0.744 OA
ENDBRANCH  77  81
ENDBRANCH  50  74
BRANCH  62  85
ATOM     85  C   UNL A   1      44.083  28.644  35.335  1.00  0.00     0.023 A 
ATOM     86  C   UNL A   1      43.912  27.612  36.272  1.00  0.00     0.031 A 
ATOM     87  C   UNL A   1      45.393  29.047  35.020  1.00  0.00     0.131 A 
ATOM     88  C   UNL A   1      45.035  27.031  36.880  1.00  0.00     0.055 A 
ATOM     89  C   UNL A   1      46.507  28.433  35.592  1.00  0.00     0.041 A 
ATOM     90  F   UNL A   1      45.610  30.028  34.129  1.00  0.00    -0.206 F 
ATOM     91  C   UNL A   1      46.332  27.420  36.531  1.00  0.00     0.022 A 
BRANCH  88  92
ATOM     92  S   UNL A   1      44.781  25.769  38.158  1.00  0.00     0.124 S 
ATOM     93  O   UNL A   1      43.771  24.915  37.542  1.00  0.00    -0.237 OA
ATOM     94  O   UNL A   1      46.111  25.186  38.296  1.00  0.00    -0.237 OA
ATOM     95  O   UNL A   1      44.322  26.539  39.313  1.00  0.00    -0.744 OA
ENDBRANCH  88  92
ENDBRANCH  62  85
ENDBRANCH  36  37
ENDBRANCH  28  31
ENDBRANCH  26  27
ENDBRANCH  25  26
ENDBRANCH  24  25
ENDBRANCH   1  24
TORSDOF 19
ENDMDL
