MODEL 1
REMARK VINA RESULT:     -12.6      0.000      0.000
REMARK SMILES O=C(NCCCCNC(=O)[C@H]1CC2(CCN(S(=O)(=O)N3CCOCC3)CC2)C[NH2+]1)c1ccc(-c2c3nc(c(-c4cc(S(=O)(=O)[O-])ccc4F)c4ccc([nH]4)c(-c4cc(S(=O)(=O)[O-])ccc4F)c4nc(c(-c5cc(S(=O)(=O)[O-])ccc5F)c5ccc2[nH]5)C=C4)C=C3)cc1
REMARK SMILES IDX 5 1 4 2 3 3 1 4 2 5 30 7 31 8 92 9 32 10 91 11 33 12 34 13
REMARK SMILES IDX 35 14 85 15 36 16 90 17 84 18 86 19 37 20 89 21 83 22 82 23
REMARK SMILES IDX 38 25 70 26 50 27 69 28 51 29 54 30 68 31 87 32 52 33 53 34
REMARK SMILES IDX 67 36 88 37 55 38 39 39 40 40 48 41 41 42 47 43 49 44 46 45
REMARK SMILES IDX 42 46 43 47 44 48 45 49 71 50 72 51 80 52 73 53 79 54 81 55
REMARK SMILES IDX 78 56 74 57 75 58 76 59 77 60 56 61 57 62 65 63 58 64 64 65
REMARK SMILES IDX 66 66 63 67 59 68 60 69 61 70 62 71 6 72 7 73 8 74 9 75
REMARK SMILES IDX 10 77 11 78 12 79 29 80 13 81 28 82 14 85 27 86 15 87 26 88
REMARK SMILES IDX 16 89 17 90 18 91 19 92 20 93 21 94 25 95 22 96 24 97 23 98
REMARK H PARENT 3 6 86 24 54 35 8 76 29 83 29 84
REMARK Flexibility Score: inf
ROOT
ATOM      1  C   UNL A   1      31.590  28.806  25.540  1.00  0.00     0.023 C 
ENDROOT
BRANCH   1   2
ATOM      2  C   UNL A   1      32.791  29.691  25.832  1.00  0.00     0.116 C 
BRANCH   2   3
ATOM      3  N   UNL A   1      32.423  31.057  26.177  1.00  0.00    -0.352 N 
ATOM      4  O   UNL A   1      32.525  32.973  27.374  1.00  0.00    -0.269 OA
ATOM      5  C   UNL A   1      33.026  31.890  27.092  1.00  0.00     0.251 C 
ATOM      6  H   UNL A   1      31.650  31.430  25.696  1.00  0.00     0.163 HD
BRANCH   5   7
ATOM      7  C   UNL A   1      34.272  31.437  27.745  1.00  0.00     0.039 A 
ATOM      8  C   UNL A   1      34.396  30.109  28.158  1.00  0.00     0.014 A 
ATOM      9  C   UNL A   1      35.291  32.357  28.001  1.00  0.00     0.014 A 
ATOM     10  C   UNL A   1      35.463  29.738  28.961  1.00  0.00     0.010 A 
ATOM     11  C   UNL A   1      36.418  31.951  28.721  1.00  0.00     0.010 A 
ATOM     12  C   UNL A   1      36.500  30.645  29.230  1.00  0.00    -0.014 A 
BRANCH  12  13
ATOM     13  C   UNL A   1      37.695  30.172  29.977  1.00  0.00     0.031 A 
ATOM     14  C   UNL A   1      37.934  30.572  31.406  1.00  0.00     0.074 A 
ATOM     15  C   UNL A   1      38.553  29.345  29.347  1.00  0.00     0.049 A 
ATOM     16  N   UNL A   1      38.932  30.257  32.191  1.00  0.00    -0.248 NA
ATOM     17  C   UNL A   1      36.931  31.446  32.033  1.00  0.00     0.031 C 
ATOM     18  C   UNL A   1      38.412  28.887  27.961  1.00  0.00     0.029 A 
ATOM     19  N   UNL A   1      39.696  28.728  29.782  1.00  0.00    -0.354 N 
ATOM     20  C   UNL A   1      38.690  30.902  33.400  1.00  0.00     0.074 A 
ATOM     21  C   UNL A   1      37.465  31.655  33.228  1.00  0.00     0.031 C 
ATOM     22  C   UNL A   1      39.399  28.028  27.677  1.00  0.00     0.029 A 
ATOM     23  C   UNL A   1      40.294  27.943  28.823  1.00  0.00     0.049 A 
ATOM     24  H   UNL A   1      40.056  28.837  30.692  1.00  0.00     0.167 HD
ATOM     25  C   UNL A   1      39.423  30.861  34.541  1.00  0.00     0.034 A 
ATOM     26  C   UNL A   1      41.452  27.258  28.847  1.00  0.00     0.034 A 
ATOM     27  C   UNL A   1      40.646  30.104  34.683  1.00  0.00     0.049 A 
ATOM     28  C   UNL A   1      42.277  27.284  30.104  1.00  0.00     0.074 A 
ATOM     29  C   UNL A   1      41.453  29.972  35.801  1.00  0.00     0.029 A 
ATOM     30  N   UNL A   1      41.251  29.362  33.674  1.00  0.00    -0.354 N 
ATOM     31  N   UNL A   1      42.026  27.890  31.242  1.00  0.00    -0.248 NA
ATOM     32  C   UNL A   1      43.538  26.536  30.082  1.00  0.00     0.031 C 
ATOM     33  C   UNL A   1      42.580  29.224  35.446  1.00  0.00     0.029 A 
ATOM     34  C   UNL A   1      42.436  28.805  34.135  1.00  0.00     0.049 A 
ATOM     35  H   UNL A   1      40.890  29.248  32.764  1.00  0.00     0.167 HD
ATOM     36  C   UNL A   1      43.088  27.568  32.082  1.00  0.00     0.074 A 
ATOM     37  C   UNL A   1      43.967  26.701  31.324  1.00  0.00     0.031 C 
ATOM     38  C   UNL A   1      43.312  27.952  33.365  1.00  0.00     0.034 A 
BRANCH  25  39
ATOM     39  C   UNL A   1      38.950  31.695  35.710  1.00  0.00     0.023 A 
ATOM     40  C   UNL A   1      38.254  31.132  36.794  1.00  0.00     0.031 A 
ATOM     41  C   UNL A   1      39.200  33.079  35.741  1.00  0.00     0.131 A 
ATOM     42  C   UNL A   1      37.777  31.956  37.827  1.00  0.00     0.055 A 
ATOM     43  C   UNL A   1      38.796  33.880  36.811  1.00  0.00     0.041 A 
ATOM     44  F   UNL A   1      39.842  33.680  34.726  1.00  0.00    -0.206 F 
ATOM     45  C   UNL A   1      38.068  33.321  37.856  1.00  0.00     0.022 A 
BRANCH  42  46
ATOM     46  S   UNL A   1      36.654  31.241  39.059  1.00  0.00     0.124 S 
ATOM     47  O   UNL A   1      37.501  31.207  40.248  1.00  0.00    -0.237 OA
ATOM     48  O   UNL A   1      35.557  32.202  39.082  1.00  0.00    -0.237 OA
ATOM     49  O   UNL A   1      36.324  29.930  38.502  1.00  0.00    -0.744 OA
ENDBRANCH  42  46
ENDBRANCH  25  39
BRANCH  26  50
ATOM     50  C   UNL A   1      41.918  26.530  27.633  1.00  0.00     0.023 A 
ATOM     51  C   UNL A   1      41.691  25.155  27.480  1.00  0.00     0.031 A 
ATOM     52  C   UNL A   1      42.633  27.197  26.620  1.00  0.00     0.131 A 
ATOM     53  C   UNL A   1      42.218  24.479  26.368  1.00  0.00     0.055 A 
ATOM     54  C   UNL A   1      43.096  26.534  25.482  1.00  0.00     0.041 A 
ATOM     55  F   UNL A   1      42.877  28.513  26.713  1.00  0.00    -0.206 F 
ATOM     56  C   UNL A   1      42.903  25.163  25.360  1.00  0.00     0.022 A 
BRANCH  53  57
ATOM     57  S   UNL A   1      42.087  22.672  26.312  1.00  0.00     0.124 S 
ATOM     58  O   UNL A   1      42.654  22.375  25.001  1.00  0.00    -0.237 OA
ATOM     59  O   UNL A   1      42.890  22.275  27.464  1.00  0.00    -0.237 OA
ATOM     60  O   UNL A   1      40.652  22.432  26.442  1.00  0.00    -0.744 OA
ENDBRANCH  53  57
ENDBRANCH  26  50
BRANCH  38  61
ATOM     61  C   UNL A   1      44.539  27.386  34.041  1.00  0.00     0.023 A 
ATOM     62  C   UNL A   1      44.504  26.175  34.752  1.00  0.00     0.031 A 
ATOM     63  C   UNL A   1      45.758  28.087  33.987  1.00  0.00     0.131 A 
ATOM     64  C   UNL A   1      45.647  25.732  35.434  1.00  0.00     0.055 A 
ATOM     65  C   UNL A   1      46.911  27.604  34.607  1.00  0.00     0.041 A 
ATOM     66  F   UNL A   1      45.849  29.252  33.327  1.00  0.00    -0.206 F 
ATOM     67  C   UNL A   1      46.856  26.428  35.349  1.00  0.00     0.022 A 
BRANCH  64  68
ATOM     68  S   UNL A   1      45.508  24.288  36.522  1.00  0.00     0.124 S 
ATOM     69  O   UNL A   1      44.447  23.522  35.874  1.00  0.00    -0.237 OA
ATOM     70  O   UNL A   1      46.845  23.711  36.451  1.00  0.00    -0.237 OA
ATOM     71  O   UNL A   1      45.152  24.867  37.816  1.00  0.00    -0.744 OA
ENDBRANCH  64  68
ENDBRANCH  38  61
ENDBRANCH  12  13
ENDBRANCH   5   7
ENDBRANCH   2   3
ENDBRANCH   1   2
BRANCH   1  72
ATOM     72  C   UNL A   1      31.025  28.949  24.131  1.00  0.00     0.023 C 
BRANCH  72  73
ATOM     73  C   UNL A   1      32.082  28.954  23.028  1.00  0.00     0.116 C 
BRANCH  73  74
ATOM     74  N   UNL A   1      31.807  27.966  22.003  1.00  0.00    -0.351 N 
ATOM     75  C   UNL A   1      31.879  26.605  22.060  1.00  0.00     0.278 C 
ATOM     76  H   UNL A   1      31.525  28.333  21.135  1.00  0.00     0.163 HD
ATOM     77  O   UNL A   1      31.550  25.970  21.052  1.00  0.00    -0.268 OA
BRANCH  75  78
ATOM     78  C   UNL A   1      32.373  25.859  23.307  1.00  0.00     0.273 C 
ATOM     79  C   UNL A   1      31.846  24.439  23.465  1.00  0.00     0.088 C 
ATOM     80  N   UNL A   1      33.841  25.715  23.328  1.00  0.00    -0.336 N 
ATOM     81  C   UNL A   1      32.997  23.647  24.134  1.00  0.00     0.028 C 
ATOM     82  C   UNL A   1      34.102  24.699  24.341  1.00  0.00     0.268 C 
ATOM     83  H   UNL A   1      34.285  26.598  23.581  1.00  0.00     0.346 HD
ATOM     84  H   UNL A   1      34.216  25.454  22.416  1.00  0.00     0.346 HD
ATOM     85  C   UNL A   1      33.488  22.519  23.203  1.00  0.00     0.030 C 
ATOM     86  C   UNL A   1      32.568  23.051  25.495  1.00  0.00     0.030 C 
ATOM     87  C   UNL A   1      32.495  21.373  23.149  1.00  0.00     0.104 C 
ATOM     88  C   UNL A   1      31.640  21.842  25.366  1.00  0.00     0.104 C 
ATOM     89  N   UNL A   1      32.234  20.804  24.484  1.00  0.00    -0.189 NA
BRANCH  89  90
ATOM     90  S   UNL A   1      33.392  19.809  25.217  1.00  0.00     0.282 S 
ATOM     91  O   UNL A   1      34.679  20.064  24.623  1.00  0.00    -0.195 OA
ATOM     92  O   UNL A   1      33.205  19.940  26.647  1.00  0.00    -0.195 OA
BRANCH  90  93
ATOM     93  N   UNL A   1      32.887  18.293  24.788  1.00  0.00    -0.184 NA
ATOM     94  C   UNL A   1      33.028  17.807  23.409  1.00  0.00     0.132 C 
ATOM     95  C   UNL A   1      32.528  17.246  25.760  1.00  0.00     0.132 C 
ATOM     96  C   UNL A   1      34.030  16.655  23.393  1.00  0.00     0.177 C 
ATOM     97  C   UNL A   1      33.414  15.999  25.607  1.00  0.00     0.177 C 
ATOM     98  O   UNL A   1      33.589  15.585  24.245  1.00  0.00    -0.379 OA
ENDBRANCH  90  93
ENDBRANCH  89  90
ENDBRANCH  75  78
ENDBRANCH  73  74
ENDBRANCH  72  73
ENDBRANCH   1  72
TORSDOF 16
ENDMDL
MODEL 2
REMARK VINA RESULT:     -12.5      2.416      8.066
REMARK SMILES O=C(NCCCCNC(=O)[C@H]1CC2(CCN(S(=O)(=O)N3CCOCC3)CC2)C[NH2+]1)c1ccc(-c2c3nc(c(-c4cc(S(=O)(=O)[O-])ccc4F)c4ccc([nH]4)c(-c4cc(S(=O)(=O)[O-])ccc4F)c4nc(c(-c5cc(S(=O)(=O)[O-])ccc5F)c5ccc2[nH]5)C=C4)C=C3)cc1
REMARK SMILES IDX 5 1 4 2 3 3 1 4 2 5 30 7 31 8 92 9 32 10 91 11 33 12 34 13
REMARK SMILES IDX 35 14 85 15 36 16 90 17 84 18 86 19 37 20 89 21 83 22 82 23
REMARK SMILES IDX 38 25 70 26 50 27 69 28 51 29 54 30 68 31 87 32 52 33 53 34
REMARK SMILES IDX 67 36 88 37 55 38 39 39 40 40 48 41 41 42 47 43 49 44 46 45
REMARK SMILES IDX 42 46 43 47 44 48 45 49 71 50 72 51 80 52 73 53 79 54 81 55
REMARK SMILES IDX 78 56 74 57 75 58 76 59 77 60 56 61 57 62 65 63 58 64 64 65
REMARK SMILES IDX 66 66 63 67 59 68 60 69 61 70 62 71 6 72 7 73 8 74 9 75
REMARK SMILES IDX 10 77 11 78 12 79 29 80 13 81 28 82 14 85 27 86 15 87 26 88
REMARK SMILES IDX 16 89 17 90 18 91 19 92 20 93 21 94 25 95 22 96 24 97 23 98
REMARK H PARENT 3 6 86 24 54 35 8 76 29 83 29 84
REMARK Flexibility Score: inf
ROOT
ATOM      1  C   UNL A   1      31.510  31.755  26.456  1.00  0.00     0.023 C 
ENDROOT
BRANCH   1   2
ATOM      2  C   UNL A   1      32.754  32.357  27.091  1.00  0.00     0.116 C 
BRANCH   2   3
ATOM      3  N   UNL A   1      32.545  33.712  27.583  1.00  0.00    -0.352 N 
ATOM      4  O   UNL A   1      32.858  35.461  28.980  1.00  0.00    -0.269 OA
ATOM      5  C   UNL A   1      33.232  34.364  28.582  1.00  0.00     0.251 C 
ATOM      6  H   UNL A   1      31.827  34.223  27.147  1.00  0.00     0.163 HD
BRANCH   5   7
ATOM      7  C   UNL A   1      34.409  33.700  29.180  1.00  0.00     0.039 A 
ATOM      8  C   UNL A   1      34.227  32.672  30.109  1.00  0.00     0.014 A 
ATOM      9  C   UNL A   1      35.692  34.147  28.858  1.00  0.00     0.014 A 
ATOM     10  C   UNL A   1      35.314  32.203  30.830  1.00  0.00     0.010 A 
ATOM     11  C   UNL A   1      36.796  33.594  29.512  1.00  0.00     0.010 A 
ATOM     12  C   UNL A   1      36.614  32.636  30.524  1.00  0.00    -0.014 A 
BRANCH  12  13
ATOM     13  C   UNL A   1      37.765  32.008  31.221  1.00  0.00     0.031 A 
ATOM     14  C   UNL A   1      38.563  30.906  30.582  1.00  0.00     0.074 A 
ATOM     15  C   UNL A   1      38.100  32.473  32.442  1.00  0.00     0.049 A 
ATOM     16  N   UNL A   1      39.584  30.245  31.062  1.00  0.00    -0.248 NA
ATOM     17  C   UNL A   1      38.156  30.483  29.233  1.00  0.00     0.031 C 
ATOM     18  C   UNL A   1      37.397  33.545  33.153  1.00  0.00     0.029 A 
ATOM     19  N   UNL A   1      39.116  32.125  33.293  1.00  0.00    -0.354 N 
ATOM     20  C   UNL A   1      39.938  29.319  30.087  1.00  0.00     0.074 A 
ATOM     21  C   UNL A   1      38.994  29.482  29.000  1.00  0.00     0.031 C 
ATOM     22  C   UNL A   1      38.030  33.799  34.306  1.00  0.00     0.029 A 
ATOM     23  C   UNL A   1      39.125  32.851  34.462  1.00  0.00     0.049 A 
ATOM     24  H   UNL A   1      39.775  31.423  33.088  1.00  0.00     0.167 HD
ATOM     25  C   UNL A   1      40.957  28.423  30.102  1.00  0.00     0.034 A 
ATOM     26  C   UNL A   1      39.902  32.745  35.555  1.00  0.00     0.034 A 
ATOM     27  C   UNL A   1      41.881  28.277  31.204  1.00  0.00     0.049 A 
ATOM     28  C   UNL A   1      40.981  31.698  35.570  1.00  0.00     0.074 A 
ATOM     29  C   UNL A   1      42.964  27.421  31.311  1.00  0.00     0.029 A 
ATOM     30  N   UNL A   1      41.828  28.994  32.394  1.00  0.00    -0.354 N 
ATOM     31  N   UNL A   1      41.309  30.838  34.634  1.00  0.00    -0.248 NA
ATOM     32  C   UNL A   1      41.796  31.607  36.786  1.00  0.00     0.031 C 
ATOM     33  C   UNL A   1      43.510  27.559  32.592  1.00  0.00     0.029 A 
ATOM     34  C   UNL A   1      42.833  28.570  33.253  1.00  0.00     0.049 A 
ATOM     35  H   UNL A   1      41.172  29.699  32.599  1.00  0.00     0.167 HD
ATOM     36  C   UNL A   1      42.391  30.123  35.139  1.00  0.00     0.074 A 
ATOM     37  C   UNL A   1      42.668  30.669  36.453  1.00  0.00     0.031 C 
ATOM     38  C   UNL A   1      43.092  29.112  34.567  1.00  0.00     0.034 A 
BRANCH  25  39
ATOM     39  C   UNL A   1      41.096  27.497  28.915  1.00  0.00     0.023 A 
ATOM     40  C   UNL A   1      42.102  27.670  27.948  1.00  0.00     0.031 A 
ATOM     41  C   UNL A   1      40.206  26.420  28.748  1.00  0.00     0.131 A 
ATOM     42  C   UNL A   1      42.152  26.824  26.829  1.00  0.00     0.055 A 
ATOM     43  C   UNL A   1      40.313  25.532  27.676  1.00  0.00     0.041 A 
ATOM     44  F   UNL A   1      39.211  26.213  29.625  1.00  0.00    -0.206 F 
ATOM     45  C   UNL A   1      41.283  25.740  26.700  1.00  0.00     0.022 A 
BRANCH  42  46
ATOM     46  S   UNL A   1      43.283  27.246  25.474  1.00  0.00     0.124 S 
ATOM     47  O   UNL A   1      44.330  27.980  26.180  1.00  0.00    -0.237 OA
ATOM     48  O   UNL A   1      43.660  25.935  24.957  1.00  0.00    -0.237 OA
ATOM     49  O   UNL A   1      42.459  28.057  24.579  1.00  0.00    -0.744 OA
ENDBRANCH  42  46
ENDBRANCH  25  39
BRANCH  26  50
ATOM     50  C   UNL A   1      39.659  33.620  36.736  1.00  0.00     0.023 A 
ATOM     51  C   UNL A   1      39.044  33.122  37.893  1.00  0.00     0.031 A 
ATOM     52  C   UNL A   1      40.008  34.984  36.710  1.00  0.00     0.131 A 
ATOM     53  C   UNL A   1      38.748  33.991  38.956  1.00  0.00     0.055 A 
ATOM     54  C   UNL A   1      39.775  35.828  37.795  1.00  0.00     0.041 A 
ATOM     55  F   UNL A   1      40.601  35.513  35.628  1.00  0.00    -0.206 F 
ATOM     56  C   UNL A   1      39.126  35.335  38.922  1.00  0.00     0.022 A 
BRANCH  53  57
ATOM     57  S   UNL A   1      37.766  33.358  40.342  1.00  0.00     0.124 S 
ATOM     58  O   UNL A   1      36.579  32.856  39.658  1.00  0.00    -0.237 OA
ATOM     59  O   UNL A   1      38.656  32.349  40.908  1.00  0.00    -0.237 OA
ATOM     60  O   UNL A   1      37.555  34.539  41.175  1.00  0.00    -0.744 OA
ENDBRANCH  53  57
ENDBRANCH  26  50
BRANCH  38  61
ATOM     61  C   UNL A   1      44.265  28.568  35.349  1.00  0.00     0.023 A 
ATOM     62  C   UNL A   1      44.124  27.504  36.256  1.00  0.00     0.031 A 
ATOM     63  C   UNL A   1      45.540  29.142  35.196  1.00  0.00     0.131 A 
ATOM     64  C   UNL A   1      45.225  27.088  37.021  1.00  0.00     0.055 A 
ATOM     65  C   UNL A   1      46.646  28.677  35.907  1.00  0.00     0.041 A 
ATOM     66  F   UNL A   1      45.732  30.165  34.348  1.00  0.00    -0.206 F 
ATOM     67  C   UNL A   1      46.489  27.654  36.838  1.00  0.00     0.022 A 
BRANCH  64  68
ATOM     68  S   UNL A   1      44.959  25.869  38.338  1.00  0.00     0.124 S 
ATOM     69  O   UNL A   1      46.316  25.660  38.835  1.00  0.00    -0.237 OA
ATOM     70  O   UNL A   1      44.052  26.572  39.237  1.00  0.00    -0.237 OA
ATOM     71  O   UNL A   1      44.374  24.729  37.635  1.00  0.00    -0.744 OA
ENDBRANCH  64  68
ENDBRANCH  38  61
ENDBRANCH  12  13
ENDBRANCH   5   7
ENDBRANCH   2   3
ENDBRANCH   1   2
BRANCH   1  72
ATOM     72  C   UNL A   1      31.775  30.542  25.570  1.00  0.00     0.023 C 
BRANCH  72  73
ATOM     73  C   UNL A   1      30.520  29.934  24.946  1.00  0.00     0.116 C 
BRANCH  73  74
ATOM     74  N   UNL A   1      30.393  30.262  23.541  1.00  0.00    -0.351 N 
ATOM     75  C   UNL A   1      30.073  29.464  22.482  1.00  0.00     0.278 C 
ATOM     76  H   UNL A   1      30.564  31.205  23.316  1.00  0.00     0.163 HD
ATOM     77  O   UNL A   1      29.986  29.994  21.369  1.00  0.00    -0.268 OA
BRANCH  75  78
ATOM     78  C   UNL A   1      29.850  27.953  22.630  1.00  0.00     0.273 C 
ATOM     79  C   UNL A   1      31.014  27.180  23.237  1.00  0.00     0.088 C 
ATOM     80  N   UNL A   1      28.700  27.640  23.500  1.00  0.00    -0.336 N 
ATOM     81  C   UNL A   1      30.363  26.037  24.054  1.00  0.00     0.028 C 
ATOM     82  C   UNL A   1      28.852  26.226  23.824  1.00  0.00     0.268 C 
ATOM     83  H   UNL A   1      27.822  27.804  23.009  1.00  0.00     0.346 HD
ATOM     84  H   UNL A   1      28.679  28.225  24.335  1.00  0.00     0.346 HD
ATOM     85  C   UNL A   1      30.706  26.182  25.552  1.00  0.00     0.030 C 
ATOM     86  C   UNL A   1      30.808  24.645  23.550  1.00  0.00     0.030 C 
ATOM     87  C   UNL A   1      32.147  25.799  25.830  1.00  0.00     0.104 C 
ATOM     88  C   UNL A   1      32.241  24.283  23.943  1.00  0.00     0.104 C 
ATOM     89  N   UNL A   1      32.443  24.417  25.410  1.00  0.00    -0.189 NA
BRANCH  89  90
ATOM     90  S   UNL A   1      31.883  23.116  26.338  1.00  0.00     0.282 S 
ATOM     91  O   UNL A   1      31.379  23.612  27.593  1.00  0.00    -0.195 OA
ATOM     92  O   UNL A   1      31.040  22.321  25.470  1.00  0.00    -0.195 OA
BRANCH  90  93
ATOM     93  N   UNL A   1      33.266  22.251  26.614  1.00  0.00    -0.184 NA
ATOM     94  C   UNL A   1      33.371  20.840  26.219  1.00  0.00     0.132 C 
ATOM     95  C   UNL A   1      34.549  22.862  27.004  1.00  0.00     0.132 C 
ATOM     96  C   UNL A   1      34.416  20.715  25.112  1.00  0.00     0.177 C 
ATOM     97  C   UNL A   1      35.657  22.563  25.981  1.00  0.00     0.177 C 
ATOM     98  O   UNL A   1      35.694  21.192  25.561  1.00  0.00    -0.379 OA
ENDBRANCH  90  93
ENDBRANCH  89  90
ENDBRANCH  75  78
ENDBRANCH  73  74
ENDBRANCH  72  73
ENDBRANCH   1  72
TORSDOF 16
ENDMDL
MODEL 3
REMARK VINA RESULT:     -12.4      2.790      8.135
REMARK SMILES O=C(NCCCCNC(=O)[C@H]1CC2(CCN(S(=O)(=O)N3CCOCC3)CC2)C[NH2+]1)c1ccc(-c2c3nc(c(-c4cc(S(=O)(=O)[O-])ccc4F)c4ccc([nH]4)c(-c4cc(S(=O)(=O)[O-])ccc4F)c4nc(c(-c5cc(S(=O)(=O)[O-])ccc5F)c5ccc2[nH]5)C=C4)C=C3)cc1
REMARK SMILES IDX 5 1 4 2 3 3 1 4 2 5 30 7 31 8 92 9 32 10 91 11 33 12 34 13
REMARK SMILES IDX 35 14 85 15 36 16 90 17 84 18 86 19 37 20 89 21 83 22 82 23
REMARK SMILES IDX 38 25 70 26 50 27 69 28 51 29 54 30 68 31 87 32 52 33 53 34
REMARK SMILES IDX 67 36 88 37 55 38 39 39 40 40 48 41 41 42 47 43 49 44 46 45
REMARK SMILES IDX 42 46 43 47 44 48 45 49 71 50 72 51 80 52 73 53 79 54 81 55
REMARK SMILES IDX 78 56 74 57 75 58 76 59 77 60 56 61 57 62 65 63 58 64 64 65
REMARK SMILES IDX 66 66 63 67 59 68 60 69 61 70 62 71 6 72 7 73 8 74 9 75
REMARK SMILES IDX 10 77 11 78 12 79 29 80 13 81 28 82 14 85 27 86 15 87 26 88
REMARK SMILES IDX 16 89 17 90 18 91 19 92 20 93 21 94 25 95 22 96 24 97 23 98
REMARK H PARENT 3 6 86 24 54 35 8 76 29 83 29 84
REMARK Flexibility Score: inf
ROOT
ATOM      1  C   UNL A   1      31.710  31.642  26.506  1.00  0.00     0.023 C 
ENDROOT
BRANCH   1   2
ATOM      2  C   UNL A   1      32.848  32.300  27.271  1.00  0.00     0.116 C 
BRANCH   2   3
ATOM      3  N   UNL A   1      32.594  33.701  27.578  1.00  0.00    -0.352 N 
ATOM      4  O   UNL A   1      32.782  35.609  28.776  1.00  0.00    -0.269 OA
ATOM      5  C   UNL A   1      33.191  34.477  28.545  1.00  0.00     0.251 C 
ATOM      6  H   UNL A   1      31.913  34.147  27.025  1.00  0.00     0.163 HD
BRANCH   5   7
ATOM      7  C   UNL A   1      34.316  33.905  29.314  1.00  0.00     0.039 A 
ATOM      8  C   UNL A   1      35.630  34.191  28.938  1.00  0.00     0.014 A 
ATOM      9  C   UNL A   1      34.055  33.032  30.373  1.00  0.00     0.014 A 
ATOM     10  C   UNL A   1      36.675  33.485  29.514  1.00  0.00     0.010 A 
ATOM     11  C   UNL A   1      35.120  32.403  31.023  1.00  0.00     0.010 A 
ATOM     12  C   UNL A   1      36.438  32.604  30.581  1.00  0.00    -0.014 A 
BRANCH  12  13
ATOM     13  C   UNL A   1      37.596  31.973  31.265  1.00  0.00     0.031 A 
ATOM     14  C   UNL A   1      38.387  30.873  30.613  1.00  0.00     0.074 A 
ATOM     15  C   UNL A   1      37.941  32.431  32.485  1.00  0.00     0.049 A 
ATOM     16  N   UNL A   1      39.413  30.210  31.081  1.00  0.00    -0.248 NA
ATOM     17  C   UNL A   1      37.969  30.457  29.266  1.00  0.00     0.031 C 
ATOM     18  C   UNL A   1      37.245  33.500  33.208  1.00  0.00     0.029 A 
ATOM     19  N   UNL A   1      38.964  32.079  33.325  1.00  0.00    -0.354 N 
ATOM     20  C   UNL A   1      39.758  29.289  30.098  1.00  0.00     0.074 A 
ATOM     21  C   UNL A   1      38.804  29.458  29.021  1.00  0.00     0.031 C 
ATOM     22  C   UNL A   1      37.888  33.748  34.356  1.00  0.00     0.029 A 
ATOM     23  C   UNL A   1      38.984  32.799  34.498  1.00  0.00     0.049 A 
ATOM     24  H   UNL A   1      39.622  31.378  33.111  1.00  0.00     0.167 HD
ATOM     25  C   UNL A   1      40.777  28.393  30.100  1.00  0.00     0.034 A 
ATOM     26  C   UNL A   1      39.771  32.687  35.584  1.00  0.00     0.034 A 
ATOM     27  C   UNL A   1      41.711  28.242  31.192  1.00  0.00     0.049 A 
ATOM     28  C   UNL A   1      40.850  31.640  35.584  1.00  0.00     0.074 A 
ATOM     29  C   UNL A   1      42.795  27.384  31.286  1.00  0.00     0.029 A 
ATOM     30  N   UNL A   1      41.669  28.952  32.387  1.00  0.00    -0.354 N 
ATOM     31  N   UNL A   1      41.170  30.785  34.640  1.00  0.00    -0.248 NA
ATOM     32  C   UNL A   1      41.676  31.543  36.792  1.00  0.00     0.031 C 
ATOM     33  C   UNL A   1      43.352  27.516  32.562  1.00  0.00     0.029 A 
ATOM     34  C   UNL A   1      42.681  28.524  33.234  1.00  0.00     0.049 A 
ATOM     35  H   UNL A   1      41.014  29.657  32.601  1.00  0.00     0.167 HD
ATOM     36  C   UNL A   1      42.255  30.068  35.133  1.00  0.00     0.074 A 
ATOM     37  C   UNL A   1      42.544  30.606  36.446  1.00  0.00     0.031 C 
ATOM     38  C   UNL A   1      42.952  29.059  34.549  1.00  0.00     0.034 A 
BRANCH  25  39
ATOM     39  C   UNL A   1      40.905  27.473  28.907  1.00  0.00     0.023 A 
ATOM     40  C   UNL A   1      41.902  27.651  27.932  1.00  0.00     0.031 A 
ATOM     41  C   UNL A   1      40.014  26.396  28.742  1.00  0.00     0.131 A 
ATOM     42  C   UNL A   1      41.943  26.811  26.808  1.00  0.00     0.055 A 
ATOM     43  C   UNL A   1      40.111  25.515  27.665  1.00  0.00     0.041 A 
ATOM     44  F   UNL A   1      39.027  26.185  29.627  1.00  0.00    -0.206 F 
ATOM     45  C   UNL A   1      41.072  25.727  26.682  1.00  0.00     0.022 A 
BRANCH  42  46
ATOM     46  S   UNL A   1      43.061  27.240  25.445  1.00  0.00     0.124 S 
ATOM     47  O   UNL A   1      42.272  28.228  24.714  1.00  0.00    -0.237 OA
ATOM     48  O   UNL A   1      44.233  27.750  26.147  1.00  0.00    -0.237 OA
ATOM     49  O   UNL A   1      43.254  25.970  24.747  1.00  0.00    -0.744 OA
ENDBRANCH  42  46
ENDBRANCH  25  39
BRANCH  26  50
ATOM     50  C   UNL A   1      39.538  33.557  36.771  1.00  0.00     0.023 A 
ATOM     51  C   UNL A   1      40.361  34.661  37.033  1.00  0.00     0.031 A 
ATOM     52  C   UNL A   1      38.506  33.272  37.685  1.00  0.00     0.131 A 
ATOM     53  C   UNL A   1      40.173  35.409  38.206  1.00  0.00     0.055 A 
ATOM     54  C   UNL A   1      38.279  34.060  38.814  1.00  0.00     0.041 A 
ATOM     55  F   UNL A   1      37.687  32.228  37.483  1.00  0.00    -0.206 F 
ATOM     56  C   UNL A   1      39.127  35.128  39.088  1.00  0.00     0.022 A 
BRANCH  53  57
ATOM     57  S   UNL A   1      41.385  36.694  38.615  1.00  0.00     0.124 S 
ATOM     58  O   UNL A   1      40.525  37.761  39.117  1.00  0.00    -0.237 OA
ATOM     59  O   UNL A   1      42.217  36.020  39.607  1.00  0.00    -0.237 OA
ATOM     60  O   UNL A   1      42.037  36.966  37.337  1.00  0.00    -0.744 OA
ENDBRANCH  53  57
ENDBRANCH  26  50
BRANCH  38  61
ATOM     61  C   UNL A   1      44.131  28.511  35.318  1.00  0.00     0.023 A 
ATOM     62  C   UNL A   1      43.999  27.438  36.216  1.00  0.00     0.031 A 
ATOM     63  C   UNL A   1      45.403  29.090  35.161  1.00  0.00     0.131 A 
ATOM     64  C   UNL A   1      45.106  27.018  36.970  1.00  0.00     0.055 A 
ATOM     65  C   UNL A   1      46.516  28.621  35.860  1.00  0.00     0.041 A 
ATOM     66  F   UNL A   1      45.587  30.122  34.322  1.00  0.00    -0.206 F 
ATOM     67  C   UNL A   1      46.368  27.589  36.782  1.00  0.00     0.022 A 
BRANCH  64  68
ATOM     68  S   UNL A   1      44.853  25.787  38.276  1.00  0.00     0.124 S 
ATOM     69  O   UNL A   1      46.160  25.138  38.339  1.00  0.00    -0.237 OA
ATOM     70  O   UNL A   1      44.498  26.615  39.423  1.00  0.00    -0.237 OA
ATOM     71  O   UNL A   1      43.771  24.953  37.756  1.00  0.00    -0.744 OA
ENDBRANCH  64  68
ENDBRANCH  38  61
ENDBRANCH  12  13
ENDBRANCH   5   7
ENDBRANCH   2   3
ENDBRANCH   1   2
BRANCH   1  72
ATOM     72  C   UNL A   1      32.126  30.440  25.663  1.00  0.00     0.023 C 
BRANCH  72  73
ATOM     73  C   UNL A   1      30.958  29.670  25.049  1.00  0.00     0.116 C 
BRANCH  73  74
ATOM     74  N   UNL A   1      30.689  30.082  23.686  1.00  0.00    -0.351 N 
ATOM     75  C   UNL A   1      30.238  29.352  22.625  1.00  0.00     0.278 C 
ATOM     76  H   UNL A   1      30.857  31.033  23.496  1.00  0.00     0.163 HD
ATOM     77  O   UNL A   1      30.044  29.946  21.559  1.00  0.00    -0.268 OA
BRANCH  75  78
ATOM     78  C   UNL A   1      29.995  27.839  22.712  1.00  0.00     0.273 C 
ATOM     79  C   UNL A   1      31.125  27.035  23.342  1.00  0.00     0.088 C 
ATOM     80  N   UNL A   1      28.807  27.509  23.522  1.00  0.00    -0.336 N 
ATOM     81  C   UNL A   1      30.430  25.872  24.093  1.00  0.00     0.028 C 
ATOM     82  C   UNL A   1      28.932  26.084  23.804  1.00  0.00     0.268 C 
ATOM     83  H   UNL A   1      27.952  27.698  22.999  1.00  0.00     0.346 HD
ATOM     84  H   UNL A   1      28.755  28.066  24.374  1.00  0.00     0.346 HD
ATOM     85  C   UNL A   1      30.710  25.964  25.608  1.00  0.00     0.030 C 
ATOM     86  C   UNL A   1      30.884  24.493  23.562  1.00  0.00     0.030 C 
ATOM     87  C   UNL A   1      32.134  25.557  25.934  1.00  0.00     0.104 C 
ATOM     88  C   UNL A   1      32.296  24.103  24.003  1.00  0.00     0.104 C 
ATOM     89  N   UNL A   1      32.436  24.187  25.481  1.00  0.00    -0.189 NA
BRANCH  89  90
ATOM     90  S   UNL A   1      31.825  22.862  26.340  1.00  0.00     0.282 S 
ATOM     91  O   UNL A   1      31.350  23.308  27.624  1.00  0.00    -0.195 OA
ATOM     92  O   UNL A   1      30.943  22.153  25.436  1.00  0.00    -0.195 OA
BRANCH  90  93
ATOM     93  N   UNL A   1      33.171  21.923  26.557  1.00  0.00    -0.184 NA
ATOM     94  C   UNL A   1      33.235  20.555  26.028  1.00  0.00     0.132 C 
ATOM     95  C   UNL A   1      34.465  22.447  27.029  1.00  0.00     0.132 C 
ATOM     96  C   UNL A   1      34.300  20.499  24.934  1.00  0.00     0.177 C 
ATOM     97  C   UNL A   1      35.584  22.208  26.003  1.00  0.00     0.177 C 
ATOM     98  O   UNL A   1      35.583  20.883  25.452  1.00  0.00    -0.379 OA
ENDBRANCH  90  93
ENDBRANCH  89  90
ENDBRANCH  75  78
ENDBRANCH  73  74
ENDBRANCH  72  73
ENDBRANCH   1  72
TORSDOF 16
ENDMDL
