MODEL 1
REMARK VINA RESULT:     -11.8      0.000      0.000
REMARK SMILES Cc1nc(Nc2ccc(F)cc2)nc(OCC(=O)NCCCCNC(=O)c2ccc(-c3c4nc(c(-c5cc(S(=O)(=O)[O-])ccc5F)c5ccc([nH]5)c(-c5cc(S(=O)(=O)[O-])ccc5F)c5nc(c(-c6cc(S(=O)(=O)[O-])ccc6F)c6ccc3[nH]6)C=C5)C=C4)cc2)c1CCO
REMARK SMILES IDX 20 1 19 2 17 3 18 4 16 6 15 7 14 8 1 9 2 10 3 11 90 12 4 13
REMARK SMILES IDX 13 14 91 15 92 16 93 17 5 19 6 21 7 22 12 23 8 24 11 25 9 26
REMARK SMILES IDX 10 27 21 28 22 29 23 30 24 31 25 32 26 34 27 35 28 36 89 37
REMARK SMILES IDX 29 38 88 39 30 40 31 41 32 42 82 43 33 44 87 45 81 46 83 47
REMARK SMILES IDX 34 48 86 49 80 50 79 51 35 53 67 54 47 55 66 56 48 57 51 58
REMARK SMILES IDX 65 59 84 60 49 61 50 62 64 64 85 65 52 66 36 67 37 68 45 69
REMARK SMILES IDX 38 70 44 71 46 72 43 73 39 74 40 75 41 76 42 77 68 78 69 79
REMARK SMILES IDX 77 80 70 81 76 82 78 83 75 84 71 85 72 86 73 87 74 88 53 89
REMARK SMILES IDX 54 90 62 91 55 92 61 93 63 94 60 95 56 96 57 97 58 98 59 99
REMARK H PARENT 19 5 93 18 5 20 24 33 83 52 51 63
REMARK Flexibility Score: inf
ROOT
ATOM      1  C   UNL A   1      32.588  21.736  24.851  1.00  0.00     0.116 C 
ENDROOT
BRANCH   1   2
ATOM      2  N   UNL A   1      31.470  21.681  25.766  1.00  0.00    -0.353 N 
ATOM      3  C   UNL A   1      30.617  22.674  26.125  1.00  0.00     0.258 C 
ATOM      4  O   UNL A   1      29.688  22.390  26.884  1.00  0.00    -0.271 OA
ATOM      5  H   UNL A   1      31.306  20.806  26.187  1.00  0.00     0.163 HD
BRANCH   3   6
ATOM      6  C   UNL A   1      30.780  24.080  25.528  1.00  0.00     0.331 C 
BRANCH   6   7
ATOM      7  O   UNL A   1      30.875  24.309  24.138  1.00  0.00    -0.467 OA
BRANCH   7   8
ATOM      8  C   UNL A   1      31.165  25.528  23.612  1.00  0.00     0.222 A 
ATOM      9  C   UNL A   1      33.608  28.103  22.354  1.00  0.00     0.067 C 
ATOM     10  C   UNL A   1      32.392  27.334  22.778  1.00  0.00     0.050 A 
ATOM     11  N   UNL A   1      31.256  28.044  22.650  1.00  0.00    -0.218 NA
ATOM     12  C   UNL A   1      32.421  26.062  23.346  1.00  0.00     0.038 A 
ATOM     13  C   UNL A   1      30.115  27.518  23.087  1.00  0.00     0.230 A 
ATOM     14  N   UNL A   1      30.030  26.264  23.534  1.00  0.00    -0.177 NA
BRANCH  12  15
ATOM     15  C   UNL A   1      33.733  25.436  23.743  1.00  0.00     0.071 C 
BRANCH  15  16
ATOM     16  C   UNL A   1      34.182  25.758  25.172  1.00  0.00     0.161 C 
BRANCH  16  17
ATOM     17  O   UNL A   1      34.113  24.646  26.053  1.00  0.00    -0.396 OA
ATOM     18  H   UNL A   1      33.290  24.689  26.566  1.00  0.00     0.210 HD
ENDBRANCH  16  17
ENDBRANCH  15  16
ENDBRANCH  12  15
BRANCH  13  19
ATOM     19  N   UNL A   1      28.997  28.345  23.232  1.00  0.00    -0.324 N 
ATOM     20  H   UNL A   1      28.231  27.960  23.716  1.00  0.00     0.170 HD
BRANCH  19  21
ATOM     21  C   UNL A   1      28.841  29.658  22.768  1.00  0.00     0.041 A 
ATOM     22  C   UNL A   1      29.068  30.759  23.610  1.00  0.00     0.029 A 
ATOM     23  C   UNL A   1      28.316  29.897  21.489  1.00  0.00     0.029 A 
ATOM     24  C   UNL A   1      28.791  32.061  23.189  1.00  0.00     0.041 A 
ATOM     25  C   UNL A   1      28.017  31.199  21.072  1.00  0.00     0.041 A 
ATOM     26  C   UNL A   1      28.257  32.267  21.926  1.00  0.00     0.123 A 
ATOM     27  F   UNL A   1      27.953  33.512  21.532  1.00  0.00    -0.207 F 
ENDBRANCH  19  21
ENDBRANCH  13  19
ENDBRANCH   7   8
ENDBRANCH   6   7
ENDBRANCH   3   6
ENDBRANCH   1   2
BRANCH   1  28
ATOM     28  C   UNL A   1      33.861  21.175  25.473  1.00  0.00     0.023 C 
BRANCH  28  29
ATOM     29  C   UNL A   1      35.161  21.554  24.756  1.00  0.00     0.023 C 
BRANCH  29  30
ATOM     30  C   UNL A   1      36.363  21.835  25.651  1.00  0.00     0.116 C 
BRANCH  30  31
ATOM     31  N   UNL A   1      37.374  20.792  25.602  1.00  0.00    -0.352 N 
ATOM     32  C   UNL A   1      38.717  20.879  25.875  1.00  0.00     0.251 C 
ATOM     33  H   UNL A   1      37.050  19.900  25.337  1.00  0.00     0.163 HD
ATOM     34  O   UNL A   1      39.442  19.906  25.689  1.00  0.00    -0.269 OA
BRANCH  32  35
ATOM     35  C   UNL A   1      39.284  22.159  26.347  1.00  0.00     0.039 A 
ATOM     36  C   UNL A   1      40.346  22.124  27.254  1.00  0.00     0.014 A 
ATOM     37  C   UNL A   1      38.801  23.382  25.872  1.00  0.00     0.014 A 
ATOM     38  C   UNL A   1      40.969  23.315  27.632  1.00  0.00     0.010 A 
ATOM     39  C   UNL A   1      39.466  24.562  26.199  1.00  0.00     0.010 A 
ATOM     40  C   UNL A   1      40.560  24.539  27.078  1.00  0.00    -0.014 A 
BRANCH  40  41
ATOM     41  C   UNL A   1      41.272  25.803  27.404  1.00  0.00     0.031 A 
ATOM     42  C   UNL A   1      40.598  26.852  28.245  1.00  0.00     0.074 A 
ATOM     43  C   UNL A   1      42.505  26.021  26.906  1.00  0.00     0.049 A 
ATOM     44  N   UNL A   1      41.028  28.042  28.577  1.00  0.00    -0.248 NA
ATOM     45  C   UNL A   1      39.258  26.532  28.761  1.00  0.00     0.031 C 
ATOM     46  C   UNL A   1      43.248  25.090  26.052  1.00  0.00     0.029 A 
ATOM     47  N   UNL A   1      43.354  27.091  27.043  1.00  0.00    -0.354 N 
ATOM     48  C   UNL A   1      40.010  28.616  29.330  1.00  0.00     0.074 A 
ATOM     49  C   UNL A   1      38.922  27.663  29.364  1.00  0.00     0.031 C 
ATOM     50  C   UNL A   1      44.451  25.616  25.771  1.00  0.00     0.029 A 
ATOM     51  C   UNL A   1      44.551  26.938  26.382  1.00  0.00     0.049 A 
ATOM     52  H   UNL A   1      43.127  27.895  27.565  1.00  0.00     0.167 HD
ATOM     53  C   UNL A   1      39.994  29.819  29.951  1.00  0.00     0.034 A 
ATOM     54  C   UNL A   1      45.606  27.769  26.271  1.00  0.00     0.034 A 
ATOM     55  C   UNL A   1      41.096  30.747  29.935  1.00  0.00     0.049 A 
ATOM     56  C   UNL A   1      45.557  29.109  26.956  1.00  0.00     0.074 A 
ATOM     57  C   UNL A   1      41.200  31.965  30.583  1.00  0.00     0.029 A 
ATOM     58  N   UNL A   1      42.282  30.562  29.239  1.00  0.00    -0.354 N 
ATOM     59  N   UNL A   1      44.590  29.629  27.674  1.00  0.00    -0.248 NA
ATOM     60  C   UNL A   1      46.736  29.974  26.814  1.00  0.00     0.031 C 
ATOM     61  C   UNL A   1      42.421  32.545  30.231  1.00  0.00     0.029 A 
ATOM     62  C   UNL A   1      43.110  31.659  29.419  1.00  0.00     0.049 A 
ATOM     63  H   UNL A   1      42.502  29.770  28.698  1.00  0.00     0.167 HD
ATOM     64  C   UNL A   1      45.053  30.874  28.087  1.00  0.00     0.074 A 
ATOM     65  C   UNL A   1      46.386  31.026  27.542  1.00  0.00     0.031 C 
ATOM     66  C   UNL A   1      44.431  31.803  28.856  1.00  0.00     0.034 A 
BRANCH  53  67
ATOM     67  C   UNL A   1      38.744  30.210  30.695  1.00  0.00     0.023 A 
ATOM     68  C   UNL A   1      37.729  30.963  30.083  1.00  0.00     0.031 A 
ATOM     69  C   UNL A   1      38.554  29.794  32.024  1.00  0.00     0.131 A 
ATOM     70  C   UNL A   1      36.583  31.311  30.813  1.00  0.00     0.055 A 
ATOM     71  C   UNL A   1      37.383  30.091  32.725  1.00  0.00     0.041 A 
ATOM     72  F   UNL A   1      39.500  29.087  32.662  1.00  0.00    -0.206 F 
ATOM     73  C   UNL A   1      36.392  30.859  32.121  1.00  0.00     0.022 A 
BRANCH  70  74
ATOM     74  S   UNL A   1      35.373  32.426  30.053  1.00  0.00     0.124 S 
ATOM     75  O   UNL A   1      34.972  31.664  28.873  1.00  0.00    -0.237 OA
ATOM     76  O   UNL A   1      34.364  32.561  31.098  1.00  0.00    -0.237 OA
ATOM     77  O   UNL A   1      36.147  33.634  29.774  1.00  0.00    -0.744 OA
ENDBRANCH  70  74
ENDBRANCH  53  67
BRANCH  54  78
ATOM     78  C   UNL A   1      46.793  27.361  25.468  1.00  0.00     0.023 A 
ATOM     79  C   UNL A   1      46.941  27.773  24.135  1.00  0.00     0.031 A 
ATOM     80  C   UNL A   1      47.803  26.560  26.033  1.00  0.00     0.131 A 
ATOM     81  C   UNL A   1      48.067  27.365  23.401  1.00  0.00     0.055 A 
ATOM     82  C   UNL A   1      48.938  26.189  25.310  1.00  0.00     0.041 A 
ATOM     83  F   UNL A   1      47.710  26.150  27.307  1.00  0.00    -0.206 F 
ATOM     84  C   UNL A   1      49.071  26.588  23.983  1.00  0.00     0.022 A 
BRANCH  81  85
ATOM     85  S   UNL A   1      48.192  27.847  21.656  1.00  0.00     0.124 S 
ATOM     86  O   UNL A   1      48.523  26.576  21.022  1.00  0.00    -0.237 OA
ATOM     87  O   UNL A   1      46.857  28.370  21.388  1.00  0.00    -0.237 OA
ATOM     88  O   UNL A   1      49.260  28.844  21.655  1.00  0.00    -0.744 OA
ENDBRANCH  81  85
ENDBRANCH  54  78
BRANCH  66  89
ATOM     89  C   UNL A   1      45.192  33.060  29.181  1.00  0.00     0.023 A 
ATOM     90  C   UNL A   1      45.088  34.208  28.380  1.00  0.00     0.031 A 
ATOM     91  C   UNL A   1      45.981  33.125  30.343  1.00  0.00     0.131 A 
ATOM     92  C   UNL A   1      45.784  35.372  28.741  1.00  0.00     0.055 A 
ATOM     93  C   UNL A   1      46.634  34.298  30.720  1.00  0.00     0.041 A 
ATOM     94  F   UNL A   1      46.107  32.053  31.143  1.00  0.00    -0.206 F 
ATOM     95  C   UNL A   1      46.541  35.429  29.915  1.00  0.00     0.022 A 
BRANCH  92  96
ATOM     96  S   UNL A   1      45.709  36.811  27.640  1.00  0.00     0.124 S 
ATOM     97  O   UNL A   1      44.282  36.891  27.344  1.00  0.00    -0.237 OA
ATOM     98  O   UNL A   1      46.247  37.879  28.478  1.00  0.00    -0.237 OA
ATOM     99  O   UNL A   1      46.556  36.425  26.513  1.00  0.00    -0.744 OA
ENDBRANCH  92  96
ENDBRANCH  66  89
ENDBRANCH  40  41
ENDBRANCH  32  35
ENDBRANCH  30  31
ENDBRANCH  29  30
ENDBRANCH  28  29
ENDBRANCH   1  28
TORSDOF 21
ENDMDL
MODEL 2
REMARK VINA RESULT:     -11.3      4.917      9.501
REMARK SMILES Cc1nc(Nc2ccc(F)cc2)nc(OCC(=O)NCCCCNC(=O)c2ccc(-c3c4nc(c(-c5cc(S(=O)(=O)[O-])ccc5F)c5ccc([nH]5)c(-c5cc(S(=O)(=O)[O-])ccc5F)c5nc(c(-c6cc(S(=O)(=O)[O-])ccc6F)c6ccc3[nH]6)C=C5)C=C4)cc2)c1CCO
REMARK SMILES IDX 20 1 19 2 17 3 18 4 16 6 15 7 14 8 1 9 2 10 3 11 90 12 4 13
REMARK SMILES IDX 13 14 91 15 92 16 93 17 5 19 6 21 7 22 12 23 8 24 11 25 9 26
REMARK SMILES IDX 10 27 21 28 22 29 23 30 24 31 25 32 26 34 27 35 28 36 89 37
REMARK SMILES IDX 29 38 88 39 30 40 31 41 32 42 82 43 33 44 87 45 81 46 83 47
REMARK SMILES IDX 34 48 86 49 80 50 79 51 35 53 67 54 47 55 66 56 48 57 51 58
REMARK SMILES IDX 65 59 84 60 49 61 50 62 64 64 85 65 52 66 36 67 37 68 45 69
REMARK SMILES IDX 38 70 44 71 46 72 43 73 39 74 40 75 41 76 42 77 68 78 69 79
REMARK SMILES IDX 77 80 70 81 76 82 78 83 75 84 71 85 72 86 73 87 74 88 53 89
REMARK SMILES IDX 54 90 62 91 55 92 61 93 63 94 60 95 56 96 57 97 58 98 59 99
REMARK H PARENT 19 5 93 18 5 20 24 33 83 52 51 63
REMARK Flexibility Score: inf
ROOT
ATOM      1  C   UNL A   1      34.372  25.074  24.325  1.00  0.00     0.116 C 
ENDROOT
BRANCH   1   2
ATOM      2  N   UNL A   1      34.043  25.214  22.924  1.00  0.00    -0.353 N 
ATOM      3  C   UNL A   1      33.074  24.582  22.212  1.00  0.00     0.258 C 
ATOM      4  O   UNL A   1      32.929  24.899  21.030  1.00  0.00    -0.271 OA
ATOM      5  H   UNL A   1      34.597  25.852  22.418  1.00  0.00     0.163 HD
BRANCH   3   6
ATOM      6  C   UNL A   1      32.152  23.567  22.903  1.00  0.00     0.331 C 
BRANCH   6   7
ATOM      7  O   UNL A   1      30.908  23.930  23.463  1.00  0.00    -0.467 OA
BRANCH   7   8
ATOM      8  C   UNL A   1      30.694  25.131  24.063  1.00  0.00     0.222 A 
ATOM      9  C   UNL A   1      30.946  27.456  27.016  1.00  0.00     0.067 C 
ATOM     10  C   UNL A   1      30.676  26.812  25.688  1.00  0.00     0.050 A 
ATOM     11  N   UNL A   1      29.993  27.612  24.850  1.00  0.00    -0.218 NA
ATOM     12  C   UNL A   1      30.993  25.491  25.373  1.00  0.00     0.038 A 
ATOM     13  C   UNL A   1      29.597  27.128  23.675  1.00  0.00     0.230 A 
ATOM     14  N   UNL A   1      29.958  25.918  23.242  1.00  0.00    -0.177 NA
BRANCH  12  15
ATOM     15  C   UNL A   1      31.484  24.550  26.443  1.00  0.00     0.071 C 
BRANCH  15  16
ATOM     16  C   UNL A   1      30.601  23.315  26.652  1.00  0.00     0.161 C 
BRANCH  16  17
ATOM     17  O   UNL A   1      29.425  23.579  27.404  1.00  0.00    -0.396 OA
ATOM     18  H   UNL A   1      28.968  24.350  27.031  1.00  0.00     0.210 HD
ENDBRANCH  16  17
ENDBRANCH  15  16
ENDBRANCH  12  15
BRANCH  13  19
ATOM     19  N   UNL A   1      28.649  27.836  22.933  1.00  0.00    -0.324 N 
ATOM     20  H   UNL A   1      27.987  27.296  22.444  1.00  0.00     0.170 HD
BRANCH  19  21
ATOM     21  C   UNL A   1      28.532  29.227  22.804  1.00  0.00     0.041 A 
ATOM     22  C   UNL A   1      29.473  29.973  22.077  1.00  0.00     0.029 A 
ATOM     23  C   UNL A   1      27.545  29.921  23.521  1.00  0.00     0.029 A 
ATOM     24  C   UNL A   1      29.430  31.368  22.053  1.00  0.00     0.041 A 
ATOM     25  C   UNL A   1      27.511  31.320  23.518  1.00  0.00     0.041 A 
ATOM     26  C   UNL A   1      28.454  32.029  22.784  1.00  0.00     0.123 A 
ATOM     27  F   UNL A   1      28.432  33.369  22.797  1.00  0.00    -0.207 F 
ENDBRANCH  19  21
ENDBRANCH  13  19
ENDBRANCH   7   8
ENDBRANCH   6   7
ENDBRANCH   3   6
ENDBRANCH   1   2
BRANCH   1  28
ATOM     28  C   UNL A   1      34.344  26.414  25.052  1.00  0.00     0.023 C 
BRANCH  28  29
ATOM     29  C   UNL A   1      33.731  27.574  24.261  1.00  0.00     0.023 C 
BRANCH  29  30
ATOM     30  C   UNL A   1      34.219  28.970  24.633  1.00  0.00     0.116 C 
BRANCH  30  31
ATOM     31  N   UNL A   1      33.168  29.826  25.159  1.00  0.00    -0.352 N 
ATOM     32  C   UNL A   1      33.108  30.470  26.370  1.00  0.00     0.251 C 
ATOM     33  H   UNL A   1      32.395  29.962  24.565  1.00  0.00     0.163 HD
ATOM     34  O   UNL A   1      32.091  31.082  26.685  1.00  0.00    -0.269 OA
BRANCH  32  35
ATOM     35  C   UNL A   1      34.252  30.384  27.302  1.00  0.00     0.039 A 
ATOM     36  C   UNL A   1      34.415  29.216  28.051  1.00  0.00     0.014 A 
ATOM     37  C   UNL A   1      35.176  31.427  27.408  1.00  0.00     0.014 A 
ATOM     38  C   UNL A   1      35.545  29.067  28.857  1.00  0.00     0.010 A 
ATOM     39  C   UNL A   1      36.335  31.248  28.161  1.00  0.00     0.010 A 
ATOM     40  C   UNL A   1      36.533  30.065  28.888  1.00  0.00    -0.014 A 
BRANCH  40  41
ATOM     41  C   UNL A   1      37.782  29.880  29.672  1.00  0.00     0.031 A 
ATOM     42  C   UNL A   1      38.904  29.047  29.117  1.00  0.00     0.074 A 
ATOM     43  C   UNL A   1      37.886  30.426  30.901  1.00  0.00     0.049 A 
ATOM     44  N   UNL A   1      40.038  28.714  29.677  1.00  0.00    -0.248 NA
ATOM     45  C   UNL A   1      38.718  28.497  27.765  1.00  0.00     0.031 C 
ATOM     46  C   UNL A   1      36.851  31.229  31.558  1.00  0.00     0.029 A 
ATOM     47  N   UNL A   1      38.908  30.392  31.817  1.00  0.00    -0.354 N 
ATOM     48  C   UNL A   1      40.695  27.909  28.754  1.00  0.00     0.074 A 
ATOM     49  C   UNL A   1      39.812  27.763  27.618  1.00  0.00     0.031 C 
ATOM     50  C   UNL A   1      37.305  31.637  32.754  1.00  0.00     0.029 A 
ATOM     51  C   UNL A   1      38.641  31.090  32.972  1.00  0.00     0.049 A 
ATOM     52  H   UNL A   1      39.754  29.912  31.661  1.00  0.00     0.167 HD
ATOM     53  C   UNL A   1      41.930  27.360  28.840  1.00  0.00     0.034 A 
ATOM     54  C   UNL A   1      39.380  31.262  34.085  1.00  0.00     0.034 A 
ATOM     55  C   UNL A   1      42.813  27.537  29.964  1.00  0.00     0.049 A 
ATOM     56  C   UNL A   1      40.743  30.625  34.165  1.00  0.00     0.074 A 
ATOM     57  C   UNL A   1      44.106  27.070  30.120  1.00  0.00     0.029 A 
ATOM     58  N   UNL A   1      42.497  28.234  31.122  1.00  0.00    -0.354 N 
ATOM     59  N   UNL A   1      41.352  29.877  33.275  1.00  0.00    -0.248 NA
ATOM     60  C   UNL A   1      41.515  30.852  35.393  1.00  0.00     0.031 C 
ATOM     61  C   UNL A   1      44.551  27.432  31.395  1.00  0.00     0.029 A 
ATOM     62  C   UNL A   1      43.561  28.184  32.008  1.00  0.00     0.049 A 
ATOM     63  H   UNL A   1      41.644  28.695  31.289  1.00  0.00     0.167 HD
ATOM     64  C   UNL A   1      42.588  29.562  33.830  1.00  0.00     0.074 A 
ATOM     65  C   UNL A   1      42.641  30.202  35.127  1.00  0.00     0.031 C 
ATOM     66  C   UNL A   1      43.592  28.815  33.306  1.00  0.00     0.034 A 
BRANCH  53  67
ATOM     67  C   UNL A   1      42.400  26.505  27.692  1.00  0.00     0.023 A 
ATOM     68  C   UNL A   1      42.162  25.122  27.659  1.00  0.00     0.031 A 
ATOM     69  C   UNL A   1      43.068  27.091  26.603  1.00  0.00     0.131 A 
ATOM     70  C   UNL A   1      42.623  24.361  26.575  1.00  0.00     0.055 A 
ATOM     71  C   UNL A   1      43.469  26.338  25.498  1.00  0.00     0.041 A 
ATOM     72  F   UNL A   1      43.337  28.405  26.592  1.00  0.00    -0.206 F 
ATOM     73  C   UNL A   1      43.252  24.963  25.482  1.00  0.00     0.022 A 
BRANCH  70  74
ATOM     74  S   UNL A   1      42.451  22.557  26.642  1.00  0.00     0.124 S 
ATOM     75  O   UNL A   1      41.077  22.376  26.182  1.00  0.00    -0.237 OA
ATOM     76  O   UNL A   1      43.495  22.104  25.730  1.00  0.00    -0.237 OA
ATOM     77  O   UNL A   1      42.678  22.244  28.051  1.00  0.00    -0.744 OA
ENDBRANCH  70  74
ENDBRANCH  53  67
BRANCH  54  78
ATOM     78  C   UNL A   1      38.842  32.063  35.220  1.00  0.00     0.023 A 
ATOM     79  C   UNL A   1      38.284  31.438  36.346  1.00  0.00     0.031 A 
ATOM     80  C   UNL A   1      38.889  33.468  35.195  1.00  0.00     0.131 A 
ATOM     81  C   UNL A   1      37.775  32.220  37.396  1.00  0.00     0.055 A 
ATOM     82  C   UNL A   1      38.417  34.239  36.259  1.00  0.00     0.041 A 
ATOM     83  F   UNL A   1      39.423  34.111  34.145  1.00  0.00    -0.206 F 
ATOM     84  C   UNL A   1      37.850  33.614  37.366  1.00  0.00     0.022 A 
BRANCH  81  85
ATOM     85  S   UNL A   1      36.988  31.386  38.802  1.00  0.00     0.124 S 
ATOM     86  O   UNL A   1      35.732  32.118  38.914  1.00  0.00    -0.237 OA
ATOM     87  O   UNL A   1      36.891  30.011  38.325  1.00  0.00    -0.237 OA
ATOM     88  O   UNL A   1      37.935  31.597  39.895  1.00  0.00    -0.744 OA
ENDBRANCH  81  85
ENDBRANCH  54  78
BRANCH  66  89
ATOM     89  C   UNL A   1      44.849  28.668  34.121  1.00  0.00     0.023 A 
ATOM     90  C   UNL A   1      45.050  27.566  34.967  1.00  0.00     0.031 A 
ATOM     91  C   UNL A   1      45.883  29.613  33.998  1.00  0.00     0.131 A 
ATOM     92  C   UNL A   1      46.253  27.447  35.680  1.00  0.00     0.055 A 
ATOM     93  C   UNL A   1      47.094  29.466  34.673  1.00  0.00     0.041 A 
ATOM     94  F   UNL A   1      45.738  30.682  33.196  1.00  0.00    -0.206 F 
ATOM     95  C   UNL A   1      47.282  28.381  35.524  1.00  0.00     0.022 A 
BRANCH  92  96
ATOM     96  S   UNL A   1      46.449  26.066  36.838  1.00  0.00     0.124 S 
ATOM     97  O   UNL A   1      46.530  26.756  38.120  1.00  0.00    -0.237 OA
ATOM     98  O   UNL A   1      45.236  25.286  36.609  1.00  0.00    -0.237 OA
ATOM     99  O   UNL A   1      47.687  25.424  36.399  1.00  0.00    -0.744 OA
ENDBRANCH  92  96
ENDBRANCH  66  89
ENDBRANCH  40  41
ENDBRANCH  32  35
ENDBRANCH  30  31
ENDBRANCH  29  30
ENDBRANCH  28  29
ENDBRANCH   1  28
TORSDOF 21
ENDMDL
MODEL 3
REMARK VINA RESULT:     -11.2      1.886      7.799
REMARK SMILES Cc1nc(Nc2ccc(F)cc2)nc(OCC(=O)NCCCCNC(=O)c2ccc(-c3c4nc(c(-c5cc(S(=O)(=O)[O-])ccc5F)c5ccc([nH]5)c(-c5cc(S(=O)(=O)[O-])ccc5F)c5nc(c(-c6cc(S(=O)(=O)[O-])ccc6F)c6ccc3[nH]6)C=C5)C=C4)cc2)c1CCO
REMARK SMILES IDX 20 1 19 2 17 3 18 4 16 6 15 7 14 8 1 9 2 10 3 11 90 12 4 13
REMARK SMILES IDX 13 14 91 15 92 16 93 17 5 19 6 21 7 22 12 23 8 24 11 25 9 26
REMARK SMILES IDX 10 27 21 28 22 29 23 30 24 31 25 32 26 34 27 35 28 36 89 37
REMARK SMILES IDX 29 38 88 39 30 40 31 41 32 42 82 43 33 44 87 45 81 46 83 47
REMARK SMILES IDX 34 48 86 49 80 50 79 51 35 53 67 54 47 55 66 56 48 57 51 58
REMARK SMILES IDX 65 59 84 60 49 61 50 62 64 64 85 65 52 66 36 67 37 68 45 69
REMARK SMILES IDX 38 70 44 71 46 72 43 73 39 74 40 75 41 76 42 77 68 78 69 79
REMARK SMILES IDX 77 80 70 81 76 82 78 83 75 84 71 85 72 86 73 87 74 88 53 89
REMARK SMILES IDX 54 90 62 91 55 92 61 93 63 94 60 95 56 96 57 97 58 98 59 99
REMARK H PARENT 19 5 93 18 5 20 24 33 83 52 51 63
REMARK Flexibility Score: inf
ROOT
ATOM      1  C   UNL A   1      34.816  23.184  22.685  1.00  0.00     0.116 C 
ENDROOT
BRANCH   1   2
ATOM      2  N   UNL A   1      33.998  24.361  22.497  1.00  0.00    -0.353 N 
ATOM      3  C   UNL A   1      32.653  24.441  22.329  1.00  0.00     0.258 C 
ATOM      4  O   UNL A   1      32.149  25.563  22.244  1.00  0.00    -0.271 OA
ATOM      5  H   UNL A   1      34.481  25.219  22.488  1.00  0.00     0.163 HD
BRANCH   3   6
ATOM      6  C   UNL A   1      31.801  23.164  22.328  1.00  0.00     0.331 C 
BRANCH   6   7
ATOM      7  O   UNL A   1      31.221  22.637  23.502  1.00  0.00    -0.467 OA
BRANCH   7   8
ATOM      8  C   UNL A   1      31.648  22.972  24.747  1.00  0.00     0.222 A 
ATOM      9  C   UNL A   1      33.361  22.154  28.001  1.00  0.00     0.067 C 
ATOM     10  C   UNL A   1      32.625  22.800  26.865  1.00  0.00     0.050 A 
ATOM     11  N   UNL A   1      32.228  24.054  27.147  1.00  0.00    -0.218 NA
ATOM     12  C   UNL A   1      32.284  22.155  25.677  1.00  0.00     0.038 A 
ATOM     13  C   UNL A   1      31.475  24.706  26.265  1.00  0.00     0.230 A 
ATOM     14  N   UNL A   1      31.202  24.214  25.056  1.00  0.00    -0.177 NA
BRANCH  12  15
ATOM     15  C   UNL A   1      32.488  20.669  25.532  1.00  0.00     0.071 C 
BRANCH  15  16
ATOM     16  C   UNL A   1      33.220  20.254  24.251  1.00  0.00     0.161 C 
BRANCH  16  17
ATOM     17  O   UNL A   1      32.352  19.800  23.223  1.00  0.00    -0.396 OA
ATOM     18  H   UNL A   1      32.866  19.620  22.420  1.00  0.00     0.210 HD
ENDBRANCH  16  17
ENDBRANCH  15  16
ENDBRANCH  12  15
BRANCH  13  19
ATOM     19  N   UNL A   1      30.819  25.874  26.663  1.00  0.00    -0.324 N 
ATOM     20  H   UNL A   1      29.970  25.752  27.146  1.00  0.00     0.170 HD
BRANCH  19  21
ATOM     21  C   UNL A   1      31.229  27.197  26.455  1.00  0.00     0.041 A 
ATOM     22  C   UNL A   1      31.646  28.007  27.525  1.00  0.00     0.029 A 
ATOM     23  C   UNL A   1      31.098  27.787  25.188  1.00  0.00     0.029 A 
ATOM     24  C   UNL A   1      31.933  29.360  27.339  1.00  0.00     0.041 A 
ATOM     25  C   UNL A   1      31.364  29.148  25.003  1.00  0.00     0.041 A 
ATOM     26  C   UNL A   1      31.778  29.921  26.081  1.00  0.00     0.123 A 
ATOM     27  F   UNL A   1      32.015  31.228  25.905  1.00  0.00    -0.207 F 
ENDBRANCH  19  21
ENDBRANCH  13  19
ENDBRANCH   7   8
ENDBRANCH   6   7
ENDBRANCH   3   6
ENDBRANCH   1   2
BRANCH   1  28
ATOM     28  C   UNL A   1      35.496  23.177  24.050  1.00  0.00     0.023 C 
BRANCH  28  29
ATOM     29  C   UNL A   1      36.596  22.124  24.227  1.00  0.00     0.023 C 
BRANCH  29  30
ATOM     30  C   UNL A   1      36.889  21.696  25.661  1.00  0.00     0.116 C 
BRANCH  30  31
ATOM     31  N   UNL A   1      37.953  20.711  25.761  1.00  0.00    -0.352 N 
ATOM     32  C   UNL A   1      39.262  20.892  26.136  1.00  0.00     0.251 C 
ATOM     33  H   UNL A   1      37.700  19.788  25.528  1.00  0.00     0.163 HD
ATOM     34  O   UNL A   1      40.050  19.952  26.073  1.00  0.00    -0.269 OA
BRANCH  32  35
ATOM     35  C   UNL A   1      39.720  22.228  26.570  1.00  0.00     0.039 A 
ATOM     36  C   UNL A   1      40.802  22.309  27.449  1.00  0.00     0.014 A 
ATOM     37  C   UNL A   1      39.113  23.391  26.087  1.00  0.00     0.014 A 
ATOM     38  C   UNL A   1      41.321  23.560  27.790  1.00  0.00     0.010 A 
ATOM     39  C   UNL A   1      39.674  24.633  26.375  1.00  0.00     0.010 A 
ATOM     40  C   UNL A   1      40.786  24.730  27.225  1.00  0.00    -0.014 A 
BRANCH  40  41
ATOM     41  C   UNL A   1      41.386  26.060  27.509  1.00  0.00     0.031 A 
ATOM     42  C   UNL A   1      42.746  26.405  26.967  1.00  0.00     0.074 A 
ATOM     43  C   UNL A   1      40.725  26.936  28.291  1.00  0.00     0.049 A 
ATOM     44  N   UNL A   1      43.461  27.482  27.163  1.00  0.00    -0.248 NA
ATOM     45  C   UNL A   1      43.396  25.400  26.112  1.00  0.00     0.031 C 
ATOM     46  C   UNL A   1      39.412  26.702  28.899  1.00  0.00     0.029 A 
ATOM     47  N   UNL A   1      41.060  28.200  28.709  1.00  0.00    -0.354 N 
ATOM     48  C   UNL A   1      44.648  27.281  26.468  1.00  0.00     0.074 A 
ATOM     49  C   UNL A   1      44.576  25.959  25.885  1.00  0.00     0.031 C 
ATOM     50  C   UNL A   1      39.042  27.797  29.583  1.00  0.00     0.029 A 
ATOM     51  C   UNL A   1      40.106  28.794  29.503  1.00  0.00     0.049 A 
ATOM     52  H   UNL A   1      41.906  28.641  28.463  1.00  0.00     0.167 HD
ATOM     53  C   UNL A   1      45.690  28.130  26.313  1.00  0.00     0.034 A 
ATOM     54  C   UNL A   1      40.090  29.998  30.106  1.00  0.00     0.034 A 
ATOM     55  C   UNL A   1      45.738  29.457  26.873  1.00  0.00     0.049 A 
ATOM     56  C   UNL A   1      41.271  30.918  29.935  1.00  0.00     0.074 A 
ATOM     57  C   UNL A   1      46.724  30.416  26.723  1.00  0.00     0.029 A 
ATOM     58  N   UNL A   1      44.760  30.012  27.687  1.00  0.00    -0.354 N 
ATOM     59  N   UNL A   1      42.379  30.715  29.262  1.00  0.00    -0.248 NA
ATOM     60  C   UNL A   1      41.201  32.224  30.603  1.00  0.00     0.031 C 
ATOM     61  C   UNL A   1      46.374  31.527  27.495  1.00  0.00     0.029 A 
ATOM     62  C   UNL A   1      45.136  31.290  28.070  1.00  0.00     0.049 A 
ATOM     63  H   UNL A   1      43.924  29.566  27.952  1.00  0.00     0.167 HD
ATOM     64  C   UNL A   1      43.129  31.876  29.410  1.00  0.00     0.074 A 
ATOM     65  C   UNL A   1      42.348  32.778  30.231  1.00  0.00     0.031 C 
ATOM     66  C   UNL A   1      44.352  32.171  28.903  1.00  0.00     0.034 A 
BRANCH  53  67
ATOM     67  C   UNL A   1      46.875  27.651  25.515  1.00  0.00     0.023 A 
ATOM     68  C   UNL A   1      47.037  27.993  24.163  1.00  0.00     0.031 A 
ATOM     69  C   UNL A   1      47.870  26.869  26.127  1.00  0.00     0.131 A 
ATOM     70  C   UNL A   1      48.152  27.520  23.454  1.00  0.00     0.055 A 
ATOM     71  C   UNL A   1      49.007  26.454  25.432  1.00  0.00     0.041 A 
ATOM     72  F   UNL A   1      47.754  26.499  27.412  1.00  0.00    -0.206 F 
ATOM     73  C   UNL A   1      49.150  26.775  24.086  1.00  0.00     0.022 A 
BRANCH  70  74
ATOM     74  S   UNL A   1      48.245  27.834  21.671  1.00  0.00     0.124 S 
ATOM     75  O   UNL A   1      48.635  26.523  21.161  1.00  0.00    -0.237 OA
ATOM     76  O   UNL A   1      46.889  28.266  21.352  1.00  0.00    -0.237 OA
ATOM     77  O   UNL A   1      49.270  28.870  21.559  1.00  0.00    -0.744 OA
ENDBRANCH  70  74
ENDBRANCH  53  67
BRANCH  54  78
ATOM     78  C   UNL A   1      38.922  30.399  30.940  1.00  0.00     0.023 A 
ATOM     79  C   UNL A   1      37.851  31.116  30.386  1.00  0.00     0.031 A 
ATOM     80  C   UNL A   1      38.860  30.057  32.303  1.00  0.00     0.131 A 
ATOM     81  C   UNL A   1      36.768  31.488  31.200  1.00  0.00     0.055 A 
ATOM     82  C   UNL A   1      37.763  30.397  33.097  1.00  0.00     0.041 A 
ATOM     83  F   UNL A   1      39.856  29.363  32.874  1.00  0.00    -0.206 F 
ATOM     84  C   UNL A   1      36.711  31.122  32.546  1.00  0.00     0.022 A 
BRANCH  81  85
ATOM     85  S   UNL A   1      35.435  32.484  30.475  1.00  0.00     0.124 S 
ATOM     86  O   UNL A   1      36.105  33.761  30.259  1.00  0.00    -0.237 OA
ATOM     87  O   UNL A   1      35.102  31.722  29.277  1.00  0.00    -0.237 OA
ATOM     88  O   UNL A   1      34.408  32.484  31.515  1.00  0.00    -0.744 OA
ENDBRANCH  81  85
ENDBRANCH  54  78
BRANCH  66  89
ATOM     89  C   UNL A   1      44.918  33.535  29.195  1.00  0.00     0.023 A 
ATOM     90  C   UNL A   1      44.666  34.630  28.353  1.00  0.00     0.031 A 
ATOM     91  C   UNL A   1      45.665  33.751  30.366  1.00  0.00     0.131 A 
ATOM     92  C   UNL A   1      45.180  35.893  28.684  1.00  0.00     0.055 A 
ATOM     93  C   UNL A   1      46.135  35.017  30.713  1.00  0.00     0.041 A 
ATOM     94  F   UNL A   1      45.928  32.735  31.205  1.00  0.00    -0.206 F 
ATOM     95  C   UNL A   1      45.897  36.097  29.867  1.00  0.00     0.022 A 
BRANCH  92  96
ATOM     96  S   UNL A   1      44.921  37.270  27.532  1.00  0.00     0.124 S 
ATOM     97  O   UNL A   1      45.020  38.426  28.417  1.00  0.00    -0.237 OA
ATOM     98  O   UNL A   1      46.017  37.098  26.583  1.00  0.00    -0.237 OA
ATOM     99  O   UNL A   1      43.588  37.015  26.988  1.00  0.00    -0.744 OA
ENDBRANCH  92  96
ENDBRANCH  66  89
ENDBRANCH  40  41
ENDBRANCH  32  35
ENDBRANCH  30  31
ENDBRANCH  29  30
ENDBRANCH  28  29
ENDBRANCH   1  28
TORSDOF 21
ENDMDL
