MODEL 1
REMARK VINA RESULT:     -12.2      0.000      0.000
REMARK SMILES C[NH2+][C@@]1(C(=O)NCCCCNC(=O)c2ccc(-c3c4nc(c(-c5cc(S(=O)(=O)[O-])ccc5F)c5ccc([nH]5)c(-c5cc(S(=O)(=O)[O-])ccc5F)c5nc(c(-c6cc(S(=O)(=O)[O-])ccc6F)c6ccc3[nH]6)C=C5)C=C4)cc2)CCC[C@H]1CCSc1nccc(=O)[nH]1
REMARK SMILES IDX 8 1 7 2 6 3 4 4 5 5 3 7 77 8 80 9 78 10 79 11 2 12 1 13
REMARK SMILES IDX 81 16 82 17 83 18 84 19 85 20 90 21 86 22 88 23 87 25 89 26
REMARK SMILES IDX 9 27 10 28 11 29 12 30 13 32 14 33 15 34 76 35 16 36 75 37
REMARK SMILES IDX 17 38 18 39 19 40 69 41 20 42 74 43 68 44 70 45 21 46 73 47
REMARK SMILES IDX 67 48 66 49 22 51 54 52 34 53 53 54 35 55 38 56 52 57 71 58
REMARK SMILES IDX 36 59 37 60 51 62 72 63 39 64 23 65 24 66 32 67 25 68 31 69
REMARK SMILES IDX 33 70 30 71 26 72 27 73 28 74 29 75 55 76 56 77 64 78 57 79
REMARK SMILES IDX 63 80 65 81 62 82 58 83 59 84 60 85 61 86 40 87 41 88 49 89
REMARK SMILES IDX 42 90 48 91 50 92 47 93 43 94 44 95 45 96 46 97
REMARK H PARENT 6 6 2 14 2 15 90 24 11 31 70 50 38 61
REMARK Flexibility Score: inf
ROOT
ATOM      1  C   UNL A   1      32.568  29.248  24.397  1.00  0.00     0.023 C 
ENDROOT
BRANCH   1   2
ATOM      2  C   UNL A   1      31.994  28.108  23.569  1.00  0.00     0.116 C 
BRANCH   2   3
ATOM      3  N   UNL A   1      32.932  27.462  22.680  1.00  0.00    -0.351 N 
ATOM      4  C   UNL A   1      33.197  26.150  22.424  1.00  0.00     0.281 C 
ATOM      5  O   UNL A   1      33.661  25.965  21.287  1.00  0.00    -0.268 OA
ATOM      6  H   UNL A   1      33.485  28.089  22.161  1.00  0.00     0.163 HD
BRANCH   4   7
ATOM      7  C   UNL A   1      32.907  24.921  23.406  1.00  0.00     0.178 C 
ATOM      8  C   UNL A   1      33.283  25.345  24.852  1.00  0.00     0.079 C 
ATOM      9  C   UNL A   1      33.752  23.619  23.159  1.00  0.00     0.061 C 
ATOM     10  C   UNL A   1      34.677  24.840  25.137  1.00  0.00     0.008 C 
ATOM     11  C   UNL A   1      34.813  23.578  24.303  1.00  0.00     0.011 C 
BRANCH   7  12
ATOM     12  N   UNL A   1      31.430  24.637  23.502  1.00  0.00    -0.336 N 
ATOM     13  C   UNL A   1      30.817  24.660  24.826  1.00  0.00     0.331 C 
ATOM     14  H   UNL A   1      30.948  25.331  22.931  1.00  0.00     0.346 HD
ATOM     15  H   UNL A   1      31.334  23.670  23.192  1.00  0.00     0.346 HD
ENDBRANCH   7  12
BRANCH   9  16
ATOM     16  C   UNL A   1      33.030  22.242  23.205  1.00  0.00     0.022 C 
BRANCH  16  17
ATOM     17  C   UNL A   1      33.537  21.164  24.161  1.00  0.00     0.079 C 
BRANCH  17  18
ATOM     18  S   UNL A   1      32.213  20.332  25.091  1.00  0.00    -0.088 SA
BRANCH  18  19
ATOM     19  C   UNL A   1      32.678  18.668  24.983  1.00  0.00     0.168 A 
ATOM     20  N   UNL A   1      32.506  17.814  25.933  1.00  0.00    -0.233 NA
ATOM     21  N   UNL A   1      33.242  18.373  23.784  1.00  0.00    -0.301 N 
ATOM     22  C   UNL A   1      32.913  16.529  25.682  1.00  0.00     0.120 A 
ATOM     23  C   UNL A   1      33.651  17.112  23.475  1.00  0.00     0.251 A 
ATOM     24  H   UNL A   1      33.360  19.091  23.121  1.00  0.00     0.172 HD
ATOM     25  C   UNL A   1      33.462  16.113  24.538  1.00  0.00     0.091 A 
ATOM     26  O   UNL A   1      34.127  16.814  22.388  1.00  0.00    -0.269 OA
ENDBRANCH  18  19
ENDBRANCH  17  18
ENDBRANCH  16  17
ENDBRANCH   9  16
ENDBRANCH   4   7
ENDBRANCH   2   3
ENDBRANCH   1   2
BRANCH   1  27
ATOM     27  C   UNL A   1      31.574  30.017  25.261  1.00  0.00     0.023 C 
BRANCH  27  28
ATOM     28  C   UNL A   1      32.082  30.482  26.624  1.00  0.00     0.116 C 
BRANCH  28  29
ATOM     29  N   UNL A   1      31.980  31.916  26.849  1.00  0.00    -0.352 N 
ATOM     30  C   UNL A   1      32.899  32.765  27.428  1.00  0.00     0.251 C 
ATOM     31  H   UNL A   1      31.142  32.336  26.546  1.00  0.00     0.163 HD
ATOM     32  O   UNL A   1      32.631  33.950  27.574  1.00  0.00    -0.269 OA
BRANCH  30  33
ATOM     33  C   UNL A   1      34.181  32.214  27.922  1.00  0.00     0.039 A 
ATOM     34  C   UNL A   1      35.241  33.092  28.158  1.00  0.00     0.014 A 
ATOM     35  C   UNL A   1      34.310  30.855  28.218  1.00  0.00     0.014 A 
ATOM     36  C   UNL A   1      36.401  32.621  28.778  1.00  0.00     0.010 A 
ATOM     37  C   UNL A   1      35.434  30.404  28.903  1.00  0.00     0.010 A 
ATOM     38  C   UNL A   1      36.486  31.285  29.203  1.00  0.00    -0.014 A 
BRANCH  38  39
ATOM     39  C   UNL A   1      37.659  30.790  29.970  1.00  0.00     0.031 A 
ATOM     40  C   UNL A   1      38.625  29.830  29.332  1.00  0.00     0.074 A 
ATOM     41  C   UNL A   1      37.807  31.140  31.263  1.00  0.00     0.049 A 
ATOM     42  N   UNL A   1      39.651  29.212  29.859  1.00  0.00    -0.248 NA
ATOM     43  C   UNL A   1      38.381  29.496  27.921  1.00  0.00     0.031 C 
ATOM     44  C   UNL A   1      36.905  32.022  32.010  1.00  0.00     0.029 A 
ATOM     45  N   UNL A   1      38.761  30.790  32.185  1.00  0.00    -0.354 N 
ATOM     46  C   UNL A   1      40.162  28.401  28.851  1.00  0.00     0.074 A 
ATOM     47  C   UNL A   1      39.294  28.562  27.704  1.00  0.00     0.031 C 
ATOM     48  C   UNL A   1      37.364  32.160  33.265  1.00  0.00     0.029 A 
ATOM     49  C   UNL A   1      38.564  31.348  33.428  1.00  0.00     0.049 A 
ATOM     50  H   UNL A   1      39.518  30.195  31.977  1.00  0.00     0.167 HD
ATOM     51  C   UNL A   1      41.268  27.615  28.873  1.00  0.00     0.034 A 
ATOM     52  C   UNL A   1      39.267  31.213  34.570  1.00  0.00     0.034 A 
ATOM     53  C   UNL A   1      42.133  27.483  30.019  1.00  0.00     0.049 A 
ATOM     54  C   UNL A   1      40.492  30.336  34.571  1.00  0.00     0.074 A 
ATOM     55  C   UNL A   1      43.310  26.762  30.134  1.00  0.00     0.029 A 
ATOM     56  N   UNL A   1      41.916  28.081  31.254  1.00  0.00    -0.354 N 
ATOM     57  N   UNL A   1      40.994  29.616  33.594  1.00  0.00    -0.248 NA
ATOM     58  C   UNL A   1      41.254  30.263  35.825  1.00  0.00     0.031 C 
ATOM     59  C   UNL A   1      43.771  26.879  31.450  1.00  0.00     0.029 A 
ATOM     60  C   UNL A   1      42.921  27.728  32.141  1.00  0.00     0.049 A 
ATOM     61  H   UNL A   1      41.156  28.672  31.468  1.00  0.00     0.167 HD
ATOM     62  C   UNL A   1      42.147  29.030  34.108  1.00  0.00     0.074 A 
ATOM     63  C   UNL A   1      42.272  29.491  35.476  1.00  0.00     0.031 C 
ATOM     64  C   UNL A   1      43.026  28.190  33.505  1.00  0.00     0.034 A 
BRANCH  51  65
ATOM     65  C   UNL A   1      41.581  26.829  27.622  1.00  0.00     0.023 A 
ATOM     66  C   UNL A   1      41.251  25.466  27.508  1.00  0.00     0.031 A 
ATOM     67  C   UNL A   1      42.254  27.435  26.548  1.00  0.00     0.131 A 
ATOM     68  C   UNL A   1      41.671  24.735  26.386  1.00  0.00     0.055 A 
ATOM     69  C   UNL A   1      42.593  26.721  25.396  1.00  0.00     0.041 A 
ATOM     70  F   UNL A   1      42.613  28.727  26.606  1.00  0.00    -0.206 F 
ATOM     71  C   UNL A   1      42.317  25.359  25.317  1.00  0.00     0.022 A 
BRANCH  68  72
ATOM     72  S   UNL A   1      41.496  22.931  26.417  1.00  0.00     0.124 S 
ATOM     73  O   UNL A   1      42.151  22.593  27.678  1.00  0.00    -0.237 OA
ATOM     74  O   UNL A   1      40.049  22.752  26.380  1.00  0.00    -0.237 OA
ATOM     75  O   UNL A   1      42.209  22.497  25.217  1.00  0.00    -0.744 OA
ENDBRANCH  68  72
ENDBRANCH  51  65
BRANCH  52  76
ATOM     76  C   UNL A   1      38.835  31.917  35.812  1.00  0.00     0.023 A 
ATOM     77  C   UNL A   1      38.135  31.237  36.820  1.00  0.00     0.031 A 
ATOM     78  C   UNL A   1      39.083  33.290  35.990  1.00  0.00     0.131 A 
ATOM     79  C   UNL A   1      37.664  31.939  37.941  1.00  0.00     0.055 A 
ATOM     80  C   UNL A   1      38.655  33.974  37.129  1.00  0.00     0.041 A 
ATOM     81  F   UNL A   1      39.754  33.985  35.058  1.00  0.00    -0.206 F 
ATOM     82  C   UNL A   1      37.929  33.300  38.108  1.00  0.00     0.022 A 
BRANCH  79  83
ATOM     83  S   UNL A   1      36.629  31.061  39.144  1.00  0.00     0.124 S 
ATOM     84  O   UNL A   1      35.477  31.949  39.249  1.00  0.00    -0.237 OA
ATOM     85  O   UNL A   1      36.398  29.787  38.470  1.00  0.00    -0.237 OA
ATOM     86  O   UNL A   1      37.475  30.989  40.333  1.00  0.00    -0.744 OA
ENDBRANCH  79  83
ENDBRANCH  52  76
BRANCH  64  87
ATOM     87  C   UNL A   1      44.222  27.757  34.315  1.00  0.00     0.023 A 
ATOM     88  C   UNL A   1      44.204  26.590  35.098  1.00  0.00     0.031 A 
ATOM     89  C   UNL A   1      45.393  28.536  34.312  1.00  0.00     0.131 A 
ATOM     90  C   UNL A   1      45.315  26.263  35.889  1.00  0.00     0.055 A 
ATOM     91  C   UNL A   1      46.516  28.176  35.058  1.00  0.00     0.041 A 
ATOM     92  F   UNL A   1      45.464  29.661  33.583  1.00  0.00    -0.206 F 
ATOM     93  C   UNL A   1      46.477  27.041  35.862  1.00  0.00     0.022 A 
BRANCH  90  94
ATOM     94  S   UNL A   1      45.193  24.853  37.023  1.00  0.00     0.124 S 
ATOM     95  O   UNL A   1      44.777  23.778  36.129  1.00  0.00    -0.237 OA
ATOM     96  O   UNL A   1      46.550  24.757  37.548  1.00  0.00    -0.237 OA
ATOM     97  O   UNL A   1      44.184  25.278  37.992  1.00  0.00    -0.744 OA
ENDBRANCH  90  94
ENDBRANCH  64  87
ENDBRANCH  38  39
ENDBRANCH  30  33
ENDBRANCH  28  29
ENDBRANCH  27  28
ENDBRANCH   1  27
TORSDOF 19
ENDMDL
MODEL 2
REMARK VINA RESULT:     -11.8      2.140      2.384
REMARK SMILES C[NH2+][C@@]1(C(=O)NCCCCNC(=O)c2ccc(-c3c4nc(c(-c5cc(S(=O)(=O)[O-])ccc5F)c5ccc([nH]5)c(-c5cc(S(=O)(=O)[O-])ccc5F)c5nc(c(-c6cc(S(=O)(=O)[O-])ccc6F)c6ccc3[nH]6)C=C5)C=C4)cc2)CCC[C@H]1CCSc1nccc(=O)[nH]1
REMARK SMILES IDX 8 1 7 2 6 3 4 4 5 5 3 7 77 8 80 9 78 10 79 11 2 12 1 13
REMARK SMILES IDX 81 16 82 17 83 18 84 19 85 20 90 21 86 22 88 23 87 25 89 26
REMARK SMILES IDX 9 27 10 28 11 29 12 30 13 32 14 33 15 34 76 35 16 36 75 37
REMARK SMILES IDX 17 38 18 39 19 40 69 41 20 42 74 43 68 44 70 45 21 46 73 47
REMARK SMILES IDX 67 48 66 49 22 51 54 52 34 53 53 54 35 55 38 56 52 57 71 58
REMARK SMILES IDX 36 59 37 60 51 62 72 63 39 64 23 65 24 66 32 67 25 68 31 69
REMARK SMILES IDX 33 70 30 71 26 72 27 73 28 74 29 75 55 76 56 77 64 78 57 79
REMARK SMILES IDX 63 80 65 81 62 82 58 83 59 84 60 85 61 86 40 87 41 88 49 89
REMARK SMILES IDX 42 90 48 91 50 92 47 93 43 94 44 95 45 96 46 97
REMARK H PARENT 6 6 2 14 2 15 90 24 11 31 70 50 38 61
REMARK Flexibility Score: inf
ROOT
ATOM      1  C   UNL A   1      31.741  28.862  24.181  1.00  0.00     0.023 C 
ENDROOT
BRANCH   1   2
ATOM      2  C   UNL A   1      33.009  28.061  24.436  1.00  0.00     0.116 C 
BRANCH   2   3
ATOM      3  N   UNL A   1      33.587  27.439  23.268  1.00  0.00    -0.351 N 
ATOM      4  C   UNL A   1      33.597  26.149  22.827  1.00  0.00     0.281 C 
ATOM      5  O   UNL A   1      33.717  26.062  21.595  1.00  0.00    -0.268 OA
ATOM      6  H   UNL A   1      34.063  28.065  22.677  1.00  0.00     0.163 HD
BRANCH   4   7
ATOM      7  C   UNL A   1      33.410  24.843  23.732  1.00  0.00     0.178 C 
ATOM      8  C   UNL A   1      34.124  25.078  25.091  1.00  0.00     0.079 C 
ATOM      9  C   UNL A   1      34.059  23.520  23.184  1.00  0.00     0.061 C 
ATOM     10  C   UNL A   1      35.495  24.448  25.011  1.00  0.00     0.008 C 
ATOM     11  C   UNL A   1      35.331  23.279  24.055  1.00  0.00     0.011 C 
BRANCH   7  12
ATOM     12  N   UNL A   1      31.968  24.654  24.127  1.00  0.00    -0.336 N 
ATOM     13  C   UNL A   1      31.628  24.781  25.541  1.00  0.00     0.331 C 
ATOM     14  H   UNL A   1      31.420  25.347  23.619  1.00  0.00     0.346 HD
ATOM     15  H   UNL A   1      31.765  23.681  23.900  1.00  0.00     0.346 HD
ENDBRANCH   7  12
BRANCH   9  16
ATOM     16  C   UNL A   1      33.238  22.201  23.263  1.00  0.00     0.022 C 
BRANCH  16  17
ATOM     17  C   UNL A   1      33.704  21.086  24.199  1.00  0.00     0.079 C 
BRANCH  17  18
ATOM     18  S   UNL A   1      32.358  20.340  25.169  1.00  0.00    -0.088 SA
BRANCH  18  19
ATOM     19  C   UNL A   1      32.701  18.648  25.030  1.00  0.00     0.168 A 
ATOM     20  N   UNL A   1      32.437  17.786  25.953  1.00  0.00    -0.233 NA
ATOM     21  N   UNL A   1      33.276  18.340  23.841  1.00  0.00    -0.301 N 
ATOM     22  C   UNL A   1      32.755  16.481  25.680  1.00  0.00     0.120 A 
ATOM     23  C   UNL A   1      33.599  17.060  23.510  1.00  0.00     0.251 A 
ATOM     24  H   UNL A   1      33.467  19.062  23.200  1.00  0.00     0.172 HD
ATOM     25  C   UNL A   1      33.305  16.053  24.541  1.00  0.00     0.091 A 
ATOM     26  O   UNL A   1      34.083  16.752  22.429  1.00  0.00    -0.269 OA
ENDBRANCH  18  19
ENDBRANCH  17  18
ENDBRANCH  16  17
ENDBRANCH   9  16
ENDBRANCH   4   7
ENDBRANCH   2   3
ENDBRANCH   1   2
BRANCH   1  27
ATOM     27  C   UNL A   1      31.267  29.752  25.325  1.00  0.00     0.023 C 
BRANCH  27  28
ATOM     28  C   UNL A   1      32.358  30.377  26.192  1.00  0.00     0.116 C 
BRANCH  28  29
ATOM     29  N   UNL A   1      32.081  31.739  26.622  1.00  0.00    -0.352 N 
ATOM     30  C   UNL A   1      32.876  32.586  27.366  1.00  0.00     0.251 C 
ATOM     31  H   UNL A   1      31.210  32.105  26.345  1.00  0.00     0.163 HD
ATOM     32  O   UNL A   1      32.467  33.697  27.673  1.00  0.00    -0.269 OA
BRANCH  30  33
ATOM     33  C   UNL A   1      34.198  32.111  27.834  1.00  0.00     0.039 A 
ATOM     34  C   UNL A   1      35.236  33.038  27.960  1.00  0.00     0.014 A 
ATOM     35  C   UNL A   1      34.388  30.780  28.212  1.00  0.00     0.014 A 
ATOM     36  C   UNL A   1      36.438  32.647  28.555  1.00  0.00     0.010 A 
ATOM     37  C   UNL A   1      35.558  30.414  28.872  1.00  0.00     0.010 A 
ATOM     38  C   UNL A   1      36.590  31.346  29.062  1.00  0.00    -0.014 A 
BRANCH  38  39
ATOM     39  C   UNL A   1      37.813  30.943  29.804  1.00  0.00     0.031 A 
ATOM     40  C   UNL A   1      38.782  29.972  29.187  1.00  0.00     0.074 A 
ATOM     41  C   UNL A   1      38.008  31.387  31.062  1.00  0.00     0.049 A 
ATOM     42  N   UNL A   1      39.851  29.424  29.705  1.00  0.00    -0.248 NA
ATOM     43  C   UNL A   1      38.484  29.533  27.816  1.00  0.00     0.031 C 
ATOM     44  C   UNL A   1      37.111  32.291  31.790  1.00  0.00     0.029 A 
ATOM     45  N   UNL A   1      39.015  31.132  31.959  1.00  0.00    -0.354 N 
ATOM     46  C   UNL A   1      40.343  28.561  28.732  1.00  0.00     0.074 A 
ATOM     47  C   UNL A   1      39.418  28.614  27.620  1.00  0.00     0.031 C 
ATOM     48  C   UNL A   1      37.622  32.530  33.008  1.00  0.00     0.029 A 
ATOM     49  C   UNL A   1      38.856  31.769  33.168  1.00  0.00     0.049 A 
ATOM     50  H   UNL A   1      39.781  30.547  31.755  1.00  0.00     0.167 HD
ATOM     51  C   UNL A   1      41.475  27.814  28.754  1.00  0.00     0.034 A 
ATOM     52  C   UNL A   1      39.614  31.736  34.282  1.00  0.00     0.034 A 
ATOM     53  C   UNL A   1      42.396  27.788  29.864  1.00  0.00     0.049 A 
ATOM     54  C   UNL A   1      40.868  30.900  34.284  1.00  0.00     0.074 A 
ATOM     55  C   UNL A   1      43.601  27.114  29.971  1.00  0.00     0.029 A 
ATOM     56  N   UNL A   1      42.215  28.464  31.064  1.00  0.00    -0.354 N 
ATOM     57  N   UNL A   1      41.349  30.129  33.335  1.00  0.00    -0.248 NA
ATOM     58  C   UNL A   1      41.688  30.938  35.502  1.00  0.00     0.031 C 
ATOM     59  C   UNL A   1      44.117  27.337  31.252  1.00  0.00     0.029 A 
ATOM     60  C   UNL A   1      43.271  28.205  31.923  1.00  0.00     0.049 A 
ATOM     61  H   UNL A   1      41.446  29.044  31.273  1.00  0.00     0.167 HD
ATOM     62  C   UNL A   1      42.543  29.616  33.833  1.00  0.00     0.074 A 
ATOM     63  C   UNL A   1      42.716  30.176  35.158  1.00  0.00     0.031 C 
ATOM     64  C   UNL A   1      43.422  28.764  33.246  1.00  0.00     0.034 A 
BRANCH  51  65
ATOM     65  C   UNL A   1      41.757  26.952  27.546  1.00  0.00     0.023 A 
ATOM     66  C   UNL A   1      41.383  25.597  27.505  1.00  0.00     0.031 A 
ATOM     67  C   UNL A   1      42.445  27.478  26.439  1.00  0.00     0.131 A 
ATOM     68  C   UNL A   1      41.774  24.794  26.424  1.00  0.00     0.055 A 
ATOM     69  C   UNL A   1      42.756  26.693  25.326  1.00  0.00     0.041 A 
ATOM     70  F   UNL A   1      42.845  28.759  26.428  1.00  0.00    -0.206 F 
ATOM     71  C   UNL A   1      42.436  25.338  25.321  1.00  0.00     0.022 A 
BRANCH  68  72
ATOM     72  S   UNL A   1      41.542  23.000  26.551  1.00  0.00     0.124 S 
ATOM     73  O   UNL A   1      42.008  22.738  27.910  1.00  0.00    -0.237 OA
ATOM     74  O   UNL A   1      40.108  22.850  26.326  1.00  0.00    -0.237 OA
ATOM     75  O   UNL A   1      42.398  22.467  25.493  1.00  0.00    -0.744 OA
ENDBRANCH  68  72
ENDBRANCH  51  65
BRANCH  52  76
ATOM     76  C   UNL A   1      39.216  32.511  35.492  1.00  0.00     0.023 A 
ATOM     77  C   UNL A   1      39.655  33.832  35.678  1.00  0.00     0.031 A 
ATOM     78  C   UNL A   1      38.425  31.930  36.499  1.00  0.00     0.131 A 
ATOM     79  C   UNL A   1      39.339  34.514  36.864  1.00  0.00     0.055 A 
ATOM     80  C   UNL A   1      38.073  32.629  37.655  1.00  0.00     0.041 A 
ATOM     81  F   UNL A   1      37.975  30.672  36.366  1.00  0.00    -0.206 F 
ATOM     82  C   UNL A   1      38.542  33.925  37.848  1.00  0.00     0.022 A 
BRANCH  79  83
ATOM     83  S   UNL A   1      40.054  36.158  37.137  1.00  0.00     0.124 S 
ATOM     84  O   UNL A   1      41.430  35.829  37.490  1.00  0.00    -0.237 OA
ATOM     85  O   UNL A   1      39.860  36.791  35.837  1.00  0.00    -0.237 OA
ATOM     86  O   UNL A   1      39.243  36.706  38.222  1.00  0.00    -0.744 OA
ENDBRANCH  79  83
ENDBRANCH  52  76
BRANCH  64  87
ATOM     87  C   UNL A   1      44.669  28.426  34.025  1.00  0.00     0.023 A 
ATOM     88  C   UNL A   1      45.841  29.194  33.917  1.00  0.00     0.031 A 
ATOM     89  C   UNL A   1      44.685  27.308  34.877  1.00  0.00     0.131 A 
ATOM     90  C   UNL A   1      46.998  28.803  34.608  1.00  0.00     0.055 A 
ATOM     91  C   UNL A   1      45.822  26.955  35.605  1.00  0.00     0.041 A 
ATOM     92  F   UNL A   1      43.593  26.538  35.016  1.00  0.00    -0.206 F 
ATOM     93  C   UNL A   1      46.991  27.697  35.463  1.00  0.00     0.022 A 
BRANCH  90  94
ATOM     94  S   UNL A   1      48.540  29.708  34.307  1.00  0.00     0.124 S 
ATOM     95  O   UNL A   1      49.060  29.883  35.659  1.00  0.00    -0.237 OA
ATOM     96  O   UNL A   1      49.281  28.786  33.453  1.00  0.00    -0.237 OA
ATOM     97  O   UNL A   1      48.095  30.937  33.650  1.00  0.00    -0.744 OA
ENDBRANCH  90  94
ENDBRANCH  64  87
ENDBRANCH  38  39
ENDBRANCH  30  33
ENDBRANCH  28  29
ENDBRANCH  27  28
ENDBRANCH   1  27
TORSDOF 19
ENDMDL
MODEL 3
REMARK VINA RESULT:     -11.8      2.699      8.593
REMARK SMILES C[NH2+][C@@]1(C(=O)NCCCCNC(=O)c2ccc(-c3c4nc(c(-c5cc(S(=O)(=O)[O-])ccc5F)c5ccc([nH]5)c(-c5cc(S(=O)(=O)[O-])ccc5F)c5nc(c(-c6cc(S(=O)(=O)[O-])ccc6F)c6ccc3[nH]6)C=C5)C=C4)cc2)CCC[C@H]1CCSc1nccc(=O)[nH]1
REMARK SMILES IDX 8 1 7 2 6 3 4 4 5 5 3 7 77 8 80 9 78 10 79 11 2 12 1 13
REMARK SMILES IDX 81 16 82 17 83 18 84 19 85 20 90 21 86 22 88 23 87 25 89 26
REMARK SMILES IDX 9 27 10 28 11 29 12 30 13 32 14 33 15 34 76 35 16 36 75 37
REMARK SMILES IDX 17 38 18 39 19 40 69 41 20 42 74 43 68 44 70 45 21 46 73 47
REMARK SMILES IDX 67 48 66 49 22 51 54 52 34 53 53 54 35 55 38 56 52 57 71 58
REMARK SMILES IDX 36 59 37 60 51 62 72 63 39 64 23 65 24 66 32 67 25 68 31 69
REMARK SMILES IDX 33 70 30 71 26 72 27 73 28 74 29 75 55 76 56 77 64 78 57 79
REMARK SMILES IDX 63 80 65 81 62 82 58 83 59 84 60 85 61 86 40 87 41 88 49 89
REMARK SMILES IDX 42 90 48 91 50 92 47 93 43 94 44 95 45 96 46 97
REMARK H PARENT 6 6 2 14 2 15 90 24 11 31 70 50 38 61
REMARK Flexibility Score: inf
ROOT
ATOM      1  C   UNL A   1      31.601  27.898  26.944  1.00  0.00     0.023 C 
ENDROOT
BRANCH   1   2
ATOM      2  C   UNL A   1      31.167  26.786  26.001  1.00  0.00     0.116 C 
BRANCH   2   3
ATOM      3  N   UNL A   1      30.975  25.496  26.620  1.00  0.00    -0.351 N 
ATOM      4  C   UNL A   1      31.681  24.332  26.548  1.00  0.00     0.281 C 
ATOM      5  O   UNL A   1      31.549  23.625  27.561  1.00  0.00    -0.268 OA
ATOM      6  H   UNL A   1      30.186  25.448  27.205  1.00  0.00     0.163 HD
BRANCH   4   7
ATOM      7  C   UNL A   1      32.647  23.888  25.353  1.00  0.00     0.178 C 
ATOM      8  C   UNL A   1      33.622  22.802  25.885  1.00  0.00     0.079 C 
ATOM      9  C   UNL A   1      33.595  25.001  24.775  1.00  0.00     0.061 C 
ATOM     10  C   UNL A   1      34.916  23.484  26.263  1.00  0.00     0.008 C 
ATOM     11  C   UNL A   1      35.018  24.673  25.324  1.00  0.00     0.011 C 
BRANCH   7  12
ATOM     12  N   UNL A   1      31.883  23.167  24.273  1.00  0.00    -0.336 N 
ATOM     13  C   UNL A   1      32.174  21.752  24.061  1.00  0.00     0.331 C 
ATOM     14  H   UNL A   1      30.892  23.243  24.498  1.00  0.00     0.346 HD
ATOM     15  H   UNL A   1      32.173  23.621  23.407  1.00  0.00     0.346 HD
ENDBRANCH   7  12
BRANCH   9  16
ATOM     16  C   UNL A   1      33.754  25.115  23.232  1.00  0.00     0.022 C 
BRANCH  16  17
ATOM     17  C   UNL A   1      32.784  25.995  22.444  1.00  0.00     0.079 C 
BRANCH  17  18
ATOM     18  S   UNL A   1      33.257  27.752  22.411  1.00  0.00    -0.088 SA
BRANCH  18  19
ATOM     19  C   UNL A   1      31.755  28.541  22.761  1.00  0.00     0.168 A 
ATOM     20  N   UNL A   1      30.666  28.328  22.107  1.00  0.00    -0.233 NA
ATOM     21  N   UNL A   1      31.864  29.405  23.802  1.00  0.00    -0.301 N 
ATOM     22  C   UNL A   1      29.557  29.020  22.521  1.00  0.00     0.120 A 
ATOM     23  C   UNL A   1      30.794  30.107  24.266  1.00  0.00     0.251 A 
ATOM     24  H   UNL A   1      32.741  29.528  24.233  1.00  0.00     0.172 HD
ATOM     25  C   UNL A   1      29.534  29.881  23.542  1.00  0.00     0.091 A 
ATOM     26  O   UNL A   1      30.859  30.862  25.227  1.00  0.00    -0.269 OA
ENDBRANCH  18  19
ENDBRANCH  17  18
ENDBRANCH  16  17
ENDBRANCH   9  16
ENDBRANCH   4   7
ENDBRANCH   2   3
ENDBRANCH   1   2
BRANCH   1  27
ATOM     27  C   UNL A   1      33.088  27.958  27.273  1.00  0.00     0.023 C 
BRANCH  27  28
ATOM     28  C   UNL A   1      33.913  28.977  26.490  1.00  0.00     0.116 C 
BRANCH  28  29
ATOM     29  N   UNL A   1      33.543  30.364  26.727  1.00  0.00    -0.352 N 
ATOM     30  C   UNL A   1      34.175  31.301  27.516  1.00  0.00     0.251 C 
ATOM     31  H   UNL A   1      32.733  30.675  26.261  1.00  0.00     0.163 HD
ATOM     32  O   UNL A   1      33.701  32.423  27.633  1.00  0.00    -0.269 OA
BRANCH  30  33
ATOM     33  C   UNL A   1      35.394  30.914  28.262  1.00  0.00     0.039 A 
ATOM     34  C   UNL A   1      35.305  29.888  29.205  1.00  0.00     0.014 A 
ATOM     35  C   UNL A   1      36.626  31.509  27.980  1.00  0.00     0.014 A 
ATOM     36  C   UNL A   1      36.469  29.395  29.798  1.00  0.00     0.010 A 
ATOM     37  C   UNL A   1      37.790  30.966  28.515  1.00  0.00     0.010 A 
ATOM     38  C   UNL A   1      37.726  29.895  29.419  1.00  0.00    -0.014 A 
BRANCH  38  39
ATOM     39  C   UNL A   1      38.984  29.306  29.947  1.00  0.00     0.031 A 
ATOM     40  C   UNL A   1      39.639  29.897  31.166  1.00  0.00     0.074 A 
ATOM     41  C   UNL A   1      39.578  28.294  29.283  1.00  0.00     0.049 A 
ATOM     42  N   UNL A   1      40.782  29.591  31.724  1.00  0.00    -0.248 NA
ATOM     43  C   UNL A   1      38.926  31.004  31.820  1.00  0.00     0.031 C 
ATOM     44  C   UNL A   1      39.068  27.671  28.058  1.00  0.00     0.029 A 
ATOM     45  N   UNL A   1      40.746  27.618  29.534  1.00  0.00    -0.354 N 
ATOM     46  C   UNL A   1      40.935  30.480  32.783  1.00  0.00     0.074 A 
ATOM     47  C   UNL A   1      39.797  31.374  32.746  1.00  0.00     0.031 C 
ATOM     48  C   UNL A   1      39.906  26.691  27.681  1.00  0.00     0.029 A 
ATOM     49  C   UNL A   1      41.031  26.641  28.608  1.00  0.00     0.049 A 
ATOM     50  H   UNL A   1      41.325  27.813  30.307  1.00  0.00     0.167 HD
ATOM     51  C   UNL A   1      41.920  30.530  33.714  1.00  0.00     0.034 A 
ATOM     52  C   UNL A   1      42.085  25.806  28.512  1.00  0.00     0.034 A 
ATOM     53  C   UNL A   1      43.037  29.618  33.747  1.00  0.00     0.049 A 
ATOM     54  C   UNL A   1      43.168  25.877  29.558  1.00  0.00     0.074 A 
ATOM     55  C   UNL A   1      44.060  29.539  34.677  1.00  0.00     0.029 A 
ATOM     56  N   UNL A   1      43.282  28.626  32.806  1.00  0.00    -0.354 N 
ATOM     57  N   UNL A   1      43.272  26.690  30.585  1.00  0.00    -0.248 NA
ATOM     58  C   UNL A   1      44.268  24.912  29.440  1.00  0.00     0.031 C 
ATOM     59  C   UNL A   1      44.951  28.540  34.267  1.00  0.00     0.029 A 
ATOM     60  C   UNL A   1      44.450  27.947  33.119  1.00  0.00     0.049 A 
ATOM     61  H   UNL A   1      42.708  28.433  32.028  1.00  0.00     0.167 HD
ATOM     62  C   UNL A   1      44.434  26.311  31.251  1.00  0.00     0.074 A 
ATOM     63  C   UNL A   1      44.986  25.190  30.518  1.00  0.00     0.031 C 
ATOM     64  C   UNL A   1      44.992  26.838  32.371  1.00  0.00     0.034 A 
BRANCH  51  65
ATOM     65  C   UNL A   1      41.833  31.622  34.754  1.00  0.00     0.023 A 
ATOM     66  C   UNL A   1      40.881  31.578  35.789  1.00  0.00     0.031 A 
ATOM     67  C   UNL A   1      42.682  32.740  34.688  1.00  0.00     0.131 A 
ATOM     68  C   UNL A   1      40.742  32.669  36.659  1.00  0.00     0.055 A 
ATOM     69  C   UNL A   1      42.596  33.784  35.612  1.00  0.00     0.041 A 
ATOM     70  F   UNL A   1      43.598  32.847  33.713  1.00  0.00    -0.206 F 
ATOM     71  C   UNL A   1      41.611  33.761  36.595  1.00  0.00     0.022 A 
BRANCH  68  72
ATOM     72  S   UNL A   1      39.313  32.708  37.775  1.00  0.00     0.124 S 
ATOM     73  O   UNL A   1      38.737  34.015  37.471  1.00  0.00    -0.237 OA
ATOM     74  O   UNL A   1      38.540  31.551  37.337  1.00  0.00    -0.237 OA
ATOM     75  O   UNL A   1      39.912  32.592  39.103  1.00  0.00    -0.744 OA
ENDBRANCH  68  72
ENDBRANCH  51  65
BRANCH  52  76
ATOM     76  C   UNL A   1      42.179  24.831  27.387  1.00  0.00     0.023 A 
ATOM     77  C   UNL A   1      41.465  23.623  27.420  1.00  0.00     0.031 A 
ATOM     78  C   UNL A   1      43.014  25.075  26.283  1.00  0.00     0.131 A 
ATOM     79  C   UNL A   1      41.634  22.682  26.392  1.00  0.00     0.055 A 
ATOM     80  C   UNL A   1      43.141  24.158  25.239  1.00  0.00     0.041 A 
ATOM     81  F   UNL A   1      43.712  26.219  26.200  1.00  0.00    -0.206 F 
ATOM     82  C   UNL A   1      42.458  22.946  25.296  1.00  0.00     0.022 A 
BRANCH  79  83
ATOM     83  S   UNL A   1      40.818  21.070  26.547  1.00  0.00     0.124 S 
ATOM     84  O   UNL A   1      40.778  20.896  27.995  1.00  0.00    -0.237 OA
ATOM     85  O   UNL A   1      39.536  21.315  25.895  1.00  0.00    -0.237 OA
ATOM     86  O   UNL A   1      41.716  20.164  25.834  1.00  0.00    -0.744 OA
ENDBRANCH  79  83
ENDBRANCH  52  76
BRANCH  64  87
ATOM     87  C   UNL A   1      46.242  26.171  32.888  1.00  0.00     0.023 A 
ATOM     88  C   UNL A   1      46.188  25.093  33.788  1.00  0.00     0.031 A 
ATOM     89  C   UNL A   1      47.507  26.635  32.484  1.00  0.00     0.131 A 
ATOM     90  C   UNL A   1      47.377  24.548  34.297  1.00  0.00     0.055 A 
ATOM     91  C   UNL A   1      48.686  26.053  32.950  1.00  0.00     0.041 A 
ATOM     92  F   UNL A   1      47.615  27.663  31.627  1.00  0.00    -0.206 F 
ATOM     93  C   UNL A   1      48.625  25.012  33.871  1.00  0.00     0.022 A 
BRANCH  90  94
ATOM     94  S   UNL A   1      47.271  23.282  35.591  1.00  0.00     0.124 S 
ATOM     95  O   UNL A   1      46.781  24.050  36.730  1.00  0.00    -0.237 OA
ATOM     96  O   UNL A   1      46.332  22.325  35.015  1.00  0.00    -0.237 OA
ATOM     97  O   UNL A   1      48.647  22.800  35.713  1.00  0.00    -0.744 OA
ENDBRANCH  90  94
ENDBRANCH  64  87
ENDBRANCH  38  39
ENDBRANCH  30  33
ENDBRANCH  28  29
ENDBRANCH  27  28
ENDBRANCH   1  27
TORSDOF 19
ENDMDL
