MODEL 1
REMARK VINA RESULT:     -13.1      0.000      0.000
REMARK SMILES COc1ccccc1-n1nnc(C(=O)NCCCCNC(=O)c2ccc(-c3c4nc(c(-c5cc(S(=O)(=O)[O-])ccc5F)c5ccc([nH]5)c(-c5cc(S(=O)(=O)[O-])ccc5F)c5nc(c(-c6cc(S(=O)(=O)[O-])ccc6F)c6ccc3[nH]6)C=C5)C=C4)cc2)c1-c1ccc(Cl)cc1
REMARK SMILES IDX 18 1 17 2 16 3 15 4 13 5 14 6 12 8 9 9 10 10 86 11 11 12
REMARK SMILES IDX 8 13 3 14 4 15 5 16 7 17 6 18 2 19 1 20 87 21 88 22 93 23
REMARK SMILES IDX 89 24 92 25 90 26 91 27 19 28 20 29 21 30 22 32 23 33 24 34
REMARK SMILES IDX 85 35 25 36 84 37 26 38 27 39 28 40 78 41 29 42 83 43 77 44
REMARK SMILES IDX 79 45 30 46 82 47 76 48 75 49 31 51 63 52 43 53 62 54 44 55
REMARK SMILES IDX 47 56 61 57 80 58 45 59 46 60 60 62 81 63 48 64 32 65 33 66
REMARK SMILES IDX 41 67 34 68 40 69 42 70 39 71 35 72 36 73 37 74 38 75 64 76
REMARK SMILES IDX 65 77 73 78 66 79 72 80 74 81 71 82 67 83 68 84 69 85 70 86
REMARK SMILES IDX 49 87 50 88 58 89 51 90 57 91 59 92 56 93 52 94 53 95 54 96
REMARK SMILES IDX 55 97
REMARK H PARENT 15 7 20 31 79 50 47 61
REMARK Flexibility Score: inf
ROOT
ATOM      1  C   UNL A   1      33.484  28.802  27.256  1.00  0.00     0.023 C 
ENDROOT
BRANCH   1   2
ATOM      2  C   UNL A   1      33.107  28.506  25.806  1.00  0.00     0.023 C 
BRANCH   2   3
ATOM      3  C   UNL A   1      33.981  27.562  24.990  1.00  0.00     0.116 C 
BRANCH   3   4
ATOM      4  N   UNL A   1      34.015  27.656  23.558  1.00  0.00    -0.351 N 
ATOM      5  C   UNL A   1      33.493  26.763  22.631  1.00  0.00     0.274 C 
ATOM      6  O   UNL A   1      33.628  27.091  21.448  1.00  0.00    -0.267 OA
ATOM      7  H   UNL A   1      34.462  28.453  23.188  1.00  0.00     0.163 HD
BRANCH   5   8
ATOM      8  C   UNL A   1      32.875  25.461  22.975  1.00  0.00     0.178 A 
ATOM      9  N   UNL A   1      32.190  23.449  23.566  1.00  0.00    -0.208 N 
ATOM     10  N   UNL A   1      31.205  24.015  22.843  1.00  0.00    -0.061 NA
ATOM     11  C   UNL A   1      33.309  24.288  23.603  1.00  0.00     0.108 A 
ATOM     12  N   UNL A   1      31.561  25.259  22.578  1.00  0.00    -0.124 NA
BRANCH   9  13
ATOM     13  C   UNL A   1      32.111  22.097  23.989  1.00  0.00     0.109 A 
ATOM     14  C   UNL A   1      32.171  21.738  25.343  1.00  0.00     0.144 A 
ATOM     15  C   UNL A   1      32.487  20.419  25.684  1.00  0.00     0.049 A 
ATOM     16  C   UNL A   1      32.682  19.456  24.693  1.00  0.00     0.004 A 
ATOM     17  C   UNL A   1      32.226  21.111  22.993  1.00  0.00     0.032 A 
ATOM     18  C   UNL A   1      32.530  19.796  23.351  1.00  0.00     0.003 A 
BRANCH  14  19
ATOM     19  O   UNL A   1      32.047  22.582  26.413  1.00  0.00    -0.494 OA
ATOM     20  C   UNL A   1      30.715  22.979  26.734  1.00  0.00     0.278 C 
ENDBRANCH  14  19
ENDBRANCH   9  13
BRANCH  11  21
ATOM     21  C   UNL A   1      34.606  23.784  24.054  1.00  0.00     0.003 A 
ATOM     22  C   UNL A   1      35.422  22.994  23.241  1.00  0.00     0.012 A 
ATOM     23  C   UNL A   1      35.030  24.100  25.362  1.00  0.00     0.012 A 
ATOM     24  C   UNL A   1      36.641  22.520  23.736  1.00  0.00     0.021 A 
ATOM     25  C   UNL A   1      36.231  23.603  25.860  1.00  0.00     0.021 A 
ATOM     26  C   UNL A   1      37.032  22.815  25.043  1.00  0.00     0.041 A 
ATOM     27  Cl  UNL A   1      38.511  22.203  25.662  1.00  0.00    -0.084 Cl
ENDBRANCH  11  21
ENDBRANCH   5   8
ENDBRANCH   3   4
ENDBRANCH   2   3
ENDBRANCH   1   2
BRANCH   1  28
ATOM     28  C   UNL A   1      34.964  29.011  27.554  1.00  0.00     0.116 C 
BRANCH  28  29
ATOM     29  N   UNL A   1      35.271  30.010  28.575  1.00  0.00    -0.352 N 
ATOM     30  C   UNL A   1      36.411  30.030  29.382  1.00  0.00     0.251 C 
ATOM     31  H   UNL A   1      34.616  30.734  28.706  1.00  0.00     0.163 HD
ATOM     32  O   UNL A   1      36.420  30.613  30.447  1.00  0.00    -0.269 OA
BRANCH  30  33
ATOM     33  C   UNL A   1      37.602  29.288  28.905  1.00  0.00     0.039 A 
ATOM     34  C   UNL A   1      38.293  29.677  27.758  1.00  0.00     0.014 A 
ATOM     35  C   UNL A   1      38.082  28.252  29.702  1.00  0.00     0.014 A 
ATOM     36  C   UNL A   1      39.542  29.106  27.504  1.00  0.00     0.010 A 
ATOM     37  C   UNL A   1      39.362  27.779  29.521  1.00  0.00     0.010 A 
ATOM     38  C   UNL A   1      40.101  28.196  28.421  1.00  0.00    -0.014 A 
BRANCH  38  39
ATOM     39  C   UNL A   1      41.517  27.833  28.332  1.00  0.00     0.031 A 
ATOM     40  C   UNL A   1      41.791  26.588  27.559  1.00  0.00     0.074 A 
ATOM     41  C   UNL A   1      42.551  28.620  28.703  1.00  0.00     0.049 A 
ATOM     42  N   UNL A   1      42.172  25.447  28.026  1.00  0.00    -0.248 NA
ATOM     43  C   UNL A   1      41.465  26.557  26.124  1.00  0.00     0.031 C 
ATOM     44  C   UNL A   1      42.522  29.994  29.210  1.00  0.00     0.029 A 
ATOM     45  N   UNL A   1      43.886  28.366  28.607  1.00  0.00    -0.354 N 
ATOM     46  C   UNL A   1      42.364  24.617  26.928  1.00  0.00     0.074 A 
ATOM     47  C   UNL A   1      41.728  25.284  25.822  1.00  0.00     0.031 C 
ATOM     48  C   UNL A   1      43.766  30.523  29.159  1.00  0.00     0.029 A 
ATOM     49  C   UNL A   1      44.702  29.477  28.791  1.00  0.00     0.049 A 
ATOM     50  H   UNL A   1      44.245  27.467  28.423  1.00  0.00     0.167 HD
ATOM     51  C   UNL A   1      43.224  23.561  26.985  1.00  0.00     0.034 A 
ATOM     52  C   UNL A   1      46.054  29.543  28.654  1.00  0.00     0.034 A 
ATOM     53  C   UNL A   1      43.564  23.245  28.356  1.00  0.00     0.049 A 
ATOM     54  C   UNL A   1      46.564  28.165  28.858  1.00  0.00     0.074 A 
ATOM     55  C   UNL A   1      42.825  22.932  29.483  1.00  0.00     0.029 A 
ATOM     56  N   UNL A   1      44.794  23.647  28.835  1.00  0.00    -0.354 N 
ATOM     57  N   UNL A   1      46.457  27.528  29.993  1.00  0.00    -0.248 NA
ATOM     58  C   UNL A   1      46.743  27.315  27.692  1.00  0.00     0.031 C 
ATOM     59  C   UNL A   1      43.435  23.679  30.535  1.00  0.00     0.029 A 
ATOM     60  C   UNL A   1      44.565  24.314  30.016  1.00  0.00     0.049 A 
ATOM     61  H   UNL A   1      45.668  23.486  28.411  1.00  0.00     0.167 HD
ATOM     62  C   UNL A   1      46.100  26.235  29.647  1.00  0.00     0.074 A 
ATOM     63  C   UNL A   1      46.395  26.136  28.217  1.00  0.00     0.031 C 
ATOM     64  C   UNL A   1      45.341  25.455  30.476  1.00  0.00     0.034 A 
BRANCH  51  65
ATOM     65  C   UNL A   1      44.022  23.021  25.817  1.00  0.00     0.023 A 
ATOM     66  C   UNL A   1      44.015  21.627  25.609  1.00  0.00     0.031 A 
ATOM     67  C   UNL A   1      44.986  23.744  25.081  1.00  0.00     0.131 A 
ATOM     68  C   UNL A   1      44.980  21.012  24.791  1.00  0.00     0.055 A 
ATOM     69  C   UNL A   1      45.897  23.135  24.212  1.00  0.00     0.041 A 
ATOM     70  F   UNL A   1      45.172  25.060  25.227  1.00  0.00    -0.206 F 
ATOM     71  C   UNL A   1      45.920  21.757  24.087  1.00  0.00     0.022 A 
BRANCH  68  72
ATOM     72  S   UNL A   1      45.100  19.203  24.810  1.00  0.00     0.124 S 
ATOM     73  O   UNL A   1      44.951  18.884  23.394  1.00  0.00    -0.237 OA
ATOM     74  O   UNL A   1      46.426  18.997  25.381  1.00  0.00    -0.237 OA
ATOM     75  O   UNL A   1      43.985  18.798  25.662  1.00  0.00    -0.744 OA
ENDBRANCH  68  72
ENDBRANCH  51  65
BRANCH  52  76
ATOM     76  C   UNL A   1      46.850  30.659  28.072  1.00  0.00     0.023 A 
ATOM     77  C   UNL A   1      46.286  31.663  27.257  1.00  0.00     0.031 A 
ATOM     78  C   UNL A   1      48.171  30.881  28.525  1.00  0.00     0.131 A 
ATOM     79  C   UNL A   1      47.032  32.823  26.934  1.00  0.00     0.055 A 
ATOM     80  C   UNL A   1      48.903  32.025  28.201  1.00  0.00     0.041 A 
ATOM     81  F   UNL A   1      48.769  30.028  29.372  1.00  0.00    -0.206 F 
ATOM     82  C   UNL A   1      48.332  33.009  27.412  1.00  0.00     0.022 A 
BRANCH  79  83
ATOM     83  S   UNL A   1      46.281  34.169  25.958  1.00  0.00     0.124 S 
ATOM     84  O   UNL A   1      45.795  35.070  26.995  1.00  0.00    -0.237 OA
ATOM     85  O   UNL A   1      47.405  34.643  25.159  1.00  0.00    -0.237 OA
ATOM     86  O   UNL A   1      45.234  33.491  25.193  1.00  0.00    -0.744 OA
ENDBRANCH  79  83
ENDBRANCH  52  76
BRANCH  64  87
ATOM     87  C   UNL A   1      45.110  25.912  31.907  1.00  0.00     0.023 A 
ATOM     88  C   UNL A   1      43.936  26.548  32.379  1.00  0.00     0.031 A 
ATOM     89  C   UNL A   1      46.084  25.568  32.861  1.00  0.00     0.131 A 
ATOM     90  C   UNL A   1      43.782  26.822  33.755  1.00  0.00     0.055 A 
ATOM     91  C   UNL A   1      45.918  25.817  34.224  1.00  0.00     0.041 A 
ATOM     92  F   UNL A   1      47.212  24.941  32.487  1.00  0.00    -0.206 F 
ATOM     93  C   UNL A   1      44.768  26.452  34.676  1.00  0.00     0.022 A 
BRANCH  90  94
ATOM     94  S   UNL A   1      42.301  27.686  34.377  1.00  0.00     0.124 S 
ATOM     95  O   UNL A   1      42.832  28.592  35.389  1.00  0.00    -0.237 OA
ATOM     96  O   UNL A   1      41.771  28.316  33.170  1.00  0.00    -0.237 OA
ATOM     97  O   UNL A   1      41.473  26.601  34.908  1.00  0.00    -0.744 OA
ENDBRANCH  90  94
ENDBRANCH  64  87
ENDBRANCH  38  39
ENDBRANCH  30  33
ENDBRANCH  28  29
ENDBRANCH   1  28
TORSDOF 17
ENDMDL
MODEL 2
REMARK VINA RESULT:     -12.9      3.322      8.351
REMARK SMILES COc1ccccc1-n1nnc(C(=O)NCCCCNC(=O)c2ccc(-c3c4nc(c(-c5cc(S(=O)(=O)[O-])ccc5F)c5ccc([nH]5)c(-c5cc(S(=O)(=O)[O-])ccc5F)c5nc(c(-c6cc(S(=O)(=O)[O-])ccc6F)c6ccc3[nH]6)C=C5)C=C4)cc2)c1-c1ccc(Cl)cc1
REMARK SMILES IDX 18 1 17 2 16 3 15 4 13 5 14 6 12 8 9 9 10 10 86 11 11 12
REMARK SMILES IDX 8 13 3 14 4 15 5 16 7 17 6 18 2 19 1 20 87 21 88 22 93 23
REMARK SMILES IDX 89 24 92 25 90 26 91 27 19 28 20 29 21 30 22 32 23 33 24 34
REMARK SMILES IDX 85 35 25 36 84 37 26 38 27 39 28 40 78 41 29 42 83 43 77 44
REMARK SMILES IDX 79 45 30 46 82 47 76 48 75 49 31 51 63 52 43 53 62 54 44 55
REMARK SMILES IDX 47 56 61 57 80 58 45 59 46 60 60 62 81 63 48 64 32 65 33 66
REMARK SMILES IDX 41 67 34 68 40 69 42 70 39 71 35 72 36 73 37 74 38 75 64 76
REMARK SMILES IDX 65 77 73 78 66 79 72 80 74 81 71 82 67 83 68 84 69 85 70 86
REMARK SMILES IDX 49 87 50 88 58 89 51 90 57 91 59 92 56 93 52 94 53 95 54 96
REMARK SMILES IDX 55 97
REMARK H PARENT 15 7 20 31 79 50 47 61
REMARK Flexibility Score: inf
ROOT
ATOM      1  C   UNL A   1      37.225  21.498  24.444  1.00  0.00     0.023 C 
ENDROOT
BRANCH   1   2
ATOM      2  C   UNL A   1      35.809  21.760  24.953  1.00  0.00     0.023 C 
BRANCH   2   3
ATOM      3  C   UNL A   1      35.574  22.893  25.943  1.00  0.00     0.116 C 
BRANCH   3   4
ATOM      4  N   UNL A   1      34.700  22.709  27.067  1.00  0.00    -0.351 N 
ATOM      5  C   UNL A   1      33.331  22.932  27.129  1.00  0.00     0.274 C 
ATOM      6  O   UNL A   1      32.801  22.666  28.212  1.00  0.00    -0.267 OA
ATOM      7  H   UNL A   1      35.124  22.383  27.895  1.00  0.00     0.163 HD
BRANCH   5   8
ATOM      8  C   UNL A   1      32.524  23.515  26.031  1.00  0.00     0.178 A 
ATOM      9  N   UNL A   1      31.390  24.614  24.490  1.00  0.00    -0.208 N 
ATOM     10  N   UNL A   1      31.016  23.322  24.423  1.00  0.00    -0.061 NA
ATOM     11  C   UNL A   1      32.277  24.808  25.555  1.00  0.00     0.108 A 
ATOM     12  N   UNL A   1      31.768  22.638  25.266  1.00  0.00    -0.124 NA
BRANCH   9  13
ATOM     13  C   UNL A   1      30.746  25.610  23.712  1.00  0.00     0.109 A 
ATOM     14  C   UNL A   1      31.442  26.380  22.769  1.00  0.00     0.144 A 
ATOM     15  C   UNL A   1      30.882  27.583  22.328  1.00  0.00     0.049 A 
ATOM     16  C   UNL A   1      29.622  27.987  22.772  1.00  0.00     0.004 A 
ATOM     17  C   UNL A   1      29.443  25.974  24.096  1.00  0.00     0.032 A 
ATOM     18  C   UNL A   1      28.894  27.173  23.636  1.00  0.00     0.003 A 
BRANCH  14  19
ATOM     19  O   UNL A   1      32.696  26.132  22.284  1.00  0.00    -0.494 OA
ATOM     20  C   UNL A   1      33.548  27.270  22.165  1.00  0.00     0.278 C 
ENDBRANCH  14  19
ENDBRANCH   9  13
BRANCH  11  21
ATOM     21  C   UNL A   1      32.588  26.154  26.032  1.00  0.00     0.003 A 
ATOM     22  C   UNL A   1      33.815  26.771  25.773  1.00  0.00     0.012 A 
ATOM     23  C   UNL A   1      31.615  26.839  26.790  1.00  0.00     0.012 A 
ATOM     24  C   UNL A   1      34.064  28.053  26.276  1.00  0.00     0.021 A 
ATOM     25  C   UNL A   1      31.879  28.101  27.313  1.00  0.00     0.021 A 
ATOM     26  C   UNL A   1      33.104  28.703  27.053  1.00  0.00     0.041 A 
ATOM     27  Cl  UNL A   1      33.425  30.260  27.701  1.00  0.00    -0.084 Cl
ENDBRANCH  11  21
ENDBRANCH   5   8
ENDBRANCH   3   4
ENDBRANCH   2   3
ENDBRANCH   1   2
BRANCH   1  28
ATOM     28  C   UNL A   1      38.327  21.399  25.492  1.00  0.00     0.116 C 
BRANCH  28  29
ATOM     29  N   UNL A   1      38.947  20.084  25.639  1.00  0.00    -0.352 N 
ATOM     30  C   UNL A   1      40.296  19.842  25.906  1.00  0.00     0.251 C 
ATOM     31  H   UNL A   1      38.360  19.298  25.542  1.00  0.00     0.163 HD
ATOM     32  O   UNL A   1      40.816  18.783  25.619  1.00  0.00    -0.269 OA
BRANCH  30  33
ATOM     33  C   UNL A   1      41.080  20.937  26.526  1.00  0.00     0.039 A 
ATOM     34  C   UNL A   1      41.582  21.994  25.768  1.00  0.00     0.014 A 
ATOM     35  C   UNL A   1      41.205  20.940  27.913  1.00  0.00     0.014 A 
ATOM     36  C   UNL A   1      42.084  23.115  26.433  1.00  0.00     0.010 A 
ATOM     37  C   UNL A   1      41.584  22.089  28.568  1.00  0.00     0.010 A 
ATOM     38  C   UNL A   1      42.031  23.183  27.838  1.00  0.00    -0.014 A 
BRANCH  38  39
ATOM     39  C   UNL A   1      42.258  24.457  28.525  1.00  0.00     0.031 A 
ATOM     40  C   UNL A   1      41.195  25.479  28.305  1.00  0.00     0.074 A 
ATOM     41  C   UNL A   1      43.206  24.682  29.462  1.00  0.00     0.049 A 
ATOM     42  N   UNL A   1      41.285  26.558  27.603  1.00  0.00    -0.248 NA
ATOM     43  C   UNL A   1      39.834  25.205  28.793  1.00  0.00     0.031 C 
ATOM     44  C   UNL A   1      44.163  23.738  30.044  1.00  0.00     0.029 A 
ATOM     45  N   UNL A   1      43.443  25.821  30.170  1.00  0.00    -0.354 N 
ATOM     46  C   UNL A   1      40.073  27.222  27.749  1.00  0.00     0.074 A 
ATOM     47  C   UNL A   1      39.167  26.258  28.316  1.00  0.00     0.031 C 
ATOM     48  C   UNL A   1      44.711  24.274  31.158  1.00  0.00     0.029 A 
ATOM     49  C   UNL A   1      44.283  25.657  31.267  1.00  0.00     0.049 A 
ATOM     50  H   UNL A   1      43.051  26.691  29.926  1.00  0.00     0.167 HD
ATOM     51  C   UNL A   1      39.987  28.574  27.595  1.00  0.00     0.034 A 
ATOM     52  C   UNL A   1      44.613  26.587  32.203  1.00  0.00     0.034 A 
ATOM     53  C   UNL A   1      41.165  29.094  26.932  1.00  0.00     0.049 A 
ATOM     54  C   UNL A   1      44.423  27.913  31.563  1.00  0.00     0.074 A 
ATOM     55  C   UNL A   1      41.792  28.819  25.731  1.00  0.00     0.029 A 
ATOM     56  N   UNL A   1      42.119  29.730  27.698  1.00  0.00    -0.354 N 
ATOM     57  N   UNL A   1      45.132  28.319  30.544  1.00  0.00    -0.248 NA
ATOM     58  C   UNL A   1      43.140  28.578  31.722  1.00  0.00     0.031 C 
ATOM     59  C   UNL A   1      43.184  28.792  26.048  1.00  0.00     0.029 A 
ATOM     60  C   UNL A   1      43.330  29.155  27.388  1.00  0.00     0.049 A 
ATOM     61  H   UNL A   1      41.964  30.458  28.344  1.00  0.00     0.167 HD
ATOM     62  C   UNL A   1      44.225  28.934  29.697  1.00  0.00     0.074 A 
ATOM     63  C   UNL A   1      43.036  29.157  30.521  1.00  0.00     0.031 C 
ATOM     64  C   UNL A   1      44.409  28.953  28.342  1.00  0.00     0.034 A 
BRANCH  51  65
ATOM     65  C   UNL A   1      39.015  29.476  28.325  1.00  0.00     0.023 A 
ATOM     66  C   UNL A   1      39.155  29.594  29.723  1.00  0.00     0.031 A 
ATOM     67  C   UNL A   1      37.817  29.996  27.785  1.00  0.00     0.131 A 
ATOM     68  C   UNL A   1      38.115  30.111  30.514  1.00  0.00     0.055 A 
ATOM     69  C   UNL A   1      36.816  30.575  28.570  1.00  0.00     0.041 A 
ATOM     70  F   UNL A   1      37.499  29.889  26.491  1.00  0.00    -0.206 F 
ATOM     71  C   UNL A   1      36.946  30.607  29.947  1.00  0.00     0.022 A 
BRANCH  68  72
ATOM     72  S   UNL A   1      38.241  29.953  32.316  1.00  0.00     0.124 S 
ATOM     73  O   UNL A   1      37.085  29.117  32.619  1.00  0.00    -0.237 OA
ATOM     74  O   UNL A   1      39.549  29.328  32.471  1.00  0.00    -0.237 OA
ATOM     75  O   UNL A   1      38.151  31.335  32.784  1.00  0.00    -0.744 OA
ENDBRANCH  68  72
ENDBRANCH  51  65
BRANCH  52  76
ATOM     76  C   UNL A   1      44.783  26.375  33.667  1.00  0.00     0.023 A 
ATOM     77  C   UNL A   1      43.741  26.570  34.599  1.00  0.00     0.031 A 
ATOM     78  C   UNL A   1      45.946  25.729  34.146  1.00  0.00     0.131 A 
ATOM     79  C   UNL A   1      43.886  26.123  35.935  1.00  0.00     0.055 A 
ATOM     80  C   UNL A   1      46.084  25.294  35.466  1.00  0.00     0.041 A 
ATOM     81  F   UNL A   1      46.960  25.422  33.323  1.00  0.00    -0.206 F 
ATOM     82  C   UNL A   1      45.048  25.480  36.365  1.00  0.00     0.022 A 
BRANCH  79  83
ATOM     83  S   UNL A   1      42.511  26.288  37.123  1.00  0.00     0.124 S 
ATOM     84  O   UNL A   1      43.215  26.436  38.392  1.00  0.00    -0.237 OA
ATOM     85  O   UNL A   1      41.808  27.466  36.629  1.00  0.00    -0.237 OA
ATOM     86  O   UNL A   1      41.777  25.032  36.971  1.00  0.00    -0.744 OA
ENDBRANCH  79  83
ENDBRANCH  52  76
BRANCH  64  87
ATOM     87  C   UNL A   1      45.755  28.529  27.778  1.00  0.00     0.023 A 
ATOM     88  C   UNL A   1      46.117  27.203  27.442  1.00  0.00     0.031 A 
ATOM     89  C   UNL A   1      46.668  29.549  27.449  1.00  0.00     0.131 A 
ATOM     90  C   UNL A   1      47.354  26.941  26.814  1.00  0.00     0.055 A 
ATOM     91  C   UNL A   1      47.878  29.290  26.804  1.00  0.00     0.041 A 
ATOM     92  F   UNL A   1      46.380  30.834  27.716  1.00  0.00    -0.206 F 
ATOM     93  C   UNL A   1      48.229  27.983  26.490  1.00  0.00     0.022 A 
BRANCH  90  94
ATOM     94  S   UNL A   1      47.860  25.234  26.420  1.00  0.00     0.124 S 
ATOM     95  O   UNL A   1      47.692  25.152  24.973  1.00  0.00    -0.237 OA
ATOM     96  O   UNL A   1      49.237  25.191  26.906  1.00  0.00    -0.237 OA
ATOM     97  O   UNL A   1      46.920  24.414  27.188  1.00  0.00    -0.744 OA
ENDBRANCH  90  94
ENDBRANCH  64  87
ENDBRANCH  38  39
ENDBRANCH  30  33
ENDBRANCH  28  29
ENDBRANCH   1  28
TORSDOF 17
ENDMDL
MODEL 3
REMARK VINA RESULT:     -12.8      4.407     10.235
REMARK SMILES COc1ccccc1-n1nnc(C(=O)NCCCCNC(=O)c2ccc(-c3c4nc(c(-c5cc(S(=O)(=O)[O-])ccc5F)c5ccc([nH]5)c(-c5cc(S(=O)(=O)[O-])ccc5F)c5nc(c(-c6cc(S(=O)(=O)[O-])ccc6F)c6ccc3[nH]6)C=C5)C=C4)cc2)c1-c1ccc(Cl)cc1
REMARK SMILES IDX 18 1 17 2 16 3 15 4 13 5 14 6 12 8 9 9 10 10 86 11 11 12
REMARK SMILES IDX 8 13 3 14 4 15 5 16 7 17 6 18 2 19 1 20 87 21 88 22 93 23
REMARK SMILES IDX 89 24 92 25 90 26 91 27 19 28 20 29 21 30 22 32 23 33 24 34
REMARK SMILES IDX 85 35 25 36 84 37 26 38 27 39 28 40 78 41 29 42 83 43 77 44
REMARK SMILES IDX 79 45 30 46 82 47 76 48 75 49 31 51 63 52 43 53 62 54 44 55
REMARK SMILES IDX 47 56 61 57 80 58 45 59 46 60 60 62 81 63 48 64 32 65 33 66
REMARK SMILES IDX 41 67 34 68 40 69 42 70 39 71 35 72 36 73 37 74 38 75 64 76
REMARK SMILES IDX 65 77 73 78 66 79 72 80 74 81 71 82 67 83 68 84 69 85 70 86
REMARK SMILES IDX 49 87 50 88 58 89 51 90 57 91 59 92 56 93 52 94 53 95 54 96
REMARK SMILES IDX 55 97
REMARK H PARENT 15 7 20 31 79 50 47 61
REMARK Flexibility Score: inf
ROOT
ATOM      1  C   UNL A   1      37.313  23.684  25.344  1.00  0.00     0.023 C 
ENDROOT
BRANCH   1   2
ATOM      2  C   UNL A   1      35.814  23.888  25.556  1.00  0.00     0.023 C 
BRANCH   2   3
ATOM      3  C   UNL A   1      34.926  22.672  25.788  1.00  0.00     0.116 C 
BRANCH   3   4
ATOM      4  N   UNL A   1      34.010  22.640  26.893  1.00  0.00    -0.351 N 
ATOM      5  C   UNL A   1      32.702  23.104  26.931  1.00  0.00     0.274 C 
ATOM      6  O   UNL A   1      32.111  22.930  28.002  1.00  0.00    -0.267 OA
ATOM      7  H   UNL A   1      34.352  22.239  27.725  1.00  0.00     0.163 HD
BRANCH   5   8
ATOM      8  C   UNL A   1      32.034  23.828  25.824  1.00  0.00     0.178 A 
ATOM      9  N   UNL A   1      31.118  25.124  24.292  1.00  0.00    -0.208 N 
ATOM     10  N   UNL A   1      30.647  23.877  24.100  1.00  0.00    -0.061 NA
ATOM     11  C   UNL A   1      31.930  25.167  25.430  1.00  0.00     0.108 A 
ATOM     12  N   UNL A   1      31.273  23.074  24.941  1.00  0.00    -0.124 NA
BRANCH   9  13
ATOM     13  C   UNL A   1      30.621  26.223  23.545  1.00  0.00     0.109 A 
ATOM     14  C   UNL A   1      31.457  27.025  22.756  1.00  0.00     0.144 A 
ATOM     15  C   UNL A   1      31.018  28.295  22.372  1.00  0.00     0.049 A 
ATOM     16  C   UNL A   1      29.741  28.740  22.716  1.00  0.00     0.004 A 
ATOM     17  C   UNL A   1      29.305  26.637  23.823  1.00  0.00     0.032 A 
ATOM     18  C   UNL A   1      28.878  27.905  23.421  1.00  0.00     0.003 A 
BRANCH  14  19
ATOM     19  O   UNL A   1      32.742  26.737  22.384  1.00  0.00    -0.494 OA
ATOM     20  C   UNL A   1      33.642  27.844  22.369  1.00  0.00     0.278 C 
ENDBRANCH  14  19
ENDBRANCH   9  13
BRANCH  11  21
ATOM     21  C   UNL A   1      32.310  26.446  26.028  1.00  0.00     0.003 A 
ATOM     22  C   UNL A   1      31.407  27.225  26.756  1.00  0.00     0.012 A 
ATOM     23  C   UNL A   1      33.631  26.906  25.846  1.00  0.00     0.012 A 
ATOM     24  C   UNL A   1      31.821  28.452  27.286  1.00  0.00     0.021 A 
ATOM     25  C   UNL A   1      34.030  28.140  26.350  1.00  0.00     0.021 A 
ATOM     26  C   UNL A   1      33.122  28.908  27.069  1.00  0.00     0.041 A 
ATOM     27  Cl  UNL A   1      33.619  30.430  27.687  1.00  0.00    -0.084 Cl
ENDBRANCH  11  21
ENDBRANCH   5   8
ENDBRANCH   3   4
ENDBRANCH   2   3
ENDBRANCH   1   2
BRANCH   1  28
ATOM     28  C   UNL A   1      38.236  24.142  26.467  1.00  0.00     0.116 C 
BRANCH  28  29
ATOM     29  N   UNL A   1      39.655  24.224  26.130  1.00  0.00    -0.352 N 
ATOM     30  C   UNL A   1      40.470  25.346  26.289  1.00  0.00     0.251 C 
ATOM     31  H   UNL A   1      40.074  23.414  25.757  1.00  0.00     0.163 HD
ATOM     32  O   UNL A   1      41.486  25.486  25.639  1.00  0.00    -0.269 OA
BRANCH  30  33
ATOM     33  C   UNL A   1      40.034  26.378  27.261  1.00  0.00     0.039 A 
ATOM     34  C   UNL A   1      39.676  26.045  28.567  1.00  0.00     0.014 A 
ATOM     35  C   UNL A   1      40.100  27.711  26.864  1.00  0.00     0.014 A 
ATOM     36  C   UNL A   1      39.524  27.071  29.501  1.00  0.00     0.010 A 
ATOM     37  C   UNL A   1      40.072  28.712  27.807  1.00  0.00     0.010 A 
ATOM     38  C   UNL A   1      39.779  28.405  29.130  1.00  0.00    -0.014 A 
BRANCH  38  39
ATOM     39  C   UNL A   1      39.928  29.442  30.154  1.00  0.00     0.031 A 
ATOM     40  C   UNL A   1      38.686  30.216  30.439  1.00  0.00     0.074 A 
ATOM     41  C   UNL A   1      41.000  29.593  30.963  1.00  0.00     0.049 A 
ATOM     42  N   UNL A   1      38.443  31.443  30.123  1.00  0.00    -0.248 NA
ATOM     43  C   UNL A   1      37.525  29.512  31.005  1.00  0.00     0.031 C 
ATOM     44  C   UNL A   1      42.203  28.763  31.058  1.00  0.00     0.029 A 
ATOM     45  N   UNL A   1      41.186  30.501  31.962  1.00  0.00    -0.354 N 
ATOM     46  C   UNL A   1      37.194  31.744  30.655  1.00  0.00     0.074 A 
ATOM     47  C   UNL A   1      36.604  30.478  31.002  1.00  0.00     0.031 C 
ATOM     48  C   UNL A   1      42.876  29.063  32.192  1.00  0.00     0.029 A 
ATOM     49  C   UNL A   1      42.254  30.221  32.809  1.00  0.00     0.049 A 
ATOM     50  H   UNL A   1      40.611  31.293  32.076  1.00  0.00     0.167 HD
ATOM     51  C   UNL A   1      36.852  33.027  30.966  1.00  0.00     0.034 A 
ATOM     52  C   UNL A   1      42.611  30.889  33.938  1.00  0.00     0.034 A 
ATOM     53  C   UNL A   1      37.759  33.969  30.344  1.00  0.00     0.049 A 
ATOM     54  C   UNL A   1      42.070  32.264  33.802  1.00  0.00     0.074 A 
ATOM     55  C   UNL A   1      38.157  34.204  29.040  1.00  0.00     0.029 A 
ATOM     56  N   UNL A   1      38.732  34.554  31.127  1.00  0.00    -0.354 N 
ATOM     57  N   UNL A   1      42.471  33.097  32.880  1.00  0.00    -0.248 NA
ATOM     58  C   UNL A   1      40.756  32.546  34.357  1.00  0.00     0.031 C 
ATOM     59  C   UNL A   1      39.569  34.401  29.123  1.00  0.00     0.029 A 
ATOM     60  C   UNL A   1      39.930  34.382  30.472  1.00  0.00     0.049 A 
ATOM     61  H   UNL A   1      38.596  35.008  31.990  1.00  0.00     0.167 HD
ATOM     62  C   UNL A   1      41.315  33.710  32.423  1.00  0.00     0.074 A 
ATOM     63  C   UNL A   1      40.306  33.410  33.440  1.00  0.00     0.031 C 
ATOM     64  C   UNL A   1      41.204  34.162  31.138  1.00  0.00     0.034 A 
BRANCH  51  65
ATOM     65  C   UNL A   1      35.917  33.434  32.085  1.00  0.00     0.023 A 
ATOM     66  C   UNL A   1      34.770  34.177  31.742  1.00  0.00     0.031 A 
ATOM     67  C   UNL A   1      36.219  33.378  33.464  1.00  0.00     0.131 A 
ATOM     68  C   UNL A   1      34.047  34.885  32.718  1.00  0.00     0.055 A 
ATOM     69  C   UNL A   1      35.455  34.025  34.439  1.00  0.00     0.041 A 
ATOM     70  F   UNL A   1      37.317  32.781  33.942  1.00  0.00    -0.206 F 
ATOM     71  C   UNL A   1      34.379  34.811  34.067  1.00  0.00     0.022 A 
BRANCH  68  72
ATOM     72  S   UNL A   1      32.775  36.055  32.170  1.00  0.00     0.124 S 
ATOM     73  O   UNL A   1      33.083  36.180  30.750  1.00  0.00    -0.237 OA
ATOM     74  O   UNL A   1      31.548  35.341  32.504  1.00  0.00    -0.237 OA
ATOM     75  O   UNL A   1      33.041  37.246  32.973  1.00  0.00    -0.744 OA
ENDBRANCH  68  72
ENDBRANCH  51  65
BRANCH  52  76
ATOM     76  C   UNL A   1      43.119  30.305  35.211  1.00  0.00     0.023 A 
ATOM     77  C   UNL A   1      42.785  29.006  35.649  1.00  0.00     0.031 A 
ATOM     78  C   UNL A   1      44.161  30.958  35.909  1.00  0.00     0.131 A 
ATOM     79  C   UNL A   1      43.483  28.416  36.732  1.00  0.00     0.055 A 
ATOM     80  C   UNL A   1      44.843  30.373  36.978  1.00  0.00     0.041 A 
ATOM     81  F   UNL A   1      44.612  32.162  35.520  1.00  0.00    -0.206 F 
ATOM     82  C   UNL A   1      44.513  29.093  37.388  1.00  0.00     0.022 A 
BRANCH  79  83
ATOM     83  S   UNL A   1      43.121  26.704  37.247  1.00  0.00     0.124 S 
ATOM     84  O   UNL A   1      41.666  26.710  37.342  1.00  0.00    -0.237 OA
ATOM     85  O   UNL A   1      43.697  25.921  36.161  1.00  0.00    -0.237 OA
ATOM     86  O   UNL A   1      43.820  26.578  38.527  1.00  0.00    -0.744 OA
ENDBRANCH  79  83
ENDBRANCH  52  76
BRANCH  64  87
ATOM     87  C   UNL A   1      42.453  34.236  30.274  1.00  0.00     0.023 A 
ATOM     88  C   UNL A   1      43.370  35.315  30.259  1.00  0.00     0.031 A 
ATOM     89  C   UNL A   1      42.789  33.095  29.525  1.00  0.00     0.131 A 
ATOM     90  C   UNL A   1      44.559  35.225  29.505  1.00  0.00     0.055 A 
ATOM     91  C   UNL A   1      43.978  32.998  28.801  1.00  0.00     0.041 A 
ATOM     92  F   UNL A   1      41.977  32.024  29.512  1.00  0.00    -0.206 F 
ATOM     93  C   UNL A   1      44.866  34.067  28.783  1.00  0.00     0.022 A 
BRANCH  90  94
ATOM     94  S   UNL A   1      45.728  36.622  29.432  1.00  0.00     0.124 S 
ATOM     95  O   UNL A   1      44.881  37.790  29.645  1.00  0.00    -0.237 OA
ATOM     96  O   UNL A   1      46.667  36.309  30.506  1.00  0.00    -0.237 OA
ATOM     97  O   UNL A   1      46.295  36.522  28.084  1.00  0.00    -0.744 OA
ENDBRANCH  90  94
ENDBRANCH  64  87
ENDBRANCH  38  39
ENDBRANCH  30  33
ENDBRANCH  28  29
ENDBRANCH   1  28
TORSDOF 17
ENDMDL
