MODEL 1
REMARK VINA RESULT:     -13.2      0.000      0.000
REMARK SMILES C[C@@]12CC[C@@H]3c4ccc(O)cc4/C(=N/OCC(=O)NCCCCNC(=O)c4ccc(-c5c6nc(c(-c7cc(S(=O)(=O)[O-])ccc7F)c7ccc([nH]7)c(-c7cc(S(=O)(=O)[O-])ccc7F)c7nc(c(-c8cc(S(=O)(=O)[O-])ccc8F)c8ccc5[nH]8)C=C7)C=C6)cc4)C[C@H]3[C@@H]1C[C@@H](O)[C@@H]2O
REMARK SMILES IDX 21 1 20 2 19 3 17 4 18 5 16 7 15 8 14 9 1 10 2 11 3 12 92 13
REMARK SMILES IDX 96 14 4 15 91 16 93 17 94 18 5 19 90 20 6 21 13 22 7 23
REMARK SMILES IDX 12 24 8 25 11 26 9 27 97 28 95 30 10 32 22 34 23 35 24 36
REMARK SMILES IDX 25 37 26 39 27 40 28 41 89 42 29 43 88 44 30 45 31 46 32 47
REMARK SMILES IDX 82 48 33 49 87 50 81 51 83 52 34 53 86 54 80 55 79 56 35 58
REMARK SMILES IDX 67 59 47 60 66 61 48 62 51 63 65 64 84 65 49 66 50 67 64 69
REMARK SMILES IDX 85 70 52 71 36 72 37 73 45 74 38 75 44 76 46 77 43 78 39 79
REMARK SMILES IDX 40 80 41 81 42 82 68 83 69 84 77 85 70 86 76 87 78 88 75 89
REMARK SMILES IDX 71 90 72 91 73 92 74 93 53 94 54 95 62 96 55 97 61 98 63 99
REMARK SMILES IDX 60 100 56 101 57 102 58 103 59 104
REMARK H PARENT 19 6 97 29 95 31 10 33 24 38 83 57 51 68
REMARK Flexibility Score: inf
ROOT
ATOM      1  C   UNL A   1      35.360  34.235  29.409  1.00  0.00     0.023 C 
ENDROOT
BRANCH   1   2
ATOM      2  C   UNL A   1      34.951  33.648  28.059  1.00  0.00     0.116 C 
BRANCH   2   3
ATOM      3  N   UNL A   1      35.737  32.480  27.724  1.00  0.00    -0.353 N 
ATOM      4  C   UNL A   1      35.302  31.184  27.648  1.00  0.00     0.260 C 
ATOM      5  O   UNL A   1      36.114  30.300  27.365  1.00  0.00    -0.271 OA
ATOM      6  H   UNL A   1      36.690  32.634  27.528  1.00  0.00     0.163 HD
BRANCH   4   7
ATOM      7  C   UNL A   1      33.810  30.894  27.810  1.00  0.00     0.363 C 
BRANCH   7   8
ATOM      8  O   UNL A   1      33.448  29.531  27.607  1.00  0.00    -0.385 OA
BRANCH   8   9
ATOM      9  N   UNL A   1      32.575  29.485  26.526  1.00  0.00    -0.090 NA
ATOM     10  C   UNL A   1      33.264  22.138  27.037  1.00  0.00     0.014 C 
ATOM     11  C   UNL A   1      32.822  23.181  25.972  1.00  0.00    -0.001 C 
ATOM     12  C   UNL A   1      31.304  23.314  26.130  1.00  0.00     0.010 C 
ATOM     13  C   UNL A   1      33.581  24.515  26.188  1.00  0.00     0.004 C 
ATOM     14  C   UNL A   1      33.304  22.734  24.564  1.00  0.00     0.149 C 
ATOM     15  C   UNL A   1      30.682  24.441  25.339  1.00  0.00     0.009 C 
ATOM     16  C   UNL A   1      32.887  25.789  25.594  1.00  0.00     0.006 C 
ATOM     17  C   UNL A   1      34.975  24.229  25.542  1.00  0.00     0.039 C 
ATOM     18  C   UNL A   1      34.810  23.029  24.580  1.00  0.00     0.144 C 
ATOM     19  C   UNL A   1      31.336  25.779  25.655  1.00  0.00     0.024 C 
ATOM     20  C   UNL A   1      33.347  27.092  26.315  1.00  0.00     0.065 C 
ATOM     21  C   UNL A   1      30.829  26.922  24.788  1.00  0.00    -0.035 A 
ATOM     22  C   UNL A   1      32.504  28.323  25.952  1.00  0.00     0.088 C 
ATOM     23  C   UNL A   1      29.741  26.818  23.907  1.00  0.00     0.008 A 
ATOM     24  C   UNL A   1      31.445  28.173  24.924  1.00  0.00     0.006 A 
ATOM     25  C   UNL A   1      29.278  27.936  23.208  1.00  0.00     0.046 A 
ATOM     26  C   UNL A   1      30.985  29.298  24.227  1.00  0.00     0.056 A 
ATOM     27  C   UNL A   1      29.894  29.167  23.380  1.00  0.00     0.116 A 
BRANCH  14  28
ATOM     28  O   UNL A   1      32.688  23.444  23.495  1.00  0.00    -0.390 OA
ATOM     29  H   UNL A   1      32.236  22.817  22.909  1.00  0.00     0.211 HD
ENDBRANCH  14  28
BRANCH  18  30
ATOM     30  O   UNL A   1      35.542  21.901  25.056  1.00  0.00    -0.390 OA
ATOM     31  H   UNL A   1      35.048  21.477  25.775  1.00  0.00     0.211 HD
ENDBRANCH  18  30
BRANCH  27  32
ATOM     32  O   UNL A   1      29.374  30.237  22.715  1.00  0.00    -0.508 OA
ATOM     33  H   UNL A   1      28.447  30.317  22.608  1.00  0.00     0.293 HD
ENDBRANCH  27  32
ENDBRANCH   8   9
ENDBRANCH   7   8
ENDBRANCH   4   7
ENDBRANCH   2   3
ENDBRANCH   1   2
BRANCH   1  34
ATOM     34  C   UNL A   1      34.396  33.916  30.552  1.00  0.00     0.023 C 
BRANCH  34  35
ATOM     35  C   UNL A   1      34.653  32.593  31.261  1.00  0.00     0.116 C 
BRANCH  35  36
ATOM     36  N   UNL A   1      35.155  32.748  32.620  1.00  0.00    -0.352 N 
ATOM     37  C   UNL A   1      36.287  32.185  33.167  1.00  0.00     0.251 C 
ATOM     38  H   UNL A   1      34.623  33.323  33.218  1.00  0.00     0.163 HD
ATOM     39  O   UNL A   1      36.548  32.330  34.357  1.00  0.00    -0.269 OA
BRANCH  37  40
ATOM     40  C   UNL A   1      37.140  31.353  32.294  1.00  0.00     0.039 A 
ATOM     41  C   UNL A   1      37.985  30.395  32.862  1.00  0.00     0.014 A 
ATOM     42  C   UNL A   1      37.203  31.645  30.932  1.00  0.00     0.014 A 
ATOM     43  C   UNL A   1      39.024  29.870  32.101  1.00  0.00     0.010 A 
ATOM     44  C   UNL A   1      38.198  31.053  30.153  1.00  0.00     0.010 A 
ATOM     45  C   UNL A   1      39.157  30.213  30.746  1.00  0.00    -0.014 A 
BRANCH  45  46
ATOM     46  C   UNL A   1      40.330  29.736  29.967  1.00  0.00     0.031 A 
ATOM     47  C   UNL A   1      40.303  28.381  29.308  1.00  0.00     0.074 A 
ATOM     48  C   UNL A   1      41.409  30.531  29.833  1.00  0.00     0.049 A 
ATOM     49  N   UNL A   1      41.258  27.757  28.670  1.00  0.00    -0.248 NA
ATOM     50  C   UNL A   1      39.039  27.627  29.372  1.00  0.00     0.031 C 
ATOM     51  C   UNL A   1      41.533  31.874  30.397  1.00  0.00     0.029 A 
ATOM     52  N   UNL A   1      42.603  30.330  29.184  1.00  0.00    -0.354 N 
ATOM     53  C   UNL A   1      40.726  26.532  28.284  1.00  0.00     0.074 A 
ATOM     54  C   UNL A   1      39.367  26.488  28.774  1.00  0.00     0.031 C 
ATOM     55  C   UNL A   1      42.725  32.383  30.060  1.00  0.00     0.029 A 
ATOM     56  C   UNL A   1      43.487  31.375  29.327  1.00  0.00     0.049 A 
ATOM     57  H   UNL A   1      42.807  29.517  28.669  1.00  0.00     0.167 HD
ATOM     58  C   UNL A   1      41.319  25.544  27.574  1.00  0.00     0.034 A 
ATOM     59  C   UNL A   1      44.777  31.497  28.952  1.00  0.00     0.034 A 
ATOM     60  C   UNL A   1      42.660  25.622  27.059  1.00  0.00     0.049 A 
ATOM     61  C   UNL A   1      45.425  30.367  28.195  1.00  0.00     0.074 A 
ATOM     62  C   UNL A   1      43.338  24.679  26.305  1.00  0.00     0.029 A 
ATOM     63  N   UNL A   1      43.520  26.697  27.224  1.00  0.00    -0.354 N 
ATOM     64  N   UNL A   1      44.899  29.224  27.819  1.00  0.00    -0.248 NA
ATOM     65  C   UNL A   1      46.832  30.533  27.804  1.00  0.00     0.031 C 
ATOM     66  C   UNL A   1      44.626  25.155  26.068  1.00  0.00     0.029 A 
ATOM     67  C   UNL A   1      44.730  26.428  26.605  1.00  0.00     0.049 A 
ATOM     68  H   UNL A   1      43.305  27.527  27.708  1.00  0.00     0.167 HD
ATOM     69  C   UNL A   1      45.903  28.548  27.130  1.00  0.00     0.074 A 
ATOM     70  C   UNL A   1      47.060  29.418  27.121  1.00  0.00     0.031 C 
ATOM     71  C   UNL A   1      45.867  27.317  26.565  1.00  0.00     0.034 A 
BRANCH  58  72
ATOM     72  C   UNL A   1      40.546  24.283  27.275  1.00  0.00     0.023 A 
ATOM     73  C   UNL A   1      41.173  23.030  27.421  1.00  0.00     0.031 A 
ATOM     74  C   UNL A   1      39.277  24.328  26.673  1.00  0.00     0.131 A 
ATOM     75  C   UNL A   1      40.554  21.880  26.917  1.00  0.00     0.055 A 
ATOM     76  C   UNL A   1      38.647  23.172  26.210  1.00  0.00     0.041 A 
ATOM     77  F   UNL A   1      38.640  25.499  26.514  1.00  0.00    -0.206 F 
ATOM     78  C   UNL A   1      39.293  21.943  26.315  1.00  0.00     0.022 A 
BRANCH  75  79
ATOM     79  S   UNL A   1      41.395  20.272  26.951  1.00  0.00     0.124 S 
ATOM     80  O   UNL A   1      42.796  20.662  26.809  1.00  0.00    -0.237 OA
ATOM     81  O   UNL A   1      41.020  19.762  28.267  1.00  0.00    -0.237 OA
ATOM     82  O   UNL A   1      40.833  19.559  25.810  1.00  0.00    -0.744 OA
ENDBRANCH  75  79
ENDBRANCH  58  72
BRANCH  59  83
ATOM     83  C   UNL A   1      45.516  32.747  29.299  1.00  0.00     0.023 A 
ATOM     84  C   UNL A   1      45.563  33.826  28.395  1.00  0.00     0.031 A 
ATOM     85  C   UNL A   1      46.271  32.843  30.479  1.00  0.00     0.131 A 
ATOM     86  C   UNL A   1      46.407  34.914  28.648  1.00  0.00     0.055 A 
ATOM     87  C   UNL A   1      47.051  33.966  30.764  1.00  0.00     0.041 A 
ATOM     88  F   UNL A   1      46.271  31.837  31.366  1.00  0.00    -0.206 F 
ATOM     89  C   UNL A   1      47.138  34.999  29.835  1.00  0.00     0.022 A 
BRANCH  86  90
ATOM     90  S   UNL A   1      46.704  36.171  27.371  1.00  0.00     0.124 S 
ATOM     91  O   UNL A   1      46.294  35.472  26.158  1.00  0.00    -0.237 OA
ATOM     92  O   UNL A   1      45.823  37.253  27.806  1.00  0.00    -0.237 OA
ATOM     93  O   UNL A   1      48.131  36.452  27.491  1.00  0.00    -0.744 OA
ENDBRANCH  86  90
ENDBRANCH  59  83
BRANCH  71  94
ATOM     94  C   UNL A   1      47.091  26.798  25.853  1.00  0.00     0.023 A 
ATOM     95  C   UNL A   1      48.106  26.158  26.592  1.00  0.00     0.031 A 
ATOM     96  C   UNL A   1      47.343  27.119  24.510  1.00  0.00     0.131 A 
ATOM     97  C   UNL A   1      49.352  25.921  25.999  1.00  0.00     0.055 A 
ATOM     98  C   UNL A   1      48.569  26.833  23.909  1.00  0.00     0.041 A 
ATOM     99  F   UNL A   1      46.410  27.739  23.771  1.00  0.00    -0.206 F 
ATOM    100  C   UNL A   1      49.587  26.249  24.661  1.00  0.00     0.022 A 
BRANCH  97 101
ATOM    101  S   UNL A   1      50.741  25.277  26.972  1.00  0.00     0.124 S 
ATOM    102  O   UNL A   1      51.224  26.481  27.645  1.00  0.00    -0.237 OA
ATOM    103  O   UNL A   1      50.084  24.301  27.836  1.00  0.00    -0.237 OA
ATOM    104  O   UNL A   1      51.647  24.723  25.971  1.00  0.00    -0.744 OA
ENDBRANCH  97 101
ENDBRANCH  71  94
ENDBRANCH  45  46
ENDBRANCH  37  40
ENDBRANCH  35  36
ENDBRANCH  34  35
ENDBRANCH   1  34
TORSDOF 19
ENDMDL
MODEL 2
REMARK VINA RESULT:     -13.1      5.368      9.540
REMARK SMILES C[C@@]12CC[C@@H]3c4ccc(O)cc4/C(=N/OCC(=O)NCCCCNC(=O)c4ccc(-c5c6nc(c(-c7cc(S(=O)(=O)[O-])ccc7F)c7ccc([nH]7)c(-c7cc(S(=O)(=O)[O-])ccc7F)c7nc(c(-c8cc(S(=O)(=O)[O-])ccc8F)c8ccc5[nH]8)C=C7)C=C6)cc4)C[C@H]3[C@@H]1C[C@@H](O)[C@@H]2O
REMARK SMILES IDX 21 1 20 2 19 3 17 4 18 5 16 7 15 8 14 9 1 10 2 11 3 12 92 13
REMARK SMILES IDX 96 14 4 15 91 16 93 17 94 18 5 19 90 20 6 21 13 22 7 23
REMARK SMILES IDX 12 24 8 25 11 26 9 27 97 28 95 30 10 32 22 34 23 35 24 36
REMARK SMILES IDX 25 37 26 39 27 40 28 41 89 42 29 43 88 44 30 45 31 46 32 47
REMARK SMILES IDX 82 48 33 49 87 50 81 51 83 52 34 53 86 54 80 55 79 56 35 58
REMARK SMILES IDX 67 59 47 60 66 61 48 62 51 63 65 64 84 65 49 66 50 67 64 69
REMARK SMILES IDX 85 70 52 71 36 72 37 73 45 74 38 75 44 76 46 77 43 78 39 79
REMARK SMILES IDX 40 80 41 81 42 82 68 83 69 84 77 85 70 86 76 87 78 88 75 89
REMARK SMILES IDX 71 90 72 91 73 92 74 93 53 94 54 95 62 96 55 97 61 98 63 99
REMARK SMILES IDX 60 100 56 101 57 102 58 103 59 104
REMARK H PARENT 19 6 97 29 95 31 10 33 24 38 83 57 51 68
REMARK Flexibility Score: inf
ROOT
ATOM      1  C   UNL A   1      34.460  35.424  28.026  1.00  0.00     0.023 C 
ENDROOT
BRANCH   1   2
ATOM      2  C   UNL A   1      34.090  33.942  28.029  1.00  0.00     0.116 C 
BRANCH   2   3
ATOM      3  N   UNL A   1      35.266  33.097  28.058  1.00  0.00    -0.353 N 
ATOM      4  C   UNL A   1      35.309  31.735  27.925  1.00  0.00     0.260 C 
ATOM      5  O   UNL A   1      36.401  31.166  27.993  1.00  0.00    -0.271 OA
ATOM      6  H   UNL A   1      36.129  33.552  28.186  1.00  0.00     0.163 HD
BRANCH   4   7
ATOM      7  C   UNL A   1      34.022  30.983  27.592  1.00  0.00     0.363 C 
BRANCH   7   8
ATOM      8  O   UNL A   1      34.218  29.761  26.884  1.00  0.00    -0.385 OA
BRANCH   8   9
ATOM      9  N   UNL A   1      33.233  29.679  25.907  1.00  0.00    -0.090 NA
ATOM     10  C   UNL A   1      33.070  22.461  27.511  1.00  0.00     0.014 C 
ATOM     11  C   UNL A   1      32.646  23.389  26.337  1.00  0.00    -0.001 C 
ATOM     12  C   UNL A   1      31.182  23.751  26.606  1.00  0.00     0.010 C 
ATOM     13  C   UNL A   1      33.581  24.623  26.271  1.00  0.00     0.004 C 
ATOM     14  C   UNL A   1      32.914  22.680  24.982  1.00  0.00     0.149 C 
ATOM     15  C   UNL A   1      30.619  24.825  25.706  1.00  0.00     0.009 C 
ATOM     16  C   UNL A   1      32.988  25.879  25.547  1.00  0.00     0.006 C 
ATOM     17  C   UNL A   1      34.851  24.056  25.558  1.00  0.00     0.039 C 
ATOM     18  C   UNL A   1      34.437  22.764  24.816  1.00  0.00     0.144 C 
ATOM     19  C   UNL A   1      31.463  26.092  25.747  1.00  0.00     0.024 C 
ATOM     20  C   UNL A   1      33.680  27.198  26.009  1.00  0.00     0.065 C 
ATOM     21  C   UNL A   1      31.008  27.156  24.758  1.00  0.00    -0.035 A 
ATOM     22  C   UNL A   1      32.959  28.467  25.532  1.00  0.00     0.088 C 
ATOM     23  C   UNL A   1      29.827  27.076  24.005  1.00  0.00     0.008 A 
ATOM     24  C   UNL A   1      31.784  28.316  24.639  1.00  0.00     0.006 A 
ATOM     25  C   UNL A   1      29.430  28.133  23.182  1.00  0.00     0.046 A 
ATOM     26  C   UNL A   1      31.392  29.381  23.816  1.00  0.00     0.056 A 
ATOM     27  C   UNL A   1      30.207  29.279  23.101  1.00  0.00     0.116 A 
BRANCH  14  28
ATOM     28  O   UNL A   1      32.276  23.304  23.872  1.00  0.00    -0.390 OA
ATOM     29  H   UNL A   1      32.945  23.724  23.309  1.00  0.00     0.211 HD
ENDBRANCH  14  28
BRANCH  18  30
ATOM     30  O   UNL A   1      35.073  21.628  25.398  1.00  0.00    -0.390 OA
ATOM     31  H   UNL A   1      35.740  21.282  24.785  1.00  0.00     0.211 HD
ENDBRANCH  18  30
BRANCH  27  32
ATOM     32  O   UNL A   1      29.753  30.302  22.324  1.00  0.00    -0.508 OA
ATOM     33  H   UNL A   1      28.922  30.693  22.503  1.00  0.00     0.293 HD
ENDBRANCH  27  32
ENDBRANCH   8   9
ENDBRANCH   7   8
ENDBRANCH   4   7
ENDBRANCH   2   3
ENDBRANCH   1   2
BRANCH   1  34
ATOM     34  C   UNL A   1      33.529  36.307  28.856  1.00  0.00     0.023 C 
BRANCH  34  35
ATOM     35  C   UNL A   1      32.661  35.561  29.861  1.00  0.00     0.116 C 
BRANCH  35  36
ATOM     36  N   UNL A   1      32.443  36.294  31.101  1.00  0.00    -0.352 N 
ATOM     37  C   UNL A   1      33.099  36.129  32.301  1.00  0.00     0.251 C 
ATOM     38  H   UNL A   1      31.745  36.988  31.080  1.00  0.00     0.163 HD
ATOM     39  O   UNL A   1      32.754  36.757  33.297  1.00  0.00    -0.269 OA
BRANCH  37  40
ATOM     40  C   UNL A   1      34.185  35.130  32.367  1.00  0.00     0.039 A 
ATOM     41  C   UNL A   1      33.964  33.908  33.009  1.00  0.00     0.014 A 
ATOM     42  C   UNL A   1      35.460  35.486  31.927  1.00  0.00     0.014 A 
ATOM     43  C   UNL A   1      35.055  33.129  33.380  1.00  0.00     0.010 A 
ATOM     44  C   UNL A   1      36.542  34.660  32.233  1.00  0.00     0.010 A 
ATOM     45  C   UNL A   1      36.357  33.510  33.019  1.00  0.00    -0.014 A 
BRANCH  45  46
ATOM     46  C   UNL A   1      37.525  32.733  33.511  1.00  0.00     0.031 A 
ATOM     47  C   UNL A   1      38.200  33.113  34.802  1.00  0.00     0.074 A 
ATOM     48  C   UNL A   1      37.962  31.670  32.807  1.00  0.00     0.049 A 
ATOM     49  N   UNL A   1      39.282  32.616  35.343  1.00  0.00    -0.248 NA
ATOM     50  C   UNL A   1      37.582  34.192  35.593  1.00  0.00     0.031 C 
ATOM     51  C   UNL A   1      37.364  31.189  31.563  1.00  0.00     0.029 A 
ATOM     52  N   UNL A   1      39.004  30.805  33.033  1.00  0.00    -0.354 N 
ATOM     53  C   UNL A   1      39.492  33.335  36.515  1.00  0.00     0.074 A 
ATOM     54  C   UNL A   1      38.436  34.318  36.602  1.00  0.00     0.031 C 
ATOM     55  C   UNL A   1      38.037  30.110  31.142  1.00  0.00     0.029 A 
ATOM     56  C   UNL A   1      39.165  29.868  32.038  1.00  0.00     0.049 A 
ATOM     57  H   UNL A   1      39.581  30.851  33.829  1.00  0.00     0.167 HD
ATOM     58  C   UNL A   1      40.471  33.176  37.436  1.00  0.00     0.034 A 
ATOM     59  C   UNL A   1      40.129  28.946  31.841  1.00  0.00     0.034 A 
ATOM     60  C   UNL A   1      41.490  32.164  37.352  1.00  0.00     0.049 A 
ATOM     61  C   UNL A   1      41.229  28.813  32.863  1.00  0.00     0.074 A 
ATOM     62  C   UNL A   1      42.511  31.910  38.253  1.00  0.00     0.029 A 
ATOM     63  N   UNL A   1      41.617  31.235  36.331  1.00  0.00    -0.354 N 
ATOM     64  N   UNL A   1      41.399  29.488  33.977  1.00  0.00    -0.248 NA
ATOM     65  C   UNL A   1      42.265  27.801  32.615  1.00  0.00     0.031 C 
ATOM     66  C   UNL A   1      43.289  30.871  37.747  1.00  0.00     0.029 A 
ATOM     67  C   UNL A   1      42.712  30.422  36.569  1.00  0.00     0.049 A 
ATOM     68  H   UNL A   1      41.018  31.164  35.553  1.00  0.00     0.167 HD
ATOM     69  C   UNL A   1      42.545  28.966  34.570  1.00  0.00     0.074 A 
ATOM     70  C   UNL A   1      43.016  27.906  33.705  1.00  0.00     0.031 C 
ATOM     71  C   UNL A   1      43.153  29.340  35.722  1.00  0.00     0.034 A 
BRANCH  58  72
ATOM     72  C   UNL A   1      40.509  34.086  38.638  1.00  0.00     0.023 A 
ATOM     73  C   UNL A   1      39.773  33.750  39.791  1.00  0.00     0.031 A 
ATOM     74  C   UNL A   1      41.107  35.357  38.574  1.00  0.00     0.131 A 
ATOM     75  C   UNL A   1      39.605  34.696  40.808  1.00  0.00     0.055 A 
ATOM     76  C   UNL A   1      40.970  36.281  39.611  1.00  0.00     0.041 A 
ATOM     77  F   UNL A   1      41.819  35.721  37.496  1.00  0.00    -0.206 F 
ATOM     78  C   UNL A   1      40.202  35.959  40.727  1.00  0.00     0.022 A 
BRANCH  75  79
ATOM     79  S   UNL A   1      38.541  34.355  42.239  1.00  0.00     0.124 S 
ATOM     80  O   UNL A   1      39.438  34.642  43.356  1.00  0.00    -0.237 OA
ATOM     81  O   UNL A   1      37.456  35.312  42.047  1.00  0.00    -0.237 OA
ATOM     82  O   UNL A   1      38.183  32.950  42.080  1.00  0.00    -0.744 OA
ENDBRANCH  75  79
ENDBRANCH  58  72
BRANCH  59  83
ATOM     83  C   UNL A   1      40.073  28.091  30.619  1.00  0.00     0.023 A 
ATOM     84  C   UNL A   1      40.844  28.410  29.485  1.00  0.00     0.031 A 
ATOM     85  C   UNL A   1      39.176  27.015  30.524  1.00  0.00     0.131 A 
ATOM     86  C   UNL A   1      40.646  27.715  28.285  1.00  0.00     0.055 A 
ATOM     87  C   UNL A   1      39.038  26.274  29.348  1.00  0.00     0.041 A 
ATOM     88  F   UNL A   1      38.408  26.680  31.571  1.00  0.00    -0.206 F 
ATOM     89  C   UNL A   1      39.761  26.636  28.215  1.00  0.00     0.022 A 
BRANCH  86  90
ATOM     90  S   UNL A   1      41.412  28.292  26.744  1.00  0.00     0.124 S 
ATOM     91  O   UNL A   1      40.373  29.156  26.195  1.00  0.00    -0.237 OA
ATOM     92  O   UNL A   1      42.606  28.974  27.240  1.00  0.00    -0.237 OA
ATOM     93  O   UNL A   1      41.669  27.060  26.006  1.00  0.00    -0.744 OA
ENDBRANCH  86  90
ENDBRANCH  59  83
BRANCH  71  94
ATOM     94  C   UNL A   1      44.392  28.607  36.172  1.00  0.00     0.023 A 
ATOM     95  C   UNL A   1      44.282  27.573  37.124  1.00  0.00     0.031 A 
ATOM     96  C   UNL A   1      45.674  29.064  35.828  1.00  0.00     0.131 A 
ATOM     97  C   UNL A   1      45.432  27.077  37.747  1.00  0.00     0.055 A 
ATOM     98  C   UNL A   1      46.821  28.530  36.416  1.00  0.00     0.041 A 
ATOM     99  F   UNL A   1      45.827  30.055  34.935  1.00  0.00    -0.206 F 
ATOM    100  C   UNL A   1      46.702  27.546  37.395  1.00  0.00     0.022 A 
BRANCH  97 101
ATOM    101  S   UNL A   1      45.316  25.887  39.111  1.00  0.00     0.124 S 
ATOM    102  O   UNL A   1      44.454  26.593  40.057  1.00  0.00    -0.237 OA
ATOM    103  O   UNL A   1      44.708  24.731  38.458  1.00  0.00    -0.237 OA
ATOM    104  O   UNL A   1      46.697  25.711  39.545  1.00  0.00    -0.744 OA
ENDBRANCH  97 101
ENDBRANCH  71  94
ENDBRANCH  45  46
ENDBRANCH  37  40
ENDBRANCH  35  36
ENDBRANCH  34  35
ENDBRANCH   1  34
TORSDOF 19
ENDMDL
MODEL 3
REMARK VINA RESULT:     -12.7      3.242      8.919
REMARK SMILES C[C@@]12CC[C@@H]3c4ccc(O)cc4/C(=N/OCC(=O)NCCCCNC(=O)c4ccc(-c5c6nc(c(-c7cc(S(=O)(=O)[O-])ccc7F)c7ccc([nH]7)c(-c7cc(S(=O)(=O)[O-])ccc7F)c7nc(c(-c8cc(S(=O)(=O)[O-])ccc8F)c8ccc5[nH]8)C=C7)C=C6)cc4)C[C@H]3[C@@H]1C[C@@H](O)[C@@H]2O
REMARK SMILES IDX 21 1 20 2 19 3 17 4 18 5 16 7 15 8 14 9 1 10 2 11 3 12 92 13
REMARK SMILES IDX 96 14 4 15 91 16 93 17 94 18 5 19 90 20 6 21 13 22 7 23
REMARK SMILES IDX 12 24 8 25 11 26 9 27 97 28 95 30 10 32 22 34 23 35 24 36
REMARK SMILES IDX 25 37 26 39 27 40 28 41 89 42 29 43 88 44 30 45 31 46 32 47
REMARK SMILES IDX 82 48 33 49 87 50 81 51 83 52 34 53 86 54 80 55 79 56 35 58
REMARK SMILES IDX 67 59 47 60 66 61 48 62 51 63 65 64 84 65 49 66 50 67 64 69
REMARK SMILES IDX 85 70 52 71 36 72 37 73 45 74 38 75 44 76 46 77 43 78 39 79
REMARK SMILES IDX 40 80 41 81 42 82 68 83 69 84 77 85 70 86 76 87 78 88 75 89
REMARK SMILES IDX 71 90 72 91 73 92 74 93 53 94 54 95 62 96 55 97 61 98 63 99
REMARK SMILES IDX 60 100 56 101 57 102 58 103 59 104
REMARK H PARENT 19 6 97 29 95 31 10 33 24 38 83 57 51 68
REMARK Flexibility Score: inf
ROOT
ATOM      1  C   UNL A   1      40.818  20.661  26.915  1.00  0.00     0.023 C 
ENDROOT
BRANCH   1   2
ATOM      2  C   UNL A   1      39.957  21.587  26.058  1.00  0.00     0.116 C 
BRANCH   2   3
ATOM      3  N   UNL A   1      39.858  22.911  26.634  1.00  0.00    -0.353 N 
ATOM      4  C   UNL A   1      38.821  23.796  26.502  1.00  0.00     0.260 C 
ATOM      5  O   UNL A   1      38.908  24.898  27.048  1.00  0.00    -0.271 OA
ATOM      6  H   UNL A   1      40.620  23.209  27.182  1.00  0.00     0.163 HD
BRANCH   4   7
ATOM      7  C   UNL A   1      37.554  23.346  25.776  1.00  0.00     0.363 C 
BRANCH   7   8
ATOM      8  O   UNL A   1      36.384  23.322  26.591  1.00  0.00    -0.385 OA
BRANCH   8   9
ATOM      9  N   UNL A   1      35.423  22.573  25.922  1.00  0.00    -0.090 NA
ATOM     10  C   UNL A   1      33.605  28.943  22.631  1.00  0.00     0.014 C 
ATOM     11  C   UNL A   1      32.952  27.557  22.895  1.00  0.00    -0.001 C 
ATOM     12  C   UNL A   1      33.276  26.707  21.662  1.00  0.00     0.010 C 
ATOM     13  C   UNL A   1      33.497  26.955  24.215  1.00  0.00     0.004 C 
ATOM     14  C   UNL A   1      31.439  27.736  23.196  1.00  0.00     0.149 C 
ATOM     15  C   UNL A   1      32.925  25.244  21.791  1.00  0.00     0.009 C 
ATOM     16  C   UNL A   1      33.383  25.398  24.343  1.00  0.00     0.006 C 
ATOM     17  C   UNL A   1      32.675  27.714  25.306  1.00  0.00     0.039 C 
ATOM     18  C   UNL A   1      31.410  28.291  24.627  1.00  0.00     0.144 C 
ATOM     19  C   UNL A   1      33.576  24.615  23.016  1.00  0.00     0.024 C 
ATOM     20  C   UNL A   1      34.425  24.819  25.349  1.00  0.00     0.065 C 
ATOM     21  C   UNL A   1      33.146  23.175  23.259  1.00  0.00    -0.035 A 
ATOM     22  C   UNL A   1      34.530  23.288  25.307  1.00  0.00     0.088 C 
ATOM     23  C   UNL A   1      32.376  22.422  22.360  1.00  0.00     0.008 A 
ATOM     24  C   UNL A   1      33.603  22.541  24.421  1.00  0.00     0.006 A 
ATOM     25  C   UNL A   1      32.095  21.077  22.611  1.00  0.00     0.046 A 
ATOM     26  C   UNL A   1      33.326  21.192  24.679  1.00  0.00     0.056 A 
ATOM     27  C   UNL A   1      32.579  20.469  23.761  1.00  0.00     0.116 A 
BRANCH  14  28
ATOM     28  O   UNL A   1      30.695  26.523  23.138  1.00  0.00    -0.390 OA
ATOM     29  H   UNL A   1      29.786  26.714  22.858  1.00  0.00     0.211 HD
ENDBRANCH  14  28
BRANCH  18  30
ATOM     30  O   UNL A   1      31.454  29.716  24.617  1.00  0.00    -0.390 OA
ATOM     31  H   UNL A   1      32.329  30.010  24.319  1.00  0.00     0.211 HD
ENDBRANCH  18  30
BRANCH  27  32
ATOM     32  O   UNL A   1      32.320  19.143  23.937  1.00  0.00    -0.508 OA
ATOM     33  H   UNL A   1      32.664  18.694  24.683  1.00  0.00     0.293 HD
ENDBRANCH  27  32
ENDBRANCH   8   9
ENDBRANCH   7   8
ENDBRANCH   4   7
ENDBRANCH   2   3
ENDBRANCH   1   2
BRANCH   1  34
ATOM     34  C   UNL A   1      41.258  19.378  26.210  1.00  0.00     0.023 C 
BRANCH  34  35
ATOM     35  C   UNL A   1      42.719  19.000  26.413  1.00  0.00     0.116 C 
BRANCH  35  36
ATOM     36  N   UNL A   1      43.503  19.019  25.185  1.00  0.00    -0.352 N 
ATOM     37  C   UNL A   1      44.100  20.107  24.587  1.00  0.00     0.251 C 
ATOM     38  H   UNL A   1      43.618  18.154  24.728  1.00  0.00     0.163 HD
ATOM     39  O   UNL A   1      44.662  19.997  23.501  1.00  0.00    -0.269 OA
BRANCH  37  40
ATOM     40  C   UNL A   1      43.992  21.417  25.260  1.00  0.00     0.039 A 
ATOM     41  C   UNL A   1      43.436  22.502  24.577  1.00  0.00     0.014 A 
ATOM     42  C   UNL A   1      44.589  21.588  26.508  1.00  0.00     0.014 A 
ATOM     43  C   UNL A   1      43.650  23.790  25.059  1.00  0.00     0.010 A 
ATOM     44  C   UNL A   1      44.730  22.876  27.026  1.00  0.00     0.010 A 
ATOM     45  C   UNL A   1      44.322  23.991  26.275  1.00  0.00    -0.014 A 
BRANCH  45  46
ATOM     46  C   UNL A   1      44.643  25.370  26.730  1.00  0.00     0.031 A 
ATOM     47  C   UNL A   1      43.568  26.241  27.327  1.00  0.00     0.074 A 
ATOM     48  C   UNL A   1      45.905  25.827  26.629  1.00  0.00     0.049 A 
ATOM     49  N   UNL A   1      43.635  27.495  27.692  1.00  0.00    -0.248 NA
ATOM     50  C   UNL A   1      42.246  25.628  27.542  1.00  0.00     0.031 C 
ATOM     51  C   UNL A   1      47.032  25.060  26.101  1.00  0.00     0.029 A 
ATOM     52  N   UNL A   1      46.455  27.041  26.963  1.00  0.00    -0.354 N 
ATOM     53  C   UNL A   1      42.365  27.829  28.151  1.00  0.00     0.074 A 
ATOM     54  C   UNL A   1      41.539  26.652  28.002  1.00  0.00     0.031 C 
ATOM     55  C   UNL A   1      48.140  25.812  26.158  1.00  0.00     0.029 A 
ATOM     56  C   UNL A   1      47.791  27.143  26.649  1.00  0.00     0.049 A 
ATOM     57  H   UNL A   1      45.942  27.768  27.384  1.00  0.00     0.167 HD
ATOM     58  C   UNL A   1      41.938  29.008  28.661  1.00  0.00     0.034 A 
ATOM     59  C   UNL A   1      48.633  28.195  26.706  1.00  0.00     0.034 A 
ATOM     60  C   UNL A   1      42.787  30.156  28.840  1.00  0.00     0.049 A 
ATOM     61  C   UNL A   1      48.124  29.507  27.244  1.00  0.00     0.074 A 
ATOM     62  C   UNL A   1      42.448  31.388  29.373  1.00  0.00     0.029 A 
ATOM     63  N   UNL A   1      44.132  30.218  28.512  1.00  0.00    -0.354 N 
ATOM     64  N   UNL A   1      46.925  29.799  27.693  1.00  0.00    -0.248 NA
ATOM     65  C   UNL A   1      49.067  30.632  27.289  1.00  0.00     0.031 C 
ATOM     66  C   UNL A   1      43.569  32.213  29.310  1.00  0.00     0.029 A 
ATOM     67  C   UNL A   1      44.631  31.475  28.810  1.00  0.00     0.049 A 
ATOM     68  H   UNL A   1      44.655  29.479  28.124  1.00  0.00     0.167 HD
ATOM     69  C   UNL A   1      46.979  31.131  28.095  1.00  0.00     0.074 A 
ATOM     70  C   UNL A   1      48.333  31.582  27.856  1.00  0.00     0.031 C 
ATOM     71  C   UNL A   1      45.993  31.906  28.607  1.00  0.00     0.034 A 
BRANCH  58  72
ATOM     72  C   UNL A   1      40.499  29.149  29.091  1.00  0.00     0.023 A 
ATOM     73  C   UNL A   1      40.159  28.998  30.450  1.00  0.00     0.031 A 
ATOM     74  C   UNL A   1      39.460  29.238  28.149  1.00  0.00     0.131 A 
ATOM     75  C   UNL A   1      38.815  28.883  30.821  1.00  0.00     0.055 A 
ATOM     76  C   UNL A   1      38.120  29.164  28.531  1.00  0.00     0.041 A 
ATOM     77  F   UNL A   1      39.735  29.383  26.843  1.00  0.00    -0.206 F 
ATOM     78  C   UNL A   1      37.793  28.968  29.870  1.00  0.00     0.022 A 
BRANCH  75  79
ATOM     79  S   UNL A   1      38.344  28.540  32.540  1.00  0.00     0.124 S 
ATOM     80  O   UNL A   1      37.028  29.170  32.623  1.00  0.00    -0.237 OA
ATOM     81  O   UNL A   1      38.340  27.080  32.569  1.00  0.00    -0.237 OA
ATOM     82  O   UNL A   1      39.390  29.187  33.325  1.00  0.00    -0.744 OA
ENDBRANCH  75  79
ENDBRANCH  58  72
BRANCH  59  83
ATOM     83  C   UNL A   1      50.039  28.022  26.236  1.00  0.00     0.023 A 
ATOM     84  C   UNL A   1      50.352  28.101  24.865  1.00  0.00     0.031 A 
ATOM     85  C   UNL A   1      51.066  27.668  27.126  1.00  0.00     0.131 A 
ATOM     86  C   UNL A   1      51.633  27.754  24.418  1.00  0.00     0.055 A 
ATOM     87  C   UNL A   1      52.364  27.399  26.683  1.00  0.00     0.041 A 
ATOM     88  F   UNL A   1      50.817  27.565  28.440  1.00  0.00    -0.206 F 
ATOM     89  C   UNL A   1      52.646  27.421  25.321  1.00  0.00     0.022 A 
BRANCH  86  90
ATOM     90  S   UNL A   1      51.976  27.570  22.645  1.00  0.00     0.124 S 
ATOM     91  O   UNL A   1      52.491  28.890  22.298  1.00  0.00    -0.237 OA
ATOM     92  O   UNL A   1      52.957  26.486  22.641  1.00  0.00    -0.237 OA
ATOM     93  O   UNL A   1      50.676  27.227  22.078  1.00  0.00    -0.744 OA
ENDBRANCH  86  90
ENDBRANCH  59  83
BRANCH  71  94
ATOM     94  C   UNL A   1      46.300  33.334  28.983  1.00  0.00     0.023 A 
ATOM     95  C   UNL A   1      46.205  34.347  28.008  1.00  0.00     0.031 A 
ATOM     96  C   UNL A   1      46.880  33.652  30.222  1.00  0.00     0.131 A 
ATOM     97  C   UNL A   1      46.744  35.613  28.266  1.00  0.00     0.055 A 
ATOM     98  C   UNL A   1      47.369  34.931  30.492  1.00  0.00     0.041 A 
ATOM     99  F   UNL A   1      47.002  32.717  31.177  1.00  0.00    -0.206 F 
ATOM    100  C   UNL A   1      47.320  35.912  29.504  1.00  0.00     0.022 A 
BRANCH  97 101
ATOM    101  S   UNL A   1      46.813  36.880  26.969  1.00  0.00     0.124 S 
ATOM    102  O   UNL A   1      45.779  37.816  27.406  1.00  0.00    -0.237 OA
ATOM    103  O   UNL A   1      48.184  37.366  27.088  1.00  0.00    -0.237 OA
ATOM    104  O   UNL A   1      46.507  36.149  25.745  1.00  0.00    -0.744 OA
ENDBRANCH  97 101
ENDBRANCH  71  94
ENDBRANCH  45  46
ENDBRANCH  37  40
ENDBRANCH  35  36
ENDBRANCH  34  35
ENDBRANCH   1  34
TORSDOF 19
ENDMDL
