MODEL 1
REMARK VINA RESULT:     -12.3      0.000      0.000
REMARK SMILES O=C(NCCCCNC(=O)c1ccc([C@H]2CCCN(C(=O)c3ccc4[nH]ccc4c3)C2)cc1)c1ccc(-c2c3nc(c(-c4cc(S(=O)(=O)[O-])ccc4F)c4ccc([nH]4)c(-c4cc(S(=O)(=O)[O-])ccc4F)c4nc(c(-c5cc(S(=O)(=O)[O-])ccc5F)c5ccc2[nH]5)C=C4)C=C3)cc1
REMARK SMILES IDX 5 1 4 2 3 3 1 4 2 5 34 7 35 8 96 9 36 10 95 11 37 12 38 13
REMARK SMILES IDX 39 14 89 15 40 16 94 17 88 18 90 19 41 20 93 21 87 22 86 23
REMARK SMILES IDX 42 25 74 26 54 27 73 28 55 29 58 30 72 31 91 32 56 33 57 34
REMARK SMILES IDX 71 36 92 37 59 38 43 39 44 40 52 41 45 42 51 43 53 44 50 45
REMARK SMILES IDX 46 46 47 47 48 48 49 49 75 50 76 51 84 52 77 53 83 54 85 55
REMARK SMILES IDX 82 56 78 57 79 58 80 59 81 60 60 61 61 62 69 63 62 64 68 65
REMARK SMILES IDX 70 66 67 67 63 68 64 69 65 70 66 71 6 72 7 73 8 74 9 75
REMARK SMILES IDX 10 77 11 78 12 79 33 80 13 81 32 82 14 83 15 84 16 85 31 86
REMARK SMILES IDX 17 87 19 88 18 89 20 90 21 91 22 92 23 93 30 94 24 95 29 96
REMARK SMILES IDX 25 97 28 98 26 99 27 100
REMARK H PARENT 3 6 90 24 58 35 8 76 26 101
REMARK Flexibility Score: inf
ROOT
ATOM      1  C   UNL A   1      32.924  28.382  24.317  1.00  0.00     0.023 C 
ENDROOT
BRANCH   1   2
ATOM      2  C   UNL A   1      33.688  29.067  25.441  1.00  0.00     0.116 C 
BRANCH   2   3
ATOM      3  N   UNL A   1      33.000  30.238  25.965  1.00  0.00    -0.352 N 
ATOM      4  O   UNL A   1      32.588  31.926  27.405  1.00  0.00    -0.269 OA
ATOM      5  C   UNL A   1      33.364  31.063  27.004  1.00  0.00     0.251 C 
ATOM      6  H   UNL A   1      32.156  30.473  25.513  1.00  0.00     0.163 HD
BRANCH   5   7
ATOM      7  C   UNL A   1      34.683  30.886  27.649  1.00  0.00     0.039 A 
ATOM      8  C   UNL A   1      35.047  29.650  28.188  1.00  0.00     0.014 A 
ATOM      9  C   UNL A   1      35.558  31.972  27.732  1.00  0.00     0.014 A 
ATOM     10  C   UNL A   1      36.208  29.540  28.941  1.00  0.00     0.010 A 
ATOM     11  C   UNL A   1      36.774  31.833  28.409  1.00  0.00     0.010 A 
ATOM     12  C   UNL A   1      37.097  30.623  29.045  1.00  0.00    -0.014 A 
BRANCH  12  13
ATOM     13  C   UNL A   1      38.383  30.441  29.767  1.00  0.00     0.031 A 
ATOM     14  C   UNL A   1      39.532  29.700  29.141  1.00  0.00     0.074 A 
ATOM     15  C   UNL A   1      38.514  30.986  30.993  1.00  0.00     0.049 A 
ATOM     16  N   UNL A   1      40.718  29.447  29.637  1.00  0.00    -0.248 NA
ATOM     17  C   UNL A   1      39.322  29.166  27.788  1.00  0.00     0.031 C 
ATOM     18  C   UNL A   1      37.465  31.732  31.695  1.00  0.00     0.029 A 
ATOM     19  N   UNL A   1      39.575  31.015  31.859  1.00  0.00    -0.354 N 
ATOM     20  C   UNL A   1      41.393  28.717  28.664  1.00  0.00     0.074 A 
ATOM     21  C   UNL A   1      40.467  28.536  27.564  1.00  0.00     0.031 C 
ATOM     22  C   UNL A   1      37.951  32.185  32.858  1.00  0.00     0.029 A 
ATOM     23  C   UNL A   1      39.314  31.696  33.025  1.00  0.00     0.049 A 
ATOM     24  H   UNL A   1      40.442  30.590  31.664  1.00  0.00     0.167 HD
ATOM     25  C   UNL A   1      42.668  28.249  28.688  1.00  0.00     0.034 A 
ATOM     26  C   UNL A   1      40.073  31.883  34.122  1.00  0.00     0.034 A 
ATOM     27  C   UNL A   1      43.572  28.437  29.800  1.00  0.00     0.049 A 
ATOM     28  C   UNL A   1      41.457  31.298  34.149  1.00  0.00     0.074 A 
ATOM     29  C   UNL A   1      44.889  28.026  29.920  1.00  0.00     0.029 A 
ATOM     30  N   UNL A   1      43.252  29.082  30.990  1.00  0.00    -0.354 N 
ATOM     31  N   UNL A   1      42.083  30.613  33.218  1.00  0.00    -0.248 NA
ATOM     32  C   UNL A   1      42.239  31.510  35.371  1.00  0.00     0.031 C 
ATOM     33  C   UNL A   1      45.339  28.354  31.204  1.00  0.00     0.029 A 
ATOM     34  C   UNL A   1      44.334  29.047  31.859  1.00  0.00     0.049 A 
ATOM     35  H   UNL A   1      42.385  29.505  31.187  1.00  0.00     0.167 HD
ATOM     36  C   UNL A   1      43.341  30.333  33.738  1.00  0.00     0.074 A 
ATOM     37  C   UNL A   1      43.392  30.940  35.053  1.00  0.00     0.031 C 
ATOM     38  C   UNL A   1      44.364  29.639  33.177  1.00  0.00     0.034 A 
BRANCH  25  39
ATOM     39  C   UNL A   1      43.141  27.450  27.495  1.00  0.00     0.023 A 
ATOM     40  C   UNL A   1      43.108  26.044  27.482  1.00  0.00     0.031 A 
ATOM     41  C   UNL A   1      43.644  28.104  26.356  1.00  0.00     0.131 A 
ATOM     42  C   UNL A   1      43.630  25.340  26.385  1.00  0.00     0.055 A 
ATOM     43  C   UNL A   1      44.088  27.399  25.235  1.00  0.00     0.041 A 
ATOM     44  F   UNL A   1      43.720  29.444  26.315  1.00  0.00    -0.206 F 
ATOM     45  C   UNL A   1      44.097  26.008  25.250  1.00  0.00     0.022 A 
BRANCH  42  46
ATOM     46  S   UNL A   1      43.820  23.541  26.520  1.00  0.00     0.124 S 
ATOM     47  O   UNL A   1      45.180  23.349  26.021  1.00  0.00    -0.237 OA
ATOM     48  O   UNL A   1      43.623  23.309  27.945  1.00  0.00    -0.237 OA
ATOM     49  O   UNL A   1      42.766  23.018  25.651  1.00  0.00    -0.744 OA
ENDBRANCH  42  46
ENDBRANCH  25  39
BRANCH  26  50
ATOM     50  C   UNL A   1      39.523  32.621  35.294  1.00  0.00     0.023 A 
ATOM     51  C   UNL A   1      38.861  31.945  36.329  1.00  0.00     0.031 A 
ATOM     52  C   UNL A   1      39.634  34.021  35.382  1.00  0.00     0.131 A 
ATOM     53  C   UNL A   1      38.300  32.674  37.390  1.00  0.00     0.055 A 
ATOM     54  C   UNL A   1      39.127  34.734  36.468  1.00  0.00     0.041 A 
ATOM     55  F   UNL A   1      40.261  34.715  34.420  1.00  0.00    -0.206 F 
ATOM     56  C   UNL A   1      38.443  34.061  37.475  1.00  0.00     0.022 A 
BRANCH  53  57
ATOM     57  S   UNL A   1      37.306  31.787  38.619  1.00  0.00     0.124 S 
ATOM     58  O   UNL A   1      37.161  30.477  37.995  1.00  0.00    -0.237 OA
ATOM     59  O   UNL A   1      38.161  31.846  39.800  1.00  0.00    -0.237 OA
ATOM     60  O   UNL A   1      36.080  32.578  38.700  1.00  0.00    -0.744 OA
ENDBRANCH  53  57
ENDBRANCH  26  50
BRANCH  38  61
ATOM     61  C   UNL A   1      45.638  29.537  33.982  1.00  0.00     0.023 A 
ATOM     62  C   UNL A   1      45.869  28.472  34.870  1.00  0.00     0.031 A 
ATOM     63  C   UNL A   1      46.622  30.535  33.874  1.00  0.00     0.131 A 
ATOM     64  C   UNL A   1      47.028  28.461  35.659  1.00  0.00     0.055 A 
ATOM     65  C   UNL A   1      47.803  30.485  34.617  1.00  0.00     0.041 A 
ATOM     66  F   UNL A   1      46.451  31.578  33.045  1.00  0.00    -0.206 F 
ATOM     67  C   UNL A   1      48.005  29.451  35.526  1.00  0.00     0.022 A 
BRANCH  64  68
ATOM     68  S   UNL A   1      47.200  27.183  36.936  1.00  0.00     0.124 S 
ATOM     69  O   UNL A   1      48.645  27.141  37.129  1.00  0.00    -0.237 OA
ATOM     70  O   UNL A   1      46.424  27.738  38.040  1.00  0.00    -0.237 OA
ATOM     71  O   UNL A   1      46.623  25.994  36.311  1.00  0.00    -0.744 OA
ENDBRANCH  64  68
ENDBRANCH  38  61
ENDBRANCH  12  13
ENDBRANCH   5   7
ENDBRANCH   2   3
ENDBRANCH   1   2
BRANCH   1  72
ATOM     72  C   UNL A   1      31.552  28.975  24.011  1.00  0.00     0.023 C 
BRANCH  72  73
ATOM     73  C   UNL A   1      30.804  28.320  22.855  1.00  0.00     0.116 C 
BRANCH  73  74
ATOM     74  N   UNL A   1      29.432  27.964  23.190  1.00  0.00    -0.352 N 
ATOM     75  C   UNL A   1      28.965  26.843  23.838  1.00  0.00     0.251 C 
ATOM     76  H   UNL A   1      28.745  28.614  22.915  1.00  0.00     0.163 HD
ATOM     77  O   UNL A   1      27.768  26.626  23.952  1.00  0.00    -0.269 OA
BRANCH  75  78
ATOM     78  C   UNL A   1      29.943  25.873  24.363  1.00  0.00     0.039 A 
ATOM     79  C   UNL A   1      30.424  24.875  23.518  1.00  0.00     0.014 A 
ATOM     80  C   UNL A   1      30.427  25.990  25.664  1.00  0.00     0.014 A 
ATOM     81  C   UNL A   1      31.484  24.073  23.942  1.00  0.00     0.005 A 
ATOM     82  C   UNL A   1      31.503  25.203  26.073  1.00  0.00     0.005 A 
ATOM     83  C   UNL A   1      32.089  24.273  25.198  1.00  0.00    -0.043 A 
BRANCH  83  84
ATOM     84  C   UNL A   1      33.363  23.506  25.550  1.00  0.00     0.039 C 
ATOM     85  C   UNL A   1      33.065  22.421  26.618  1.00  0.00     0.012 C 
ATOM     86  C   UNL A   1      34.057  22.843  24.336  1.00  0.00     0.128 C 
ATOM     87  C   UNL A   1      34.292  21.569  26.949  1.00  0.00     0.022 C 
ATOM     88  N   UNL A   1      35.202  22.034  24.737  1.00  0.00    -0.338 N 
ATOM     89  C   UNL A   1      34.903  20.969  25.691  1.00  0.00     0.120 C 
BRANCH  88  90
ATOM     90  C   UNL A   1      36.460  22.354  24.242  1.00  0.00     0.253 C 
ATOM     91  O   UNL A   1      36.732  22.469  23.051  1.00  0.00    -0.269 OA
BRANCH  90  92
ATOM     92  C   UNL A   1      37.540  22.594  25.210  1.00  0.00     0.040 A 
ATOM     93  C   UNL A   1      38.429  21.555  25.491  1.00  0.00     0.016 A 
ATOM     94  C   UNL A   1      37.646  23.850  25.822  1.00  0.00     0.024 A 
ATOM     95  C   UNL A   1      39.490  21.758  26.375  1.00  0.00     0.027 A 
ATOM     96  C   UNL A   1      38.705  24.063  26.721  1.00  0.00     0.000 A 
ATOM     97  C   UNL A   1      39.603  23.023  26.968  1.00  0.00     0.045 A 
ATOM     98  C   UNL A   1      39.119  25.172  27.510  1.00  0.00     0.028 A 
ATOM     99  N   UNL A   1      40.537  23.500  27.860  1.00  0.00    -0.361 N 
ATOM    100  C   UNL A   1      40.249  24.796  28.201  1.00  0.00     0.083 A 
ATOM    101  H   UNL A   1      41.303  22.985  28.203  1.00  0.00     0.166 HD
ENDBRANCH  90  92
ENDBRANCH  88  90
ENDBRANCH  83  84
ENDBRANCH  75  78
ENDBRANCH  73  74
ENDBRANCH  72  73
ENDBRANCH   1  72
TORSDOF 17
ENDMDL
MODEL 2
REMARK VINA RESULT:     -11.8      2.573      8.210
REMARK SMILES O=C(NCCCCNC(=O)c1ccc([C@H]2CCCN(C(=O)c3ccc4[nH]ccc4c3)C2)cc1)c1ccc(-c2c3nc(c(-c4cc(S(=O)(=O)[O-])ccc4F)c4ccc([nH]4)c(-c4cc(S(=O)(=O)[O-])ccc4F)c4nc(c(-c5cc(S(=O)(=O)[O-])ccc5F)c5ccc2[nH]5)C=C4)C=C3)cc1
REMARK SMILES IDX 5 1 4 2 3 3 1 4 2 5 34 7 35 8 96 9 36 10 95 11 37 12 38 13
REMARK SMILES IDX 39 14 89 15 40 16 94 17 88 18 90 19 41 20 93 21 87 22 86 23
REMARK SMILES IDX 42 25 74 26 54 27 73 28 55 29 58 30 72 31 91 32 56 33 57 34
REMARK SMILES IDX 71 36 92 37 59 38 43 39 44 40 52 41 45 42 51 43 53 44 50 45
REMARK SMILES IDX 46 46 47 47 48 48 49 49 75 50 76 51 84 52 77 53 83 54 85 55
REMARK SMILES IDX 82 56 78 57 79 58 80 59 81 60 60 61 61 62 69 63 62 64 68 65
REMARK SMILES IDX 70 66 67 67 63 68 64 69 65 70 66 71 6 72 7 73 8 74 9 75
REMARK SMILES IDX 10 77 11 78 12 79 33 80 13 81 32 82 14 83 15 84 16 85 31 86
REMARK SMILES IDX 17 87 19 88 18 89 20 90 21 91 22 92 23 93 30 94 24 95 29 96
REMARK SMILES IDX 25 97 28 98 26 99 27 100
REMARK H PARENT 3 6 90 24 58 35 8 76 26 101
REMARK Flexibility Score: inf
ROOT
ATOM      1  C   UNL A   1      31.709  32.174  26.858  1.00  0.00     0.023 C 
ENDROOT
BRANCH   1   2
ATOM      2  C   UNL A   1      32.974  32.826  27.398  1.00  0.00     0.116 C 
BRANCH   2   3
ATOM      3  N   UNL A   1      32.755  34.185  27.871  1.00  0.00    -0.352 N 
ATOM      4  O   UNL A   1      32.959  35.952  29.261  1.00  0.00    -0.269 OA
ATOM      5  C   UNL A   1      33.370  34.851  28.907  1.00  0.00     0.251 C 
ATOM      6  H   UNL A   1      32.071  34.700  27.383  1.00  0.00     0.163 HD
BRANCH   5   7
ATOM      7  C   UNL A   1      34.512  34.220  29.603  1.00  0.00     0.039 A 
ATOM      8  C   UNL A   1      35.822  34.484  29.195  1.00  0.00     0.014 A 
ATOM      9  C   UNL A   1      34.271  33.342  30.663  1.00  0.00     0.014 A 
ATOM     10  C   UNL A   1      36.874  33.757  29.737  1.00  0.00     0.010 A 
ATOM     11  C   UNL A   1      35.343  32.683  31.274  1.00  0.00     0.010 A 
ATOM     12  C   UNL A   1      36.652  32.863  30.797  1.00  0.00    -0.014 A 
BRANCH  12  13
ATOM     13  C   UNL A   1      37.812  32.181  31.429  1.00  0.00     0.031 A 
ATOM     14  C   UNL A   1      38.311  32.588  32.788  1.00  0.00     0.074 A 
ATOM     15  C   UNL A   1      38.394  31.161  30.768  1.00  0.00     0.049 A 
ATOM     16  N   UNL A   1      39.314  32.102  33.476  1.00  0.00    -0.248 NA
ATOM     17  C   UNL A   1      37.601  33.687  33.457  1.00  0.00     0.031 C 
ATOM     18  C   UNL A   1      37.988  30.676  29.446  1.00  0.00     0.029 A 
ATOM     19  N   UNL A   1      39.432  30.337  31.116  1.00  0.00    -0.354 N 
ATOM     20  C   UNL A   1      39.363  32.840  34.654  1.00  0.00     0.074 A 
ATOM     21  C   UNL A   1      38.311  33.832  34.566  1.00  0.00     0.031 C 
ATOM     22  C   UNL A   1      38.734  29.614  29.117  1.00  0.00     0.029 A 
ATOM     23  C   UNL A   1      39.725  29.390  30.163  1.00  0.00     0.049 A 
ATOM     24  H   UNL A   1      39.922  30.416  31.967  1.00  0.00     0.167 HD
ATOM     25  C   UNL A   1      40.205  32.695  35.710  1.00  0.00     0.034 A 
ATOM     26  C   UNL A   1      40.699  28.460  30.116  1.00  0.00     0.034 A 
ATOM     27  C   UNL A   1      41.252  31.701  35.772  1.00  0.00     0.049 A 
ATOM     28  C   UNL A   1      41.658  28.365  31.270  1.00  0.00     0.074 A 
ATOM     29  C   UNL A   1      42.146  31.452  36.801  1.00  0.00     0.029 A 
ATOM     30  N   UNL A   1      41.556  30.795  34.762  1.00  0.00    -0.354 N 
ATOM     31  N   UNL A   1      41.688  29.068  32.379  1.00  0.00    -0.248 NA
ATOM     32  C   UNL A   1      42.715  27.353  31.167  1.00  0.00     0.031 C 
ATOM     33  C   UNL A   1      43.032  30.452  36.385  1.00  0.00     0.029 A 
ATOM     34  C   UNL A   1      42.643  30.014  35.129  1.00  0.00     0.049 A 
ATOM     35  H   UNL A   1      41.069  30.718  33.910  1.00  0.00     0.167 HD
ATOM     36  C   UNL A   1      42.756  28.565  33.115  1.00  0.00     0.074 A 
ATOM     37  C   UNL A   1      43.328  27.488  32.333  1.00  0.00     0.031 C 
ATOM     38  C   UNL A   1      43.218  28.956  34.330  1.00  0.00     0.034 A 
BRANCH  25  39
ATOM     39  C   UNL A   1      40.056  33.664  36.861  1.00  0.00     0.023 A 
ATOM     40  C   UNL A   1      39.431  33.298  38.066  1.00  0.00     0.031 A 
ATOM     41  C   UNL A   1      40.538  34.981  36.747  1.00  0.00     0.131 A 
ATOM     42  C   UNL A   1      39.245  34.251  39.079  1.00  0.00     0.055 A 
ATOM     43  C   UNL A   1      40.420  35.903  37.790  1.00  0.00     0.041 A 
ATOM     44  F   UNL A   1      41.126  35.398  35.615  1.00  0.00    -0.206 F 
ATOM     45  C   UNL A   1      39.757  35.545  38.960  1.00  0.00     0.022 A 
BRANCH  42  46
ATOM     46  S   UNL A   1      38.200  33.818  40.497  1.00  0.00     0.124 S 
ATOM     47  O   UNL A   1      37.888  35.135  41.049  1.00  0.00    -0.237 OA
ATOM     48  O   UNL A   1      37.091  33.110  39.868  1.00  0.00    -0.237 OA
ATOM     49  O   UNL A   1      39.075  32.994  41.330  1.00  0.00    -0.744 OA
ENDBRANCH  42  46
ENDBRANCH  25  39
BRANCH  26  50
ATOM     50  C   UNL A   1      40.836  27.580  28.922  1.00  0.00     0.023 A 
ATOM     51  C   UNL A   1      41.834  27.811  27.964  1.00  0.00     0.031 A 
ATOM     52  C   UNL A   1      39.952  26.506  28.711  1.00  0.00     0.131 A 
ATOM     53  C   UNL A   1      41.900  27.002  26.818  1.00  0.00     0.055 A 
ATOM     54  C   UNL A   1      40.060  25.669  27.601  1.00  0.00     0.041 A 
ATOM     55  F   UNL A   1      38.982  26.240  29.600  1.00  0.00    -0.206 F 
ATOM     56  C   UNL A   1      41.031  25.923  26.639  1.00  0.00     0.022 A 
BRANCH  53  57
ATOM     57  S   UNL A   1      43.092  27.434  25.522  1.00  0.00     0.124 S 
ATOM     58  O   UNL A   1      42.274  28.240  24.624  1.00  0.00    -0.237 OA
ATOM     59  O   UNL A   1      44.115  28.149  26.276  1.00  0.00    -0.237 OA
ATOM     60  O   UNL A   1      43.504  26.135  24.993  1.00  0.00    -0.744 OA
ENDBRANCH  53  57
ENDBRANCH  26  50
BRANCH  38  61
ATOM     61  C   UNL A   1      44.383  28.180  34.896  1.00  0.00     0.023 A 
ATOM     62  C   UNL A   1      44.198  26.968  35.585  1.00  0.00     0.031 A 
ATOM     63  C   UNL A   1      45.692  28.674  34.764  1.00  0.00     0.131 A 
ATOM     64  C   UNL A   1      45.298  26.322  36.167  1.00  0.00     0.055 A 
ATOM     65  C   UNL A   1      46.790  27.994  35.292  1.00  0.00     0.041 A 
ATOM     66  F   UNL A   1      45.925  29.829  34.120  1.00  0.00    -0.206 F 
ATOM     67  C   UNL A   1      46.596  26.818  36.010  1.00  0.00     0.022 A 
BRANCH  64  68
ATOM     68  S   UNL A   1      45.002  24.873  37.217  1.00  0.00     0.124 S 
ATOM     69  O   UNL A   1      44.034  24.120  36.428  1.00  0.00    -0.237 OA
ATOM     70  O   UNL A   1      46.334  24.286  37.322  1.00  0.00    -0.237 OA
ATOM     71  O   UNL A   1      44.481  25.447  38.456  1.00  0.00    -0.744 OA
ENDBRANCH  64  68
ENDBRANCH  38  61
ENDBRANCH  12  13
ENDBRANCH   5   7
ENDBRANCH   2   3
ENDBRANCH   1   2
BRANCH   1  72
ATOM     72  C   UNL A   1      31.746  30.650  26.789  1.00  0.00     0.023 C 
BRANCH  72  73
ATOM     73  C   UNL A   1      31.924  30.067  25.391  1.00  0.00     0.116 C 
BRANCH  73  74
ATOM     74  N   UNL A   1      30.794  30.331  24.511  1.00  0.00    -0.352 N 
ATOM     75  C   UNL A   1      30.209  29.498  23.585  1.00  0.00     0.251 C 
ATOM     76  H   UNL A   1      30.393  31.227  24.591  1.00  0.00     0.163 HD
ATOM     77  O   UNL A   1      29.330  29.897  22.836  1.00  0.00    -0.269 OA
BRANCH  75  78
ATOM     78  C   UNL A   1      30.694  28.110  23.478  1.00  0.00     0.039 A 
ATOM     79  C   UNL A   1      31.848  27.854  22.742  1.00  0.00     0.014 A 
ATOM     80  C   UNL A   1      30.044  27.080  24.155  1.00  0.00     0.014 A 
ATOM     81  C   UNL A   1      32.420  26.582  22.790  1.00  0.00     0.005 A 
ATOM     82  C   UNL A   1      30.634  25.818  24.221  1.00  0.00     0.005 A 
ATOM     83  C   UNL A   1      31.863  25.565  23.589  1.00  0.00    -0.043 A 
BRANCH  83  84
ATOM     84  C   UNL A   1      32.619  24.248  23.766  1.00  0.00     0.039 C 
ATOM     85  C   UNL A   1      33.912  24.245  22.908  1.00  0.00     0.012 C 
ATOM     86  C   UNL A   1      32.986  23.921  25.233  1.00  0.00     0.128 C 
ATOM     87  C   UNL A   1      34.748  22.980  23.108  1.00  0.00     0.022 C 
ATOM     88  N   UNL A   1      33.798  22.715  25.337  1.00  0.00    -0.338 N 
ATOM     89  C   UNL A   1      35.048  22.745  24.582  1.00  0.00     0.120 C 
BRANCH  88  90
ATOM     90  C   UNL A   1      33.320  21.641  26.077  1.00  0.00     0.253 C 
ATOM     91  O   UNL A   1      33.061  21.681  27.276  1.00  0.00    -0.269 OA
BRANCH  90  92
ATOM     92  C   UNL A   1      33.085  20.372  25.375  1.00  0.00     0.040 A 
ATOM     93  C   UNL A   1      32.610  20.412  24.063  1.00  0.00     0.016 A 
ATOM     94  C   UNL A   1      33.340  19.164  26.038  1.00  0.00     0.024 A 
ATOM     95  C   UNL A   1      32.411  19.227  23.352  1.00  0.00     0.027 A 
ATOM     96  C   UNL A   1      33.135  17.964  25.334  1.00  0.00     0.000 A 
ATOM     97  C   UNL A   1      32.688  18.023  24.012  1.00  0.00     0.045 A 
ATOM     98  C   UNL A   1      33.281  16.589  25.668  1.00  0.00     0.028 A 
ATOM     99  N   UNL A   1      32.590  16.725  23.563  1.00  0.00    -0.361 N 
ATOM    100  C   UNL A   1      32.937  15.851  24.558  1.00  0.00     0.083 A 
ATOM    101  H   UNL A   1      32.311  16.463  22.656  1.00  0.00     0.166 HD
ENDBRANCH  90  92
ENDBRANCH  88  90
ENDBRANCH  83  84
ENDBRANCH  75  78
ENDBRANCH  73  74
ENDBRANCH  72  73
ENDBRANCH   1  72
TORSDOF 17
ENDMDL
MODEL 3
REMARK VINA RESULT:     -11.8      2.349      7.888
REMARK SMILES O=C(NCCCCNC(=O)c1ccc([C@H]2CCCN(C(=O)c3ccc4[nH]ccc4c3)C2)cc1)c1ccc(-c2c3nc(c(-c4cc(S(=O)(=O)[O-])ccc4F)c4ccc([nH]4)c(-c4cc(S(=O)(=O)[O-])ccc4F)c4nc(c(-c5cc(S(=O)(=O)[O-])ccc5F)c5ccc2[nH]5)C=C4)C=C3)cc1
REMARK SMILES IDX 5 1 4 2 3 3 1 4 2 5 34 7 35 8 96 9 36 10 95 11 37 12 38 13
REMARK SMILES IDX 39 14 89 15 40 16 94 17 88 18 90 19 41 20 93 21 87 22 86 23
REMARK SMILES IDX 42 25 74 26 54 27 73 28 55 29 58 30 72 31 91 32 56 33 57 34
REMARK SMILES IDX 71 36 92 37 59 38 43 39 44 40 52 41 45 42 51 43 53 44 50 45
REMARK SMILES IDX 46 46 47 47 48 48 49 49 75 50 76 51 84 52 77 53 83 54 85 55
REMARK SMILES IDX 82 56 78 57 79 58 80 59 81 60 60 61 61 62 69 63 62 64 68 65
REMARK SMILES IDX 70 66 67 67 63 68 64 69 65 70 66 71 6 72 7 73 8 74 9 75
REMARK SMILES IDX 10 77 11 78 12 79 33 80 13 81 32 82 14 83 15 84 16 85 31 86
REMARK SMILES IDX 17 87 19 88 18 89 20 90 21 91 22 92 23 93 30 94 24 95 29 96
REMARK SMILES IDX 25 97 28 98 26 99 27 100
REMARK H PARENT 3 6 90 24 58 35 8 76 26 101
REMARK Flexibility Score: inf
ROOT
ATOM      1  C   UNL A   1      31.409  32.162  27.056  1.00  0.00     0.023 C 
ENDROOT
BRANCH   1   2
ATOM      2  C   UNL A   1      32.717  32.923  27.224  1.00  0.00     0.116 C 
BRANCH   2   3
ATOM      3  N   UNL A   1      32.533  34.250  27.794  1.00  0.00    -0.352 N 
ATOM      4  O   UNL A   1      32.812  35.917  29.289  1.00  0.00    -0.269 OA
ATOM      5  C   UNL A   1      33.194  34.837  28.848  1.00  0.00     0.251 C 
ATOM      6  H   UNL A   1      31.839  34.804  27.367  1.00  0.00     0.163 HD
BRANCH   5   7
ATOM      7  C   UNL A   1      34.353  34.149  29.458  1.00  0.00     0.039 A 
ATOM      8  C   UNL A   1      34.164  33.232  30.494  1.00  0.00     0.014 A 
ATOM      9  C   UNL A   1      35.642  34.438  29.002  1.00  0.00     0.014 A 
ATOM     10  C   UNL A   1      35.263  32.724  31.175  1.00  0.00     0.010 A 
ATOM     11  C   UNL A   1      36.746  33.850  29.628  1.00  0.00     0.010 A 
ATOM     12  C   UNL A   1      36.567  33.010  30.740  1.00  0.00    -0.014 A 
BRANCH  12  13
ATOM     13  C   UNL A   1      37.719  32.365  31.422  1.00  0.00     0.031 A 
ATOM     14  C   UNL A   1      38.152  32.793  32.797  1.00  0.00     0.074 A 
ATOM     15  C   UNL A   1      38.357  31.358  30.792  1.00  0.00     0.049 A 
ATOM     16  N   UNL A   1      39.139  32.340  33.529  1.00  0.00    -0.248 NA
ATOM     17  C   UNL A   1      37.385  33.875  33.430  1.00  0.00     0.031 C 
ATOM     18  C   UNL A   1      38.018  30.855  29.458  1.00  0.00     0.029 A 
ATOM     19  N   UNL A   1      39.403  30.566  31.187  1.00  0.00    -0.354 N 
ATOM     20  C   UNL A   1      39.120  33.086  34.703  1.00  0.00     0.074 A 
ATOM     21  C   UNL A   1      38.045  34.047  34.566  1.00  0.00     0.031 C 
ATOM     22  C   UNL A   1      38.806  29.813  29.167  1.00  0.00     0.029 A 
ATOM     23  C   UNL A   1      39.760  29.622  30.253  1.00  0.00     0.049 A 
ATOM     24  H   UNL A   1      39.855  30.663  32.056  1.00  0.00     0.167 HD
ATOM     25  C   UNL A   1      39.923  32.970  35.793  1.00  0.00     0.034 A 
ATOM     26  C   UNL A   1      40.760  28.721  30.251  1.00  0.00     0.034 A 
ATOM     27  C   UNL A   1      40.994  32.006  35.904  1.00  0.00     0.049 A 
ATOM     28  C   UNL A   1      41.675  28.659  31.443  1.00  0.00     0.074 A 
ATOM     29  C   UNL A   1      41.852  31.788  36.969  1.00  0.00     0.029 A 
ATOM     30  N   UNL A   1      41.363  31.104  34.912  1.00  0.00    -0.354 N 
ATOM     31  N   UNL A   1      41.640  29.369  32.548  1.00  0.00    -0.248 NA
ATOM     32  C   UNL A   1      42.763  27.676  31.389  1.00  0.00     0.031 C 
ATOM     33  C   UNL A   1      42.782  30.812  36.595  1.00  0.00     0.029 A 
ATOM     34  C   UNL A   1      42.456  30.356  35.328  1.00  0.00     0.049 A 
ATOM     35  H   UNL A   1      40.914  31.008  34.041  1.00  0.00     0.167 HD
ATOM     36  C   UNL A   1      42.691  28.900  33.330  1.00  0.00     0.074 A 
ATOM     37  C   UNL A   1      43.324  27.835  32.578  1.00  0.00     0.031 C 
ATOM     38  C   UNL A   1      43.093  29.311  34.559  1.00  0.00     0.034 A 
BRANCH  25  39
ATOM     39  C   UNL A   1      39.700  33.941  36.930  1.00  0.00     0.023 A 
ATOM     40  C   UNL A   1      39.175  33.529  38.168  1.00  0.00     0.031 A 
ATOM     41  C   UNL A   1      40.009  35.304  36.771  1.00  0.00     0.131 A 
ATOM     42  C   UNL A   1      38.912  34.476  39.169  1.00  0.00     0.055 A 
ATOM     43  C   UNL A   1      39.818  36.229  37.800  1.00  0.00     0.041 A 
ATOM     44  F   UNL A   1      40.494  35.763  35.607  1.00  0.00    -0.206 F 
ATOM     45  C   UNL A   1      39.253  35.820  39.004  1.00  0.00     0.022 A 
BRANCH  42  46
ATOM     46  S   UNL A   1      37.987  33.951  40.640  1.00  0.00     0.124 S 
ATOM     47  O   UNL A   1      36.882  33.204  40.043  1.00  0.00    -0.237 OA
ATOM     48  O   UNL A   1      38.973  33.161  41.367  1.00  0.00    -0.237 OA
ATOM     49  O   UNL A   1      37.606  35.212  41.274  1.00  0.00    -0.744 OA
ENDBRANCH  42  46
ENDBRANCH  25  39
BRANCH  26  50
ATOM     50  C   UNL A   1      40.971  27.838  29.069  1.00  0.00     0.023 A 
ATOM     51  C   UNL A   1      41.965  28.123  28.122  1.00  0.00     0.031 A 
ATOM     52  C   UNL A   1      40.161  26.707  28.860  1.00  0.00     0.131 A 
ATOM     53  C   UNL A   1      42.099  27.307  26.987  1.00  0.00     0.055 A 
ATOM     54  C   UNL A   1      40.337  25.867  27.761  1.00  0.00     0.041 A 
ATOM     55  F   UNL A   1      39.197  26.389  29.739  1.00  0.00    -0.206 F 
ATOM     56  C   UNL A   1      41.303  26.173  26.809  1.00  0.00     0.022 A 
BRANCH  53  57
ATOM     57  S   UNL A   1      43.277  27.801  25.701  1.00  0.00     0.124 S 
ATOM     58  O   UNL A   1      42.405  27.964  24.544  1.00  0.00    -0.237 OA
ATOM     59  O   UNL A   1      43.840  29.025  26.259  1.00  0.00    -0.237 OA
ATOM     60  O   UNL A   1      44.199  26.668  25.632  1.00  0.00    -0.744 OA
ENDBRANCH  53  57
ENDBRANCH  26  50
BRANCH  38  61
ATOM     61  C   UNL A   1      44.255  28.570  35.177  1.00  0.00     0.023 A 
ATOM     62  C   UNL A   1      44.066  27.596  36.173  1.00  0.00     0.031 A 
ATOM     63  C   UNL A   1      45.571  28.864  34.779  1.00  0.00     0.131 A 
ATOM     64  C   UNL A   1      45.177  26.993  36.779  1.00  0.00     0.055 A 
ATOM     65  C   UNL A   1      46.670  28.215  35.342  1.00  0.00     0.041 A 
ATOM     66  F   UNL A   1      45.810  29.789  33.836  1.00  0.00    -0.206 F 
ATOM     67  C   UNL A   1      46.478  27.283  36.358  1.00  0.00     0.022 A 
BRANCH  64  68
ATOM     68  S   UNL A   1      44.907  25.892  38.195  1.00  0.00     0.124 S 
ATOM     69  O   UNL A   1      43.702  26.457  38.793  1.00  0.00    -0.237 OA
ATOM     70  O   UNL A   1      44.751  24.591  37.554  1.00  0.00    -0.237 OA
ATOM     71  O   UNL A   1      46.125  26.048  38.989  1.00  0.00    -0.744 OA
ENDBRANCH  64  68
ENDBRANCH  38  61
ENDBRANCH  12  13
ENDBRANCH   5   7
ENDBRANCH   2   3
ENDBRANCH   1   2
BRANCH   1  72
ATOM     72  C   UNL A   1      30.783  32.248  25.667  1.00  0.00     0.023 C 
BRANCH  72  73
ATOM     73  C   UNL A   1      30.519  30.908  24.990  1.00  0.00     0.116 C 
BRANCH  73  74
ATOM     74  N   UNL A   1      29.849  31.039  23.703  1.00  0.00    -0.352 N 
ATOM     75  C   UNL A   1      29.624  30.076  22.746  1.00  0.00     0.251 C 
ATOM     76  H   UNL A   1      29.511  31.939  23.489  1.00  0.00     0.163 HD
ATOM     77  O   UNL A   1      29.143  30.359  21.659  1.00  0.00    -0.269 OA
BRANCH  75  78
ATOM     78  C   UNL A   1      30.017  28.685  23.038  1.00  0.00     0.039 A 
ATOM     79  C   UNL A   1      31.351  28.315  22.884  1.00  0.00     0.014 A 
ATOM     80  C   UNL A   1      29.082  27.772  23.520  1.00  0.00     0.014 A 
ATOM     81  C   UNL A   1      31.769  27.063  23.336  1.00  0.00     0.005 A 
ATOM     82  C   UNL A   1      29.510  26.532  23.993  1.00  0.00     0.005 A 
ATOM     83  C   UNL A   1      30.869  26.180  23.965  1.00  0.00    -0.043 A 
BRANCH  83  84
ATOM     84  C   UNL A   1      31.399  24.902  24.613  1.00  0.00     0.039 C 
ATOM     85  C   UNL A   1      30.806  24.729  26.037  1.00  0.00     0.012 C 
ATOM     86  C   UNL A   1      31.128  23.618  23.794  1.00  0.00     0.128 C 
ATOM     87  C   UNL A   1      31.243  23.423  26.701  1.00  0.00     0.022 C 
ATOM     88  N   UNL A   1      31.553  22.417  24.503  1.00  0.00    -0.338 N 
ATOM     89  C   UNL A   1      30.939  22.224  25.814  1.00  0.00     0.120 C 
BRANCH  88  90
ATOM     90  C   UNL A   1      32.516  21.599  23.927  1.00  0.00     0.253 C 
ATOM     91  O   UNL A   1      32.314  20.847  22.978  1.00  0.00    -0.269 OA
BRANCH  90  92
ATOM     92  C   UNL A   1      33.879  21.650  24.474  1.00  0.00     0.040 A 
ATOM     93  C   UNL A   1      34.549  20.449  24.711  1.00  0.00     0.016 A 
ATOM     94  C   UNL A   1      34.464  22.894  24.741  1.00  0.00     0.024 A 
ATOM     95  C   UNL A   1      35.859  20.459  25.193  1.00  0.00     0.027 A 
ATOM     96  C   UNL A   1      35.780  22.917  25.235  1.00  0.00     0.000 A 
ATOM     97  C   UNL A   1      36.447  21.707  25.438  1.00  0.00     0.045 A 
ATOM     98  C   UNL A   1      36.673  23.957  25.613  1.00  0.00     0.028 A 
ATOM     99  N   UNL A   1      37.706  22.014  25.904  1.00  0.00    -0.361 N 
ATOM    100  C   UNL A   1      37.850  23.372  26.021  1.00  0.00     0.083 A 
ATOM    101  H   UNL A   1      38.404  21.354  26.120  1.00  0.00     0.166 HD
ENDBRANCH  90  92
ENDBRANCH  88  90
ENDBRANCH  83  84
ENDBRANCH  75  78
ENDBRANCH  73  74
ENDBRANCH  72  73
ENDBRANCH   1  72
TORSDOF 17
ENDMDL
