MODEL 1
REMARK VINA RESULT:     -10.3      0.000      0.000
REMARK SMILES O=C(Cc1ccc(S(=O)(=O)CC(=O)NCC2CC2)cc1)NCCCCNC(=O)c1ccc(-c2c3nc(c(-c4cc(S(=O)(=O)[O-])ccc4F)c4ccc([nH]4)c(-c4cc(S(=O)(=O)[O-])ccc4F)c4nc(c(-c5cc(S(=O)(=O)[O-])ccc5F)c5ccc2[nH]5)C=C4)C=C3)cc1
REMARK SMILES IDX 22 1 21 2 1 3 2 4 3 6 4 7 5 8 20 9 6 10 19 11 7 12 8 13 9 14
REMARK SMILES IDX 10 15 11 16 12 17 13 18 14 19 15 21 16 22 17 23 18 24 23 25
REMARK SMILES IDX 24 26 25 27 26 28 27 29 28 31 29 32 30 33 91 34 31 35 90 36
REMARK SMILES IDX 32 37 33 38 34 39 84 40 35 41 89 42 83 43 85 44 36 45 88 46
REMARK SMILES IDX 82 47 81 48 37 50 69 51 49 52 68 53 50 54 53 55 67 56 86 57
REMARK SMILES IDX 51 58 52 59 66 61 87 62 54 63 38 64 39 65 47 66 40 67 46 68
REMARK SMILES IDX 48 69 45 70 41 71 42 72 43 73 44 74 70 75 71 76 79 77 72 78
REMARK SMILES IDX 78 79 80 80 77 81 73 82 74 83 75 84 76 85 55 86 56 87 64 88
REMARK SMILES IDX 57 89 63 90 65 91 62 92 58 93 59 94 60 95 61 96
REMARK H PARENT 21 5 14 20 26 30 85 49 53 60
REMARK Flexibility Score: inf
ROOT
ATOM      1  C   UNL A   1      35.650  32.301  27.973  1.00  0.00     0.116 C 
ENDROOT
BRANCH   1   2
ATOM      2  N   UNL A   1      34.522  31.601  27.395  1.00  0.00    -0.356 N 
ATOM      3  O   UNL A   1      35.102  29.502  28.141  1.00  0.00    -0.275 OA
ATOM      4  C   UNL A   1      34.289  30.256  27.613  1.00  0.00     0.224 C 
ATOM      5  H   UNL A   1      33.896  32.102  26.825  1.00  0.00     0.163 HD
BRANCH   4   6
ATOM      6  C   UNL A   1      32.923  29.776  27.145  1.00  0.00     0.135 C 
BRANCH   6   7
ATOM      7  C   UNL A   1      32.938  28.512  26.303  1.00  0.00    -0.039 A 
ATOM      8  C   UNL A   1      32.087  27.452  26.648  1.00  0.00     0.005 A 
ATOM      9  C   UNL A   1      33.781  28.359  25.190  1.00  0.00     0.005 A 
ATOM     10  C   UNL A   1      32.109  26.260  25.918  1.00  0.00     0.020 A 
ATOM     11  C   UNL A   1      33.853  27.149  24.501  1.00  0.00     0.020 A 
ATOM     12  C   UNL A   1      33.000  26.109  24.850  1.00  0.00     0.067 A 
BRANCH  12  13
ATOM     13  S   UNL A   1      33.030  24.559  23.991  1.00  0.00     0.187 S 
ATOM     14  O   UNL A   1      34.408  24.381  23.577  1.00  0.00    -0.223 OA
ATOM     15  O   UNL A   1      32.425  23.588  24.890  1.00  0.00    -0.223 OA
BRANCH  13  16
ATOM     16  C   UNL A   1      32.048  24.605  22.535  1.00  0.00     0.241 C 
BRANCH  16  17
ATOM     17  C   UNL A   1      32.356  25.706  21.573  1.00  0.00     0.235 C 
ATOM     18  O   UNL A   1      33.192  25.541  20.677  1.00  0.00    -0.274 OA
ATOM     19  N   UNL A   1      31.682  26.881  21.567  1.00  0.00    -0.355 N 
ATOM     20  H   UNL A   1      31.922  27.491  20.832  1.00  0.00     0.163 HD
BRANCH  19  21
ATOM     21  C   UNL A   1      30.669  27.383  22.465  1.00  0.00     0.119 C 
BRANCH  21  22
ATOM     22  C   UNL A   1      30.909  28.844  22.700  1.00  0.00     0.008 C 
ATOM     23  C   UNL A   1      29.791  29.845  22.531  1.00  0.00     0.006 C 
ATOM     24  C   UNL A   1      30.329  29.560  23.902  1.00  0.00     0.006 C 
ENDBRANCH  21  22
ENDBRANCH  19  21
ENDBRANCH  16  17
ENDBRANCH  13  16
ENDBRANCH  12  13
ENDBRANCH   6   7
ENDBRANCH   4   6
ENDBRANCH   1   2
BRANCH   1  25
ATOM     25  C   UNL A   1      35.244  33.222  29.117  1.00  0.00     0.023 C 
BRANCH  25  26
ATOM     26  C   UNL A   1      33.848  33.840  28.991  1.00  0.00     0.023 C 
BRANCH  26  27
ATOM     27  C   UNL A   1      33.767  35.347  29.224  1.00  0.00     0.116 C 
BRANCH  27  28
ATOM     28  N   UNL A   1      32.870  35.701  30.311  1.00  0.00    -0.352 N 
ATOM     29  C   UNL A   1      32.945  35.391  31.650  1.00  0.00     0.251 C 
ATOM     30  H   UNL A   1      32.091  36.245  30.051  1.00  0.00     0.163 HD
ATOM     31  O   UNL A   1      31.991  35.649  32.380  1.00  0.00    -0.269 OA
BRANCH  29  32
ATOM     32  C   UNL A   1      34.147  34.724  32.207  1.00  0.00     0.039 A 
ATOM     33  C   UNL A   1      34.017  33.438  32.739  1.00  0.00     0.014 A 
ATOM     34  C   UNL A   1      35.392  35.357  32.218  1.00  0.00     0.014 A 
ATOM     35  C   UNL A   1      35.147  32.760  33.210  1.00  0.00     0.010 A 
ATOM     36  C   UNL A   1      36.529  34.652  32.618  1.00  0.00     0.010 A 
ATOM     37  C   UNL A   1      36.420  33.344  33.114  1.00  0.00    -0.014 A 
BRANCH  37  38
ATOM     38  C   UNL A   1      37.645  32.597  33.517  1.00  0.00     0.031 A 
ATOM     39  C   UNL A   1      38.365  32.945  34.793  1.00  0.00     0.074 A 
ATOM     40  C   UNL A   1      38.144  31.644  32.703  1.00  0.00     0.049 A 
ATOM     41  N   UNL A   1      39.481  32.459  35.274  1.00  0.00    -0.248 NA
ATOM     42  C   UNL A   1      37.761  33.996  35.625  1.00  0.00     0.031 C 
ATOM     43  C   UNL A   1      37.558  31.235  31.425  1.00  0.00     0.029 A 
ATOM     44  N   UNL A   1      39.260  30.852  32.822  1.00  0.00    -0.354 N 
ATOM     45  C   UNL A   1      39.723  33.153  36.455  1.00  0.00     0.074 A 
ATOM     46  C   UNL A   1      38.664  34.133  36.585  1.00  0.00     0.031 C 
ATOM     47  C   UNL A   1      38.302  30.251  30.894  1.00  0.00     0.029 A 
ATOM     48  C   UNL A   1      39.447  29.993  31.762  1.00  0.00     0.049 A 
ATOM     49  H   UNL A   1      39.870  30.893  33.594  1.00  0.00     0.167 HD
ATOM     50  C   UNL A   1      40.722  32.978  37.355  1.00  0.00     0.034 A 
ATOM     51  C   UNL A   1      40.435  29.111  31.507  1.00  0.00     0.034 A 
ATOM     52  C   UNL A   1      41.766  31.991  37.216  1.00  0.00     0.049 A 
ATOM     53  C   UNL A   1      41.558  28.964  32.503  1.00  0.00     0.074 A 
ATOM     54  C   UNL A   1      42.792  31.692  38.098  1.00  0.00     0.029 A 
ATOM     55  N   UNL A   1      41.933  31.153  36.120  1.00  0.00    -0.354 N 
ATOM     56  N   UNL A   1      41.741  29.593  33.641  1.00  0.00    -0.248 NA
ATOM     57  C   UNL A   1      42.603  27.984  32.184  1.00  0.00     0.031 C 
ATOM     58  C   UNL A   1      43.619  30.734  37.503  1.00  0.00     0.029 A 
ATOM     59  C   UNL A   1      43.063  30.366  36.288  1.00  0.00     0.049 A 
ATOM     60  H   UNL A   1      41.334  31.121  35.339  1.00  0.00     0.167 HD
ATOM     61  C   UNL A   1      42.903  29.055  34.190  1.00  0.00     0.074 A 
ATOM     62  C   UNL A   1      43.367  28.042  33.263  1.00  0.00     0.031 C 
ATOM     63  C   UNL A   1      43.526  29.365  35.355  1.00  0.00     0.034 A 
BRANCH  50  64
ATOM     64  C   UNL A   1      40.750  33.896  38.556  1.00  0.00     0.023 A 
ATOM     65  C   UNL A   1      39.985  33.636  39.708  1.00  0.00     0.031 A 
ATOM     66  C   UNL A   1      41.543  35.058  38.546  1.00  0.00     0.131 A 
ATOM     67  C   UNL A   1      39.972  34.558  40.764  1.00  0.00     0.055 A 
ATOM     68  C   UNL A   1      41.591  35.929  39.636  1.00  0.00     0.041 A 
ATOM     69  F   UNL A   1      42.280  35.373  37.469  1.00  0.00    -0.206 F 
ATOM     70  C   UNL A   1      40.790  35.689  40.749  1.00  0.00     0.022 A 
BRANCH  67  71
ATOM     71  S   UNL A   1      38.759  34.334  42.095  1.00  0.00     0.124 S 
ATOM     72  O   UNL A   1      39.587  33.766  43.155  1.00  0.00    -0.237 OA
ATOM     73  O   UNL A   1      38.279  35.693  42.317  1.00  0.00    -0.237 OA
ATOM     74  O   UNL A   1      37.782  33.414  41.517  1.00  0.00    -0.744 OA
ENDBRANCH  67  71
ENDBRANCH  50  64
BRANCH  51  75
ATOM     75  C   UNL A   1      40.425  28.302  30.252  1.00  0.00     0.023 A 
ATOM     76  C   UNL A   1      41.297  28.602  29.192  1.00  0.00     0.031 A 
ATOM     77  C   UNL A   1      39.506  27.253  30.070  1.00  0.00     0.131 A 
ATOM     78  C   UNL A   1      41.196  27.899  27.982  1.00  0.00     0.055 A 
ATOM     79  C   UNL A   1      39.452  26.516  28.886  1.00  0.00     0.041 A 
ATOM     80  F   UNL A   1      38.650  26.922  31.049  1.00  0.00    -0.206 F 
ATOM     81  C   UNL A   1      40.290  26.848  27.827  1.00  0.00     0.022 A 
BRANCH  78  82
ATOM     82  S   UNL A   1      42.202  28.446  26.575  1.00  0.00     0.124 S 
ATOM     83  O   UNL A   1      42.745  27.182  26.090  1.00  0.00    -0.237 OA
ATOM     84  O   UNL A   1      41.207  29.086  25.721  1.00  0.00    -0.237 OA
ATOM     85  O   UNL A   1      43.173  29.352  27.182  1.00  0.00    -0.744 OA
ENDBRANCH  78  82
ENDBRANCH  51  75
BRANCH  63  86
ATOM     86  C   UNL A   1      44.750  28.558  35.719  1.00  0.00     0.023 A 
ATOM     87  C   UNL A   1      44.663  27.369  36.464  1.00  0.00     0.031 A 
ATOM     88  C   UNL A   1      46.027  28.996  35.322  1.00  0.00     0.131 A 
ATOM     89  C   UNL A   1      45.834  26.690  36.839  1.00  0.00     0.055 A 
ATOM     90  C   UNL A   1      47.183  28.280  35.640  1.00  0.00     0.041 A 
ATOM     91  F   UNL A   1      46.173  30.127  34.614  1.00  0.00    -0.206 F 
ATOM     92  C   UNL A   1      47.091  27.128  36.415  1.00  0.00     0.022 A 
BRANCH  89  93
ATOM     93  S   UNL A   1      45.701  25.282  37.974  1.00  0.00     0.124 S 
ATOM     94  O   UNL A   1      47.047  25.213  38.532  1.00  0.00    -0.237 OA
ATOM     95  O   UNL A   1      44.653  25.718  38.892  1.00  0.00    -0.237 OA
ATOM     96  O   UNL A   1      45.333  24.169  37.100  1.00  0.00    -0.744 OA
ENDBRANCH  89  93
ENDBRANCH  63  86
ENDBRANCH  37  38
ENDBRANCH  29  32
ENDBRANCH  27  28
ENDBRANCH  26  27
ENDBRANCH  25  26
ENDBRANCH   1  25
TORSDOF 20
ENDMDL
MODEL 2
REMARK VINA RESULT:     -10.2      1.353      7.863
REMARK SMILES O=C(Cc1ccc(S(=O)(=O)CC(=O)NCC2CC2)cc1)NCCCCNC(=O)c1ccc(-c2c3nc(c(-c4cc(S(=O)(=O)[O-])ccc4F)c4ccc([nH]4)c(-c4cc(S(=O)(=O)[O-])ccc4F)c4nc(c(-c5cc(S(=O)(=O)[O-])ccc5F)c5ccc2[nH]5)C=C4)C=C3)cc1
REMARK SMILES IDX 22 1 21 2 1 3 2 4 3 6 4 7 5 8 20 9 6 10 19 11 7 12 8 13 9 14
REMARK SMILES IDX 10 15 11 16 12 17 13 18 14 19 15 21 16 22 17 23 18 24 23 25
REMARK SMILES IDX 24 26 25 27 26 28 27 29 28 31 29 32 30 33 91 34 31 35 90 36
REMARK SMILES IDX 32 37 33 38 34 39 84 40 35 41 89 42 83 43 85 44 36 45 88 46
REMARK SMILES IDX 82 47 81 48 37 50 69 51 49 52 68 53 50 54 53 55 67 56 86 57
REMARK SMILES IDX 51 58 52 59 66 61 87 62 54 63 38 64 39 65 47 66 40 67 46 68
REMARK SMILES IDX 48 69 45 70 41 71 42 72 43 73 44 74 70 75 71 76 79 77 72 78
REMARK SMILES IDX 78 79 80 80 77 81 73 82 74 83 75 84 76 85 55 86 56 87 64 88
REMARK SMILES IDX 57 89 63 90 65 91 62 92 58 93 59 94 60 95 61 96
REMARK H PARENT 21 5 14 20 26 30 85 49 53 60
REMARK Flexibility Score: inf
ROOT
ATOM      1  C   UNL A   1      35.269  30.433  28.095  1.00  0.00     0.116 C 
ENDROOT
BRANCH   1   2
ATOM      2  N   UNL A   1      34.848  29.832  26.847  1.00  0.00    -0.356 N 
ATOM      3  O   UNL A   1      32.656  29.473  27.451  1.00  0.00    -0.275 OA
ATOM      4  C   UNL A   1      33.534  29.485  26.593  1.00  0.00     0.224 C 
ATOM      5  H   UNL A   1      35.523  29.662  26.152  1.00  0.00     0.163 HD
BRANCH   4   6
ATOM      6  C   UNL A   1      33.255  29.120  25.142  1.00  0.00     0.135 C 
BRANCH   6   7
ATOM      7  C   UNL A   1      33.492  27.663  24.787  1.00  0.00    -0.039 A 
ATOM      8  C   UNL A   1      33.544  27.289  23.437  1.00  0.00     0.005 A 
ATOM      9  C   UNL A   1      33.656  26.667  25.765  1.00  0.00     0.005 A 
ATOM     10  C   UNL A   1      33.719  25.949  23.080  1.00  0.00     0.020 A 
ATOM     11  C   UNL A   1      33.764  25.323  25.414  1.00  0.00     0.020 A 
ATOM     12  C   UNL A   1      33.820  24.967  24.072  1.00  0.00     0.067 A 
BRANCH  12  13
ATOM     13  S   UNL A   1      33.983  23.276  23.569  1.00  0.00     0.187 S 
ATOM     14  O   UNL A   1      34.583  23.328  22.250  1.00  0.00    -0.223 OA
ATOM     15  O   UNL A   1      34.689  22.600  24.647  1.00  0.00    -0.223 OA
BRANCH  13  16
ATOM     16  C   UNL A   1      32.417  22.495  23.401  1.00  0.00     0.241 C 
BRANCH  16  17
ATOM     17  C   UNL A   1      31.450  22.725  24.516  1.00  0.00     0.235 C 
ATOM     18  O   UNL A   1      31.483  22.021  25.531  1.00  0.00    -0.274 OA
ATOM     19  N   UNL A   1      30.572  23.756  24.520  1.00  0.00    -0.355 N 
ATOM     20  H   UNL A   1      30.047  23.849  25.348  1.00  0.00     0.163 HD
BRANCH  19  21
ATOM     21  C   UNL A   1      30.281  24.742  23.505  1.00  0.00     0.119 C 
BRANCH  21  22
ATOM     22  C   UNL A   1      29.896  26.028  24.172  1.00  0.00     0.008 C 
ATOM     23  C   UNL A   1      29.861  27.320  23.391  1.00  0.00     0.006 C 
ATOM     24  C   UNL A   1      28.578  26.712  23.874  1.00  0.00     0.006 C 
ENDBRANCH  21  22
ENDBRANCH  19  21
ENDBRANCH  16  17
ENDBRANCH  13  16
ENDBRANCH  12  13
ENDBRANCH   6   7
ENDBRANCH   4   6
ENDBRANCH   1   2
BRANCH   1  25
ATOM     25  C   UNL A   1      35.341  31.954  28.017  1.00  0.00     0.023 C 
BRANCH  25  26
ATOM     26  C   UNL A   1      33.987  32.669  27.999  1.00  0.00     0.023 C 
BRANCH  26  27
ATOM     27  C   UNL A   1      34.043  34.193  27.917  1.00  0.00     0.116 C 
BRANCH  27  28
ATOM     28  N   UNL A   1      33.255  34.842  28.951  1.00  0.00    -0.352 N 
ATOM     29  C   UNL A   1      33.424  34.843  30.317  1.00  0.00     0.251 C 
ATOM     30  H   UNL A   1      32.482  35.358  28.625  1.00  0.00     0.163 HD
ATOM     31  O   UNL A   1      32.544  35.320  31.030  1.00  0.00    -0.269 OA
BRANCH  29  32
ATOM     32  C   UNL A   1      34.636  34.248  30.930  1.00  0.00     0.039 A 
ATOM     33  C   UNL A   1      34.499  33.095  31.710  1.00  0.00     0.014 A 
ATOM     34  C   UNL A   1      35.898  34.820  30.753  1.00  0.00     0.014 A 
ATOM     35  C   UNL A   1      35.634  32.476  32.245  1.00  0.00     0.010 A 
ATOM     36  C   UNL A   1      37.034  34.160  31.224  1.00  0.00     0.010 A 
ATOM     37  C   UNL A   1      36.916  32.978  31.971  1.00  0.00    -0.014 A 
BRANCH  37  38
ATOM     38  C   UNL A   1      38.140  32.275  32.448  1.00  0.00     0.031 A 
ATOM     39  C   UNL A   1      38.772  31.193  31.612  1.00  0.00     0.074 A 
ATOM     40  C   UNL A   1      38.648  32.567  33.663  1.00  0.00     0.049 A 
ATOM     41  N   UNL A   1      39.793  30.422  31.889  1.00  0.00    -0.248 NA
ATOM     42  C   UNL A   1      38.159  30.930  30.302  1.00  0.00     0.031 C 
ATOM     43  C   UNL A   1      38.110  33.571  34.583  1.00  0.00     0.029 A 
ATOM     44  N   UNL A   1      39.724  32.045  34.339  1.00  0.00    -0.354 N 
ATOM     45  C   UNL A   1      39.936  29.572  30.796  1.00  0.00     0.074 A 
ATOM     46  C   UNL A   1      38.860  29.888  29.880  1.00  0.00     0.031 C 
ATOM     47  C   UNL A   1      38.874  33.612  35.687  1.00  0.00     0.029 A 
ATOM     48  C   UNL A   1      39.923  32.602  35.582  1.00  0.00     0.049 A 
ATOM     49  H   UNL A   1      40.301  31.338  33.969  1.00  0.00     0.167 HD
ATOM     50  C   UNL A   1      40.885  28.630  30.570  1.00  0.00     0.034 A 
ATOM     51  C   UNL A   1      40.833  32.323  36.537  1.00  0.00     0.034 A 
ATOM     52  C   UNL A   1      41.957  28.331  31.491  1.00  0.00     0.049 A 
ATOM     53  C   UNL A   1      41.853  31.241  36.280  1.00  0.00     0.074 A 
ATOM     54  C   UNL A   1      43.004  27.438  31.333  1.00  0.00     0.029 A 
ATOM     55  N   UNL A   1      42.114  28.904  32.747  1.00  0.00    -0.354 N 
ATOM     56  N   UNL A   1      42.005  30.484  35.218  1.00  0.00    -0.248 NA
ATOM     57  C   UNL A   1      42.829  30.983  37.346  1.00  0.00     0.031 C 
ATOM     58  C   UNL A   1      43.744  27.412  32.519  1.00  0.00     0.029 A 
ATOM     59  C   UNL A   1      43.216  28.355  33.387  1.00  0.00     0.049 A 
ATOM     60  H   UNL A   1      41.529  29.599  33.127  1.00  0.00     0.167 HD
ATOM     61  C   UNL A   1      43.118  29.686  35.477  1.00  0.00     0.074 A 
ATOM     62  C   UNL A   1      43.603  30.066  36.788  1.00  0.00     0.031 C 
ATOM     63  C   UNL A   1      43.689  28.731  34.700  1.00  0.00     0.034 A 
BRANCH  50  64
ATOM     64  C   UNL A   1      40.788  27.831  29.290  1.00  0.00     0.023 A 
ATOM     65  C   UNL A   1      41.681  28.030  28.222  1.00  0.00     0.031 A 
ATOM     66  C   UNL A   1      39.778  26.865  29.129  1.00  0.00     0.131 A 
ATOM     67  C   UNL A   1      41.502  27.332  27.019  1.00  0.00     0.055 A 
ATOM     68  C   UNL A   1      39.658  26.112  27.959  1.00  0.00     0.041 A 
ATOM     69  F   UNL A   1      38.882  26.643  30.103  1.00  0.00    -0.206 F 
ATOM     70  C   UNL A   1      40.513  26.354  26.889  1.00  0.00     0.022 A 
BRANCH  67  71
ATOM     71  S   UNL A   1      42.486  27.824  25.576  1.00  0.00     0.124 S 
ATOM     72  O   UNL A   1      42.284  26.688  24.681  1.00  0.00    -0.237 OA
ATOM     73  O   UNL A   1      41.855  29.075  25.174  1.00  0.00    -0.237 OA
ATOM     74  O   UNL A   1      43.839  27.951  26.112  1.00  0.00    -0.744 OA
ENDBRANCH  67  71
ENDBRANCH  50  64
BRANCH  51  75
ATOM     75  C   UNL A   1      40.824  33.062  37.835  1.00  0.00     0.023 A 
ATOM     76  C   UNL A   1      39.921  32.721  38.854  1.00  0.00     0.031 A 
ATOM     77  C   UNL A   1      41.679  34.157  38.053  1.00  0.00     0.131 A 
ATOM     78  C   UNL A   1      39.856  33.497  40.021  1.00  0.00     0.055 A 
ATOM     79  C   UNL A   1      41.653  34.889  39.242  1.00  0.00     0.041 A 
ATOM     80  F   UNL A   1      42.563  34.528  37.114  1.00  0.00    -0.206 F 
ATOM     81  C   UNL A   1      40.726  34.569  40.229  1.00  0.00     0.022 A 
BRANCH  78  82
ATOM     82  S   UNL A   1      38.546  33.146  41.225  1.00  0.00     0.124 S 
ATOM     83  O   UNL A   1      39.113  32.021  41.960  1.00  0.00    -0.237 OA
ATOM     84  O   UNL A   1      38.455  34.407  41.952  1.00  0.00    -0.237 OA
ATOM     85  O   UNL A   1      37.391  32.827  40.388  1.00  0.00    -0.744 OA
ENDBRANCH  78  82
ENDBRANCH  51  75
BRANCH  63  86
ATOM     86  C   UNL A   1      44.940  28.069  35.227  1.00  0.00     0.023 A 
ATOM     87  C   UNL A   1      44.892  26.880  35.978  1.00  0.00     0.031 A 
ATOM     88  C   UNL A   1      46.200  28.644  34.983  1.00  0.00     0.131 A 
ATOM     89  C   UNL A   1      46.074  26.339  36.507  1.00  0.00     0.055 A 
ATOM     90  C   UNL A   1      47.379  28.064  35.455  1.00  0.00     0.041 A 
ATOM     91  F   UNL A   1      46.308  29.781  34.277  1.00  0.00    -0.206 F 
ATOM     92  C   UNL A   1      47.319  26.913  36.234  1.00  0.00     0.022 A 
BRANCH  89  93
ATOM     93  S   UNL A   1      45.956  24.930  37.643  1.00  0.00     0.124 S 
ATOM     94  O   UNL A   1      45.014  25.422  38.642  1.00  0.00    -0.237 OA
ATOM     95  O   UNL A   1      45.464  23.867  36.772  1.00  0.00    -0.237 OA
ATOM     96  O   UNL A   1      47.329  24.754  38.116  1.00  0.00    -0.744 OA
ENDBRANCH  89  93
ENDBRANCH  63  86
ENDBRANCH  37  38
ENDBRANCH  29  32
ENDBRANCH  27  28
ENDBRANCH  26  27
ENDBRANCH  25  26
ENDBRANCH   1  25
TORSDOF 20
ENDMDL
MODEL 3
REMARK VINA RESULT:     -10.1      6.208     12.155
REMARK SMILES O=C(Cc1ccc(S(=O)(=O)CC(=O)NCC2CC2)cc1)NCCCCNC(=O)c1ccc(-c2c3nc(c(-c4cc(S(=O)(=O)[O-])ccc4F)c4ccc([nH]4)c(-c4cc(S(=O)(=O)[O-])ccc4F)c4nc(c(-c5cc(S(=O)(=O)[O-])ccc5F)c5ccc2[nH]5)C=C4)C=C3)cc1
REMARK SMILES IDX 22 1 21 2 1 3 2 4 3 6 4 7 5 8 20 9 6 10 19 11 7 12 8 13 9 14
REMARK SMILES IDX 10 15 11 16 12 17 13 18 14 19 15 21 16 22 17 23 18 24 23 25
REMARK SMILES IDX 24 26 25 27 26 28 27 29 28 31 29 32 30 33 91 34 31 35 90 36
REMARK SMILES IDX 32 37 33 38 34 39 84 40 35 41 89 42 83 43 85 44 36 45 88 46
REMARK SMILES IDX 82 47 81 48 37 50 69 51 49 52 68 53 50 54 53 55 67 56 86 57
REMARK SMILES IDX 51 58 52 59 66 61 87 62 54 63 38 64 39 65 47 66 40 67 46 68
REMARK SMILES IDX 48 69 45 70 41 71 42 72 43 73 44 74 70 75 71 76 79 77 72 78
REMARK SMILES IDX 78 79 80 80 77 81 73 82 74 83 75 84 76 85 55 86 56 87 64 88
REMARK SMILES IDX 57 89 63 90 65 91 62 92 58 93 59 94 60 95 61 96
REMARK H PARENT 21 5 14 20 26 30 85 49 53 60
REMARK Flexibility Score: inf
ROOT
ATOM      1  C   UNL A   1      36.981  21.854  24.650  1.00  0.00     0.116 C 
ENDROOT
BRANCH   1   2
ATOM      2  N   UNL A   1      35.631  22.365  24.763  1.00  0.00    -0.356 N 
ATOM      3  O   UNL A   1      35.478  23.191  22.620  1.00  0.00    -0.275 OA
ATOM      4  C   UNL A   1      34.949  22.913  23.693  1.00  0.00     0.224 C 
ATOM      5  H   UNL A   1      35.181  22.321  25.637  1.00  0.00     0.163 HD
BRANCH   4   6
ATOM      6  C   UNL A   1      33.466  23.143  23.950  1.00  0.00     0.135 C 
BRANCH   6   7
ATOM      7  C   UNL A   1      33.134  24.409  24.720  1.00  0.00    -0.039 A 
ATOM      8  C   UNL A   1      34.018  25.495  24.661  1.00  0.00     0.005 A 
ATOM      9  C   UNL A   1      31.972  24.533  25.499  1.00  0.00     0.005 A 
ATOM     10  C   UNL A   1      33.761  26.658  25.393  1.00  0.00     0.020 A 
ATOM     11  C   UNL A   1      31.745  25.664  26.281  1.00  0.00     0.020 A 
ATOM     12  C   UNL A   1      32.627  26.735  26.209  1.00  0.00     0.067 A 
BRANCH  12  13
ATOM     13  S   UNL A   1      32.374  28.208  27.161  1.00  0.00     0.187 S 
ATOM     14  O   UNL A   1      31.351  27.864  28.129  1.00  0.00    -0.223 OA
ATOM     15  O   UNL A   1      33.689  28.618  27.629  1.00  0.00    -0.223 OA
BRANCH  13  16
ATOM     16  C   UNL A   1      31.741  29.518  26.173  1.00  0.00     0.241 C 
BRANCH  16  17
ATOM     17  C   UNL A   1      32.242  29.577  24.768  1.00  0.00     0.235 C 
ATOM     18  O   UNL A   1      33.453  29.671  24.537  1.00  0.00    -0.274 OA
ATOM     19  N   UNL A   1      31.428  29.434  23.695  1.00  0.00    -0.355 N 
ATOM     20  H   UNL A   1      31.890  29.409  22.826  1.00  0.00     0.163 HD
BRANCH  19  21
ATOM     21  C   UNL A   1      29.990  29.315  23.620  1.00  0.00     0.119 C 
BRANCH  21  22
ATOM     22  C   UNL A   1      29.645  28.027  22.936  1.00  0.00     0.008 C 
ATOM     23  C   UNL A   1      30.607  26.864  22.953  1.00  0.00     0.006 C 
ATOM     24  C   UNL A   1      29.323  26.773  23.722  1.00  0.00     0.006 C 
ENDBRANCH  21  22
ENDBRANCH  19  21
ENDBRANCH  16  17
ENDBRANCH  13  16
ENDBRANCH  12  13
ENDBRANCH   6   7
ENDBRANCH   4   6
ENDBRANCH   1   2
BRANCH   1  25
ATOM     25  C   UNL A   1      37.098  20.403  25.100  1.00  0.00     0.023 C 
BRANCH  25  26
ATOM     26  C   UNL A   1      38.474  19.764  24.888  1.00  0.00     0.023 C 
BRANCH  26  27
ATOM     27  C   UNL A   1      39.552  20.163  25.893  1.00  0.00     0.116 C 
BRANCH  27  28
ATOM     28  N   UNL A   1      40.606  19.170  26.011  1.00  0.00    -0.352 N 
ATOM     29  C   UNL A   1      41.960  19.341  26.189  1.00  0.00     0.251 C 
ATOM     30  H   UNL A   1      40.307  18.233  25.955  1.00  0.00     0.163 HD
ATOM     31  O   UNL A   1      42.705  18.367  26.097  1.00  0.00    -0.269 OA
BRANCH  29  32
ATOM     32  C   UNL A   1      42.525  20.685  26.457  1.00  0.00     0.039 A 
ATOM     33  C   UNL A   1      42.994  21.445  25.381  1.00  0.00     0.014 A 
ATOM     34  C   UNL A   1      42.605  21.197  27.755  1.00  0.00     0.014 A 
ATOM     35  C   UNL A   1      43.471  22.742  25.598  1.00  0.00     0.010 A 
ATOM     36  C   UNL A   1      43.010  22.517  27.959  1.00  0.00     0.010 A 
ATOM     37  C   UNL A   1      43.443  23.307  26.883  1.00  0.00    -0.014 A 
BRANCH  37  38
ATOM     38  C   UNL A   1      43.851  24.721  27.115  1.00  0.00     0.031 A 
ATOM     39  C   UNL A   1      45.275  25.152  26.879  1.00  0.00     0.074 A 
ATOM     40  C   UNL A   1      42.953  25.605  27.596  1.00  0.00     0.049 A 
ATOM     41  N   UNL A   1      45.835  26.316  27.092  1.00  0.00    -0.248 NA
ATOM     42  C   UNL A   1      46.195  24.130  26.358  1.00  0.00     0.031 C 
ATOM     43  C   UNL A   1      41.552  25.306  27.895  1.00  0.00     0.029 A 
ATOM     44  N   UNL A   1      43.084  26.932  27.926  1.00  0.00    -0.354 N 
ATOM     45  C   UNL A   1      47.174  26.165  26.746  1.00  0.00     0.074 A 
ATOM     46  C   UNL A   1      47.351  24.779  26.364  1.00  0.00     0.031 C 
ATOM     47  C   UNL A   1      40.947  26.421  28.336  1.00  0.00     0.029 A 
ATOM     48  C   UNL A   1      41.925  27.502  28.404  1.00  0.00     0.049 A 
ATOM     49  H   UNL A   1      43.927  27.431  27.828  1.00  0.00     0.167 HD
ATOM     50  C   UNL A   1      48.159  27.097  26.731  1.00  0.00     0.034 A 
ATOM     51  C   UNL A   1      41.679  28.747  28.861  1.00  0.00     0.034 A 
ATOM     52  C   UNL A   1      47.966  28.477  27.108  1.00  0.00     0.049 A 
ATOM     53  C   UNL A   1      42.801  29.755  28.874  1.00  0.00     0.074 A 
ATOM     54  C   UNL A   1      48.881  29.516  27.073  1.00  0.00     0.029 A 
ATOM     55  N   UNL A   1      46.783  29.012  27.604  1.00  0.00    -0.354 N 
ATOM     56  N   UNL A   1      44.049  29.607  28.493  1.00  0.00    -0.248 NA
ATOM     57  C   UNL A   1      42.480  31.098  29.371  1.00  0.00     0.031 C 
ATOM     58  C   UNL A   1      48.279  30.654  27.619  1.00  0.00     0.029 A 
ATOM     59  C   UNL A   1      46.958  30.353  27.913  1.00  0.00     0.049 A 
ATOM     60  H   UNL A   1      45.943  28.512  27.718  1.00  0.00     0.167 HD
ATOM     61  C   UNL A   1      44.650  30.852  28.670  1.00  0.00     0.074 A 
ATOM     62  C   UNL A   1      43.623  31.738  29.179  1.00  0.00     0.031 C 
ATOM     63  C   UNL A   1      45.931  31.229  28.429  1.00  0.00     0.034 A 
BRANCH  50  64
ATOM     64  C   UNL A   1      49.543  26.646  26.323  1.00  0.00     0.023 A 
ATOM     65  C   UNL A   1      50.140  27.077  25.124  1.00  0.00     0.031 A 
ATOM     66  C   UNL A   1      50.272  25.760  27.137  1.00  0.00     0.131 A 
ATOM     67  C   UNL A   1      51.388  26.565  24.739  1.00  0.00     0.055 A 
ATOM     68  C   UNL A   1      51.551  25.322  26.789  1.00  0.00     0.041 A 
ATOM     69  F   UNL A   1      49.749  25.297  28.283  1.00  0.00    -0.206 F 
ATOM     70  C   UNL A   1      52.111  25.712  25.576  1.00  0.00     0.022 A 
BRANCH  67  71
ATOM     71  S   UNL A   1      51.990  26.916  23.064  1.00  0.00     0.124 S 
ATOM     72  O   UNL A   1      50.761  26.806  22.281  1.00  0.00    -0.237 OA
ATOM     73  O   UNL A   1      52.542  28.259  23.201  1.00  0.00    -0.237 OA
ATOM     74  O   UNL A   1      52.970  25.859  22.823  1.00  0.00    -0.744 OA
ENDBRANCH  67  71
ENDBRANCH  50  64
BRANCH  51  75
ATOM     75  C   UNL A   1      40.322  29.119  29.359  1.00  0.00     0.023 A 
ATOM     76  C   UNL A   1      40.053  29.195  30.736  1.00  0.00     0.031 A 
ATOM     77  C   UNL A   1      39.258  29.348  28.469  1.00  0.00     0.131 A 
ATOM     78  C   UNL A   1      38.746  29.439  31.182  1.00  0.00     0.055 A 
ATOM     79  C   UNL A   1      37.971  29.651  28.917  1.00  0.00     0.041 A 
ATOM     80  F   UNL A   1      39.456  29.289  27.142  1.00  0.00    -0.206 F 
ATOM     81  C   UNL A   1      37.706  29.683  30.283  1.00  0.00     0.022 A 
BRANCH  78  82
ATOM     82  S   UNL A   1      38.402  29.334  32.960  1.00  0.00     0.124 S 
ATOM     83  O   UNL A   1      37.936  30.685  33.252  1.00  0.00    -0.237 OA
ATOM     84  O   UNL A   1      37.393  28.281  33.013  1.00  0.00    -0.237 OA
ATOM     85  O   UNL A   1      39.697  28.981  33.537  1.00  0.00    -0.744 OA
ENDBRANCH  78  82
ENDBRANCH  51  75
BRANCH  63  86
ATOM     86  C   UNL A   1      46.279  32.681  28.663  1.00  0.00     0.023 A 
ATOM     87  C   UNL A   1      46.085  33.661  27.673  1.00  0.00     0.031 A 
ATOM     88  C   UNL A   1      46.825  33.086  29.894  1.00  0.00     0.131 A 
ATOM     89  C   UNL A   1      46.489  34.984  27.910  1.00  0.00     0.055 A 
ATOM     90  C   UNL A   1      47.162  34.417  30.149  1.00  0.00     0.041 A 
ATOM     91  F   UNL A   1      47.038  32.194  30.875  1.00  0.00    -0.206 F 
ATOM     92  C   UNL A   1      47.007  35.372  29.149  1.00  0.00     0.022 A 
BRANCH  89  93
ATOM     93  S   UNL A   1      46.420  36.176  26.544  1.00  0.00     0.124 S 
ATOM     94  O   UNL A   1      45.196  36.910  26.843  1.00  0.00    -0.237 OA
ATOM     95  O   UNL A   1      47.666  36.917  26.714  1.00  0.00    -0.237 OA
ATOM     96  O   UNL A   1      46.362  35.330  25.353  1.00  0.00    -0.744 OA
ENDBRANCH  89  93
ENDBRANCH  63  86
ENDBRANCH  37  38
ENDBRANCH  29  32
ENDBRANCH  27  28
ENDBRANCH  26  27
ENDBRANCH  25  26
ENDBRANCH   1  25
TORSDOF 20
ENDMDL
