MODEL 1
REMARK VINA RESULT:     -11.5      0.000      0.000
REMARK SMILES C[C@@H](C(=O)NCCCCNC(=O)c1ccc(-c2c3nc(c(-c4cc(S(=O)(=O)[O-])ccc4F)c4ccc([nH]4)c(-c4cc(S(=O)(=O)[O-])ccc4F)c4nc(c(-c5cc(S(=O)(=O)[O-])ccc5F)c5ccc2[nH]5)C=C4)C=C3)cc1)c1ccc(Cc2ccco2)cc1F
REMARK SMILES IDX 7 1 6 2 5 3 3 4 4 5 2 7 1 8 76 9 77 10 87 11 78 12 86 13
REMARK SMILES IDX 88 14 79 15 80 16 81 17 82 18 85 19 83 20 84 21 8 22 9 23
REMARK SMILES IDX 10 24 11 25 12 27 13 28 14 29 75 30 15 31 74 32 16 33 17 34
REMARK SMILES IDX 18 35 68 36 19 37 73 38 67 39 69 40 20 41 72 42 66 43 65 44
REMARK SMILES IDX 21 46 53 47 33 48 52 49 34 50 37 51 51 52 70 53 35 54 36 55
REMARK SMILES IDX 50 57 71 58 38 59 22 60 23 61 31 62 24 63 30 64 32 65 29 66
REMARK SMILES IDX 25 67 26 68 27 69 28 70 54 71 55 72 63 73 56 74 62 75 64 76
REMARK SMILES IDX 61 77 57 78 58 79 59 80 60 81 39 82 40 83 48 84 41 85 47 86
REMARK SMILES IDX 49 87 46 88 42 89 43 90 44 91 45 92
REMARK H PARENT 5 6 10 26 69 45 37 56
REMARK Flexibility Score: inf
ROOT
ATOM      1  C   UNL A   1      31.681  27.443  26.951  1.00  0.00     0.023 C 
ENDROOT
BRANCH   1   2
ATOM      2  C   UNL A   1      31.348  26.198  26.123  1.00  0.00     0.116 C 
BRANCH   2   3
ATOM      3  N   UNL A   1      32.080  26.200  24.873  1.00  0.00    -0.356 N 
ATOM      4  C   UNL A   1      33.208  25.524  24.510  1.00  0.00     0.227 C 
ATOM      5  O   UNL A   1      33.805  25.984  23.536  1.00  0.00    -0.274 OA
ATOM      6  H   UNL A   1      31.704  26.783  24.174  1.00  0.00     0.163 HD
BRANCH   4   7
ATOM      7  C   UNL A   1      33.666  24.291  25.312  1.00  0.00     0.108 C 
ATOM      8  C   UNL A   1      35.194  24.313  25.447  1.00  0.00     0.023 C 
BRANCH   7   9
ATOM      9  C   UNL A   1      33.226  22.915  24.799  1.00  0.00    -0.000 A 
ATOM     10  C   UNL A   1      32.912  22.630  23.465  1.00  0.00     0.008 A 
ATOM     11  C   UNL A   1      33.184  21.838  25.699  1.00  0.00     0.127 A 
ATOM     12  C   UNL A   1      32.609  21.330  23.049  1.00  0.00     0.005 A 
ATOM     13  C   UNL A   1      32.879  20.536  25.295  1.00  0.00     0.043 A 
ATOM     14  F   UNL A   1      33.471  22.044  26.994  1.00  0.00    -0.207 F 
ATOM     15  C   UNL A   1      32.593  20.264  23.955  1.00  0.00    -0.038 A 
BRANCH  15  16
ATOM     16  C   UNL A   1      32.302  18.860  23.479  1.00  0.00     0.111 C 
BRANCH  16  17
ATOM     17  C   UNL A   1      33.144  17.813  24.126  1.00  0.00     0.108 A 
ATOM     18  C   UNL A   1      34.470  17.440  24.011  1.00  0.00     0.046 A 
ATOM     19  O   UNL A   1      32.535  17.051  25.082  1.00  0.00    -0.469 OA
ATOM     20  C   UNL A   1      34.675  16.386  24.932  1.00  0.00     0.042 A 
ATOM     21  C   UNL A   1      33.468  16.189  25.560  1.00  0.00     0.195 A 
ENDBRANCH  16  17
ENDBRANCH  15  16
ENDBRANCH   7   9
ENDBRANCH   4   7
ENDBRANCH   2   3
ENDBRANCH   1   2
BRANCH   1  22
ATOM     22  C   UNL A   1      32.123  28.666  26.140  1.00  0.00     0.023 C 
BRANCH  22  23
ATOM     23  C   UNL A   1      33.528  29.172  26.439  1.00  0.00     0.116 C 
BRANCH  23  24
ATOM     24  N   UNL A   1      33.542  30.568  26.843  1.00  0.00    -0.352 N 
ATOM     25  C   UNL A   1      34.423  31.220  27.672  1.00  0.00     0.251 C 
ATOM     26  H   UNL A   1      32.819  31.123  26.471  1.00  0.00     0.163 HD
ATOM     27  O   UNL A   1      34.181  32.371  28.025  1.00  0.00    -0.269 OA
BRANCH  25  28
ATOM     28  C   UNL A   1      35.632  30.523  28.158  1.00  0.00     0.039 A 
ATOM     29  C   UNL A   1      36.807  30.606  27.408  1.00  0.00     0.014 A 
ATOM     30  C   UNL A   1      35.611  29.796  29.352  1.00  0.00     0.014 A 
ATOM     31  C   UNL A   1      37.978  30.012  27.886  1.00  0.00     0.010 A 
ATOM     32  C   UNL A   1      36.794  29.268  29.862  1.00  0.00     0.010 A 
ATOM     33  C   UNL A   1      37.989  29.368  29.134  1.00  0.00    -0.014 A 
BRANCH  33  34
ATOM     34  C   UNL A   1      39.236  28.780  29.688  1.00  0.00     0.031 A 
ATOM     35  C   UNL A   1      39.890  29.405  30.891  1.00  0.00     0.074 A 
ATOM     36  C   UNL A   1      39.815  27.730  29.073  1.00  0.00     0.049 A 
ATOM     37  N   UNL A   1      41.025  29.106  31.469  1.00  0.00    -0.248 NA
ATOM     38  C   UNL A   1      39.184  30.540  31.505  1.00  0.00     0.031 C 
ATOM     39  C   UNL A   1      39.296  27.060  27.878  1.00  0.00     0.029 A 
ATOM     40  N   UNL A   1      40.971  27.048  29.357  1.00  0.00    -0.354 N 
ATOM     41  C   UNL A   1      41.178  30.023  32.502  1.00  0.00     0.074 A 
ATOM     42  C   UNL A   1      40.050  30.926  32.430  1.00  0.00     0.031 C 
ATOM     43  C   UNL A   1      40.119  26.053  27.545  1.00  0.00     0.029 A 
ATOM     44  C   UNL A   1      41.247  26.032  28.470  1.00  0.00     0.049 A 
ATOM     45  H   UNL A   1      41.549  27.264  30.125  1.00  0.00     0.167 HD
ATOM     46  C   UNL A   1      42.157  30.092  33.439  1.00  0.00     0.034 A 
ATOM     47  C   UNL A   1      42.298  25.191  28.402  1.00  0.00     0.034 A 
ATOM     48  C   UNL A   1      43.270  29.174  33.503  1.00  0.00     0.049 A 
ATOM     49  C   UNL A   1      43.388  25.300  29.439  1.00  0.00     0.074 A 
ATOM     50  C   UNL A   1      44.289  29.118  34.438  1.00  0.00     0.029 A 
ATOM     51  N   UNL A   1      43.514  28.155  32.591  1.00  0.00    -0.354 N 
ATOM     52  N   UNL A   1      43.495  26.145  30.439  1.00  0.00    -0.248 NA
ATOM     53  C   UNL A   1      44.491  24.336  29.343  1.00  0.00     0.031 C 
ATOM     54  C   UNL A   1      45.182  28.111  34.055  1.00  0.00     0.029 A 
ATOM     55  C   UNL A   1      44.683  27.486  32.924  1.00  0.00     0.049 A 
ATOM     56  H   UNL A   1      42.942  27.940  31.819  1.00  0.00     0.167 HD
ATOM     57  C   UNL A   1      44.663  25.791  31.109  1.00  0.00     0.074 A 
ATOM     58  C   UNL A   1      45.214  24.650  30.408  1.00  0.00     0.031 C 
ATOM     59  C   UNL A   1      45.226  26.355  32.208  1.00  0.00     0.034 A 
BRANCH  46  60
ATOM     60  C   UNL A   1      42.076  31.215  34.446  1.00  0.00     0.023 A 
ATOM     61  C   UNL A   1      41.099  31.231  35.457  1.00  0.00     0.031 A 
ATOM     62  C   UNL A   1      42.964  32.303  34.376  1.00  0.00     0.131 A 
ATOM     63  C   UNL A   1      40.979  32.346  36.300  1.00  0.00     0.055 A 
ATOM     64  C   UNL A   1      42.895  33.371  35.273  1.00  0.00     0.041 A 
ATOM     65  F   UNL A   1      43.907  32.356  33.420  1.00  0.00    -0.206 F 
ATOM     66  C   UNL A   1      41.887  33.405  36.232  1.00  0.00     0.022 A 
BRANCH  63  67
ATOM     67  S   UNL A   1      39.527  32.461  37.380  1.00  0.00     0.124 S 
ATOM     68  O   UNL A   1      40.142  32.422  38.705  1.00  0.00    -0.237 OA
ATOM     69  O   UNL A   1      38.940  33.737  36.986  1.00  0.00    -0.237 OA
ATOM     70  O   UNL A   1      38.743  31.278  37.031  1.00  0.00    -0.744 OA
ENDBRANCH  63  67
ENDBRANCH  46  60
BRANCH  47  71
ATOM     71  C   UNL A   1      42.385  24.177  27.311  1.00  0.00     0.023 A 
ATOM     72  C   UNL A   1      41.597  23.017  27.338  1.00  0.00     0.031 A 
ATOM     73  C   UNL A   1      43.289  24.337  26.245  1.00  0.00     0.131 A 
ATOM     74  C   UNL A   1      41.758  22.037  26.347  1.00  0.00     0.055 A 
ATOM     75  C   UNL A   1      43.408  23.384  25.233  1.00  0.00     0.041 A 
ATOM     76  F   UNL A   1      44.063  25.431  26.168  1.00  0.00    -0.206 F 
ATOM     77  C   UNL A   1      42.650  22.219  25.287  1.00  0.00     0.022 A 
BRANCH  74  78
ATOM     78  S   UNL A   1      40.843  20.480  26.507  1.00  0.00     0.124 S 
ATOM     79  O   UNL A   1      40.961  20.212  27.936  1.00  0.00    -0.237 OA
ATOM     80  O   UNL A   1      39.516  20.858  26.031  1.00  0.00    -0.237 OA
ATOM     81  O   UNL A   1      41.576  19.563  25.636  1.00  0.00    -0.744 OA
ENDBRANCH  74  78
ENDBRANCH  47  71
BRANCH  59  82
ATOM     82  C   UNL A   1      46.482  25.709  32.743  1.00  0.00     0.023 A 
ATOM     83  C   UNL A   1      46.434  24.634  33.649  1.00  0.00     0.031 A 
ATOM     84  C   UNL A   1      47.744  26.187  32.349  1.00  0.00     0.131 A 
ATOM     85  C   UNL A   1      47.626  24.109  34.171  1.00  0.00     0.055 A 
ATOM     86  C   UNL A   1      48.926  25.621  32.825  1.00  0.00     0.041 A 
ATOM     87  F   UNL A   1      47.846  27.213  31.488  1.00  0.00    -0.206 F 
ATOM     88  C   UNL A   1      48.872  24.585  33.752  1.00  0.00     0.022 A 
BRANCH  85  89
ATOM     89  S   UNL A   1      47.527  22.854  35.476  1.00  0.00     0.124 S 
ATOM     90  O   UNL A   1      46.965  21.714  34.758  1.00  0.00    -0.237 OA
ATOM     91  O   UNL A   1      48.921  22.721  35.889  1.00  0.00    -0.237 OA
ATOM     92  O   UNL A   1      46.642  23.459  36.470  1.00  0.00    -0.744 OA
ENDBRANCH  85  89
ENDBRANCH  59  82
ENDBRANCH  33  34
ENDBRANCH  25  28
ENDBRANCH  23  24
ENDBRANCH  22  23
ENDBRANCH   1  22
TORSDOF 17
ENDMDL
MODEL 2
REMARK VINA RESULT:     -11.4      5.312     10.483
REMARK SMILES C[C@@H](C(=O)NCCCCNC(=O)c1ccc(-c2c3nc(c(-c4cc(S(=O)(=O)[O-])ccc4F)c4ccc([nH]4)c(-c4cc(S(=O)(=O)[O-])ccc4F)c4nc(c(-c5cc(S(=O)(=O)[O-])ccc5F)c5ccc2[nH]5)C=C4)C=C3)cc1)c1ccc(Cc2ccco2)cc1F
REMARK SMILES IDX 7 1 6 2 5 3 3 4 4 5 2 7 1 8 76 9 77 10 87 11 78 12 86 13
REMARK SMILES IDX 88 14 79 15 80 16 81 17 82 18 85 19 83 20 84 21 8 22 9 23
REMARK SMILES IDX 10 24 11 25 12 27 13 28 14 29 75 30 15 31 74 32 16 33 17 34
REMARK SMILES IDX 18 35 68 36 19 37 73 38 67 39 69 40 20 41 72 42 66 43 65 44
REMARK SMILES IDX 21 46 53 47 33 48 52 49 34 50 37 51 51 52 70 53 35 54 36 55
REMARK SMILES IDX 50 57 71 58 38 59 22 60 23 61 31 62 24 63 30 64 32 65 29 66
REMARK SMILES IDX 25 67 26 68 27 69 28 70 54 71 55 72 63 73 56 74 62 75 64 76
REMARK SMILES IDX 61 77 57 78 58 79 59 80 60 81 39 82 40 83 48 84 41 85 47 86
REMARK SMILES IDX 49 87 46 88 42 89 43 90 44 91 45 92
REMARK H PARENT 5 6 10 26 69 45 37 56
REMARK Flexibility Score: inf
ROOT
ATOM      1  C   UNL A   1      34.275  21.595  24.865  1.00  0.00     0.023 C 
ENDROOT
BRANCH   1   2
ATOM      2  C   UNL A   1      33.210  22.593  24.397  1.00  0.00     0.116 C 
BRANCH   2   3
ATOM      3  N   UNL A   1      33.317  23.841  25.124  1.00  0.00    -0.356 N 
ATOM      4  C   UNL A   1      33.236  25.129  24.683  1.00  0.00     0.227 C 
ATOM      5  O   UNL A   1      33.719  25.973  25.438  1.00  0.00    -0.274 OA
ATOM      6  H   UNL A   1      33.474  23.743  26.091  1.00  0.00     0.163 HD
BRANCH   4   7
ATOM      7  C   UNL A   1      32.594  25.443  23.318  1.00  0.00     0.108 C 
ATOM      8  C   UNL A   1      33.652  26.050  22.388  1.00  0.00     0.023 C 
BRANCH   7   9
ATOM      9  C   UNL A   1      31.350  26.337  23.316  1.00  0.00    -0.000 A 
ATOM     10  C   UNL A   1      31.297  27.621  22.761  1.00  0.00     0.008 A 
ATOM     11  C   UNL A   1      30.152  25.833  23.850  1.00  0.00     0.127 A 
ATOM     12  C   UNL A   1      30.101  28.345  22.710  1.00  0.00     0.005 A 
ATOM     13  C   UNL A   1      28.953  26.549  23.807  1.00  0.00     0.043 A 
ATOM     14  F   UNL A   1      30.135  24.609  24.401  1.00  0.00    -0.207 F 
ATOM     15  C   UNL A   1      28.913  27.819  23.226  1.00  0.00    -0.038 A 
BRANCH  15  16
ATOM     16  C   UNL A   1      27.623  28.600  23.126  1.00  0.00     0.111 C 
BRANCH  16  17
ATOM     17  C   UNL A   1      27.807  30.031  22.752  1.00  0.00     0.108 A 
ATOM     18  C   UNL A   1      27.879  31.210  23.471  1.00  0.00     0.046 A 
ATOM     19  O   UNL A   1      27.993  30.292  21.424  1.00  0.00    -0.469 OA
ATOM     20  C   UNL A   1      28.103  32.243  22.531  1.00  0.00     0.042 A 
ATOM     21  C   UNL A   1      28.168  31.632  21.301  1.00  0.00     0.195 A 
ENDBRANCH  16  17
ENDBRANCH  15  16
ENDBRANCH   7   9
ENDBRANCH   4   7
ENDBRANCH   2   3
ENDBRANCH   1   2
BRANCH   1  22
ATOM     22  C   UNL A   1      35.718  21.970  24.513  1.00  0.00     0.023 C 
BRANCH  22  23
ATOM     23  C   UNL A   1      36.640  22.202  25.703  1.00  0.00     0.116 C 
BRANCH  23  24
ATOM     24  N   UNL A   1      37.660  21.174  25.824  1.00  0.00    -0.352 N 
ATOM     25  C   UNL A   1      38.994  21.311  26.123  1.00  0.00     0.251 C 
ATOM     26  H   UNL A   1      37.352  20.252  25.671  1.00  0.00     0.163 HD
ATOM     27  O   UNL A   1      39.738  20.338  26.024  1.00  0.00    -0.269 OA
BRANCH  25  28
ATOM     28  C   UNL A   1      39.529  22.628  26.526  1.00  0.00     0.039 A 
ATOM     29  C   UNL A   1      40.564  22.679  27.463  1.00  0.00     0.014 A 
ATOM     30  C   UNL A   1      39.020  23.809  25.978  1.00  0.00     0.014 A 
ATOM     31  C   UNL A   1      41.130  23.910  27.804  1.00  0.00     0.010 A 
ATOM     32  C   UNL A   1      39.633  25.026  26.264  1.00  0.00     0.010 A 
ATOM     33  C   UNL A   1      40.692  25.090  27.182  1.00  0.00    -0.014 A 
BRANCH  33  34
ATOM     34  C   UNL A   1      41.319  26.403  27.486  1.00  0.00     0.031 A 
ATOM     35  C   UNL A   1      42.719  26.692  27.017  1.00  0.00     0.074 A 
ATOM     36  C   UNL A   1      40.656  27.304  28.237  1.00  0.00     0.049 A 
ATOM     37  N   UNL A   1      43.477  27.731  27.257  1.00  0.00    -0.248 NA
ATOM     38  C   UNL A   1      43.362  25.656  26.195  1.00  0.00     0.031 C 
ATOM     39  C   UNL A   1      39.308  27.125  28.780  1.00  0.00     0.029 A 
ATOM     40  N   UNL A   1      41.029  28.546  28.685  1.00  0.00    -0.354 N 
ATOM     41  C   UNL A   1      44.690  27.468  26.631  1.00  0.00     0.074 A 
ATOM     42  C   UNL A   1      44.585  26.145  26.054  1.00  0.00     0.031 C 
ATOM     43  C   UNL A   1      38.960  28.223  29.470  1.00  0.00     0.029 A 
ATOM     44  C   UNL A   1      40.075  29.166  29.460  1.00  0.00     0.049 A 
ATOM     45  H   UNL A   1      41.898  28.958  28.472  1.00  0.00     0.167 HD
ATOM     46  C   UNL A   1      45.782  28.267  26.527  1.00  0.00     0.034 A 
ATOM     47  C   UNL A   1      40.101  30.351  30.102  1.00  0.00     0.034 A 
ATOM     48  C   UNL A   1      45.865  29.589  27.098  1.00  0.00     0.049 A 
ATOM     49  C   UNL A   1      41.334  31.211  29.992  1.00  0.00     0.074 A 
ATOM     50  C   UNL A   1      46.900  30.505  27.009  1.00  0.00     0.029 A 
ATOM     51  N   UNL A   1      44.877  30.185  27.872  1.00  0.00    -0.354 N 
ATOM     52  N   UNL A   1      42.458  30.969  29.357  1.00  0.00    -0.248 NA
ATOM     53  C   UNL A   1      41.298  32.510  30.678  1.00  0.00     0.031 C 
ATOM     54  C   UNL A   1      46.566  31.622  27.781  1.00  0.00     0.029 A 
ATOM     55  C   UNL A   1      45.290  31.441  28.291  1.00  0.00     0.049 A 
ATOM     56  H   UNL A   1      44.009  29.775  28.092  1.00  0.00     0.167 HD
ATOM     57  C   UNL A   1      43.248  32.100  29.541  1.00  0.00     0.074 A 
ATOM     58  C   UNL A   1      42.468  33.027  30.334  1.00  0.00     0.031 C 
ATOM     59  C   UNL A   1      44.505  32.351  29.091  1.00  0.00     0.034 A 
BRANCH  46  60
ATOM     60  C   UNL A   1      46.980  27.711  25.790  1.00  0.00     0.023 A 
ATOM     61  C   UNL A   1      47.250  28.057  24.454  1.00  0.00     0.031 A 
ATOM     62  C   UNL A   1      47.844  26.798  26.419  1.00  0.00     0.131 A 
ATOM     63  C   UNL A   1      48.300  27.432  23.766  1.00  0.00     0.055 A 
ATOM     64  C   UNL A   1      48.941  26.244  25.755  1.00  0.00     0.041 A 
ATOM     65  F   UNL A   1      47.627  26.413  27.687  1.00  0.00    -0.206 F 
ATOM     66  C   UNL A   1      49.164  26.547  24.415  1.00  0.00     0.022 A 
BRANCH  63  67
ATOM     67  S   UNL A   1      48.426  27.674  21.974  1.00  0.00     0.124 S 
ATOM     68  O   UNL A   1      47.115  28.240  21.661  1.00  0.00    -0.237 OA
ATOM     69  O   UNL A   1      49.559  28.584  21.856  1.00  0.00    -0.237 OA
ATOM     70  O   UNL A   1      48.651  26.325  21.460  1.00  0.00    -0.744 OA
ENDBRANCH  63  67
ENDBRANCH  46  60
BRANCH  47  71
ATOM     71  C   UNL A   1      38.932  30.796  30.915  1.00  0.00     0.023 A 
ATOM     72  C   UNL A   1      37.930  31.603  30.358  1.00  0.00     0.031 A 
ATOM     73  C   UNL A   1      38.823  30.451  32.275  1.00  0.00     0.131 A 
ATOM     74  C   UNL A   1      36.885  32.080  31.166  1.00  0.00     0.055 A 
ATOM     75  C   UNL A   1      37.755  30.884  33.061  1.00  0.00     0.041 A 
ATOM     76  F   UNL A   1      39.752  29.675  32.856  1.00  0.00    -0.206 F 
ATOM     77  C   UNL A   1      36.785  31.715  32.511  1.00  0.00     0.022 A 
BRANCH  74  78
ATOM     78  S   UNL A   1      35.702  33.255  30.452  1.00  0.00     0.124 S 
ATOM     79  O   UNL A   1      36.015  34.475  31.186  1.00  0.00    -0.237 OA
ATOM     80  O   UNL A   1      36.074  33.240  29.042  1.00  0.00    -0.237 OA
ATOM     81  O   UNL A   1      34.403  32.657  30.757  1.00  0.00    -0.744 OA
ENDBRANCH  74  78
ENDBRANCH  47  71
BRANCH  59  82
ATOM     82  C   UNL A   1      45.089  33.706  29.411  1.00  0.00     0.023 A 
ATOM     83  C   UNL A   1      44.838  34.831  28.604  1.00  0.00     0.031 A 
ATOM     84  C   UNL A   1      45.919  33.869  30.534  1.00  0.00     0.131 A 
ATOM     85  C   UNL A   1      45.456  36.054  28.902  1.00  0.00     0.055 A 
ATOM     86  C   UNL A   1      46.482  35.103  30.859  1.00  0.00     0.041 A 
ATOM     87  F   UNL A   1      46.194  32.828  31.336  1.00  0.00    -0.206 F 
ATOM     88  C   UNL A   1      46.263  36.202  30.034  1.00  0.00     0.022 A 
BRANCH  85  89
ATOM     89  S   UNL A   1      45.265  37.433  27.740  1.00  0.00     0.124 S 
ATOM     90  O   UNL A   1      43.815  37.591  27.693  1.00  0.00    -0.237 OA
ATOM     91  O   UNL A   1      46.001  38.505  28.402  1.00  0.00    -0.237 OA
ATOM     92  O   UNL A   1      45.874  36.933  26.509  1.00  0.00    -0.744 OA
ENDBRANCH  85  89
ENDBRANCH  59  82
ENDBRANCH  33  34
ENDBRANCH  25  28
ENDBRANCH  23  24
ENDBRANCH  22  23
ENDBRANCH   1  22
TORSDOF 17
ENDMDL
MODEL 3
REMARK VINA RESULT:     -11.4      4.249      7.659
REMARK SMILES C[C@@H](C(=O)NCCCCNC(=O)c1ccc(-c2c3nc(c(-c4cc(S(=O)(=O)[O-])ccc4F)c4ccc([nH]4)c(-c4cc(S(=O)(=O)[O-])ccc4F)c4nc(c(-c5cc(S(=O)(=O)[O-])ccc5F)c5ccc2[nH]5)C=C4)C=C3)cc1)c1ccc(Cc2ccco2)cc1F
REMARK SMILES IDX 7 1 6 2 5 3 3 4 4 5 2 7 1 8 76 9 77 10 87 11 78 12 86 13
REMARK SMILES IDX 88 14 79 15 80 16 81 17 82 18 85 19 83 20 84 21 8 22 9 23
REMARK SMILES IDX 10 24 11 25 12 27 13 28 14 29 75 30 15 31 74 32 16 33 17 34
REMARK SMILES IDX 18 35 68 36 19 37 73 38 67 39 69 40 20 41 72 42 66 43 65 44
REMARK SMILES IDX 21 46 53 47 33 48 52 49 34 50 37 51 51 52 70 53 35 54 36 55
REMARK SMILES IDX 50 57 71 58 38 59 22 60 23 61 31 62 24 63 30 64 32 65 29 66
REMARK SMILES IDX 25 67 26 68 27 69 28 70 54 71 55 72 63 73 56 74 62 75 64 76
REMARK SMILES IDX 61 77 57 78 58 79 59 80 60 81 39 82 40 83 48 84 41 85 47 86
REMARK SMILES IDX 49 87 46 88 42 89 43 90 44 91 45 92
REMARK H PARENT 5 6 10 26 69 45 37 56
REMARK Flexibility Score: inf
ROOT
ATOM      1  C   UNL A   1      34.036  33.895  29.784  1.00  0.00     0.023 C 
ENDROOT
BRANCH   1   2
ATOM      2  C   UNL A   1      34.392  33.405  31.192  1.00  0.00     0.116 C 
BRANCH   2   3
ATOM      3  N   UNL A   1      34.989  34.470  31.972  1.00  0.00    -0.356 N 
ATOM      4  C   UNL A   1      36.113  34.474  32.744  1.00  0.00     0.227 C 
ATOM      5  O   UNL A   1      36.180  35.388  33.567  1.00  0.00    -0.274 OA
ATOM      6  H   UNL A   1      34.505  35.327  31.940  1.00  0.00     0.163 HD
BRANCH   4   7
ATOM      7  C   UNL A   1      37.180  33.376  32.570  1.00  0.00     0.108 C 
ATOM      8  C   UNL A   1      37.278  32.554  33.861  1.00  0.00     0.023 C 
BRANCH   7   9
ATOM      9  C   UNL A   1      38.584  33.821  32.149  1.00  0.00    -0.000 A 
ATOM     10  C   UNL A   1      39.596  34.199  33.038  1.00  0.00     0.008 A 
ATOM     11  C   UNL A   1      38.921  33.800  30.786  1.00  0.00     0.127 A 
ATOM     12  C   UNL A   1      40.886  34.504  32.591  1.00  0.00     0.005 A 
ATOM     13  C   UNL A   1      40.205  34.106  30.327  1.00  0.00     0.043 A 
ATOM     14  F   UNL A   1      37.996  33.450  29.878  1.00  0.00    -0.207 F 
ATOM     15  C   UNL A   1      41.211  34.456  31.231  1.00  0.00    -0.038 A 
BRANCH  15  16
ATOM     16  C   UNL A   1      42.619  34.750  30.770  1.00  0.00     0.111 C 
BRANCH  16  17
ATOM     17  C   UNL A   1      43.170  33.743  29.818  1.00  0.00     0.108 A 
ATOM     18  C   UNL A   1      43.245  32.362  29.818  1.00  0.00     0.046 A 
ATOM     19  O   UNL A   1      43.687  34.231  28.653  1.00  0.00    -0.469 OA
ATOM     20  C   UNL A   1      43.856  31.992  28.597  1.00  0.00     0.042 A 
ATOM     21  C   UNL A   1      44.103  33.164  27.923  1.00  0.00     0.195 A 
ENDBRANCH  16  17
ENDBRANCH  15  16
ENDBRANCH   7   9
ENDBRANCH   4   7
ENDBRANCH   2   3
ENDBRANCH   1   2
BRANCH   1  22
ATOM     22  C   UNL A   1      35.234  34.230  28.890  1.00  0.00     0.023 C 
BRANCH  22  23
ATOM     23  C   UNL A   1      35.624  33.148  27.891  1.00  0.00     0.116 C 
BRANCH  23  24
ATOM     24  N   UNL A   1      34.585  32.146  27.724  1.00  0.00    -0.352 N 
ATOM     25  C   UNL A   1      34.686  30.777  27.782  1.00  0.00     0.251 C 
ATOM     26  H   UNL A   1      33.683  32.497  27.545  1.00  0.00     0.163 HD
ATOM     27  O   UNL A   1      33.724  30.085  27.456  1.00  0.00    -0.269 OA
BRANCH  25  28
ATOM     28  C   UNL A   1      35.957  30.148  28.199  1.00  0.00     0.039 A 
ATOM     29  C   UNL A   1      37.026  30.125  27.300  1.00  0.00     0.014 A 
ATOM     30  C   UNL A   1      36.098  29.588  29.472  1.00  0.00     0.014 A 
ATOM     31  C   UNL A   1      38.256  29.598  27.700  1.00  0.00     0.010 A 
ATOM     32  C   UNL A   1      37.344  29.129  29.892  1.00  0.00     0.010 A 
ATOM     33  C   UNL A   1      38.435  29.126  29.011  1.00  0.00    -0.014 A 
BRANCH  33  34
ATOM     34  C   UNL A   1      39.751  28.615  29.475  1.00  0.00     0.031 A 
ATOM     35  C   UNL A   1      40.460  29.295  30.615  1.00  0.00     0.074 A 
ATOM     36  C   UNL A   1      40.335  27.586  28.831  1.00  0.00     0.049 A 
ATOM     37  N   UNL A   1      41.650  29.066  31.107  1.00  0.00    -0.248 NA
ATOM     38  C   UNL A   1      39.744  30.402  31.266  1.00  0.00     0.031 C 
ATOM     39  C   UNL A   1      39.763  26.868  27.690  1.00  0.00     0.029 A 
ATOM     40  N   UNL A   1      41.544  26.970  29.034  1.00  0.00    -0.354 N 
ATOM     41  C   UNL A   1      41.834  30.008  32.112  1.00  0.00     0.074 A 
ATOM     42  C   UNL A   1      40.656  30.849  32.115  1.00  0.00     0.031 C 
ATOM     43  C   UNL A   1      40.611  25.900  27.308  1.00  0.00     0.029 A 
ATOM     44  C   UNL A   1      41.806  25.955  28.143  1.00  0.00     0.049 A 
ATOM     45  H   UNL A   1      42.168  27.230  29.752  1.00  0.00     0.167 HD
ATOM     46  C   UNL A   1      42.877  30.144  32.969  1.00  0.00     0.034 A 
ATOM     47  C   UNL A   1      42.892  25.168  28.005  1.00  0.00     0.034 A 
ATOM     48  C   UNL A   1      44.038  29.287  32.959  1.00  0.00     0.049 A 
ATOM     49  C   UNL A   1      44.051  25.353  28.953  1.00  0.00     0.074 A 
ATOM     50  C   UNL A   1      45.128  29.301  33.813  1.00  0.00     0.029 A 
ATOM     51  N   UNL A   1      44.266  28.267  32.046  1.00  0.00    -0.354 N 
ATOM     52  N   UNL A   1      44.190  26.220  29.929  1.00  0.00    -0.248 NA
ATOM     53  C   UNL A   1      45.194  24.446  28.785  1.00  0.00     0.031 C 
ATOM     54  C   UNL A   1      46.041  28.336  33.377  1.00  0.00     0.029 A 
ATOM     55  C   UNL A   1      45.490  27.665  32.296  1.00  0.00     0.049 A 
ATOM     56  H   UNL A   1      43.648  28.008  31.323  1.00  0.00     0.167 HD
ATOM     57  C   UNL A   1      45.423  25.939  30.512  1.00  0.00     0.074 A 
ATOM     58  C   UNL A   1      45.979  24.817  29.786  1.00  0.00     0.031 C 
ATOM     59  C   UNL A   1      46.037  26.552  31.556  1.00  0.00     0.034 A 
BRANCH  46  60
ATOM     60  C   UNL A   1      42.813  31.280  33.964  1.00  0.00     0.023 A 
ATOM     61  C   UNL A   1      41.909  31.268  35.041  1.00  0.00     0.031 A 
ATOM     62  C   UNL A   1      43.642  32.406  33.817  1.00  0.00     0.131 A 
ATOM     63  C   UNL A   1      41.795  32.390  35.874  1.00  0.00     0.055 A 
ATOM     64  C   UNL A   1      43.585  33.485  34.702  1.00  0.00     0.041 A 
ATOM     65  F   UNL A   1      44.513  32.486  32.797  1.00  0.00    -0.206 F 
ATOM     66  C   UNL A   1      42.646  33.489  35.729  1.00  0.00     0.022 A 
BRANCH  63  67
ATOM     67  S   UNL A   1      40.418  32.458  37.052  1.00  0.00     0.124 S 
ATOM     68  O   UNL A   1      39.614  31.313  36.630  1.00  0.00    -0.237 OA
ATOM     69  O   UNL A   1      41.094  32.325  38.337  1.00  0.00    -0.237 OA
ATOM     70  O   UNL A   1      39.811  33.763  36.797  1.00  0.00    -0.744 OA
ENDBRANCH  63  67
ENDBRANCH  46  60
BRANCH  47  71
ATOM     71  C   UNL A   1      42.949  24.141  26.925  1.00  0.00     0.023 A 
ATOM     72  C   UNL A   1      42.309  22.902  27.072  1.00  0.00     0.031 A 
ATOM     73  C   UNL A   1      43.680  24.371  25.745  1.00  0.00     0.131 A 
ATOM     74  C   UNL A   1      42.448  21.919  26.079  1.00  0.00     0.055 A 
ATOM     75  C   UNL A   1      43.772  23.410  24.737  1.00  0.00     0.041 A 
ATOM     76  F   UNL A   1      44.307  25.542  25.551  1.00  0.00    -0.206 F 
ATOM     77  C   UNL A   1      43.166  22.170  24.907  1.00  0.00     0.022 A 
BRANCH  74  78
ATOM     78  S   UNL A   1      41.745  20.274  26.380  1.00  0.00     0.124 S 
ATOM     79  O   UNL A   1      42.379  19.484  25.331  1.00  0.00    -0.237 OA
ATOM     80  O   UNL A   1      42.186  20.002  27.744  1.00  0.00    -0.237 OA
ATOM     81  O   UNL A   1      40.308  20.485  26.223  1.00  0.00    -0.744 OA
ENDBRANCH  74  78
ENDBRANCH  47  71
BRANCH  59  82
ATOM     82  C   UNL A   1      47.363  25.982  32.001  1.00  0.00     0.023 A 
ATOM     83  C   UNL A   1      47.460  25.087  33.081  1.00  0.00     0.031 A 
ATOM     84  C   UNL A   1      48.547  26.352  31.339  1.00  0.00     0.131 A 
ATOM     85  C   UNL A   1      48.720  24.636  33.502  1.00  0.00     0.055 A 
ATOM     86  C   UNL A   1      49.791  25.851  31.724  1.00  0.00     0.041 A 
ATOM     87  F   UNL A   1      48.512  27.205  30.303  1.00  0.00    -0.206 F 
ATOM     88  C   UNL A   1      49.884  24.999  32.819  1.00  0.00     0.022 A 
BRANCH  85  89
ATOM     89  S   UNL A   1      48.829  23.636  35.011  1.00  0.00     0.124 S 
ATOM     90  O   UNL A   1      49.320  22.361  34.496  1.00  0.00    -0.237 OA
ATOM     91  O   UNL A   1      49.770  24.399  35.825  1.00  0.00    -0.237 OA
ATOM     92  O   UNL A   1      47.455  23.614  35.509  1.00  0.00    -0.744 OA
ENDBRANCH  85  89
ENDBRANCH  59  82
ENDBRANCH  33  34
ENDBRANCH  25  28
ENDBRANCH  23  24
ENDBRANCH  22  23
ENDBRANCH   1  22
TORSDOF 17
ENDMDL
