MODEL 1
REMARK VINA RESULT:     -10.4      0.000      0.000
REMARK SMILES C[C@@H](C(=O)N(C)C)[N@H+](CC(=O)NCCCCNC(=O)c1ccc(-c2c3nc(c(-c4cc(S(=O)(=O)[O-])ccc4F)c4ccc([nH]4)c(-c4cc(S(=O)(=O)[O-])ccc4F)c4nc(c(-c5cc(S(=O)(=O)[O-])ccc5F)c5ccc2[nH]5)C=C4)C=C3)cc1)CC(F)(F)F
REMARK SMILES IDX 14 1 13 2 12 3 10 4 11 5 9 7 8 8 2 10 1 11 3 12 4 13 5 14
REMARK SMILES IDX 6 15 7 16 83 17 84 18 85 19 86 20 87 21 15 22 16 23 17 24
REMARK SMILES IDX 18 25 19 27 20 28 21 29 82 30 22 31 81 32 23 33 24 34 25 35
REMARK SMILES IDX 75 36 26 37 80 38 74 39 76 40 27 41 79 42 73 43 72 44 28 46
REMARK SMILES IDX 60 47 40 48 59 49 41 50 44 51 58 52 77 53 42 54 43 55 57 57
REMARK SMILES IDX 78 58 45 59 29 60 30 61 38 62 31 63 37 64 39 65 36 66 32 67
REMARK SMILES IDX 33 68 34 69 35 70 61 71 62 72 70 73 63 74 69 75 71 76 68 77
REMARK SMILES IDX 64 78 65 79 66 80 67 81 46 82 47 83 55 84 48 85 54 86 56 87
REMARK SMILES IDX 53 88 49 89 50 90 51 91 52 92
REMARK H PARENT 12 6 8 9 17 26 76 45 44 56
REMARK Flexibility Score: inf
ROOT
ATOM      1  C   UNL A   1      31.464  27.311  26.476  1.00  0.00     0.023 C 
ENDROOT
BRANCH   1   2
ATOM      2  C   UNL A   1      30.320  26.314  26.004  1.00  0.00     0.116 C 
BRANCH   2   3
ATOM      3  N   UNL A   1      29.997  24.949  26.452  1.00  0.00    -0.351 N 
ATOM      4  C   UNL A   1      30.625  23.751  26.671  1.00  0.00     0.275 C 
ATOM      5  O   UNL A   1      29.993  22.934  27.353  1.00  0.00    -0.269 OA
ATOM      6  H   UNL A   1      29.037  24.875  26.655  1.00  0.00     0.163 HD
BRANCH   4   7
ATOM      7  C   UNL A   1      31.983  23.349  26.071  1.00  0.00     0.364 C 
BRANCH   7   8
ATOM      8  N   UNL A   1      32.046  23.737  24.641  1.00  0.00    -0.310 N 
ATOM      9  H   UNL A   1      31.223  24.290  24.406  1.00  0.00     0.349 HD
BRANCH   8  10
ATOM     10  C   UNL A   1      33.200  24.633  24.400  1.00  0.00     0.271 C 
ATOM     11  C   UNL A   1      34.472  24.243  25.180  1.00  0.00     0.086 C 
BRANCH  10  12
ATOM     12  C   UNL A   1      33.400  24.848  22.867  1.00  0.00     0.280 C 
ATOM     13  O   UNL A   1      34.397  24.341  22.341  1.00  0.00    -0.268 OA
ATOM     14  N   UNL A   1      32.490  25.577  22.084  1.00  0.00    -0.344 N 
ATOM     15  C   UNL A   1      31.429  26.498  22.461  1.00  0.00     0.146 C 
ATOM     16  C   UNL A   1      32.655  25.513  20.649  1.00  0.00     0.146 C 
ENDBRANCH  10  12
ENDBRANCH   8  10
BRANCH   8  17
ATOM     17  C   UNL A   1      31.920  22.567  23.718  1.00  0.00     0.380 C 
BRANCH  17  18
ATOM     18  C   UNL A   1      32.415  21.151  24.134  1.00  0.00     0.438 C 
ATOM     19  F   UNL A   1      32.385  20.259  23.127  1.00  0.00    -0.165 F 
ATOM     20  F   UNL A   1      33.718  21.235  24.519  1.00  0.00    -0.165 F 
ATOM     21  F   UNL A   1      31.725  20.659  25.181  1.00  0.00    -0.165 F 
ENDBRANCH  17  18
ENDBRANCH   8  17
ENDBRANCH   7   8
ENDBRANCH   4   7
ENDBRANCH   2   3
ENDBRANCH   1   2
BRANCH   1  22
ATOM     22  C   UNL A   1      32.673  28.061  25.818  1.00  0.00     0.023 C 
BRANCH  22  23
ATOM     23  C   UNL A   1      33.859  28.776  26.499  1.00  0.00     0.116 C 
BRANCH  23  24
ATOM     24  N   UNL A   1      33.721  30.193  26.708  1.00  0.00    -0.352 N 
ATOM     25  C   UNL A   1      34.487  30.989  27.532  1.00  0.00     0.251 C 
ATOM     26  H   UNL A   1      33.002  30.642  26.208  1.00  0.00     0.163 HD
ATOM     27  O   UNL A   1      34.097  32.141  27.770  1.00  0.00    -0.269 OA
BRANCH  25  28
ATOM     28  C   UNL A   1      35.741  30.506  28.171  1.00  0.00     0.039 A 
ATOM     29  C   UNL A   1      36.966  30.746  27.535  1.00  0.00     0.014 A 
ATOM     30  C   UNL A   1      35.717  29.697  29.312  1.00  0.00     0.014 A 
ATOM     31  C   UNL A   1      38.159  30.208  28.050  1.00  0.00     0.010 A 
ATOM     32  C   UNL A   1      36.914  29.176  29.837  1.00  0.00     0.010 A 
ATOM     33  C   UNL A   1      38.151  29.421  29.214  1.00  0.00    -0.014 A 
BRANCH  33  34
ATOM     34  C   UNL A   1      39.420  28.859  29.774  1.00  0.00     0.031 A 
ATOM     35  C   UNL A   1      40.096  29.502  30.960  1.00  0.00     0.074 A 
ATOM     36  C   UNL A   1      40.001  27.790  29.189  1.00  0.00     0.049 A 
ATOM     37  N   UNL A   1      41.230  29.195  31.543  1.00  0.00    -0.248 NA
ATOM     38  C   UNL A   1      39.411  30.655  31.553  1.00  0.00     0.031 C 
ATOM     39  C   UNL A   1      39.468  27.084  28.025  1.00  0.00     0.029 A 
ATOM     40  N   UNL A   1      41.170  27.123  29.476  1.00  0.00    -0.354 N 
ATOM     41  C   UNL A   1      41.404  30.127  32.563  1.00  0.00     0.074 A 
ATOM     42  C   UNL A   1      40.277  31.036  32.482  1.00  0.00     0.031 C 
ATOM     43  C   UNL A   1      40.306  26.090  27.693  1.00  0.00     0.029 A 
ATOM     44  C   UNL A   1      41.459  26.108  28.592  1.00  0.00     0.049 A 
ATOM     45  H   UNL A   1      41.745  27.350  30.241  1.00  0.00     0.167 HD
ATOM     46  C   UNL A   1      42.400  30.211  33.486  1.00  0.00     0.034 A 
ATOM     47  C   UNL A   1      42.535  25.299  28.490  1.00  0.00     0.034 A 
ATOM     48  C   UNL A   1      43.521  29.299  33.548  1.00  0.00     0.049 A 
ATOM     49  C   UNL A   1      43.649  25.426  29.498  1.00  0.00     0.074 A 
ATOM     50  C   UNL A   1      44.551  29.257  34.475  1.00  0.00     0.029 A 
ATOM     51  N   UNL A   1      43.775  28.282  32.635  1.00  0.00    -0.354 N 
ATOM     52  N   UNL A   1      43.769  26.275  30.491  1.00  0.00    -0.248 NA
ATOM     53  C   UNL A   1      44.768  24.480  29.380  1.00  0.00     0.031 C 
ATOM     54  C   UNL A   1      45.466  28.277  34.074  1.00  0.00     0.029 A 
ATOM     55  C   UNL A   1      44.965  27.639  32.950  1.00  0.00     0.049 A 
ATOM     56  H   UNL A   1      43.195  28.051  31.874  1.00  0.00     0.167 HD
ATOM     57  C   UNL A   1      44.960  25.948  31.134  1.00  0.00     0.074 A 
ATOM     58  C   UNL A   1      45.520  24.820  30.417  1.00  0.00     0.031 C 
ATOM     59  C   UNL A   1      45.529  26.521  32.226  1.00  0.00     0.034 A 
BRANCH  46  60
ATOM     60  C   UNL A   1      42.343  31.363  34.468  1.00  0.00     0.023 A 
ATOM     61  C   UNL A   1      41.439  31.375  35.546  1.00  0.00     0.031 A 
ATOM     62  C   UNL A   1      43.168  32.491  34.298  1.00  0.00     0.131 A 
ATOM     63  C   UNL A   1      41.304  32.528  36.337  1.00  0.00     0.055 A 
ATOM     64  C   UNL A   1      43.097  33.596  35.150  1.00  0.00     0.041 A 
ATOM     65  F   UNL A   1      44.044  32.551  33.284  1.00  0.00    -0.206 F 
ATOM     66  C   UNL A   1      42.144  33.629  36.163  1.00  0.00     0.022 A 
BRANCH  63  67
ATOM     67  S   UNL A   1      39.884  32.639  37.463  1.00  0.00     0.124 S 
ATOM     68  O   UNL A   1      39.337  33.950  37.118  1.00  0.00    -0.237 OA
ATOM     69  O   UNL A   1      39.080  31.488  37.070  1.00  0.00    -0.237 OA
ATOM     70  O   UNL A   1      40.490  32.556  38.789  1.00  0.00    -0.744 OA
ENDBRANCH  63  67
ENDBRANCH  46  60
BRANCH  47  71
ATOM     71  C   UNL A   1      42.623  24.321  27.364  1.00  0.00     0.023 A 
ATOM     72  C   UNL A   1      42.021  23.056  27.438  1.00  0.00     0.031 A 
ATOM     73  C   UNL A   1      43.317  24.655  26.186  1.00  0.00     0.131 A 
ATOM     74  C   UNL A   1      42.139  22.162  26.359  1.00  0.00     0.055 A 
ATOM     75  C   UNL A   1      43.391  23.782  25.099  1.00  0.00     0.041 A 
ATOM     76  F   UNL A   1      43.910  25.853  26.064  1.00  0.00    -0.206 F 
ATOM     77  C   UNL A   1      42.805  22.523  25.185  1.00  0.00     0.022 A 
BRANCH  74  78
ATOM     78  S   UNL A   1      41.447  20.493  26.526  1.00  0.00     0.124 S 
ATOM     79  O   UNL A   1      41.932  20.100  27.845  1.00  0.00    -0.237 OA
ATOM     80  O   UNL A   1      40.014  20.745  26.418  1.00  0.00    -0.237 OA
ATOM     81  O   UNL A   1      42.036  19.765  25.403  1.00  0.00    -0.744 OA
ENDBRANCH  74  78
ENDBRANCH  47  71
BRANCH  59  82
ATOM     82  C   UNL A   1      46.805  25.909  32.752  1.00  0.00     0.023 A 
ATOM     83  C   UNL A   1      46.803  24.840  33.665  1.00  0.00     0.031 A 
ATOM     84  C   UNL A   1      48.050  26.392  32.305  1.00  0.00     0.131 A 
ATOM     85  C   UNL A   1      48.020  24.311  34.126  1.00  0.00     0.055 A 
ATOM     86  C   UNL A   1      49.254  25.826  32.724  1.00  0.00     0.041 A 
ATOM     87  F   UNL A   1      48.113  27.415  31.438  1.00  0.00    -0.206 F 
ATOM     88  C   UNL A   1      49.245  24.784  33.645  1.00  0.00     0.022 A 
BRANCH  85  89
ATOM     89  S   UNL A   1      47.991  23.034  35.415  1.00  0.00     0.124 S 
ATOM     90  O   UNL A   1      49.267  23.256  36.089  1.00  0.00    -0.237 OA
ATOM     91  O   UNL A   1      46.796  23.383  36.175  1.00  0.00    -0.237 OA
ATOM     92  O   UNL A   1      47.900  21.785  34.660  1.00  0.00    -0.744 OA
ENDBRANCH  85  89
ENDBRANCH  59  82
ENDBRANCH  33  34
ENDBRANCH  25  28
ENDBRANCH  23  24
ENDBRANCH  22  23
ENDBRANCH   1  22
TORSDOF 19
ENDMDL
MODEL 2
REMARK VINA RESULT:     -10.3      1.335      2.025
REMARK SMILES C[C@@H](C(=O)N(C)C)[N@H+](CC(=O)NCCCCNC(=O)c1ccc(-c2c3nc(c(-c4cc(S(=O)(=O)[O-])ccc4F)c4ccc([nH]4)c(-c4cc(S(=O)(=O)[O-])ccc4F)c4nc(c(-c5cc(S(=O)(=O)[O-])ccc5F)c5ccc2[nH]5)C=C4)C=C3)cc1)CC(F)(F)F
REMARK SMILES IDX 14 1 13 2 12 3 10 4 11 5 9 7 8 8 2 10 1 11 3 12 4 13 5 14
REMARK SMILES IDX 6 15 7 16 83 17 84 18 85 19 86 20 87 21 15 22 16 23 17 24
REMARK SMILES IDX 18 25 19 27 20 28 21 29 82 30 22 31 81 32 23 33 24 34 25 35
REMARK SMILES IDX 75 36 26 37 80 38 74 39 76 40 27 41 79 42 73 43 72 44 28 46
REMARK SMILES IDX 60 47 40 48 59 49 41 50 44 51 58 52 77 53 42 54 43 55 57 57
REMARK SMILES IDX 78 58 45 59 29 60 30 61 38 62 31 63 37 64 39 65 36 66 32 67
REMARK SMILES IDX 33 68 34 69 35 70 61 71 62 72 70 73 63 74 69 75 71 76 68 77
REMARK SMILES IDX 64 78 65 79 66 80 67 81 46 82 47 83 55 84 48 85 54 86 56 87
REMARK SMILES IDX 53 88 49 89 50 90 51 91 52 92
REMARK H PARENT 12 6 8 9 17 26 76 45 44 56
REMARK Flexibility Score: inf
ROOT
ATOM      1  C   UNL A   1      31.416  27.628  26.374  1.00  0.00     0.023 C 
ENDROOT
BRANCH   1   2
ATOM      2  C   UNL A   1      30.637  26.258  26.178  1.00  0.00     0.116 C 
BRANCH   2   3
ATOM      3  N   UNL A   1      30.794  24.963  26.861  1.00  0.00    -0.351 N 
ATOM      4  C   UNL A   1      31.184  23.680  26.580  1.00  0.00     0.275 C 
ATOM      5  O   UNL A   1      31.453  22.975  27.562  1.00  0.00    -0.269 OA
ATOM      6  H   UNL A   1      30.542  25.044  27.809  1.00  0.00     0.163 HD
BRANCH   4   7
ATOM      7  C   UNL A   1      31.225  23.063  25.171  1.00  0.00     0.364 C 
BRANCH   7   8
ATOM      8  N   UNL A   1      32.628  22.947  24.704  1.00  0.00    -0.310 N 
ATOM      9  H   UNL A   1      33.173  22.437  25.399  1.00  0.00     0.349 HD
BRANCH   8  10
ATOM     10  C   UNL A   1      32.696  22.124  23.475  1.00  0.00     0.271 C 
ATOM     11  C   UNL A   1      33.646  22.682  22.396  1.00  0.00     0.086 C 
BRANCH  10  12
ATOM     12  C   UNL A   1      32.921  20.624  23.848  1.00  0.00     0.280 C 
ATOM     13  O   UNL A   1      32.033  19.818  23.546  1.00  0.00    -0.268 OA
ATOM     14  N   UNL A   1      34.086  20.176  24.492  1.00  0.00    -0.344 N 
ATOM     15  C   UNL A   1      35.125  20.903  25.203  1.00  0.00     0.146 C 
ATOM     16  C   UNL A   1      34.284  18.745  24.575  1.00  0.00     0.146 C 
ENDBRANCH  10  12
ENDBRANCH   8  10
BRANCH   8  17
ATOM     17  C   UNL A   1      33.331  24.266  24.650  1.00  0.00     0.380 C 
BRANCH  17  18
ATOM     18  C   UNL A   1      34.631  24.525  25.466  1.00  0.00     0.438 C 
ATOM     19  F   UNL A   1      35.750  24.162  24.813  1.00  0.00    -0.165 F 
ATOM     20  F   UNL A   1      34.749  25.862  25.695  1.00  0.00    -0.165 F 
ATOM     21  F   UNL A   1      34.605  23.919  26.669  1.00  0.00    -0.165 F 
ENDBRANCH  17  18
ENDBRANCH   8  17
ENDBRANCH   7   8
ENDBRANCH   4   7
ENDBRANCH   2   3
ENDBRANCH   1   2
BRANCH   1  22
ATOM     22  C   UNL A   1      32.654  28.345  25.731  1.00  0.00     0.023 C 
BRANCH  22  23
ATOM     23  C   UNL A   1      33.842  29.041  26.427  1.00  0.00     0.116 C 
BRANCH  23  24
ATOM     24  N   UNL A   1      33.696  30.446  26.697  1.00  0.00    -0.352 N 
ATOM     25  C   UNL A   1      34.430  31.202  27.586  1.00  0.00     0.251 C 
ATOM     26  H   UNL A   1      32.995  30.919  26.193  1.00  0.00     0.163 HD
ATOM     27  O   UNL A   1      34.032  32.341  27.863  1.00  0.00    -0.269 OA
BRANCH  25  28
ATOM     28  C   UNL A   1      35.660  30.687  28.247  1.00  0.00     0.039 A 
ATOM     29  C   UNL A   1      36.902  30.891  27.630  1.00  0.00     0.014 A 
ATOM     30  C   UNL A   1      35.595  29.884  29.390  1.00  0.00     0.014 A 
ATOM     31  C   UNL A   1      38.070  30.323  28.166  1.00  0.00     0.010 A 
ATOM     32  C   UNL A   1      36.769  29.333  29.937  1.00  0.00     0.010 A 
ATOM     33  C   UNL A   1      38.023  29.542  29.333  1.00  0.00    -0.014 A 
BRANCH  33  34
ATOM     34  C   UNL A   1      39.267  28.948  29.917  1.00  0.00     0.031 A 
ATOM     35  C   UNL A   1      39.899  29.533  31.156  1.00  0.00     0.074 A 
ATOM     36  C   UNL A   1      39.865  27.903  29.307  1.00  0.00     0.049 A 
ATOM     37  N   UNL A   1      41.007  29.194  31.767  1.00  0.00    -0.248 NA
ATOM     38  C   UNL A   1      39.195  30.663  31.773  1.00  0.00     0.031 C 
ATOM     39  C   UNL A   1      39.375  27.253  28.092  1.00  0.00     0.029 A 
ATOM     40  N   UNL A   1      41.019  27.217  29.608  1.00  0.00    -0.354 N 
ATOM     41  C   UNL A   1      41.146  30.078  32.834  1.00  0.00     0.074 A 
ATOM     42  C   UNL A   1      40.027  30.997  32.750  1.00  0.00     0.031 C 
ATOM     43  C   UNL A   1      40.222  26.269  27.748  1.00  0.00     0.029 A 
ATOM     44  C   UNL A   1      41.338  26.241  28.691  1.00  0.00     0.049 A 
ATOM     45  H   UNL A   1      41.566  27.406  30.405  1.00  0.00     0.167 HD
ATOM     46  C   UNL A   1      42.105  30.115  33.798  1.00  0.00     0.034 A 
ATOM     47  C   UNL A   1      42.415  25.431  28.595  1.00  0.00     0.034 A 
ATOM     48  C   UNL A   1      43.219  29.195  33.862  1.00  0.00     0.049 A 
ATOM     49  C   UNL A   1      43.489  25.506  29.650  1.00  0.00     0.074 A 
ATOM     50  C   UNL A   1      44.212  29.106  34.825  1.00  0.00     0.029 A 
ATOM     51  N   UNL A   1      43.504  28.218  32.915  1.00  0.00    -0.354 N 
ATOM     52  N   UNL A   1      43.574  26.309  30.685  1.00  0.00    -0.248 NA
ATOM     53  C   UNL A   1      44.607  24.559  29.534  1.00  0.00     0.031 C 
ATOM     54  C   UNL A   1      45.137  28.138  34.416  1.00  0.00     0.029 A 
ATOM     55  C   UNL A   1      44.678  27.555  33.247  1.00  0.00     0.049 A 
ATOM     56  H   UNL A   1      42.954  28.025  32.122  1.00  0.00     0.167 HD
ATOM     57  C   UNL A   1      44.737  25.947  31.358  1.00  0.00     0.074 A 
ATOM     58  C   UNL A   1      45.320  24.849  30.613  1.00  0.00     0.031 C 
ATOM     59  C   UNL A   1      45.265  26.467  32.495  1.00  0.00     0.034 A 
BRANCH  46  60
ATOM     60  C   UNL A   1      42.015  31.222  34.828  1.00  0.00     0.023 A 
ATOM     61  C   UNL A   1      40.969  31.279  35.768  1.00  0.00     0.031 A 
ATOM     62  C   UNL A   1      42.958  32.267  34.841  1.00  0.00     0.131 A 
ATOM     63  C   UNL A   1      40.830  32.403  36.597  1.00  0.00     0.055 A 
ATOM     64  C   UNL A   1      42.868  33.335  35.738  1.00  0.00     0.041 A 
ATOM     65  F   UNL A   1      43.974  32.283  33.965  1.00  0.00    -0.206 F 
ATOM     66  C   UNL A   1      41.785  33.420  36.607  1.00  0.00     0.022 A 
BRANCH  63  67
ATOM     67  S   UNL A   1      39.278  32.608  37.518  1.00  0.00     0.124 S 
ATOM     68  O   UNL A   1      38.738  33.825  36.915  1.00  0.00    -0.237 OA
ATOM     69  O   UNL A   1      38.566  31.373  37.212  1.00  0.00    -0.237 OA
ATOM     70  O   UNL A   1      39.717  32.751  38.903  1.00  0.00    -0.744 OA
ENDBRANCH  63  67
ENDBRANCH  46  60
BRANCH  47  71
ATOM     71  C   UNL A   1      42.542  24.504  27.431  1.00  0.00     0.023 A 
ATOM     72  C   UNL A   1      42.012  23.205  27.461  1.00  0.00     0.031 A 
ATOM     73  C   UNL A   1      43.201  24.921  26.259  1.00  0.00     0.131 A 
ATOM     74  C   UNL A   1      42.166  22.361  26.347  1.00  0.00     0.055 A 
ATOM     75  C   UNL A   1      43.310  24.097  25.138  1.00  0.00     0.041 A 
ATOM     76  F   UNL A   1      43.725  26.154  26.179  1.00  0.00    -0.206 F 
ATOM     77  C   UNL A   1      42.796  22.805  25.180  1.00  0.00     0.022 A 
BRANCH  74  78
ATOM     78  S   UNL A   1      41.570  20.651  26.455  1.00  0.00     0.124 S 
ATOM     79  O   UNL A   1      40.149  20.812  26.171  1.00  0.00    -0.237 OA
ATOM     80  O   UNL A   1      42.360  19.987  25.424  1.00  0.00    -0.237 OA
ATOM     81  O   UNL A   1      41.892  20.263  27.829  1.00  0.00    -0.744 OA
ENDBRANCH  74  78
ENDBRANCH  47  71
BRANCH  59  82
ATOM     82  C   UNL A   1      46.518  25.824  33.043  1.00  0.00     0.023 A 
ATOM     83  C   UNL A   1      46.475  24.774  33.975  1.00  0.00     0.031 A 
ATOM     84  C   UNL A   1      47.780  26.259  32.595  1.00  0.00     0.131 A 
ATOM     85  C   UNL A   1      47.671  24.215  34.455  1.00  0.00     0.055 A 
ATOM     86  C   UNL A   1      48.963  25.663  33.034  1.00  0.00     0.041 A 
ATOM     87  F   UNL A   1      47.882  27.262  31.710  1.00  0.00    -0.206 F 
ATOM     88  C   UNL A   1      48.914  24.639  33.975  1.00  0.00     0.022 A 
BRANCH  85  89
ATOM     89  S   UNL A   1      47.592  22.964  35.768  1.00  0.00     0.124 S 
ATOM     90  O   UNL A   1      48.066  23.713  36.928  1.00  0.00    -0.237 OA
ATOM     91  O   UNL A   1      46.178  22.604  35.773  1.00  0.00    -0.237 OA
ATOM     92  O   UNL A   1      48.495  21.915  35.298  1.00  0.00    -0.744 OA
ENDBRANCH  85  89
ENDBRANCH  59  82
ENDBRANCH  33  34
ENDBRANCH  25  28
ENDBRANCH  23  24
ENDBRANCH  22  23
ENDBRANCH   1  22
TORSDOF 19
ENDMDL
MODEL 3
REMARK VINA RESULT:     -10.2      2.011      2.770
REMARK SMILES C[C@@H](C(=O)N(C)C)[N@H+](CC(=O)NCCCCNC(=O)c1ccc(-c2c3nc(c(-c4cc(S(=O)(=O)[O-])ccc4F)c4ccc([nH]4)c(-c4cc(S(=O)(=O)[O-])ccc4F)c4nc(c(-c5cc(S(=O)(=O)[O-])ccc5F)c5ccc2[nH]5)C=C4)C=C3)cc1)CC(F)(F)F
REMARK SMILES IDX 14 1 13 2 12 3 10 4 11 5 9 7 8 8 2 10 1 11 3 12 4 13 5 14
REMARK SMILES IDX 6 15 7 16 83 17 84 18 85 19 86 20 87 21 15 22 16 23 17 24
REMARK SMILES IDX 18 25 19 27 20 28 21 29 82 30 22 31 81 32 23 33 24 34 25 35
REMARK SMILES IDX 75 36 26 37 80 38 74 39 76 40 27 41 79 42 73 43 72 44 28 46
REMARK SMILES IDX 60 47 40 48 59 49 41 50 44 51 58 52 77 53 42 54 43 55 57 57
REMARK SMILES IDX 78 58 45 59 29 60 30 61 38 62 31 63 37 64 39 65 36 66 32 67
REMARK SMILES IDX 33 68 34 69 35 70 61 71 62 72 70 73 63 74 69 75 71 76 68 77
REMARK SMILES IDX 64 78 65 79 66 80 67 81 46 82 47 83 55 84 48 85 54 86 56 87
REMARK SMILES IDX 53 88 49 89 50 90 51 91 52 92
REMARK H PARENT 12 6 8 9 17 26 76 45 44 56
REMARK Flexibility Score: inf
ROOT
ATOM      1  C   UNL A   1      31.723  27.391  26.535  1.00  0.00     0.023 C 
ENDROOT
BRANCH   1   2
ATOM      2  C   UNL A   1      31.234  25.975  26.008  1.00  0.00     0.116 C 
BRANCH   2   3
ATOM      3  N   UNL A   1      30.596  24.857  26.723  1.00  0.00    -0.351 N 
ATOM      4  C   UNL A   1      30.532  23.489  26.668  1.00  0.00     0.275 C 
ATOM      5  O   UNL A   1      30.100  22.933  27.687  1.00  0.00    -0.269 OA
ATOM      6  H   UNL A   1      30.048  25.196  27.467  1.00  0.00     0.163 HD
BRANCH   4   7
ATOM      7  C   UNL A   1      30.876  22.643  25.431  1.00  0.00     0.364 C 
BRANCH   7   8
ATOM      8  N   UNL A   1      32.187  21.975  25.616  1.00  0.00    -0.310 N 
ATOM      9  H   UNL A   1      32.152  21.390  26.451  1.00  0.00     0.349 HD
BRANCH   8  10
ATOM     10  C   UNL A   1      32.452  21.041  24.498  1.00  0.00     0.271 C 
ATOM     11  C   UNL A   1      33.552  21.518  23.527  1.00  0.00     0.086 C 
BRANCH  10  12
ATOM     12  C   UNL A   1      32.632  19.589  25.044  1.00  0.00     0.280 C 
ATOM     13  O   UNL A   1      32.955  19.458  26.231  1.00  0.00    -0.268 OA
ATOM     14  N   UNL A   1      32.429  18.453  24.244  1.00  0.00    -0.344 N 
ATOM     15  C   UNL A   1      32.336  18.306  22.800  1.00  0.00     0.146 C 
ATOM     16  C   UNL A   1      32.397  17.171  24.913  1.00  0.00     0.146 C 
ENDBRANCH  10  12
ENDBRANCH   8  10
BRANCH   8  17
ATOM     17  C   UNL A   1      33.285  22.935  25.943  1.00  0.00     0.380 C 
BRANCH  17  18
ATOM     18  C   UNL A   1      34.396  22.576  26.972  1.00  0.00     0.438 C 
ATOM     19  F   UNL A   1      35.336  23.531  27.096  1.00  0.00    -0.165 F 
ATOM     20  F   UNL A   1      33.831  22.446  28.204  1.00  0.00    -0.165 F 
ATOM     21  F   UNL A   1      34.993  21.403  26.686  1.00  0.00    -0.165 F 
ENDBRANCH  17  18
ENDBRANCH   8  17
ENDBRANCH   7   8
ENDBRANCH   4   7
ENDBRANCH   2   3
ENDBRANCH   1   2
BRANCH   1  22
ATOM     22  C   UNL A   1      32.714  28.511  26.063  1.00  0.00     0.023 C 
BRANCH  22  23
ATOM     23  C   UNL A   1      33.876  29.169  26.836  1.00  0.00     0.116 C 
BRANCH  23  24
ATOM     24  N   UNL A   1      33.716  30.557  27.178  1.00  0.00    -0.352 N 
ATOM     25  C   UNL A   1      34.478  31.287  28.065  1.00  0.00     0.251 C 
ATOM     26  H   UNL A   1      32.984  31.038  26.729  1.00  0.00     0.163 HD
ATOM     27  O   UNL A   1      34.072  32.404  28.413  1.00  0.00    -0.269 OA
BRANCH  25  28
ATOM     28  C   UNL A   1      35.748  30.768  28.644  1.00  0.00     0.039 A 
ATOM     29  C   UNL A   1      36.966  31.147  28.065  1.00  0.00     0.014 A 
ATOM     30  C   UNL A   1      35.750  29.803  29.656  1.00  0.00     0.014 A 
ATOM     31  C   UNL A   1      38.176  30.590  28.511  1.00  0.00     0.010 A 
ATOM     32  C   UNL A   1      36.965  29.262  30.116  1.00  0.00     0.010 A 
ATOM     33  C   UNL A   1      38.195  29.645  29.551  1.00  0.00    -0.014 A 
BRANCH  33  34
ATOM     34  C   UNL A   1      39.483  29.060  30.040  1.00  0.00     0.031 A 
ATOM     35  C   UNL A   1      40.248  29.705  31.170  1.00  0.00     0.074 A 
ATOM     36  C   UNL A   1      39.999  27.968  29.439  1.00  0.00     0.049 A 
ATOM     37  N   UNL A   1      41.408  29.380  31.685  1.00  0.00    -0.248 NA
ATOM     38  C   UNL A   1      39.629  30.886  31.783  1.00  0.00     0.031 C 
ATOM     39  C   UNL A   1      39.377  27.256  28.324  1.00  0.00     0.029 A 
ATOM     40  N   UNL A   1      41.168  27.276  29.664  1.00  0.00    -0.354 N 
ATOM     41  C   UNL A   1      41.669  30.324  32.675  1.00  0.00     0.074 A 
ATOM     42  C   UNL A   1      40.562  31.260  32.648  1.00  0.00     0.031 C 
ATOM     43  C   UNL A   1      40.169  26.235  27.958  1.00  0.00     0.029 A 
ATOM     44  C   UNL A   1      41.376  26.239  28.782  1.00  0.00     0.049 A 
ATOM     45  H   UNL A   1      41.796  27.501  30.388  1.00  0.00     0.167 HD
ATOM     46  C   UNL A   1      42.723  30.399  33.532  1.00  0.00     0.034 A 
ATOM     47  C   UNL A   1      42.424  25.402  28.628  1.00  0.00     0.034 A 
ATOM     48  C   UNL A   1      43.824  29.460  33.540  1.00  0.00     0.049 A 
ATOM     49  C   UNL A   1      43.602  25.518  29.561  1.00  0.00     0.074 A 
ATOM     50  C   UNL A   1      44.908  29.408  34.401  1.00  0.00     0.029 A 
ATOM     51  N   UNL A   1      43.995  28.422  32.632  1.00  0.00    -0.354 N 
ATOM     52  N   UNL A   1      43.805  26.380  30.530  1.00  0.00    -0.248 NA
ATOM     53  C   UNL A   1      44.688  24.542  29.391  1.00  0.00     0.031 C 
ATOM     54  C   UNL A   1      45.772  28.398  33.961  1.00  0.00     0.029 A 
ATOM     55  C   UNL A   1      45.186  27.755  32.884  1.00  0.00     0.049 A 
ATOM     56  H   UNL A   1      43.363  28.193  31.913  1.00  0.00     0.167 HD
ATOM     57  C   UNL A   1      45.026  26.034  31.102  1.00  0.00     0.074 A 
ATOM     58  C   UNL A   1      45.513  24.881  30.373  1.00  0.00     0.031 C 
ATOM     59  C   UNL A   1      45.676  26.611  32.146  1.00  0.00     0.034 A 
BRANCH  46  60
ATOM     60  C   UNL A   1      42.756  31.568  34.495  1.00  0.00     0.023 A 
ATOM     61  C   UNL A   1      42.125  31.514  35.751  1.00  0.00     0.031 A 
ATOM     62  C   UNL A   1      43.383  32.776  34.134  1.00  0.00     0.131 A 
ATOM     63  C   UNL A   1      42.039  32.668  36.545  1.00  0.00     0.055 A 
ATOM     64  C   UNL A   1      43.378  33.893  34.974  1.00  0.00     0.041 A 
ATOM     65  F   UNL A   1      43.994  32.902  32.946  1.00  0.00    -0.206 F 
ATOM     66  C   UNL A   1      42.682  33.851  36.178  1.00  0.00     0.022 A 
BRANCH  63  67
ATOM     67  S   UNL A   1      40.908  32.655  37.965  1.00  0.00     0.124 S 
ATOM     68  O   UNL A   1      41.706  31.954  38.970  1.00  0.00    -0.237 OA
ATOM     69  O   UNL A   1      40.686  34.076  38.203  1.00  0.00    -0.237 OA
ATOM     70  O   UNL A   1      39.749  31.914  37.475  1.00  0.00    -0.744 OA
ENDBRANCH  63  67
ENDBRANCH  46  60
BRANCH  47  71
ATOM     71  C   UNL A   1      42.417  24.404  27.517  1.00  0.00     0.023 A 
ATOM     72  C   UNL A   1      41.794  23.154  27.653  1.00  0.00     0.031 A 
ATOM     73  C   UNL A   1      43.039  24.701  26.290  1.00  0.00     0.131 A 
ATOM     74  C   UNL A   1      41.823  22.239  26.586  1.00  0.00     0.055 A 
ATOM     75  C   UNL A   1      43.022  23.809  25.217  1.00  0.00     0.041 A 
ATOM     76  F   UNL A   1      43.647  25.884  26.108  1.00  0.00    -0.206 F 
ATOM     77  C   UNL A   1      42.417  22.565  25.364  1.00  0.00     0.022 A 
BRANCH  74  78
ATOM     78  S   UNL A   1      41.108  20.589  26.828  1.00  0.00     0.124 S 
ATOM     79  O   UNL A   1      39.918  20.653  25.988  1.00  0.00    -0.237 OA
ATOM     80  O   UNL A   1      42.182  19.720  26.357  1.00  0.00    -0.237 OA
ATOM     81  O   UNL A   1      40.853  20.535  28.268  1.00  0.00    -0.744 OA
ENDBRANCH  74  78
ENDBRANCH  47  71
BRANCH  59  82
ATOM     82  C   UNL A   1      46.969  25.975  32.602  1.00  0.00     0.023 A 
ATOM     83  C   UNL A   1      48.218  26.365  32.088  1.00  0.00     0.031 A 
ATOM     84  C   UNL A   1      46.945  24.976  33.594  1.00  0.00     0.131 A 
ATOM     85  C   UNL A   1      49.388  25.736  32.544  1.00  0.00     0.055 A 
ATOM     86  C   UNL A   1      48.115  24.395  34.083  1.00  0.00     0.041 A 
ATOM     87  F   UNL A   1      45.780  24.561  34.116  1.00  0.00    -0.206 F 
ATOM     88  C   UNL A   1      49.346  24.769  33.553  1.00  0.00     0.022 A 
BRANCH  85  89
ATOM     89  S   UNL A   1      50.971  26.151  31.759  1.00  0.00     0.124 S 
ATOM     90  O   UNL A   1      51.925  25.835  32.818  1.00  0.00    -0.237 OA
ATOM     91  O   UNL A   1      50.987  25.265  30.600  1.00  0.00    -0.237 OA
ATOM     92  O   UNL A   1      50.840  27.573  31.449  1.00  0.00    -0.744 OA
ENDBRANCH  85  89
ENDBRANCH  59  82
ENDBRANCH  33  34
ENDBRANCH  25  28
ENDBRANCH  23  24
ENDBRANCH  22  23
ENDBRANCH   1  22
TORSDOF 19
ENDMDL
