MODEL 1
REMARK VINA RESULT:     -12.0      0.000      0.000
REMARK SMILES Cc1ccc(S(=O)(=O)N[C@H]2C=C[C@@H](C(=O)NCCCCNC(=O)c3ccc(-c4c5nc(c(-c6cc(S(=O)(=O)[O-])ccc6F)c6ccc([nH]6)c(-c6cc(S(=O)(=O)[O-])ccc6F)c6nc(c(-c7cc(S(=O)(=O)[O-])ccc7F)c7ccc4[nH]7)C=C6)C=C5)cc3)C2)c(C)c1
REMARK SMILES IDX 18 1 17 2 16 3 14 4 15 5 13 7 10 8 11 9 87 10 12 11 9 12
REMARK SMILES IDX 6 14 7 15 8 16 5 17 1 18 2 19 3 20 90 21 4 22 88 23 89 24
REMARK SMILES IDX 19 25 20 26 21 27 22 28 23 30 24 31 25 32 86 33 26 34 85 35
REMARK SMILES IDX 27 36 28 37 29 38 79 39 30 40 84 41 78 42 80 43 31 44 83 45
REMARK SMILES IDX 77 46 76 47 32 49 64 50 44 51 63 52 45 53 48 54 62 55 81 56
REMARK SMILES IDX 46 57 47 58 61 60 82 61 49 62 33 63 34 64 42 65 35 66 41 67
REMARK SMILES IDX 43 68 40 69 36 70 37 71 38 72 39 73 65 74 66 75 74 76 67 77
REMARK SMILES IDX 73 78 75 79 72 80 68 81 69 82 70 83 71 84 50 85 51 86 59 87
REMARK SMILES IDX 52 88 58 89 60 90 57 91 53 92 54 93 55 94 56 95
REMARK H PARENT 16 6 9 13 21 29 80 48 48 59
REMARK Flexibility Score: inf
ROOT
ATOM      1  C   UNL A   1      35.522  23.528  23.970  1.00  0.00     0.023 C 
ENDROOT
BRANCH   1   2
ATOM      2  C   UNL A   1      34.076  23.056  23.823  1.00  0.00     0.116 C 
BRANCH   2   3
ATOM      3  N   UNL A   1      33.908  21.686  24.273  1.00  0.00    -0.356 N 
ATOM      4  C   UNL A   1      33.174  21.166  25.292  1.00  0.00     0.226 C 
ATOM      5  O   UNL A   1      33.200  19.939  25.441  1.00  0.00    -0.274 OA
ATOM      6  H   UNL A   1      34.412  21.022  23.750  1.00  0.00     0.163 HD
BRANCH   4   7
ATOM      7  C   UNL A   1      32.329  22.023  26.238  1.00  0.00     0.103 C 
ATOM      8  C   UNL A   1      31.928  24.447  26.498  1.00  0.00     0.093 C 
ATOM      9  C   UNL A   1      30.811  23.757  25.796  1.00  0.00    -0.011 C 
ATOM     10  C   UNL A   1      32.974  23.331  26.704  1.00  0.00     0.042 C 
ATOM     11  C   UNL A   1      31.020  22.443  25.656  1.00  0.00    -0.016 C 
BRANCH   8  12
ATOM     12  N   UNL A   1      32.540  25.535  25.747  1.00  0.00    -0.204 NA
ATOM     13  H   UNL A   1      33.530  25.296  25.694  1.00  0.00     0.142 HD
BRANCH  12  14
ATOM     14  S   UNL A   1      32.506  27.159  26.143  1.00  0.00     0.241 S 
ATOM     15  O   UNL A   1      33.821  27.696  25.882  1.00  0.00    -0.207 OA
ATOM     16  O   UNL A   1      31.909  27.214  27.461  1.00  0.00    -0.207 OA
BRANCH  14  17
ATOM     17  C   UNL A   1      31.345  27.928  25.028  1.00  0.00     0.085 A 
ATOM     18  C   UNL A   1      28.824  29.678  22.001  1.00  0.00     0.044 C 
ATOM     19  C   UNL A   1      29.681  29.058  23.065  1.00  0.00    -0.051 A 
ATOM     20  C   UNL A   1      29.763  27.672  23.200  1.00  0.00     0.005 A 
ATOM     21  C   UNL A   1      30.379  29.872  23.967  1.00  0.00     0.008 A 
ATOM     22  C   UNL A   1      30.581  27.110  24.182  1.00  0.00     0.022 A 
ATOM     23  C   UNL A   1      31.203  29.326  24.970  1.00  0.00    -0.031 A 
ATOM     24  C   UNL A   1      31.854  30.291  25.923  1.00  0.00     0.046 C 
ENDBRANCH  14  17
ENDBRANCH  12  14
ENDBRANCH   8  12
ENDBRANCH   4   7
ENDBRANCH   2   3
ENDBRANCH   1   2
BRANCH   1  25
ATOM     25  C   UNL A   1      36.532  22.410  24.227  1.00  0.00     0.023 C 
BRANCH  25  26
ATOM     26  C   UNL A   1      36.983  22.266  25.676  1.00  0.00     0.116 C 
BRANCH  26  27
ATOM     27  N   UNL A   1      38.052  21.294  25.847  1.00  0.00    -0.352 N 
ATOM     28  C   UNL A   1      39.342  21.506  26.275  1.00  0.00     0.251 C 
ATOM     29  H   UNL A   1      37.821  20.362  25.628  1.00  0.00     0.163 HD
ATOM     30  O   UNL A   1      40.160  20.594  26.234  1.00  0.00    -0.269 OA
BRANCH  28  31
ATOM     31  C   UNL A   1      39.740  22.850  26.745  1.00  0.00     0.039 A 
ATOM     32  C   UNL A   1      40.607  22.956  27.836  1.00  0.00     0.014 A 
ATOM     33  C   UNL A   1      39.281  24.000  26.095  1.00  0.00     0.014 A 
ATOM     34  C   UNL A   1      41.065  24.214  28.234  1.00  0.00     0.010 A 
ATOM     35  C   UNL A   1      39.799  25.243  26.445  1.00  0.00     0.010 A 
ATOM     36  C   UNL A   1      40.692  25.364  27.519  1.00  0.00    -0.014 A 
BRANCH  36  37
ATOM     37  C   UNL A   1      41.206  26.706  27.893  1.00  0.00     0.031 A 
ATOM     38  C   UNL A   1      42.636  27.068  27.604  1.00  0.00     0.074 A 
ATOM     39  C   UNL A   1      40.410  27.569  28.552  1.00  0.00     0.049 A 
ATOM     40  N   UNL A   1      43.300  28.152  27.915  1.00  0.00    -0.248 NA
ATOM     41  C   UNL A   1      43.435  26.053  26.902  1.00  0.00     0.031 C 
ATOM     42  C   UNL A   1      39.016  27.321  28.924  1.00  0.00     0.029 A 
ATOM     43  N   UNL A   1      40.661  28.832  29.029  1.00  0.00    -0.354 N 
ATOM     44  C   UNL A   1      44.598  27.944  27.461  1.00  0.00     0.074 A 
ATOM     45  C   UNL A   1      44.639  26.599  26.926  1.00  0.00     0.031 C 
ATOM     46  C   UNL A   1      38.524  28.409  29.538  1.00  0.00     0.029 A 
ATOM     47  C   UNL A   1      39.578  29.414  29.643  1.00  0.00     0.049 A 
ATOM     48  H   UNL A   1      41.534  29.277  28.940  1.00  0.00     0.167 HD
ATOM     49  C   UNL A   1      45.649  28.803  27.461  1.00  0.00     0.034 A 
ATOM     50  C   UNL A   1      39.450  30.623  30.225  1.00  0.00     0.034 A 
ATOM     51  C   UNL A   1      45.585  30.142  27.995  1.00  0.00     0.049 A 
ATOM     52  C   UNL A   1      40.636  31.550  30.253  1.00  0.00     0.074 A 
ATOM     53  C   UNL A   1      46.566  31.119  28.006  1.00  0.00     0.029 A 
ATOM     54  N   UNL A   1      44.475  30.693  28.625  1.00  0.00    -0.354 N 
ATOM     55  N   UNL A   1      41.847  31.359  29.779  1.00  0.00    -0.248 NA
ATOM     56  C   UNL A   1      40.434  32.858  30.886  1.00  0.00     0.031 C 
ATOM     57  C   UNL A   1      46.073  32.232  28.696  1.00  0.00     0.029 A 
ATOM     58  C   UNL A   1      44.757  31.982  29.055  1.00  0.00     0.049 A 
ATOM     59  H   UNL A   1      43.612  30.236  28.749  1.00  0.00     0.167 HD
ATOM     60  C   UNL A   1      42.540  32.539  30.029  1.00  0.00     0.074 A 
ATOM     61  C   UNL A   1      41.612  33.435  30.690  1.00  0.00     0.031 C 
ATOM     62  C   UNL A   1      43.826  32.859  29.728  1.00  0.00     0.034 A 
BRANCH  49  63
ATOM     63  C   UNL A   1      46.953  28.288  26.893  1.00  0.00     0.023 A 
ATOM     64  C   UNL A   1      47.228  28.347  25.515  1.00  0.00     0.031 A 
ATOM     65  C   UNL A   1      47.897  27.659  27.722  1.00  0.00     0.131 A 
ATOM     66  C   UNL A   1      48.350  27.686  24.994  1.00  0.00     0.055 A 
ATOM     67  C   UNL A   1      49.066  27.090  27.208  1.00  0.00     0.041 A 
ATOM     68  F   UNL A   1      47.688  27.555  29.044  1.00  0.00    -0.206 F 
ATOM     69  C   UNL A   1      49.286  27.079  25.834  1.00  0.00     0.022 A 
BRANCH  66  70
ATOM     70  S   UNL A   1      48.457  27.456  23.196  1.00  0.00     0.124 S 
ATOM     71  O   UNL A   1      48.407  26.000  23.083  1.00  0.00    -0.237 OA
ATOM     72  O   UNL A   1      47.283  28.175  22.717  1.00  0.00    -0.237 OA
ATOM     73  O   UNL A   1      49.744  28.056  22.851  1.00  0.00    -0.744 OA
ENDBRANCH  66  70
ENDBRANCH  49  63
BRANCH  50  74
ATOM     74  C   UNL A   1      38.146  31.037  30.812  1.00  0.00     0.023 A 
ATOM     75  C   UNL A   1      37.190  31.706  30.031  1.00  0.00     0.031 A 
ATOM     76  C   UNL A   1      37.840  30.786  32.161  1.00  0.00     0.131 A 
ATOM     77  C   UNL A   1      35.987  32.132  30.611  1.00  0.00     0.055 A 
ATOM     78  C   UNL A   1      36.623  31.174  32.724  1.00  0.00     0.041 A 
ATOM     79  F   UNL A   1      38.717  30.140  32.946  1.00  0.00    -0.206 F 
ATOM     80  C   UNL A   1      35.692  31.859  31.950  1.00  0.00     0.022 A 
BRANCH  77  81
ATOM     81  S   UNL A   1      34.826  33.091  29.602  1.00  0.00     0.124 S 
ATOM     82  O   UNL A   1      34.025  33.758  30.622  1.00  0.00    -0.237 OA
ATOM     83  O   UNL A   1      35.726  33.945  28.833  1.00  0.00    -0.237 OA
ATOM     84  O   UNL A   1      34.126  32.071  28.825  1.00  0.00    -0.744 OA
ENDBRANCH  77  81
ENDBRANCH  50  74
BRANCH  62  85
ATOM     85  C   UNL A   1      44.280  34.256  30.072  1.00  0.00     0.023 A 
ATOM     86  C   UNL A   1      44.051  35.345  29.212  1.00  0.00     0.031 A 
ATOM     87  C   UNL A   1      44.971  34.494  31.273  1.00  0.00     0.131 A 
ATOM     88  C   UNL A   1      44.557  36.612  29.541  1.00  0.00     0.055 A 
ATOM     89  C   UNL A   1      45.422  35.768  31.622  1.00  0.00     0.041 A 
ATOM     90  F   UNL A   1      45.221  33.489  32.129  1.00  0.00    -0.206 F 
ATOM     91  C   UNL A   1      45.228  36.833  30.748  1.00  0.00     0.022 A 
BRANCH  88  92
ATOM     92  S   UNL A   1      44.408  37.953  28.329  1.00  0.00     0.124 S 
ATOM     93  O   UNL A   1      44.540  37.236  27.065  1.00  0.00    -0.237 OA
ATOM     94  O   UNL A   1      43.083  38.492  28.620  1.00  0.00    -0.237 OA
ATOM     95  O   UNL A   1      45.523  38.840  28.657  1.00  0.00    -0.744 OA
ENDBRANCH  88  92
ENDBRANCH  62  85
ENDBRANCH  36  37
ENDBRANCH  28  31
ENDBRANCH  26  27
ENDBRANCH  25  26
ENDBRANCH   1  25
TORSDOF 17
ENDMDL
MODEL 2
REMARK VINA RESULT:     -12.0      4.445      9.554
REMARK SMILES Cc1ccc(S(=O)(=O)N[C@H]2C=C[C@@H](C(=O)NCCCCNC(=O)c3ccc(-c4c5nc(c(-c6cc(S(=O)(=O)[O-])ccc6F)c6ccc([nH]6)c(-c6cc(S(=O)(=O)[O-])ccc6F)c6nc(c(-c7cc(S(=O)(=O)[O-])ccc7F)c7ccc4[nH]7)C=C6)C=C5)cc3)C2)c(C)c1
REMARK SMILES IDX 18 1 17 2 16 3 14 4 15 5 13 7 10 8 11 9 87 10 12 11 9 12
REMARK SMILES IDX 6 14 7 15 8 16 5 17 1 18 2 19 3 20 90 21 4 22 88 23 89 24
REMARK SMILES IDX 19 25 20 26 21 27 22 28 23 30 24 31 25 32 86 33 26 34 85 35
REMARK SMILES IDX 27 36 28 37 29 38 79 39 30 40 84 41 78 42 80 43 31 44 83 45
REMARK SMILES IDX 77 46 76 47 32 49 64 50 44 51 63 52 45 53 48 54 62 55 81 56
REMARK SMILES IDX 46 57 47 58 61 60 82 61 49 62 33 63 34 64 42 65 35 66 41 67
REMARK SMILES IDX 43 68 40 69 36 70 37 71 38 72 39 73 65 74 66 75 74 76 67 77
REMARK SMILES IDX 73 78 75 79 72 80 68 81 69 82 70 83 71 84 50 85 51 86 59 87
REMARK SMILES IDX 52 88 58 89 60 90 57 91 53 92 54 93 55 94 56 95
REMARK H PARENT 16 6 9 13 21 29 80 48 48 59
REMARK Flexibility Score: inf
ROOT
ATOM      1  C   UNL A   1      33.698  29.097  23.963  1.00  0.00     0.023 C 
ENDROOT
BRANCH   1   2
ATOM      2  C   UNL A   1      33.077  28.569  22.671  1.00  0.00     0.116 C 
BRANCH   2   3
ATOM      3  N   UNL A   1      31.912  29.342  22.279  1.00  0.00    -0.356 N 
ATOM      4  C   UNL A   1      30.596  29.006  22.226  1.00  0.00     0.226 C 
ATOM      5  O   UNL A   1      29.801  29.883  21.867  1.00  0.00    -0.274 OA
ATOM      6  H   UNL A   1      32.110  30.267  22.006  1.00  0.00     0.163 HD
BRANCH   4   7
ATOM      7  C   UNL A   1      30.071  27.616  22.593  1.00  0.00     0.103 C 
ATOM      8  C   UNL A   1      31.122  25.447  23.133  1.00  0.00     0.093 C 
ATOM      9  C   UNL A   1      30.651  26.169  24.346  1.00  0.00    -0.011 C 
ATOM     10  C   UNL A   1      30.833  26.436  21.984  1.00  0.00     0.042 C 
ATOM     11  C   UNL A   1      30.077  27.342  24.061  1.00  0.00    -0.016 C 
BRANCH   8  12
ATOM     12  N   UNL A   1      32.543  25.122  23.129  1.00  0.00    -0.204 NA
ATOM     13  H   UNL A   1      32.930  25.635  22.338  1.00  0.00     0.142 HD
BRANCH  12  14
ATOM     14  S   UNL A   1      33.213  23.593  23.026  1.00  0.00     0.241 S 
ATOM     15  O   UNL A   1      33.537  23.356  21.638  1.00  0.00    -0.207 OA
ATOM     16  O   UNL A   1      32.306  22.732  23.754  1.00  0.00    -0.207 OA
BRANCH  14  17
ATOM     17  C   UNL A   1      34.730  23.641  23.964  1.00  0.00     0.085 A 
ATOM     18  C   UNL A   1      38.378  23.311  26.234  1.00  0.00     0.044 C 
ATOM     19  C   UNL A   1      37.119  23.443  25.430  1.00  0.00    -0.051 A 
ATOM     20  C   UNL A   1      37.107  23.151  24.066  1.00  0.00     0.005 A 
ATOM     21  C   UNL A   1      35.944  23.907  26.036  1.00  0.00     0.008 A 
ATOM     22  C   UNL A   1      35.924  23.259  23.335  1.00  0.00     0.022 A 
ATOM     23  C   UNL A   1      34.741  24.032  25.315  1.00  0.00    -0.031 A 
ATOM     24  C   UNL A   1      33.557  24.600  26.050  1.00  0.00     0.046 C 
ENDBRANCH  14  17
ENDBRANCH  12  14
ENDBRANCH   8  12
ENDBRANCH   4   7
ENDBRANCH   2   3
ENDBRANCH   1   2
BRANCH   1  25
ATOM     25  C   UNL A   1      33.458  28.217  25.190  1.00  0.00     0.023 C 
BRANCH  25  26
ATOM     26  C   UNL A   1      34.142  28.688  26.468  1.00  0.00     0.116 C 
BRANCH  26  27
ATOM     27  N   UNL A   1      33.865  30.081  26.784  1.00  0.00    -0.352 N 
ATOM     28  C   UNL A   1      34.562  30.926  27.615  1.00  0.00     0.251 C 
ATOM     29  H   UNL A   1      33.075  30.470  26.343  1.00  0.00     0.163 HD
ATOM     30  O   UNL A   1      34.115  32.037  27.877  1.00  0.00    -0.269 OA
BRANCH  28  31
ATOM     31  C   UNL A   1      35.831  30.467  28.219  1.00  0.00     0.039 A 
ATOM     32  C   UNL A   1      35.793  29.787  29.439  1.00  0.00     0.014 A 
ATOM     33  C   UNL A   1      37.051  30.683  27.572  1.00  0.00     0.014 A 
ATOM     34  C   UNL A   1      36.971  29.266  29.978  1.00  0.00     0.010 A 
ATOM     35  C   UNL A   1      38.211  30.098  28.071  1.00  0.00     0.010 A 
ATOM     36  C   UNL A   1      38.184  29.388  29.280  1.00  0.00    -0.014 A 
BRANCH  36  37
ATOM     37  C   UNL A   1      39.441  28.799  29.808  1.00  0.00     0.031 A 
ATOM     38  C   UNL A   1      40.102  29.404  31.015  1.00  0.00     0.074 A 
ATOM     39  C   UNL A   1      40.021  27.768  29.164  1.00  0.00     0.049 A 
ATOM     40  N   UNL A   1      41.237  29.091  31.587  1.00  0.00    -0.248 NA
ATOM     41  C   UNL A   1      39.408  30.539  31.637  1.00  0.00     0.031 C 
ATOM     42  C   UNL A   1      39.497  27.118  27.961  1.00  0.00     0.029 A 
ATOM     43  N   UNL A   1      41.182  27.087  29.430  1.00  0.00    -0.354 N 
ATOM     44  C   UNL A   1      41.400  30.000  32.626  1.00  0.00     0.074 A 
ATOM     45  C   UNL A   1      40.285  30.921  32.550  1.00  0.00     0.031 C 
ATOM     46  C   UNL A   1      40.314  26.110  27.615  1.00  0.00     0.029 A 
ATOM     47  C   UNL A   1      41.440  26.070  28.543  1.00  0.00     0.049 A 
ATOM     48  H   UNL A   1      41.774  27.307  30.185  1.00  0.00     0.167 HD
ATOM     49  C   UNL A   1      42.371  30.046  33.574  1.00  0.00     0.034 A 
ATOM     50  C   UNL A   1      42.470  25.202  28.484  1.00  0.00     0.034 A 
ATOM     51  C   UNL A   1      43.472  29.115  33.635  1.00  0.00     0.049 A 
ATOM     52  C   UNL A   1      43.560  25.291  29.519  1.00  0.00     0.074 A 
ATOM     53  C   UNL A   1      44.485  29.030  34.574  1.00  0.00     0.029 A 
ATOM     54  N   UNL A   1      43.710  28.106  32.708  1.00  0.00    -0.354 N 
ATOM     55  N   UNL A   1      43.680  26.127  30.525  1.00  0.00    -0.248 NA
ATOM     56  C   UNL A   1      44.648  24.312  29.414  1.00  0.00     0.031 C 
ATOM     57  C   UNL A   1      45.367  28.017  34.182  1.00  0.00     0.029 A 
ATOM     58  C   UNL A   1      44.869  27.417  33.036  1.00  0.00     0.049 A 
ATOM     59  H   UNL A   1      43.139  27.908  31.931  1.00  0.00     0.167 HD
ATOM     60  C   UNL A   1      44.841  25.751  31.193  1.00  0.00     0.074 A 
ATOM     61  C   UNL A   1      45.380  24.612  30.478  1.00  0.00     0.031 C 
ATOM     62  C   UNL A   1      45.405  26.291  32.305  1.00  0.00     0.034 A 
BRANCH  49  63
ATOM     63  C   UNL A   1      42.284  31.165  34.588  1.00  0.00     0.023 A 
ATOM     64  C   UNL A   1      42.905  32.407  34.367  1.00  0.00     0.031 A 
ATOM     65  C   UNL A   1      41.643  30.964  35.823  1.00  0.00     0.131 A 
ATOM     66  C   UNL A   1      42.977  33.351  35.403  1.00  0.00     0.055 A 
ATOM     67  C   UNL A   1      41.631  31.949  36.815  1.00  0.00     0.041 A 
ATOM     68  F   UNL A   1      41.045  29.796  36.103  1.00  0.00    -0.206 F 
ATOM     69  C   UNL A   1      42.322  33.141  36.618  1.00  0.00     0.022 A 
BRANCH  66  70
ATOM     70  S   UNL A   1      44.109  34.757  35.210  1.00  0.00     0.124 S 
ATOM     71  O   UNL A   1      43.352  35.622  34.308  1.00  0.00    -0.237 OA
ATOM     72  O   UNL A   1      44.254  35.233  36.580  1.00  0.00    -0.237 OA
ATOM     73  O   UNL A   1      45.306  34.155  34.626  1.00  0.00    -0.744 OA
ENDBRANCH  66  70
ENDBRANCH  49  63
BRANCH  50  74
ATOM     74  C   UNL A   1      42.513  24.162  27.420  1.00  0.00     0.023 A 
ATOM     75  C   UNL A   1      41.873  22.925  27.603  1.00  0.00     0.031 A 
ATOM     76  C   UNL A   1      43.202  24.378  26.215  1.00  0.00     0.131 A 
ATOM     77  C   UNL A   1      41.963  21.938  26.612  1.00  0.00     0.055 A 
ATOM     78  C   UNL A   1      43.254  23.407  25.212  1.00  0.00     0.041 A 
ATOM     79  F   UNL A   1      43.821  25.547  25.988  1.00  0.00    -0.206 F 
ATOM     80  C   UNL A   1      42.639  22.175  25.412  1.00  0.00     0.022 A 
BRANCH  77  81
ATOM     81  S   UNL A   1      41.221  20.314  26.931  1.00  0.00     0.124 S 
ATOM     82  O   UNL A   1      42.327  19.416  26.621  1.00  0.00    -0.237 OA
ATOM     83  O   UNL A   1      40.856  20.419  28.340  1.00  0.00    -0.237 OA
ATOM     84  O   UNL A   1      40.095  20.266  26.001  1.00  0.00    -0.744 OA
ENDBRANCH  77  81
ENDBRANCH  50  74
BRANCH  62  85
ATOM     85  C   UNL A   1      46.646  25.617  32.837  1.00  0.00     0.023 A 
ATOM     86  C   UNL A   1      47.920  25.881  32.305  1.00  0.00     0.031 A 
ATOM     87  C   UNL A   1      46.544  24.680  33.879  1.00  0.00     0.131 A 
ATOM     88  C   UNL A   1      49.035  25.175  32.782  1.00  0.00     0.055 A 
ATOM     89  C   UNL A   1      47.664  24.023  34.389  1.00  0.00     0.041 A 
ATOM     90  F   UNL A   1      45.350  24.387  34.421  1.00  0.00    -0.206 F 
ATOM     91  C   UNL A   1      48.917  24.259  33.831  1.00  0.00     0.022 A 
BRANCH  88  92
ATOM     92  S   UNL A   1      50.633  25.401  31.952  1.00  0.00     0.124 S 
ATOM     93  O   UNL A   1      50.601  26.821  31.614  1.00  0.00    -0.237 OA
ATOM     94  O   UNL A   1      51.582  25.014  32.990  1.00  0.00    -0.237 OA
ATOM     95  O   UNL A   1      50.559  24.491  30.810  1.00  0.00    -0.744 OA
ENDBRANCH  88  92
ENDBRANCH  62  85
ENDBRANCH  36  37
ENDBRANCH  28  31
ENDBRANCH  26  27
ENDBRANCH  25  26
ENDBRANCH   1  25
TORSDOF 17
ENDMDL
MODEL 3
REMARK VINA RESULT:     -11.9      2.506      3.063
REMARK SMILES Cc1ccc(S(=O)(=O)N[C@H]2C=C[C@@H](C(=O)NCCCCNC(=O)c3ccc(-c4c5nc(c(-c6cc(S(=O)(=O)[O-])ccc6F)c6ccc([nH]6)c(-c6cc(S(=O)(=O)[O-])ccc6F)c6nc(c(-c7cc(S(=O)(=O)[O-])ccc7F)c7ccc4[nH]7)C=C6)C=C5)cc3)C2)c(C)c1
REMARK SMILES IDX 18 1 17 2 16 3 14 4 15 5 13 7 10 8 11 9 87 10 12 11 9 12
REMARK SMILES IDX 6 14 7 15 8 16 5 17 1 18 2 19 3 20 90 21 4 22 88 23 89 24
REMARK SMILES IDX 19 25 20 26 21 27 22 28 23 30 24 31 25 32 86 33 26 34 85 35
REMARK SMILES IDX 27 36 28 37 29 38 79 39 30 40 84 41 78 42 80 43 31 44 83 45
REMARK SMILES IDX 77 46 76 47 32 49 64 50 44 51 63 52 45 53 48 54 62 55 81 56
REMARK SMILES IDX 46 57 47 58 61 60 82 61 49 62 33 63 34 64 42 65 35 66 41 67
REMARK SMILES IDX 43 68 40 69 36 70 37 71 38 72 39 73 65 74 66 75 74 76 67 77
REMARK SMILES IDX 73 78 75 79 72 80 68 81 69 82 70 83 71 84 50 85 51 86 59 87
REMARK SMILES IDX 52 88 58 89 60 90 57 91 53 92 54 93 55 94 56 95
REMARK H PARENT 16 6 9 13 21 29 80 48 48 59
REMARK Flexibility Score: inf
ROOT
ATOM      1  C   UNL A   1      34.787  22.900  27.128  1.00  0.00     0.023 C 
ENDROOT
BRANCH   1   2
ATOM      2  C   UNL A   1      33.723  21.807  27.226  1.00  0.00     0.116 C 
BRANCH   2   3
ATOM      3  N   UNL A   1      34.070  20.645  26.428  1.00  0.00    -0.356 N 
ATOM      4  C   UNL A   1      33.528  20.156  25.281  1.00  0.00     0.226 C 
ATOM      5  O   UNL A   1      34.043  19.142  24.798  1.00  0.00    -0.274 OA
ATOM      6  H   UNL A   1      34.828  20.123  26.778  1.00  0.00     0.163 HD
BRANCH   4   7
ATOM      7  C   UNL A   1      32.335  20.806  24.576  1.00  0.00     0.103 C 
ATOM      8  C   UNL A   1      32.022  22.831  23.197  1.00  0.00     0.093 C 
ATOM      9  C   UNL A   1      32.089  21.590  22.378  1.00  0.00    -0.011 C 
ATOM     10  C   UNL A   1      32.280  22.335  24.635  1.00  0.00     0.042 C 
ATOM     11  C   UNL A   1      32.255  20.489  23.119  1.00  0.00    -0.016 C 
BRANCH   8  12
ATOM     12  N   UNL A   1      33.017  23.840  22.859  1.00  0.00    -0.204 NA
ATOM     13  H   UNL A   1      33.621  23.902  23.678  1.00  0.00     0.142 HD
BRANCH  12  14
ATOM     14  S   UNL A   1      32.717  25.426  22.420  1.00  0.00     0.241 S 
ATOM     15  O   UNL A   1      31.287  25.570  22.272  1.00  0.00    -0.207 OA
ATOM     16  O   UNL A   1      33.628  25.695  21.328  1.00  0.00    -0.207 OA
BRANCH  14  17
ATOM     17  C   UNL A   1      33.253  26.438  23.788  1.00  0.00     0.085 A 
ATOM     18  C   UNL A   1      34.148  28.798  27.282  1.00  0.00     0.044 C 
ATOM     19  C   UNL A   1      33.859  27.967  26.067  1.00  0.00    -0.051 A 
ATOM     20  C   UNL A   1      33.878  26.574  26.132  1.00  0.00     0.005 A 
ATOM     21  C   UNL A   1      33.609  28.587  24.836  1.00  0.00     0.008 A 
ATOM     22  C   UNL A   1      33.587  25.814  24.999  1.00  0.00     0.022 A 
ATOM     23  C   UNL A   1      33.322  27.839  23.678  1.00  0.00    -0.031 A 
ATOM     24  C   UNL A   1      33.132  28.605  22.396  1.00  0.00     0.046 C 
ENDBRANCH  14  17
ENDBRANCH  12  14
ENDBRANCH   8  12
ENDBRANCH   4   7
ENDBRANCH   2   3
ENDBRANCH   1   2
BRANCH   1  25
ATOM     25  C   UNL A   1      35.597  22.885  25.832  1.00  0.00     0.023 C 
BRANCH  25  26
ATOM     26  C   UNL A   1      37.020  23.420  25.951  1.00  0.00     0.116 C 
BRANCH  26  27
ATOM     27  N   UNL A   1      38.016  22.367  26.073  1.00  0.00    -0.352 N 
ATOM     28  C   UNL A   1      39.340  22.478  26.430  1.00  0.00     0.251 C 
ATOM     29  H   UNL A   1      37.701  21.455  25.874  1.00  0.00     0.163 HD
ATOM     30  O   UNL A   1      40.081  21.504  26.353  1.00  0.00    -0.269 OA
BRANCH  28  31
ATOM     31  C   UNL A   1      39.867  23.788  26.867  1.00  0.00     0.039 A 
ATOM     32  C   UNL A   1      40.024  24.804  25.920  1.00  0.00     0.014 A 
ATOM     33  C   UNL A   1      40.180  24.022  28.209  1.00  0.00     0.014 A 
ATOM     34  C   UNL A   1      40.433  26.074  26.331  1.00  0.00     0.010 A 
ATOM     35  C   UNL A   1      40.513  25.307  28.627  1.00  0.00     0.010 A 
ATOM     36  C   UNL A   1      40.647  26.344  27.693  1.00  0.00    -0.014 A 
BRANCH  36  37
ATOM     37  C   UNL A   1      41.034  27.700  28.159  1.00  0.00     0.031 A 
ATOM     38  C   UNL A   1      42.481  28.107  28.161  1.00  0.00     0.074 A 
ATOM     39  C   UNL A   1      40.095  28.536  28.643  1.00  0.00     0.049 A 
ATOM     40  N   UNL A   1      43.035  29.210  28.597  1.00  0.00    -0.248 NA
ATOM     41  C   UNL A   1      43.435  27.121  27.635  1.00  0.00     0.031 C 
ATOM     42  C   UNL A   1      38.663  28.243  28.729  1.00  0.00     0.029 A 
ATOM     43  N   UNL A   1      40.206  29.803  29.159  1.00  0.00    -0.354 N 
ATOM     44  C   UNL A   1      44.403  29.045  28.412  1.00  0.00     0.074 A 
ATOM     45  C   UNL A   1      44.593  27.704  27.899  1.00  0.00     0.031 C 
ATOM     46  C   UNL A   1      38.025  29.313  29.230  1.00  0.00     0.029 A 
ATOM     47  C   UNL A   1      39.004  30.349  29.542  1.00  0.00     0.049 A 
ATOM     48  H   UNL A   1      41.065  30.276  29.245  1.00  0.00     0.167 HD
ATOM     49  C   UNL A   1      45.406  29.936  28.621  1.00  0.00     0.034 A 
ATOM     50  C   UNL A   1      38.725  31.551  30.084  1.00  0.00     0.034 A 
ATOM     51  C   UNL A   1      45.194  31.271  29.129  1.00  0.00     0.049 A 
ATOM     52  C   UNL A   1      39.852  32.514  30.347  1.00  0.00     0.074 A 
ATOM     53  C   UNL A   1      46.122  32.277  29.334  1.00  0.00     0.029 A 
ATOM     54  N   UNL A   1      43.964  31.784  29.523  1.00  0.00    -0.354 N 
ATOM     55  N   UNL A   1      41.138  32.363  30.126  1.00  0.00    -0.248 NA
ATOM     56  C   UNL A   1      39.486  33.813  30.924  1.00  0.00     0.031 C 
ATOM     57  C   UNL A   1      45.466  33.372  29.909  1.00  0.00     0.029 A 
ATOM     58  C   UNL A   1      44.113  33.079  29.997  1.00  0.00     0.049 A 
ATOM     59  H   UNL A   1      43.108  31.299  29.472  1.00  0.00     0.167 HD
ATOM     60  C   UNL A   1      41.730  33.563  30.507  1.00  0.00     0.074 A 
ATOM     61  C   UNL A   1      40.661  34.426  30.966  1.00  0.00     0.031 C 
ATOM     62  C   UNL A   1      43.040  33.924  30.468  1.00  0.00     0.034 A 
BRANCH  49  63
ATOM     63  C   UNL A   1      46.812  29.465  28.327  1.00  0.00     0.023 A 
ATOM     64  C   UNL A   1      47.602  28.847  29.313  1.00  0.00     0.031 A 
ATOM     65  C   UNL A   1      47.401  29.705  27.074  1.00  0.00     0.131 A 
ATOM     66  C   UNL A   1      48.962  28.602  29.073  1.00  0.00     0.055 A 
ATOM     67  C   UNL A   1      48.730  29.365  26.807  1.00  0.00     0.041 A 
ATOM     68  F   UNL A   1      46.708  30.306  26.094  1.00  0.00    -0.206 F 
ATOM     69  C   UNL A   1      49.526  28.833  27.817  1.00  0.00     0.022 A 
BRANCH  66  70
ATOM     70  S   UNL A   1      50.023  28.173  30.482  1.00  0.00     0.124 S 
ATOM     71  O   UNL A   1      51.335  28.085  29.847  1.00  0.00    -0.237 OA
ATOM     72  O   UNL A   1      49.821  29.302  31.382  1.00  0.00    -0.237 OA
ATOM     73  O   UNL A   1      49.477  26.898  30.946  1.00  0.00    -0.744 OA
ENDBRANCH  66  70
ENDBRANCH  49  63
BRANCH  50  74
ATOM     74  C   UNL A   1      37.317  31.922  30.397  1.00  0.00     0.023 A 
ATOM     75  C   UNL A   1      36.456  32.378  29.387  1.00  0.00     0.031 A 
ATOM     76  C   UNL A   1      36.816  31.841  31.708  1.00  0.00     0.131 A 
ATOM     77  C   UNL A   1      35.148  32.769  29.707  1.00  0.00     0.055 A 
ATOM     78  C   UNL A   1      35.500  32.192  32.015  1.00  0.00     0.041 A 
ATOM     79  F   UNL A   1      37.597  31.402  32.707  1.00  0.00    -0.206 F 
ATOM     80  C   UNL A   1      34.660  32.667  31.012  1.00  0.00     0.022 A 
BRANCH  77  81
ATOM     81  S   UNL A   1      34.101  33.459  28.396  1.00  0.00     0.124 S 
ATOM     82  O   UNL A   1      33.162  34.270  29.163  1.00  0.00    -0.237 OA
ATOM     83  O   UNL A   1      35.070  34.191  27.588  1.00  0.00    -0.237 OA
ATOM     84  O   UNL A   1      33.530  32.275  27.759  1.00  0.00    -0.744 OA
ENDBRANCH  77  81
ENDBRANCH  50  74
BRANCH  62  85
ATOM     85  C   UNL A   1      43.372  35.333  30.894  1.00  0.00     0.023 A 
ATOM     86  C   UNL A   1      43.452  36.389  29.969  1.00  0.00     0.031 A 
ATOM     87  C   UNL A   1      43.632  35.616  32.246  1.00  0.00     0.131 A 
ATOM     88  C   UNL A   1      43.837  37.668  30.401  1.00  0.00     0.055 A 
ATOM     89  C   UNL A   1      43.958  36.901  32.679  1.00  0.00     0.041 A 
ATOM     90  F   UNL A   1      43.573  34.644  33.171  1.00  0.00    -0.206 F 
ATOM     91  C   UNL A   1      44.075  37.933  31.753  1.00  0.00     0.022 A 
BRANCH  88  92
ATOM     92  S   UNL A   1      44.111  38.963  29.161  1.00  0.00     0.124 S 
ATOM     93  O   UNL A   1      44.505  40.098  29.989  1.00  0.00    -0.237 OA
ATOM     94  O   UNL A   1      45.162  38.384  28.331  1.00  0.00    -0.237 OA
ATOM     95  O   UNL A   1      42.809  39.095  28.508  1.00  0.00    -0.744 OA
ENDBRANCH  88  92
ENDBRANCH  62  85
ENDBRANCH  36  37
ENDBRANCH  28  31
ENDBRANCH  26  27
ENDBRANCH  25  26
ENDBRANCH   1  25
TORSDOF 17
ENDMDL
