MODEL 1
REMARK VINA RESULT:     -12.5      0.000      0.000
REMARK SMILES CCC1(C(=O)NCCCCNC(=O)c2ccc(-c3c4nc(c(-c5cc(S(=O)(=O)[O-])ccc5F)c5ccc([nH]5)c(-c5cc(S(=O)(=O)[O-])ccc5F)c5nc(c(-c6cc(S(=O)(=O)[O-])ccc6F)c6ccc3[nH]6)C=C5)C=C4)cc2)CCN(c2ncnc3c2CCCC3)CC1
REMARK SMILES IDX 9 1 8 2 7 3 6 4 4 5 5 6 3 8 77 9 91 10 78 11 90 12 79 13
REMARK SMILES IDX 2 14 1 15 80 16 81 17 85 18 82 19 84 20 86 21 83 22 89 23
REMARK SMILES IDX 87 24 88 25 10 26 11 27 12 28 13 30 14 31 15 32 76 33 16 34
REMARK SMILES IDX 75 35 17 36 18 37 19 38 69 39 20 40 74 41 68 42 70 43 21 44
REMARK SMILES IDX 73 45 67 46 66 47 22 49 54 50 34 51 53 52 35 53 38 54 52 55
REMARK SMILES IDX 71 56 36 57 37 58 51 60 72 61 39 62 23 63 24 64 32 65 25 66
REMARK SMILES IDX 31 67 33 68 30 69 26 70 27 71 28 72 29 73 55 74 56 75 64 76
REMARK SMILES IDX 57 77 63 78 65 79 62 80 58 81 59 82 60 83 61 84 40 85 41 86
REMARK SMILES IDX 49 87 42 88 48 89 50 90 47 91 43 92 44 93 45 94 46 95
REMARK H PARENT 6 7 11 29 70 48 38 59
REMARK Flexibility Score: inf
ROOT
ATOM      1  C   UNL A   1      31.911  31.645  26.640  1.00  0.00     0.023 C 
ENDROOT
BRANCH   1   2
ATOM      2  C   UNL A   1      31.908  30.134  26.839  1.00  0.00     0.023 C 
BRANCH   2   3
ATOM      3  C   UNL A   1      33.274  29.456  26.758  1.00  0.00     0.116 C 
BRANCH   3   4
ATOM      4  N   UNL A   1      33.770  29.366  25.395  1.00  0.00    -0.356 N 
ATOM      5  C   UNL A   1      33.485  28.512  24.370  1.00  0.00     0.226 C 
ATOM      6  O   UNL A   1      34.010  28.785  23.286  1.00  0.00    -0.274 OA
ATOM      7  H   UNL A   1      34.438  30.053  25.168  1.00  0.00     0.163 HD
BRANCH   5   8
ATOM      8  C   UNL A   1      32.543  27.286  24.527  1.00  0.00     0.052 C 
ATOM      9  C   UNL A   1      32.636  26.380  23.267  1.00  0.00     0.038 C 
ATOM     10  C   UNL A   1      32.927  26.559  25.860  1.00  0.00     0.038 C 
ATOM     11  C   UNL A   1      32.182  24.947  23.515  1.00  0.00     0.119 C 
ATOM     12  C   UNL A   1      32.556  25.075  25.924  1.00  0.00     0.119 C 
ATOM     13  N   UNL A   1      32.927  24.452  24.661  1.00  0.00    -0.356 N 
BRANCH   8  14
ATOM     14  C   UNL A   1      31.065  27.780  24.712  1.00  0.00     0.013 C 
ATOM     15  C   UNL A   1      30.296  28.144  23.442  1.00  0.00     0.005 C 
ENDBRANCH   8  14
BRANCH  13  16
ATOM     16  C   UNL A   1      33.379  23.141  24.676  1.00  0.00     0.135 A 
ATOM     17  N   UNL A   1      32.456  22.163  24.685  1.00  0.00    -0.219 NA
ATOM     18  C   UNL A   1      34.745  22.845  24.773  1.00  0.00     0.016 A 
ATOM     19  C   UNL A   1      32.903  20.903  24.764  1.00  0.00     0.224 A 
ATOM     20  C   UNL A   1      35.095  21.500  24.867  1.00  0.00     0.049 A 
ATOM     21  C   UNL A   1      35.808  23.907  24.794  1.00  0.00     0.041 C 
ATOM     22  N   UNL A   1      34.179  20.513  24.854  1.00  0.00    -0.241 NA
ATOM     23  C   UNL A   1      36.521  21.067  25.117  1.00  0.00     0.057 C 
ATOM     24  C   UNL A   1      37.123  23.466  25.428  1.00  0.00     0.005 C 
ATOM     25  C   UNL A   1      37.560  22.144  24.822  1.00  0.00     0.007 C 
ENDBRANCH  13  16
ENDBRANCH   5   8
ENDBRANCH   3   4
ENDBRANCH   2   3
ENDBRANCH   1   2
BRANCH   1  26
ATOM     26  C   UNL A   1      32.998  32.393  27.401  1.00  0.00     0.116 C 
BRANCH  26  27
ATOM     27  N   UNL A   1      32.666  33.784  27.682  1.00  0.00    -0.352 N 
ATOM     28  C   UNL A   1      33.208  34.631  28.620  1.00  0.00     0.251 C 
ATOM     29  H   UNL A   1      31.955  34.172  27.121  1.00  0.00     0.163 HD
ATOM     30  O   UNL A   1      32.721  35.745  28.787  1.00  0.00    -0.269 OA
BRANCH  28  31
ATOM     31  C   UNL A   1      34.345  34.173  29.447  1.00  0.00     0.039 A 
ATOM     32  C   UNL A   1      34.087  33.410  30.589  1.00  0.00     0.014 A 
ATOM     33  C   UNL A   1      35.661  34.458  29.077  1.00  0.00     0.014 A 
ATOM     34  C   UNL A   1      35.152  32.868  31.311  1.00  0.00     0.010 A 
ATOM     35  C   UNL A   1      36.717  33.846  29.746  1.00  0.00     0.010 A 
ATOM     36  C   UNL A   1      36.474  33.044  30.871  1.00  0.00    -0.014 A 
BRANCH  36  37
ATOM     37  C   UNL A   1      37.615  32.403  31.575  1.00  0.00     0.031 A 
ATOM     38  C   UNL A   1      38.356  31.265  30.927  1.00  0.00     0.074 A 
ATOM     39  C   UNL A   1      37.937  32.802  32.822  1.00  0.00     0.049 A 
ATOM     40  N   UNL A   1      39.333  30.536  31.402  1.00  0.00    -0.248 NA
ATOM     41  C   UNL A   1      37.916  30.875  29.580  1.00  0.00     0.031 C 
ATOM     42  C   UNL A   1      37.254  33.856  33.576  1.00  0.00     0.029 A 
ATOM     43  N   UNL A   1      38.916  32.366  33.678  1.00  0.00    -0.354 N 
ATOM     44  C   UNL A   1      39.614  29.593  30.418  1.00  0.00     0.074 A 
ATOM     45  C   UNL A   1      38.656  29.801  29.354  1.00  0.00     0.031 C 
ATOM     46  C   UNL A   1      37.855  34.005  34.768  1.00  0.00     0.029 A 
ATOM     47  C   UNL A   1      38.937  33.032  34.882  1.00  0.00     0.049 A 
ATOM     48  H   UNL A   1      39.546  31.643  33.453  1.00  0.00     0.167 HD
ATOM     49  C   UNL A   1      40.598  28.660  30.393  1.00  0.00     0.034 A 
ATOM     50  C   UNL A   1      39.733  32.873  35.958  1.00  0.00     0.034 A 
ATOM     51  C   UNL A   1      41.555  28.477  31.458  1.00  0.00     0.049 A 
ATOM     52  C   UNL A   1      40.818  31.828  35.909  1.00  0.00     0.074 A 
ATOM     53  C   UNL A   1      42.625  27.602  31.516  1.00  0.00     0.029 A 
ATOM     54  N   UNL A   1      41.553  29.180  32.656  1.00  0.00    -0.354 N 
ATOM     55  N   UNL A   1      41.108  30.981  34.946  1.00  0.00    -0.248 NA
ATOM     56  C   UNL A   1      41.693  31.728  37.084  1.00  0.00     0.031 C 
ATOM     57  C   UNL A   1      43.232  27.732  32.770  1.00  0.00     0.029 A 
ATOM     58  C   UNL A   1      42.588  28.741  33.469  1.00  0.00     0.049 A 
ATOM     59  H   UNL A   1      40.912  29.888  32.895  1.00  0.00     0.167 HD
ATOM     60  C   UNL A   1      42.219  30.270  35.391  1.00  0.00     0.074 A 
ATOM     61  C   UNL A   1      42.555  30.799  36.697  1.00  0.00     0.031 C 
ATOM     62  C   UNL A   1      42.902  29.271  34.775  1.00  0.00     0.034 A 
BRANCH  49  63
ATOM     63  C   UNL A   1      40.667  27.758  29.182  1.00  0.00     0.023 A 
ATOM     64  C   UNL A   1      41.606  27.971  28.157  1.00  0.00     0.031 A 
ATOM     65  C   UNL A   1      39.761  26.694  29.031  1.00  0.00     0.131 A 
ATOM     66  C   UNL A   1      41.563  27.190  26.993  1.00  0.00     0.055 A 
ATOM     67  C   UNL A   1      39.781  25.864  27.907  1.00  0.00     0.041 A 
ATOM     68  F   UNL A   1      38.828  26.451  29.965  1.00  0.00    -0.206 F 
ATOM     69  C   UNL A   1      40.675  26.121  26.871  1.00  0.00     0.022 A 
BRANCH  66  70
ATOM     70  S   UNL A   1      42.583  27.691  25.578  1.00  0.00     0.124 S 
ATOM     71  O   UNL A   1      42.522  26.498  24.736  1.00  0.00    -0.237 OA
ATOM     72  O   UNL A   1      41.874  28.862  25.076  1.00  0.00    -0.237 OA
ATOM     73  O   UNL A   1      43.889  27.959  26.174  1.00  0.00    -0.744 OA
ENDBRANCH  66  70
ENDBRANCH  49  63
BRANCH  50  74
ATOM     74  C   UNL A   1      39.546  33.720  37.171  1.00  0.00     0.023 A 
ATOM     75  C   UNL A   1      38.850  33.235  38.290  1.00  0.00     0.031 A 
ATOM     76  C   UNL A   1      40.024  35.042  37.213  1.00  0.00     0.131 A 
ATOM     77  C   UNL A   1      38.609  34.081  39.384  1.00  0.00     0.055 A 
ATOM     78  C   UNL A   1      39.827  35.862  38.325  1.00  0.00     0.041 A 
ATOM     79  F   UNL A   1      40.702  35.552  36.173  1.00  0.00    -0.206 F 
ATOM     80  C   UNL A   1      39.104  35.386  39.415  1.00  0.00     0.022 A 
BRANCH  77  81
ATOM     81  S   UNL A   1      37.565  33.472  40.738  1.00  0.00     0.124 S 
ATOM     82  O   UNL A   1      37.271  34.702  41.463  1.00  0.00    -0.237 OA
ATOM     83  O   UNL A   1      36.452  32.871  40.013  1.00  0.00    -0.237 OA
ATOM     84  O   UNL A   1      38.434  32.527  41.437  1.00  0.00    -0.744 OA
ENDBRANCH  77  81
ENDBRANCH  50  74
BRANCH  62  85
ATOM     85  C   UNL A   1      44.109  28.724  35.498  1.00  0.00     0.023 A 
ATOM     86  C   UNL A   1      43.999  27.690  36.445  1.00  0.00     0.031 A 
ATOM     87  C   UNL A   1      45.385  29.262  35.252  1.00  0.00     0.131 A 
ATOM     88  C   UNL A   1      45.133  27.271  37.156  1.00  0.00     0.055 A 
ATOM     89  C   UNL A   1      46.520  28.797  35.917  1.00  0.00     0.041 A 
ATOM     90  F   UNL A   1      45.548  30.253  34.360  1.00  0.00    -0.206 F 
ATOM     91  C   UNL A   1      46.396  27.806  36.886  1.00  0.00     0.022 A 
BRANCH  88  92
ATOM     92  S   UNL A   1      44.920  26.087  38.514  1.00  0.00     0.124 S 
ATOM     93  O   UNL A   1      44.261  24.971  37.843  1.00  0.00    -0.237 OA
ATOM     94  O   UNL A   1      46.294  25.853  38.942  1.00  0.00    -0.237 OA
ATOM     95  O   UNL A   1      44.087  26.812  39.473  1.00  0.00    -0.744 OA
ENDBRANCH  88  92
ENDBRANCH  62  85
ENDBRANCH  36  37
ENDBRANCH  28  31
ENDBRANCH  26  27
ENDBRANCH   1  26
TORSDOF 16
ENDMDL
MODEL 2
REMARK VINA RESULT:     -12.4      5.948     11.409
REMARK SMILES CCC1(C(=O)NCCCCNC(=O)c2ccc(-c3c4nc(c(-c5cc(S(=O)(=O)[O-])ccc5F)c5ccc([nH]5)c(-c5cc(S(=O)(=O)[O-])ccc5F)c5nc(c(-c6cc(S(=O)(=O)[O-])ccc6F)c6ccc3[nH]6)C=C5)C=C4)cc2)CCN(c2ncnc3c2CCCC3)CC1
REMARK SMILES IDX 9 1 8 2 7 3 6 4 4 5 5 6 3 8 77 9 91 10 78 11 90 12 79 13
REMARK SMILES IDX 2 14 1 15 80 16 81 17 85 18 82 19 84 20 86 21 83 22 89 23
REMARK SMILES IDX 87 24 88 25 10 26 11 27 12 28 13 30 14 31 15 32 76 33 16 34
REMARK SMILES IDX 75 35 17 36 18 37 19 38 69 39 20 40 74 41 68 42 70 43 21 44
REMARK SMILES IDX 73 45 67 46 66 47 22 49 54 50 34 51 53 52 35 53 38 54 52 55
REMARK SMILES IDX 71 56 36 57 37 58 51 60 72 61 39 62 23 63 24 64 32 65 25 66
REMARK SMILES IDX 31 67 33 68 30 69 26 70 27 71 28 72 29 73 55 74 56 75 64 76
REMARK SMILES IDX 57 77 63 78 65 79 62 80 58 81 59 82 60 83 61 84 40 85 41 86
REMARK SMILES IDX 49 87 42 88 48 89 50 90 47 91 43 92 44 93 45 94 46 95
REMARK H PARENT 6 7 11 29 70 48 38 59
REMARK Flexibility Score: inf
ROOT
ATOM      1  C   UNL A   1      37.911  19.471  24.825  1.00  0.00     0.023 C 
ENDROOT
BRANCH   1   2
ATOM      2  C   UNL A   1      36.478  19.970  24.957  1.00  0.00     0.023 C 
BRANCH   2   3
ATOM      3  C   UNL A   1      36.326  21.440  25.343  1.00  0.00     0.116 C 
BRANCH   3   4
ATOM      4  N   UNL A   1      35.383  21.634  26.432  1.00  0.00    -0.356 N 
ATOM      5  C   UNL A   1      34.071  22.008  26.454  1.00  0.00     0.226 C 
ATOM      6  O   UNL A   1      33.522  21.967  27.560  1.00  0.00    -0.274 OA
ATOM      7  H   UNL A   1      35.763  21.461  27.324  1.00  0.00     0.163 HD
BRANCH   5   8
ATOM      8  C   UNL A   1      33.292  22.435  25.180  1.00  0.00     0.052 C 
ATOM      9  C   UNL A   1      31.851  22.878  25.561  1.00  0.00     0.038 C 
ATOM     10  C   UNL A   1      34.128  23.548  24.461  1.00  0.00     0.038 C 
ATOM     11  C   UNL A   1      31.195  23.774  24.518  1.00  0.00     0.119 C 
ATOM     12  C   UNL A   1      33.323  24.487  23.558  1.00  0.00     0.119 C 
ATOM     13  N   UNL A   1      32.109  24.876  24.261  1.00  0.00    -0.356 N 
BRANCH   8  14
ATOM     14  C   UNL A   1      33.222  21.229  24.178  1.00  0.00     0.013 C 
ATOM     15  C   UNL A   1      32.497  19.973  24.660  1.00  0.00     0.005 C 
ENDBRANCH   8  14
BRANCH  13  16
ATOM     16  C   UNL A   1      31.610  26.155  24.066  1.00  0.00     0.135 A 
ATOM     17  N   UNL A   1      31.042  26.428  22.878  1.00  0.00    -0.219 NA
ATOM     18  C   UNL A   1      31.775  27.154  25.034  1.00  0.00     0.016 A 
ATOM     19  C   UNL A   1      30.622  27.684  22.678  1.00  0.00     0.224 A 
ATOM     20  C   UNL A   1      31.315  28.429  24.711  1.00  0.00     0.049 A 
ATOM     21  C   UNL A   1      32.429  26.900  26.362  1.00  0.00     0.041 C 
ATOM     22  N   UNL A   1      30.725  28.707  23.533  1.00  0.00    -0.241 NA
ATOM     23  C   UNL A   1      31.564  29.614  25.614  1.00  0.00     0.057 C 
ATOM     24  C   UNL A   1      32.996  28.146  27.032  1.00  0.00     0.005 C 
ATOM     25  C   UNL A   1      31.942  29.240  27.044  1.00  0.00     0.007 C 
ENDBRANCH  13  16
ENDBRANCH   5   8
ENDBRANCH   3   4
ENDBRANCH   2   3
ENDBRANCH   1   2
BRANCH   1  26
ATOM     26  C   UNL A   1      38.901  20.084  25.809  1.00  0.00     0.116 C 
BRANCH  26  27
ATOM     27  N   UNL A   1      40.088  19.269  26.032  1.00  0.00    -0.352 N 
ATOM     28  C   UNL A   1      41.352  19.665  26.400  1.00  0.00     0.251 C 
ATOM     29  H   UNL A   1      39.968  18.301  25.900  1.00  0.00     0.163 HD
ATOM     30  O   UNL A   1      42.262  18.842  26.433  1.00  0.00    -0.269 OA
BRANCH  28  31
ATOM     31  C   UNL A   1      41.611  21.087  26.713  1.00  0.00     0.039 A 
ATOM     32  C   UNL A   1      42.040  21.431  27.997  1.00  0.00     0.014 A 
ATOM     33  C   UNL A   1      41.470  22.072  25.733  1.00  0.00     0.014 A 
ATOM     34  C   UNL A   1      42.405  22.750  28.272  1.00  0.00     0.010 A 
ATOM     35  C   UNL A   1      41.916  23.366  25.984  1.00  0.00     0.010 A 
ATOM     36  C   UNL A   1      42.388  23.720  27.257  1.00  0.00    -0.014 A 
BRANCH  36  37
ATOM     37  C   UNL A   1      42.856  25.108  27.507  1.00  0.00     0.031 A 
ATOM     38  C   UNL A   1      41.936  26.107  28.154  1.00  0.00     0.074 A 
ATOM     39  C   UNL A   1      44.082  25.484  27.090  1.00  0.00     0.049 A 
ATOM     40  N   UNL A   1      42.133  27.378  28.399  1.00  0.00    -0.248 NA
ATOM     41  C   UNL A   1      40.605  25.620  28.546  1.00  0.00     0.031 C 
ATOM     42  C   UNL A   1      45.041  24.619  26.398  1.00  0.00     0.029 A 
ATOM     43  N   UNL A   1      44.730  26.689  27.180  1.00  0.00    -0.354 N 
ATOM     44  C   UNL A   1      40.948  27.843  28.960  1.00  0.00     0.074 A 
ATOM     45  C   UNL A   1      40.018  26.735  28.952  1.00  0.00     0.031 C 
ATOM     46  C   UNL A   1      46.166  25.314  26.157  1.00  0.00     0.029 A 
ATOM     47  C   UNL A   1      45.994  26.681  26.636  1.00  0.00     0.049 A 
ATOM     48  H   UNL A   1      44.329  27.486  27.596  1.00  0.00     0.167 HD
ATOM     49  C   UNL A   1      40.671  29.072  29.462  1.00  0.00     0.034 A 
ATOM     50  C   UNL A   1      46.908  27.666  26.530  1.00  0.00     0.034 A 
ATOM     51  C   UNL A   1      41.618  30.162  29.475  1.00  0.00     0.049 A 
ATOM     52  C   UNL A   1      46.578  29.026  27.092  1.00  0.00     0.074 A 
ATOM     53  C   UNL A   1      41.465  31.431  30.006  1.00  0.00     0.029 A 
ATOM     54  N   UNL A   1      42.893  30.113  28.927  1.00  0.00    -0.354 N 
ATOM     55  N   UNL A   1      45.472  29.434  27.672  1.00  0.00    -0.248 NA
ATOM     56  C   UNL A   1      47.625  30.051  26.998  1.00  0.00     0.031 C 
ATOM     57  C   UNL A   1      42.622  32.167  29.725  1.00  0.00     0.029 A 
ATOM     58  C   UNL A   1      43.528  31.336  29.085  1.00  0.00     0.049 A 
ATOM     59  H   UNL A   1      43.290  29.325  28.491  1.00  0.00     0.167 HD
ATOM     60  C   UNL A   1      45.705  30.757  28.040  1.00  0.00     0.074 A 
ATOM     61  C   UNL A   1      47.060  31.068  27.633  1.00  0.00     0.031 C 
ATOM     62  C   UNL A   1      44.876  31.635  28.661  1.00  0.00     0.034 A 
BRANCH  49  63
ATOM     63  C   UNL A   1      39.283  29.299  30.014  1.00  0.00     0.023 A 
ATOM     64  C   UNL A   1      38.308  30.006  29.288  1.00  0.00     0.031 A 
ATOM     65  C   UNL A   1      38.939  28.837  31.297  1.00  0.00     0.131 A 
ATOM     66  C   UNL A   1      37.071  30.303  29.879  1.00  0.00     0.055 A 
ATOM     67  C   UNL A   1      37.675  29.062  31.846  1.00  0.00     0.041 A 
ATOM     68  F   UNL A   1      39.833  28.175  32.047  1.00  0.00    -0.206 F 
ATOM     69  C   UNL A   1      36.737  29.814  31.143  1.00  0.00     0.022 A 
BRANCH  66  70
ATOM     70  S   UNL A   1      35.966  31.468  29.034  1.00  0.00     0.124 S 
ATOM     71  O   UNL A   1      36.911  32.473  28.553  1.00  0.00    -0.237 OA
ATOM     72  O   UNL A   1      35.348  30.632  28.012  1.00  0.00    -0.237 OA
ATOM     73  O   UNL A   1      35.070  31.923  30.096  1.00  0.00    -0.744 OA
ENDBRANCH  66  70
ENDBRANCH  49  63
BRANCH  50  74
ATOM     74  C   UNL A   1      48.222  27.412  25.872  1.00  0.00     0.023 A 
ATOM     75  C   UNL A   1      48.373  27.545  24.483  1.00  0.00     0.031 A 
ATOM     76  C   UNL A   1      49.337  26.993  26.620  1.00  0.00     0.131 A 
ATOM     77  C   UNL A   1      49.595  27.214  23.877  1.00  0.00     0.055 A 
ATOM     78  C   UNL A   1      50.566  26.715  26.018  1.00  0.00     0.041 A 
ATOM     79  F   UNL A   1      49.250  26.858  27.952  1.00  0.00    -0.206 F 
ATOM     80  C   UNL A   1      50.696  26.813  24.636  1.00  0.00     0.022 A 
BRANCH  77  81
ATOM     81  S   UNL A   1      49.700  27.238  22.066  1.00  0.00     0.124 S 
ATOM     82  O   UNL A   1      48.747  26.196  21.699  1.00  0.00    -0.237 OA
ATOM     83  O   UNL A   1      49.305  28.607  21.759  1.00  0.00    -0.237 OA
ATOM     84  O   UNL A   1      51.103  26.921  21.803  1.00  0.00    -0.744 OA
ENDBRANCH  77  81
ENDBRANCH  50  74
BRANCH  62  85
ATOM     85  C   UNL A   1      45.439  33.000  28.974  1.00  0.00     0.023 A 
ATOM     86  C   UNL A   1      45.318  34.074  28.075  1.00  0.00     0.031 A 
ATOM     87  C   UNL A   1      46.127  33.221  30.180  1.00  0.00     0.131 A 
ATOM     88  C   UNL A   1      45.931  35.302  28.367  1.00  0.00     0.055 A 
ATOM     89  C   UNL A   1      46.679  34.464  30.494  1.00  0.00     0.041 A 
ATOM     90  F   UNL A   1      46.274  32.230  31.075  1.00  0.00    -0.206 F 
ATOM     91  C   UNL A   1      46.596  35.508  29.578  1.00  0.00     0.022 A 
BRANCH  88  92
ATOM     92  S   UNL A   1      45.935  36.596  27.096  1.00  0.00     0.124 S 
ATOM     93  O   UNL A   1      44.543  37.035  27.105  1.00  0.00    -0.237 OA
ATOM     94  O   UNL A   1      46.907  37.547  27.623  1.00  0.00    -0.237 OA
ATOM     95  O   UNL A   1      46.353  35.888  25.887  1.00  0.00    -0.744 OA
ENDBRANCH  88  92
ENDBRANCH  62  85
ENDBRANCH  36  37
ENDBRANCH  28  31
ENDBRANCH  26  27
ENDBRANCH   1  26
TORSDOF 16
ENDMDL
MODEL 3
REMARK VINA RESULT:     -12.2      5.614     11.662
REMARK SMILES CCC1(C(=O)NCCCCNC(=O)c2ccc(-c3c4nc(c(-c5cc(S(=O)(=O)[O-])ccc5F)c5ccc([nH]5)c(-c5cc(S(=O)(=O)[O-])ccc5F)c5nc(c(-c6cc(S(=O)(=O)[O-])ccc6F)c6ccc3[nH]6)C=C5)C=C4)cc2)CCN(c2ncnc3c2CCCC3)CC1
REMARK SMILES IDX 9 1 8 2 7 3 6 4 4 5 5 6 3 8 77 9 91 10 78 11 90 12 79 13
REMARK SMILES IDX 2 14 1 15 80 16 81 17 85 18 82 19 84 20 86 21 83 22 89 23
REMARK SMILES IDX 87 24 88 25 10 26 11 27 12 28 13 30 14 31 15 32 76 33 16 34
REMARK SMILES IDX 75 35 17 36 18 37 19 38 69 39 20 40 74 41 68 42 70 43 21 44
REMARK SMILES IDX 73 45 67 46 66 47 22 49 54 50 34 51 53 52 35 53 38 54 52 55
REMARK SMILES IDX 71 56 36 57 37 58 51 60 72 61 39 62 23 63 24 64 32 65 25 66
REMARK SMILES IDX 31 67 33 68 30 69 26 70 27 71 28 72 29 73 55 74 56 75 64 76
REMARK SMILES IDX 57 77 63 78 65 79 62 80 58 81 59 82 60 83 61 84 40 85 41 86
REMARK SMILES IDX 49 87 42 88 48 89 50 90 47 91 43 92 44 93 45 94 46 95
REMARK H PARENT 6 7 11 29 70 48 38 59
REMARK Flexibility Score: inf
ROOT
ATOM      1  C   UNL A   1      37.846  20.535  25.150  1.00  0.00     0.023 C 
ENDROOT
BRANCH   1   2
ATOM      2  C   UNL A   1      37.286  21.727  24.383  1.00  0.00     0.023 C 
BRANCH   2   3
ATOM      3  C   UNL A   1      37.080  22.999  25.202  1.00  0.00     0.116 C 
BRANCH   3   4
ATOM      4  N   UNL A   1      36.179  22.796  26.325  1.00  0.00    -0.356 N 
ATOM      5  C   UNL A   1      34.819  22.831  26.427  1.00  0.00     0.226 C 
ATOM      6  O   UNL A   1      34.357  22.498  27.523  1.00  0.00    -0.274 OA
ATOM      7  H   UNL A   1      36.638  22.595  27.172  1.00  0.00     0.163 HD
BRANCH   5   8
ATOM      8  C   UNL A   1      33.891  23.234  25.248  1.00  0.00     0.052 C 
ATOM      9  C   UNL A   1      32.465  23.553  25.778  1.00  0.00     0.038 C 
ATOM     10  C   UNL A   1      34.570  24.428  24.495  1.00  0.00     0.038 C 
ATOM     11  C   UNL A   1      31.648  24.425  24.834  1.00  0.00     0.119 C 
ATOM     12  C   UNL A   1      33.615  25.328  23.706  1.00  0.00     0.119 C 
ATOM     13  N   UNL A   1      32.448  25.601  24.533  1.00  0.00    -0.356 N 
BRANCH   8  14
ATOM     14  C   UNL A   1      33.816  22.056  24.213  1.00  0.00     0.013 C 
ATOM     15  C   UNL A   1      33.079  20.793  24.658  1.00  0.00     0.005 C 
ENDBRANCH   8  14
BRANCH  13  16
ATOM     16  C   UNL A   1      31.839  26.843  24.433  1.00  0.00     0.135 A 
ATOM     17  N   UNL A   1      31.028  27.056  23.381  1.00  0.00    -0.219 NA
ATOM     18  C   UNL A   1      32.131  27.871  25.338  1.00  0.00     0.016 A 
ATOM     19  C   UNL A   1      30.496  28.279  23.259  1.00  0.00     0.224 A 
ATOM     20  C   UNL A   1      31.535  29.108  25.104  1.00  0.00     0.049 A 
ATOM     21  C   UNL A   1      33.054  27.685  26.509  1.00  0.00     0.041 C 
ATOM     22  N   UNL A   1      30.703  29.324  24.068  1.00  0.00    -0.241 NA
ATOM     23  C   UNL A   1      31.884  30.325  25.929  1.00  0.00     0.057 C 
ATOM     24  C   UNL A   1      33.663  28.978  27.041  1.00  0.00     0.005 C 
ATOM     25  C   UNL A   1      32.565  30.004  27.256  1.00  0.00     0.007 C 
ENDBRANCH  13  16
ENDBRANCH   5   8
ENDBRANCH   3   4
ENDBRANCH   2   3
ENDBRANCH   1   2
BRANCH   1  26
ATOM     26  C   UNL A   1      39.126  20.812  25.928  1.00  0.00     0.116 C 
BRANCH  26  27
ATOM     27  N   UNL A   1      40.050  19.686  25.959  1.00  0.00    -0.352 N 
ATOM     28  C   UNL A   1      41.415  19.690  26.122  1.00  0.00     0.251 C 
ATOM     29  H   UNL A   1      39.639  18.797  25.847  1.00  0.00     0.163 HD
ATOM     30  O   UNL A   1      42.045  18.643  26.009  1.00  0.00    -0.269 OA
BRANCH  28  31
ATOM     31  C   UNL A   1      42.114  20.965  26.391  1.00  0.00     0.039 A 
ATOM     32  C   UNL A   1      42.439  21.798  25.318  1.00  0.00     0.014 A 
ATOM     33  C   UNL A   1      42.412  21.357  27.698  1.00  0.00     0.014 A 
ATOM     34  C   UNL A   1      42.988  23.058  25.564  1.00  0.00     0.010 A 
ATOM     35  C   UNL A   1      42.877  22.645  27.946  1.00  0.00     0.010 A 
ATOM     36  C   UNL A   1      43.171  23.510  26.881  1.00  0.00    -0.014 A 
BRANCH  36  37
ATOM     37  C   UNL A   1      43.671  24.880  27.165  1.00  0.00     0.031 A 
ATOM     38  C   UNL A   1      42.735  25.926  27.707  1.00  0.00     0.074 A 
ATOM     39  C   UNL A   1      44.949  25.197  26.873  1.00  0.00     0.049 A 
ATOM     40  N   UNL A   1      42.963  27.190  27.959  1.00  0.00    -0.248 NA
ATOM     41  C   UNL A   1      41.352  25.502  27.965  1.00  0.00     0.031 C 
ATOM     42  C   UNL A   1      45.934  24.282  26.290  1.00  0.00     0.029 A 
ATOM     43  N   UNL A   1      45.637  26.374  27.018  1.00  0.00    -0.354 N 
ATOM     44  C   UNL A   1      41.749  27.714  28.392  1.00  0.00     0.074 A 
ATOM     45  C   UNL A   1      40.776  26.646  28.299  1.00  0.00     0.031 C 
ATOM     46  C   UNL A   1      47.107  24.925  26.159  1.00  0.00     0.029 A 
ATOM     47  C   UNL A   1      46.948  26.305  26.606  1.00  0.00     0.049 A 
ATOM     48  H   UNL A   1      45.232  27.193  27.384  1.00  0.00     0.167 HD
ATOM     49  C   UNL A   1      41.477  28.960  28.852  1.00  0.00     0.034 A 
ATOM     50  C   UNL A   1      47.911  27.247  26.584  1.00  0.00     0.034 A 
ATOM     51  C   UNL A   1      42.465  30.009  28.952  1.00  0.00     0.049 A 
ATOM     52  C   UNL A   1      47.586  28.628  27.098  1.00  0.00     0.074 A 
ATOM     53  C   UNL A   1      42.315  31.290  29.453  1.00  0.00     0.029 A 
ATOM     54  N   UNL A   1      43.786  29.897  28.538  1.00  0.00    -0.354 N 
ATOM     55  N   UNL A   1      46.446  29.091  27.559  1.00  0.00    -0.248 NA
ATOM     56  C   UNL A   1      48.682  29.605  27.103  1.00  0.00     0.031 C 
ATOM     57  C   UNL A   1      43.526  31.971  29.286  1.00  0.00     0.029 A 
ATOM     58  C   UNL A   1      44.455  31.094  28.749  1.00  0.00     0.049 A 
ATOM     59  H   UNL A   1      44.190  29.087  28.151  1.00  0.00     0.167 HD
ATOM     60  C   UNL A   1      46.699  30.407  27.937  1.00  0.00     0.074 A 
ATOM     61  C   UNL A   1      48.101  30.654  27.667  1.00  0.00     0.031 C 
ATOM     62  C   UNL A   1      45.851  31.328  28.462  1.00  0.00     0.034 A 
BRANCH  49  63
ATOM     63  C   UNL A   1      40.052  29.255  29.258  1.00  0.00     0.023 A 
ATOM     64  C   UNL A   1      39.671  29.326  30.610  1.00  0.00     0.031 A 
ATOM     65  C   UNL A   1      39.052  29.430  28.285  1.00  0.00     0.131 A 
ATOM     66  C   UNL A   1      38.319  29.480  30.951  1.00  0.00     0.055 A 
ATOM     67  C   UNL A   1      37.720  29.670  28.632  1.00  0.00     0.041 A 
ATOM     68  F   UNL A   1      39.349  29.352  26.978  1.00  0.00    -0.206 F 
ATOM     69  C   UNL A   1      37.344  29.679  29.972  1.00  0.00     0.022 A 
BRANCH  66  70
ATOM     70  S   UNL A   1      37.834  29.263  32.686  1.00  0.00     0.124 S 
ATOM     71  O   UNL A   1      37.769  27.807  32.793  1.00  0.00    -0.237 OA
ATOM     72  O   UNL A   1      38.929  29.907  33.403  1.00  0.00    -0.237 OA
ATOM     73  O   UNL A   1      36.545  29.946  32.770  1.00  0.00    -0.744 OA
ENDBRANCH  66  70
ENDBRANCH  49  63
BRANCH  50  74
ATOM     74  C   UNL A   1      49.273  26.928  26.067  1.00  0.00     0.023 A 
ATOM     75  C   UNL A   1      49.702  27.408  24.819  1.00  0.00     0.031 A 
ATOM     76  C   UNL A   1      50.149  26.104  26.795  1.00  0.00     0.131 A 
ATOM     77  C   UNL A   1      50.954  27.021  24.314  1.00  0.00     0.055 A 
ATOM     78  C   UNL A   1      51.414  25.765  26.310  1.00  0.00     0.041 A 
ATOM     79  F   UNL A   1      49.791  25.625  27.996  1.00  0.00    -0.206 F 
ATOM     80  C   UNL A   1      51.817  26.213  25.057  1.00  0.00     0.022 A 
BRANCH  77  81
ATOM     81  S   UNL A   1      51.402  27.525  22.630  1.00  0.00     0.124 S 
ATOM     82  O   UNL A   1      50.435  26.783  21.830  1.00  0.00    -0.237 OA
ATOM     83  O   UNL A   1      51.216  28.970  22.687  1.00  0.00    -0.237 OA
ATOM     84  O   UNL A   1      52.790  27.082  22.501  1.00  0.00    -0.744 OA
ENDBRANCH  77  81
ENDBRANCH  50  74
BRANCH  62  85
ATOM     85  C   UNL A   1      46.439  32.672  28.818  1.00  0.00     0.023 A 
ATOM     86  C   UNL A   1      46.434  33.746  27.911  1.00  0.00     0.031 A 
ATOM     87  C   UNL A   1      47.035  32.871  30.077  1.00  0.00     0.131 A 
ATOM     88  C   UNL A   1      47.068  34.950  28.252  1.00  0.00     0.055 A 
ATOM     89  C   UNL A   1      47.607  34.093  30.434  1.00  0.00     0.041 A 
ATOM     90  F   UNL A   1      47.070  31.879  30.981  1.00  0.00    -0.206 F 
ATOM     91  C   UNL A   1      47.640  35.136  29.513  1.00  0.00     0.022 A 
BRANCH  88  92
ATOM     92  S   UNL A   1      47.226  36.238  26.984  1.00  0.00     0.124 S 
ATOM     93  O   UNL A   1      46.387  37.303  27.527  1.00  0.00    -0.237 OA
ATOM     94  O   UNL A   1      48.661  36.497  26.980  1.00  0.00    -0.237 OA
ATOM     95  O   UNL A   1      46.709  35.596  25.777  1.00  0.00    -0.744 OA
ENDBRANCH  88  92
ENDBRANCH  62  85
ENDBRANCH  36  37
ENDBRANCH  28  31
ENDBRANCH  26  27
ENDBRANCH   1  26
TORSDOF 16
ENDMDL
