MODEL 1
REMARK VINA RESULT:     -11.5      0.000      0.000
REMARK SMILES CCOC(=O)[C@@]1(C)C/C(=N/c2cccc(C(=O)NCCCCNC(=O)c3ccc(-c4c5nc(c(-c6cc(S(=O)(=O)[O-])ccc6F)c6ccc([nH]6)c(-c6cc(S(=O)(=O)[O-])ccc6F)c6nc(c(-c7cc(S(=O)(=O)[O-])ccc7F)c7ccc4[nH]7)C=C6)C=C5)cc3)c2)C(=O)N1c1ccccc1
REMARK SMILES IDX 20 1 19 2 18 3 16 4 17 5 15 7 11 8 12 9 89 10 13 11 14 12
REMARK SMILES IDX 10 13 6 14 7 15 8 16 92 17 9 18 90 19 91 20 4 21 5 22 3 23
REMARK SMILES IDX 2 24 1 25 93 26 94 27 98 28 95 29 97 30 96 31 21 32 22 33
REMARK SMILES IDX 23 34 24 35 25 37 26 38 27 39 88 40 28 41 87 42 29 43 30 44
REMARK SMILES IDX 31 45 81 46 32 47 86 48 80 49 82 50 33 51 85 52 79 53 78 54
REMARK SMILES IDX 34 56 66 57 46 58 65 59 47 60 50 61 64 62 83 63 48 64 49 65
REMARK SMILES IDX 63 67 84 68 51 69 35 70 36 71 44 72 37 73 43 74 45 75 42 76
REMARK SMILES IDX 38 77 39 78 40 79 41 80 67 81 68 82 76 83 69 84 75 85 77 86
REMARK SMILES IDX 74 87 70 88 71 89 72 90 73 91 52 92 53 93 61 94 54 95 60 96
REMARK SMILES IDX 62 97 59 98 55 99 56 100 57 101 58 102
REMARK H PARENT 18 6 23 36 82 55 50 66
REMARK Flexibility Score: inf
ROOT
ATOM      1  C   UNL A   1      32.520  30.116  26.823  1.00  0.00     0.023 C 
ENDROOT
BRANCH   1   2
ATOM      2  C   UNL A   1      32.326  29.791  25.345  1.00  0.00     0.116 C 
BRANCH   2   3
ATOM      3  N   UNL A   1      31.042  30.192  24.804  1.00  0.00    -0.352 N 
ATOM      4  C   UNL A   1      30.201  29.537  23.934  1.00  0.00     0.251 C 
ATOM      5  O   UNL A   1      29.168  30.102  23.576  1.00  0.00    -0.269 OA
ATOM      6  H   UNL A   1      30.721  31.072  25.106  1.00  0.00     0.163 HD
BRANCH   4   7
ATOM      7  C   UNL A   1      30.520  28.195  23.375  1.00  0.00     0.041 A 
ATOM      8  C   UNL A   1      30.491  25.758  23.455  1.00  0.00     0.064 A 
ATOM      9  C   UNL A   1      31.233  25.721  22.275  1.00  0.00     0.028 A 
ATOM     10  C   UNL A   1      30.124  27.003  23.984  1.00  0.00     0.042 A 
ATOM     11  C   UNL A   1      31.589  26.903  21.623  1.00  0.00     0.003 A 
ATOM     12  C   UNL A   1      31.234  28.137  22.172  1.00  0.00     0.014 A 
BRANCH   8  13
ATOM     13  N   UNL A   1      30.297  24.572  24.177  1.00  0.00    -0.248 NA
ATOM     14  C   UNL A   1      32.503  21.995  24.785  1.00  0.00     0.148 C 
ATOM     15  C   UNL A   1      32.384  21.502  23.326  1.00  0.00     0.048 C 
ATOM     16  C   UNL A   1      31.134  22.565  25.240  1.00  0.00     0.103 C 
ATOM     17  N   UNL A   1      33.430  23.149  24.888  1.00  0.00    -0.290 N 
ATOM     18  C   UNL A   1      31.279  23.959  24.755  1.00  0.00     0.109 C 
ATOM     19  C   UNL A   1      32.724  24.351  24.896  1.00  0.00     0.273 C 
ATOM     20  O   UNL A   1      33.075  25.509  24.980  1.00  0.00    -0.267 OA
BRANCH  14  21
ATOM     21  C   UNL A   1      32.770  20.838  25.775  1.00  0.00     0.332 C 
ATOM     22  O   UNL A   1      33.349  20.938  26.848  1.00  0.00    -0.249 OA
BRANCH  21  23
ATOM     23  O   UNL A   1      32.146  19.704  25.336  1.00  0.00    -0.464 OA
BRANCH  23  24
ATOM     24  C   UNL A   1      32.871  18.471  25.461  1.00  0.00     0.229 C 
ATOM     25  C   UNL A   1      34.014  18.477  24.467  1.00  0.00     0.049 C 
ENDBRANCH  23  24
ENDBRANCH  21  23
ENDBRANCH  14  21
BRANCH  17  26
ATOM     26  C   UNL A   1      34.858  23.068  24.889  1.00  0.00     0.045 A 
ATOM     27  C   UNL A   1      35.605  23.588  25.957  1.00  0.00     0.026 A 
ATOM     28  C   UNL A   1      35.573  22.486  23.833  1.00  0.00     0.026 A 
ATOM     29  C   UNL A   1      37.005  23.547  25.966  1.00  0.00     0.002 A 
ATOM     30  C   UNL A   1      36.974  22.463  23.828  1.00  0.00     0.002 A 
ATOM     31  C   UNL A   1      37.691  22.993  24.894  1.00  0.00     0.000 A 
ENDBRANCH  17  26
ENDBRANCH   8  13
ENDBRANCH   4   7
ENDBRANCH   2   3
ENDBRANCH   1   2
BRANCH   1  32
ATOM     32  C   UNL A   1      33.924  29.909  27.397  1.00  0.00     0.023 C 
BRANCH  32  33
ATOM     33  C   UNL A   1      34.762  31.161  27.646  1.00  0.00     0.116 C 
BRANCH  33  34
ATOM     34  N   UNL A   1      34.537  31.765  28.949  1.00  0.00    -0.352 N 
ATOM     35  C   UNL A   1      35.267  31.719  30.113  1.00  0.00     0.251 C 
ATOM     36  H   UNL A   1      33.715  32.304  29.008  1.00  0.00     0.163 HD
ATOM     37  O   UNL A   1      34.808  32.267  31.114  1.00  0.00    -0.269 OA
BRANCH  35  38
ATOM     38  C   UNL A   1      36.557  30.993  30.192  1.00  0.00     0.039 A 
ATOM     39  C   UNL A   1      37.675  31.554  29.563  1.00  0.00     0.014 A 
ATOM     40  C   UNL A   1      36.677  29.765  30.846  1.00  0.00     0.014 A 
ATOM     41  C   UNL A   1      38.926  30.937  29.674  1.00  0.00     0.010 A 
ATOM     42  C   UNL A   1      37.935  29.180  31.006  1.00  0.00     0.010 A 
ATOM     43  C   UNL A   1      39.075  29.769  30.437  1.00  0.00    -0.014 A 
BRANCH  43  44
ATOM     44  C   UNL A   1      40.414  29.174  30.691  1.00  0.00     0.031 A 
ATOM     45  C   UNL A   1      41.330  29.765  31.727  1.00  0.00     0.074 A 
ATOM     46  C   UNL A   1      40.847  28.160  29.917  1.00  0.00     0.049 A 
ATOM     47  N   UNL A   1      42.590  29.500  31.965  1.00  0.00    -0.248 NA
ATOM     48  C   UNL A   1      40.759  30.813  32.583  1.00  0.00     0.031 C 
ATOM     49  C   UNL A   1      40.080  27.521  28.845  1.00  0.00     0.029 A 
ATOM     50  N   UNL A   1      42.055  27.508  29.895  1.00  0.00    -0.354 N 
ATOM     51  C   UNL A   1      42.979  30.382  32.966  1.00  0.00     0.074 A 
ATOM     52  C   UNL A   1      41.819  31.190  33.285  1.00  0.00     0.031 C 
ATOM     53  C   UNL A   1      40.835  26.571  28.271  1.00  0.00     0.029 A 
ATOM     54  C   UNL A   1      42.148  26.558  28.908  1.00  0.00     0.049 A 
ATOM     55  H   UNL A   1      42.784  27.703  30.527  1.00  0.00     0.167 HD
ATOM     56  C   UNL A   1      44.191  30.510  33.562  1.00  0.00     0.034 A 
ATOM     57  C   UNL A   1      43.180  25.782  28.534  1.00  0.00     0.034 A 
ATOM     58  C   UNL A   1      45.333  29.677  33.277  1.00  0.00     0.049 A 
ATOM     59  C   UNL A   1      44.498  25.903  29.242  1.00  0.00     0.074 A 
ATOM     60  C   UNL A   1      46.579  29.676  33.884  1.00  0.00     0.029 A 
ATOM     61  N   UNL A   1      45.370  28.692  32.300  1.00  0.00    -0.354 N 
ATOM     62  N   UNL A   1      44.848  26.740  30.187  1.00  0.00    -0.248 NA
ATOM     63  C   UNL A   1      45.558  24.976  28.824  1.00  0.00     0.031 C 
ATOM     64  C   UNL A   1      47.376  28.711  33.254  1.00  0.00     0.029 A 
ATOM     65  C   UNL A   1      46.618  28.088  32.277  1.00  0.00     0.049 A 
ATOM     66  H   UNL A   1      44.619  28.457  31.709  1.00  0.00     0.167 HD
ATOM     67  C   UNL A   1      46.173  26.440  30.479  1.00  0.00     0.074 A 
ATOM     68  C   UNL A   1      46.558  25.345  29.611  1.00  0.00     0.031 C 
ATOM     69  C   UNL A   1      46.995  27.017  31.390  1.00  0.00     0.034 A 
BRANCH  56  70
ATOM     70  C   UNL A   1      44.346  31.634  34.550  1.00  0.00     0.023 A 
ATOM     71  C   UNL A   1      43.911  31.513  35.880  1.00  0.00     0.031 A 
ATOM     72  C   UNL A   1      44.883  32.864  34.135  1.00  0.00     0.131 A 
ATOM     73  C   UNL A   1      43.961  32.626  36.733  1.00  0.00     0.055 A 
ATOM     74  C   UNL A   1      44.986  33.951  35.004  1.00  0.00     0.041 A 
ATOM     75  F   UNL A   1      45.292  33.037  32.868  1.00  0.00    -0.206 F 
ATOM     76  C   UNL A   1      44.510  33.840  36.308  1.00  0.00     0.022 A 
BRANCH  73  77
ATOM     77  S   UNL A   1      43.175  32.506  38.363  1.00  0.00     0.124 S 
ATOM     78  O   UNL A   1      44.330  32.547  39.255  1.00  0.00    -0.237 OA
ATOM     79  O   UNL A   1      42.310  33.680  38.379  1.00  0.00    -0.237 OA
ATOM     80  O   UNL A   1      42.481  31.220  38.315  1.00  0.00    -0.744 OA
ENDBRANCH  73  77
ENDBRANCH  56  70
BRANCH  57  81
ATOM     81  C   UNL A   1      43.025  24.849  27.392  1.00  0.00     0.023 A 
ATOM     82  C   UNL A   1      42.447  23.584  27.568  1.00  0.00     0.031 A 
ATOM     83  C   UNL A   1      43.450  25.223  26.107  1.00  0.00     0.131 A 
ATOM     84  C   UNL A   1      42.323  22.723  26.469  1.00  0.00     0.055 A 
ATOM     85  C   UNL A   1      43.313  24.368  25.015  1.00  0.00     0.041 A 
ATOM     86  F   UNL A   1      43.993  26.432  25.899  1.00  0.00    -0.206 F 
ATOM     87  C   UNL A   1      42.749  23.106  25.194  1.00  0.00     0.022 A 
BRANCH  84  88
ATOM     88  S   UNL A   1      41.586  21.086  26.728  1.00  0.00     0.124 S 
ATOM     89  O   UNL A   1      42.007  20.374  25.526  1.00  0.00    -0.237 OA
ATOM     90  O   UNL A   1      42.213  20.663  27.976  1.00  0.00    -0.237 OA
ATOM     91  O   UNL A   1      40.155  21.367  26.819  1.00  0.00    -0.744 OA
ENDBRANCH  84  88
ENDBRANCH  57  81
BRANCH  69  92
ATOM     92  C   UNL A   1      48.377  26.443  31.500  1.00  0.00     0.023 A 
ATOM     93  C   UNL A   1      48.656  25.374  32.367  1.00  0.00     0.031 A 
ATOM     94  C   UNL A   1      49.430  26.997  30.754  1.00  0.00     0.131 A 
ATOM     95  C   UNL A   1      49.972  24.908  32.490  1.00  0.00     0.055 A 
ATOM     96  C   UNL A   1      50.734  26.515  30.865  1.00  0.00     0.041 A 
ATOM     97  F   UNL A   1      49.207  28.026  29.921  1.00  0.00    -0.206 F 
ATOM     98  C   UNL A   1      51.012  25.468  31.741  1.00  0.00     0.022 A 
BRANCH  95  99
ATOM     99  S   UNL A   1      50.325  23.586  33.681  1.00  0.00     0.124 S 
ATOM    100  O   UNL A   1      50.801  22.512  32.814  1.00  0.00    -0.237 OA
ATOM    101  O   UNL A   1      51.328  24.201  34.544  1.00  0.00    -0.237 OA
ATOM    102  O   UNL A   1      49.031  23.341  34.316  1.00  0.00    -0.744 OA
ENDBRANCH  95  99
ENDBRANCH  69  92
ENDBRANCH  43  44
ENDBRANCH  35  38
ENDBRANCH  33  34
ENDBRANCH  32  33
ENDBRANCH   1  32
TORSDOF 19
ENDMDL
MODEL 2
REMARK VINA RESULT:     -11.1      5.478      8.350
REMARK SMILES CCOC(=O)[C@@]1(C)C/C(=N/c2cccc(C(=O)NCCCCNC(=O)c3ccc(-c4c5nc(c(-c6cc(S(=O)(=O)[O-])ccc6F)c6ccc([nH]6)c(-c6cc(S(=O)(=O)[O-])ccc6F)c6nc(c(-c7cc(S(=O)(=O)[O-])ccc7F)c7ccc4[nH]7)C=C6)C=C5)cc3)c2)C(=O)N1c1ccccc1
REMARK SMILES IDX 20 1 19 2 18 3 16 4 17 5 15 7 11 8 12 9 89 10 13 11 14 12
REMARK SMILES IDX 10 13 6 14 7 15 8 16 92 17 9 18 90 19 91 20 4 21 5 22 3 23
REMARK SMILES IDX 2 24 1 25 93 26 94 27 98 28 95 29 97 30 96 31 21 32 22 33
REMARK SMILES IDX 23 34 24 35 25 37 26 38 27 39 88 40 28 41 87 42 29 43 30 44
REMARK SMILES IDX 31 45 81 46 32 47 86 48 80 49 82 50 33 51 85 52 79 53 78 54
REMARK SMILES IDX 34 56 66 57 46 58 65 59 47 60 50 61 64 62 83 63 48 64 49 65
REMARK SMILES IDX 63 67 84 68 51 69 35 70 36 71 44 72 37 73 43 74 45 75 42 76
REMARK SMILES IDX 38 77 39 78 40 79 41 80 67 81 68 82 76 83 69 84 75 85 77 86
REMARK SMILES IDX 74 87 70 88 71 89 72 90 73 91 52 92 53 93 61 94 54 95 60 96
REMARK SMILES IDX 62 97 59 98 55 99 56 100 57 101 58 102
REMARK H PARENT 18 6 23 36 82 55 50 66
REMARK Flexibility Score: inf
ROOT
ATOM      1  C   UNL A   1      35.200  32.096  31.927  1.00  0.00     0.023 C 
ENDROOT
BRANCH   1   2
ATOM      2  C   UNL A   1      35.921  32.195  30.586  1.00  0.00     0.116 C 
BRANCH   2   3
ATOM      3  N   UNL A   1      35.469  31.246  29.588  1.00  0.00    -0.352 N 
ATOM      4  C   UNL A   1      36.075  30.109  29.104  1.00  0.00     0.251 C 
ATOM      5  O   UNL A   1      35.512  29.476  28.211  1.00  0.00    -0.269 OA
ATOM      6  H   UNL A   1      34.591  31.448  29.192  1.00  0.00     0.163 HD
BRANCH   4   7
ATOM      7  C   UNL A   1      37.405  29.647  29.587  1.00  0.00     0.041 A 
ATOM      8  C   UNL A   1      39.839  29.571  29.470  1.00  0.00     0.064 A 
ATOM      9  C   UNL A   1      39.851  28.662  30.526  1.00  0.00     0.028 A 
ATOM     10  C   UNL A   1      38.608  30.072  29.022  1.00  0.00     0.042 A 
ATOM     11  C   UNL A   1      38.659  28.270  31.140  1.00  0.00     0.003 A 
ATOM     12  C   UNL A   1      37.440  28.760  30.670  1.00  0.00     0.014 A 
BRANCH   8  13
ATOM     13  N   UNL A   1      41.026  29.814  28.764  1.00  0.00    -0.248 NA
ATOM     14  C   UNL A   1      43.476  27.599  27.777  1.00  0.00     0.148 C 
ATOM     15  C   UNL A   1      43.990  27.467  29.227  1.00  0.00     0.048 C 
ATOM     16  C   UNL A   1      42.974  29.049  27.548  1.00  0.00     0.103 C 
ATOM     17  N   UNL A   1      42.272  26.759  27.554  1.00  0.00    -0.290 N 
ATOM     18  C   UNL A   1      41.580  28.902  28.031  1.00  0.00     0.109 C 
ATOM     19  C   UNL A   1      41.109  27.518  27.678  1.00  0.00     0.273 C 
ATOM     20  O   UNL A   1      39.934  27.244  27.563  1.00  0.00    -0.267 OA
BRANCH  14  21
ATOM     21  C   UNL A   1      44.605  27.429  26.736  1.00  0.00     0.332 C 
ATOM     22  O   UNL A   1      44.642  27.953  25.632  1.00  0.00    -0.249 OA
BRANCH  21  23
ATOM     23  O   UNL A   1      45.629  26.708  27.283  1.00  0.00    -0.464 OA
BRANCH  23  24
ATOM     24  C   UNL A   1      45.825  25.374  26.788  1.00  0.00     0.229 C 
ATOM     25  C   UNL A   1      46.253  24.487  27.938  1.00  0.00     0.049 C 
ENDBRANCH  23  24
ENDBRANCH  21  23
ENDBRANCH  14  21
BRANCH  17  26
ATOM     26  C   UNL A   1      42.278  25.347  27.333  1.00  0.00     0.045 A 
ATOM     27  C   UNL A   1      42.167  24.452  28.409  1.00  0.00     0.026 A 
ATOM     28  C   UNL A   1      42.405  24.791  26.052  1.00  0.00     0.026 A 
ATOM     29  C   UNL A   1      42.200  23.065  28.220  1.00  0.00     0.002 A 
ATOM     30  C   UNL A   1      42.461  23.404  25.861  1.00  0.00     0.002 A 
ATOM     31  C   UNL A   1      42.359  22.540  26.945  1.00  0.00     0.000 A 
ENDBRANCH  17  26
ENDBRANCH   8  13
ENDBRANCH   4   7
ENDBRANCH   2   3
ENDBRANCH   1   2
BRANCH   1  32
ATOM     32  C   UNL A   1      34.652  33.399  32.514  1.00  0.00     0.023 C 
BRANCH  32  33
ATOM     33  C   UNL A   1      35.657  34.330  33.189  1.00  0.00     0.116 C 
BRANCH  33  34
ATOM     34  N   UNL A   1      35.906  34.009  34.585  1.00  0.00    -0.352 N 
ATOM     35  C   UNL A   1      36.926  33.317  35.193  1.00  0.00     0.251 C 
ATOM     36  H   UNL A   1      35.221  34.347  35.206  1.00  0.00     0.163 HD
ATOM     37  O   UNL A   1      36.858  33.117  36.405  1.00  0.00    -0.269 OA
BRANCH  35  38
ATOM     38  C   UNL A   1      38.067  32.776  34.416  1.00  0.00     0.039 A 
ATOM     39  C   UNL A   1      39.277  33.480  34.436  1.00  0.00     0.014 A 
ATOM     40  C   UNL A   1      37.960  31.611  33.653  1.00  0.00     0.014 A 
ATOM     41  C   UNL A   1      40.399  32.967  33.775  1.00  0.00     0.010 A 
ATOM     42  C   UNL A   1      39.093  31.070  33.043  1.00  0.00     0.010 A 
ATOM     43  C   UNL A   1      40.329  31.733  33.113  1.00  0.00    -0.014 A 
BRANCH  43  44
ATOM     44  C   UNL A   1      41.538  31.096  32.527  1.00  0.00     0.031 A 
ATOM     45  C   UNL A   1      42.169  29.901  33.187  1.00  0.00     0.074 A 
ATOM     46  C   UNL A   1      42.129  31.656  31.454  1.00  0.00     0.049 A 
ATOM     47  N   UNL A   1      43.315  29.323  32.930  1.00  0.00    -0.248 NA
ATOM     48  C   UNL A   1      41.425  29.301  34.302  1.00  0.00     0.031 C 
ATOM     49  C   UNL A   1      41.650  32.842  30.742  1.00  0.00     0.029 A 
ATOM     50  N   UNL A   1      43.282  31.315  30.792  1.00  0.00    -0.354 N 
ATOM     51  C   UNL A   1      43.455  28.320  33.882  1.00  0.00     0.074 A 
ATOM     52  C   UNL A   1      42.275  28.375  34.722  1.00  0.00     0.031 C 
ATOM     53  C   UNL A   1      42.502  33.131  29.745  1.00  0.00     0.029 A 
ATOM     54  C   UNL A   1      43.602  32.173  29.768  1.00  0.00     0.049 A 
ATOM     55  H   UNL A   1      43.827  30.529  31.028  1.00  0.00     0.167 HD
ATOM     56  C   UNL A   1      44.474  27.439  34.045  1.00  0.00     0.034 A 
ATOM     57  C   UNL A   1      44.674  32.208  28.957  1.00  0.00     0.034 A 
ATOM     58  C   UNL A   1      45.626  27.356  33.183  1.00  0.00     0.049 A 
ATOM     59  C   UNL A   1      45.765  31.190  29.121  1.00  0.00     0.074 A 
ATOM     60  C   UNL A   1      46.671  26.445  33.218  1.00  0.00     0.029 A 
ATOM     61  N   UNL A   1      45.889  28.216  32.127  1.00  0.00    -0.354 N 
ATOM     62  N   UNL A   1      45.881  30.248  30.024  1.00  0.00    -0.248 NA
ATOM     63  C   UNL A   1      46.871  31.249  28.156  1.00  0.00     0.031 C 
ATOM     64  C   UNL A   1      47.577  26.774  32.201  1.00  0.00     0.029 A 
ATOM     65  C   UNL A   1      47.082  27.869  31.512  1.00  0.00     0.049 A 
ATOM     66  H   UNL A   1      45.311  28.965  31.853  1.00  0.00     0.167 HD
ATOM     67  C   UNL A   1      47.075  29.599  29.736  1.00  0.00     0.074 A 
ATOM     68  C   UNL A   1      47.642  30.255  28.575  1.00  0.00     0.031 C 
ATOM     69  C   UNL A   1      47.646  28.548  30.373  1.00  0.00     0.034 A 
BRANCH  56  70
ATOM     70  C   UNL A   1      44.397  26.527  35.240  1.00  0.00     0.023 A 
ATOM     71  C   UNL A   1      44.841  26.934  36.508  1.00  0.00     0.031 A 
ATOM     72  C   UNL A   1      43.925  25.212  35.089  1.00  0.00     0.131 A 
ATOM     73  C   UNL A   1      44.865  26.012  37.565  1.00  0.00     0.055 A 
ATOM     74  C   UNL A   1      43.896  24.316  36.159  1.00  0.00     0.041 A 
ATOM     75  F   UNL A   1      43.509  24.769  33.891  1.00  0.00    -0.206 F 
ATOM     76  C   UNL A   1      44.382  24.710  37.403  1.00  0.00     0.022 A 
BRANCH  73  77
ATOM     77  S   UNL A   1      45.666  26.495  39.120  1.00  0.00     0.124 S 
ATOM     78  O   UNL A   1      44.570  27.155  39.826  1.00  0.00    -0.237 OA
ATOM     79  O   UNL A   1      46.096  25.211  39.662  1.00  0.00    -0.237 OA
ATOM     80  O   UNL A   1      46.743  27.384  38.688  1.00  0.00    -0.744 OA
ENDBRANCH  73  77
ENDBRANCH  56  70
BRANCH  57  81
ATOM     81  C   UNL A   1      44.795  33.281  27.943  1.00  0.00     0.023 A 
ATOM     82  C   UNL A   1      45.355  34.524  28.271  1.00  0.00     0.031 A 
ATOM     83  C   UNL A   1      44.354  33.068  26.627  1.00  0.00     0.131 A 
ATOM     84  C   UNL A   1      45.447  35.521  27.291  1.00  0.00     0.055 A 
ATOM     85  C   UNL A   1      44.458  34.059  25.652  1.00  0.00     0.041 A 
ATOM     86  F   UNL A   1      43.827  31.885  26.274  1.00  0.00    -0.206 F 
ATOM     87  C   UNL A   1      45.005  35.297  25.983  1.00  0.00     0.022 A 
BRANCH  84  88
ATOM     88  S   UNL A   1      46.161  37.125  27.746  1.00  0.00     0.124 S 
ATOM     89  O   UNL A   1      47.522  36.753  28.115  1.00  0.00    -0.237 OA
ATOM     90  O   UNL A   1      46.016  37.885  26.510  1.00  0.00    -0.237 OA
ATOM     91  O   UNL A   1      45.314  37.573  28.850  1.00  0.00    -0.744 OA
ENDBRANCH  84  88
ENDBRANCH  57  81
BRANCH  69  92
ATOM     92  C   UNL A   1      48.936  28.040  29.798  1.00  0.00     0.023 A 
ATOM     93  C   UNL A   1      48.950  27.037  28.814  1.00  0.00     0.031 A 
ATOM     94  C   UNL A   1      50.162  28.542  30.266  1.00  0.00     0.131 A 
ATOM     95  C   UNL A   1      50.177  26.542  28.348  1.00  0.00     0.055 A 
ATOM     96  C   UNL A   1      51.378  28.060  29.782  1.00  0.00     0.041 A 
ATOM     97  F   UNL A   1      50.191  29.493  31.212  1.00  0.00    -0.206 F 
ATOM     98  C   UNL A   1      51.390  27.051  28.822  1.00  0.00     0.022 A 
BRANCH  95  99
ATOM     99  S   UNL A   1      50.172  25.187  27.143  1.00  0.00     0.124 S 
ATOM    100  O   UNL A   1      51.572  25.137  26.733  1.00  0.00    -0.237 OA
ATOM    101  O   UNL A   1      49.701  24.060  27.941  1.00  0.00    -0.237 OA
ATOM    102  O   UNL A   1      49.241  25.645  26.113  1.00  0.00    -0.744 OA
ENDBRANCH  95  99
ENDBRANCH  69  92
ENDBRANCH  43  44
ENDBRANCH  35  38
ENDBRANCH  33  34
ENDBRANCH  32  33
ENDBRANCH   1  32
TORSDOF 19
ENDMDL
MODEL 3
REMARK VINA RESULT:     -11.1      5.341     10.690
REMARK SMILES CCOC(=O)[C@@]1(C)C/C(=N/c2cccc(C(=O)NCCCCNC(=O)c3ccc(-c4c5nc(c(-c6cc(S(=O)(=O)[O-])ccc6F)c6ccc([nH]6)c(-c6cc(S(=O)(=O)[O-])ccc6F)c6nc(c(-c7cc(S(=O)(=O)[O-])ccc7F)c7ccc4[nH]7)C=C6)C=C5)cc3)c2)C(=O)N1c1ccccc1
REMARK SMILES IDX 20 1 19 2 18 3 16 4 17 5 15 7 11 8 12 9 89 10 13 11 14 12
REMARK SMILES IDX 10 13 6 14 7 15 8 16 92 17 9 18 90 19 91 20 4 21 5 22 3 23
REMARK SMILES IDX 2 24 1 25 93 26 94 27 98 28 95 29 97 30 96 31 21 32 22 33
REMARK SMILES IDX 23 34 24 35 25 37 26 38 27 39 88 40 28 41 87 42 29 43 30 44
REMARK SMILES IDX 31 45 81 46 32 47 86 48 80 49 82 50 33 51 85 52 79 53 78 54
REMARK SMILES IDX 34 56 66 57 46 58 65 59 47 60 50 61 64 62 83 63 48 64 49 65
REMARK SMILES IDX 63 67 84 68 51 69 35 70 36 71 44 72 37 73 43 74 45 75 42 76
REMARK SMILES IDX 38 77 39 78 40 79 41 80 67 81 68 82 76 83 69 84 75 85 77 86
REMARK SMILES IDX 74 87 70 88 71 89 72 90 73 91 52 92 53 93 61 94 54 95 60 96
REMARK SMILES IDX 62 97 59 98 55 99 56 100 57 101 58 102
REMARK H PARENT 18 6 23 36 82 55 50 66
REMARK Flexibility Score: inf
ROOT
ATOM      1  C   UNL A   1      42.891  23.512  27.402  1.00  0.00     0.023 C 
ENDROOT
BRANCH   1   2
ATOM      2  C   UNL A   1      41.734  23.247  28.361  1.00  0.00     0.116 C 
BRANCH   2   3
ATOM      3  N   UNL A   1      40.421  23.313  27.751  1.00  0.00    -0.352 N 
ATOM      4  C   UNL A   1      39.622  24.400  27.478  1.00  0.00     0.251 C 
ATOM      5  O   UNL A   1      38.509  24.204  26.990  1.00  0.00    -0.269 OA
ATOM      6  H   UNL A   1      40.040  22.443  27.493  1.00  0.00     0.163 HD
BRANCH   4   7
ATOM      7  C   UNL A   1      40.034  25.793  27.797  1.00  0.00     0.041 A 
ATOM      8  C   UNL A   1      40.509  27.601  29.363  1.00  0.00     0.064 A 
ATOM      9  C   UNL A   1      40.748  28.456  28.288  1.00  0.00     0.028 A 
ATOM     10  C   UNL A   1      40.172  26.265  29.104  1.00  0.00     0.042 A 
ATOM     11  C   UNL A   1      40.671  27.985  26.976  1.00  0.00     0.003 A 
ATOM     12  C   UNL A   1      40.313  26.658  26.732  1.00  0.00     0.014 A 
BRANCH   8  13
ATOM     13  N   UNL A   1      40.425  28.137  30.656  1.00  0.00    -0.248 NA
ATOM     14  C   UNL A   1      39.062  31.126  31.700  1.00  0.00     0.148 C 
ATOM     15  C   UNL A   1      40.248  31.916  31.105  1.00  0.00     0.048 C 
ATOM     16  C   UNL A   1      39.578  29.764  32.235  1.00  0.00     0.103 C 
ATOM     17  N   UNL A   1      38.082  30.756  30.649  1.00  0.00    -0.290 N 
ATOM     18  C   UNL A   1      39.487  28.965  30.990  1.00  0.00     0.109 C 
ATOM     19  C   UNL A   1      38.294  29.449  30.213  1.00  0.00     0.273 C 
ATOM     20  O   UNL A   1      37.729  28.754  29.397  1.00  0.00    -0.267 OA
BRANCH  14  21
ATOM     21  C   UNL A   1      38.467  31.814  32.950  1.00  0.00     0.332 C 
ATOM     22  O   UNL A   1      38.336  33.019  33.106  1.00  0.00    -0.249 OA
BRANCH  21  23
ATOM     23  O   UNL A   1      37.984  30.867  33.809  1.00  0.00    -0.464 OA
BRANCH  23  24
ATOM     24  C   UNL A   1      38.044  31.168  35.212  1.00  0.00     0.229 C 
ATOM     25  C   UNL A   1      39.366  30.671  35.759  1.00  0.00     0.049 C 
ENDBRANCH  23  24
ENDBRANCH  21  23
ENDBRANCH  14  21
BRANCH  17  26
ATOM     26  C   UNL A   1      37.104  31.632  30.083  1.00  0.00     0.045 A 
ATOM     27  C   UNL A   1      37.483  32.654  29.198  1.00  0.00     0.026 A 
ATOM     28  C   UNL A   1      35.739  31.525  30.387  1.00  0.00     0.026 A 
ATOM     29  C   UNL A   1      36.548  33.543  28.655  1.00  0.00     0.002 A 
ATOM     30  C   UNL A   1      34.803  32.426  29.863  1.00  0.00     0.002 A 
ATOM     31  C   UNL A   1      35.206  33.435  28.997  1.00  0.00     0.000 A 
ENDBRANCH  17  26
ENDBRANCH   8  13
ENDBRANCH   4   7
ENDBRANCH   2   3
ENDBRANCH   1   2
BRANCH   1  32
ATOM     32  C   UNL A   1      43.170  22.442  26.344  1.00  0.00     0.023 C 
BRANCH  32  33
ATOM     33  C   UNL A   1      43.219  22.904  24.889  1.00  0.00     0.116 C 
BRANCH  33  34
ATOM     34  N   UNL A   1      44.568  23.092  24.380  1.00  0.00    -0.352 N 
ATOM     35  C   UNL A   1      45.511  24.059  24.634  1.00  0.00     0.251 C 
ATOM     36  H   UNL A   1      44.858  22.403  23.739  1.00  0.00     0.163 HD
ATOM     37  O   UNL A   1      46.567  24.029  24.004  1.00  0.00    -0.269 OA
BRANCH  35  38
ATOM     38  C   UNL A   1      45.262  25.148  25.609  1.00  0.00     0.039 A 
ATOM     39  C   UNL A   1      44.175  26.002  25.388  1.00  0.00     0.014 A 
ATOM     40  C   UNL A   1      46.090  25.358  26.715  1.00  0.00     0.014 A 
ATOM     41  C   UNL A   1      43.863  26.998  26.321  1.00  0.00     0.010 A 
ATOM     42  C   UNL A   1      45.745  26.312  27.674  1.00  0.00     0.010 A 
ATOM     43  C   UNL A   1      44.618  27.129  27.496  1.00  0.00    -0.014 A 
BRANCH  43  44
ATOM     44  C   UNL A   1      44.224  28.080  28.570  1.00  0.00     0.031 A 
ATOM     45  C   UNL A   1      44.232  29.562  28.320  1.00  0.00     0.074 A 
ATOM     46  C   UNL A   1      43.956  27.613  29.805  1.00  0.00     0.049 A 
ATOM     47  N   UNL A   1      44.095  30.547  29.172  1.00  0.00    -0.248 NA
ATOM     48  C   UNL A   1      44.456  29.990  26.932  1.00  0.00     0.031 C 
ATOM     49  C   UNL A   1      43.956  26.202  30.199  1.00  0.00     0.029 A 
ATOM     50  N   UNL A   1      43.658  28.281  30.966  1.00  0.00    -0.354 N 
ATOM     51  C   UNL A   1      44.264  31.713  28.435  1.00  0.00     0.074 A 
ATOM     52  C   UNL A   1      44.517  31.308  27.066  1.00  0.00     0.031 C 
ATOM     53  C   UNL A   1      43.674  26.111  31.508  1.00  0.00     0.029 A 
ATOM     54  C   UNL A   1      43.508  27.455  32.053  1.00  0.00     0.049 A 
ATOM     55  H   UNL A   1      43.561  29.260  31.015  1.00  0.00     0.167 HD
ATOM     56  C   UNL A   1      44.217  33.000  28.859  1.00  0.00     0.034 A 
ATOM     57  C   UNL A   1      43.292  27.742  33.348  1.00  0.00     0.034 A 
ATOM     58  C   UNL A   1      43.922  33.404  30.211  1.00  0.00     0.049 A 
ATOM     59  C   UNL A   1      43.191  29.174  33.787  1.00  0.00     0.074 A 
ATOM     60  C   UNL A   1      43.772  34.685  30.720  1.00  0.00     0.029 A 
ATOM     61  N   UNL A   1      43.729  32.533  31.273  1.00  0.00    -0.354 N 
ATOM     62  N   UNL A   1      43.351  30.263  33.077  1.00  0.00    -0.248 NA
ATOM     63  C   UNL A   1      42.887  29.408  35.205  1.00  0.00     0.031 C 
ATOM     64  C   UNL A   1      43.518  34.586  32.095  1.00  0.00     0.029 A 
ATOM     65  C   UNL A   1      43.477  33.245  32.436  1.00  0.00     0.049 A 
ATOM     66  H   UNL A   1      43.766  31.551  31.210  1.00  0.00     0.167 HD
ATOM     67  C   UNL A   1      43.166  31.317  33.964  1.00  0.00     0.074 A 
ATOM     68  C   UNL A   1      42.880  30.733  35.259  1.00  0.00     0.031 C 
ATOM     69  C   UNL A   1      43.220  32.650  33.723  1.00  0.00     0.034 A 
BRANCH  56  70
ATOM     70  C   UNL A   1      44.545  34.061  27.843  1.00  0.00     0.023 A 
ATOM     71  C   UNL A   1      45.850  34.238  27.356  1.00  0.00     0.031 A 
ATOM     72  C   UNL A   1      43.545  34.943  27.401  1.00  0.00     0.131 A 
ATOM     73  C   UNL A   1      46.135  35.316  26.504  1.00  0.00     0.055 A 
ATOM     74  C   UNL A   1      43.821  35.978  26.507  1.00  0.00     0.041 A 
ATOM     75  F   UNL A   1      42.286  34.828  27.854  1.00  0.00    -0.206 F 
ATOM     76  C   UNL A   1      45.126  36.178  26.065  1.00  0.00     0.022 A 
BRANCH  73  77
ATOM     77  S   UNL A   1      47.867  35.659  26.088  1.00  0.00     0.124 S 
ATOM     78  O   UNL A   1      47.783  37.016  25.556  1.00  0.00    -0.237 OA
ATOM     79  O   UNL A   1      48.532  35.516  27.378  1.00  0.00    -0.237 OA
ATOM     80  O   UNL A   1      48.192  34.631  25.101  1.00  0.00    -0.744 OA
ENDBRANCH  73  77
ENDBRANCH  56  70
BRANCH  57  81
ATOM     81  C   UNL A   1      43.206  26.645  34.341  1.00  0.00     0.023 A 
ATOM     82  C   UNL A   1      44.364  26.058  34.868  1.00  0.00     0.031 A 
ATOM     83  C   UNL A   1      41.956  26.177  34.776  1.00  0.00     0.131 A 
ATOM     84  C   UNL A   1      44.249  25.016  35.799  1.00  0.00     0.055 A 
ATOM     85  C   UNL A   1      41.845  25.149  35.712  1.00  0.00     0.041 A 
ATOM     86  F   UNL A   1      40.826  26.727  34.304  1.00  0.00    -0.206 F 
ATOM     87  C   UNL A   1      42.998  24.559  36.226  1.00  0.00     0.022 A 
BRANCH  84  88
ATOM     88  S   UNL A   1      45.763  24.263  36.454  1.00  0.00     0.124 S 
ATOM     89  O   UNL A   1      45.241  23.089  37.144  1.00  0.00    -0.237 OA
ATOM     90  O   UNL A   1      46.526  24.006  35.237  1.00  0.00    -0.237 OA
ATOM     91  O   UNL A   1      46.314  25.304  37.320  1.00  0.00    -0.744 OA
ENDBRANCH  84  88
ENDBRANCH  57  81
BRANCH  69  92
ATOM     92  C   UNL A   1      42.936  33.550  34.889  1.00  0.00     0.023 A 
ATOM     93  C   UNL A   1      41.637  34.017  35.151  1.00  0.00     0.031 A 
ATOM     94  C   UNL A   1      43.984  33.971  35.725  1.00  0.00     0.131 A 
ATOM     95  C   UNL A   1      41.423  34.909  36.211  1.00  0.00     0.055 A 
ATOM     96  C   UNL A   1      43.760  34.842  36.792  1.00  0.00     0.041 A 
ATOM     97  F   UNL A   1      45.241  33.556  35.503  1.00  0.00    -0.206 F 
ATOM     98  C   UNL A   1      42.475  35.321  37.036  1.00  0.00     0.022 A 
BRANCH  95  99
ATOM     99  S   UNL A   1      39.754  35.568  36.476  1.00  0.00     0.124 S 
ATOM    100  O   UNL A   1      39.259  35.705  35.109  1.00  0.00    -0.237 OA
ATOM    101  O   UNL A   1      39.129  34.524  37.280  1.00  0.00    -0.237 OA
ATOM    102  O   UNL A   1      39.989  36.830  37.178  1.00  0.00    -0.744 OA
ENDBRANCH  95  99
ENDBRANCH  69  92
ENDBRANCH  43  44
ENDBRANCH  35  38
ENDBRANCH  33  34
ENDBRANCH  32  33
ENDBRANCH   1  32
TORSDOF 19
ENDMDL
