MODEL 1
REMARK VINA RESULT:     -12.2      0.000      0.000
REMARK SMILES O=C(NCCCCNC(=O)c1ncoc1-c1cc(F)cc(F)c1)c1ccc(-c2c3nc(c(-c4cc(S(=O)(=O)[O-])ccc4F)c4ccc([nH]4)c(-c4cc(S(=O)(=O)[O-])ccc4F)c4nc(c(-c5cc(S(=O)(=O)[O-])ccc5F)c5ccc2[nH]5)C=C4)C=C3)cc1
REMARK SMILES IDX 4 1 3 2 1 3 2 4 24 6 25 7 86 8 26 9 85 10 27 11 28 12 29 13
REMARK SMILES IDX 79 14 30 15 84 16 78 17 80 18 31 19 83 20 77 21 76 22 32 24
REMARK SMILES IDX 64 25 44 26 63 27 45 28 48 29 62 30 81 31 46 32 47 33 61 35
REMARK SMILES IDX 82 36 49 37 33 38 34 39 42 40 35 41 41 42 43 43 40 44 36 45
REMARK SMILES IDX 37 46 38 47 39 48 65 49 66 50 74 51 67 52 73 53 75 54 72 55
REMARK SMILES IDX 68 56 69 57 70 58 71 59 50 60 51 61 59 62 52 63 58 64 60 65
REMARK SMILES IDX 57 66 53 67 54 68 55 69 56 70 5 71 6 72 7 73 8 74 9 75 10 77
REMARK SMILES IDX 11 78 12 79 15 80 13 81 14 82 16 83 17 84 23 85 18 86 21 87
REMARK SMILES IDX 19 88 20 89 22 90
REMARK H PARENT 3 5 80 23 48 34 8 76
REMARK Flexibility Score: inf
ROOT
ATOM      1  C   UNL A   1      32.680  32.623  27.125  1.00  0.00     0.116 C 
ENDROOT
BRANCH   1   2
ATOM      2  N   UNL A   1      32.503  33.975  27.631  1.00  0.00    -0.352 N 
ATOM      3  O   UNL A   1      32.799  35.713  29.035  1.00  0.00    -0.269 OA
ATOM      4  C   UNL A   1      33.173  34.610  28.650  1.00  0.00     0.251 C 
ATOM      5  H   UNL A   1      31.808  34.508  27.183  1.00  0.00     0.163 HD
BRANCH   4   6
ATOM      6  C   UNL A   1      34.329  33.947  29.291  1.00  0.00     0.039 A 
ATOM      7  C   UNL A   1      34.136  32.985  30.286  1.00  0.00     0.014 A 
ATOM      8  C   UNL A   1      35.621  34.299  28.895  1.00  0.00     0.014 A 
ATOM      9  C   UNL A   1      35.231  32.473  30.974  1.00  0.00     0.010 A 
ATOM     10  C   UNL A   1      36.724  33.723  29.532  1.00  0.00     0.010 A 
ATOM     11  C   UNL A   1      36.536  32.825  30.596  1.00  0.00    -0.014 A 
BRANCH  11  12
ATOM     12  C   UNL A   1      37.693  32.196  31.284  1.00  0.00     0.031 A 
ATOM     13  C   UNL A   1      38.463  31.076  30.643  1.00  0.00     0.074 A 
ATOM     14  C   UNL A   1      38.044  32.651  32.503  1.00  0.00     0.049 A 
ATOM     15  N   UNL A   1      39.478  30.397  31.114  1.00  0.00    -0.248 NA
ATOM     16  C   UNL A   1      38.028  30.656  29.304  1.00  0.00     0.031 C 
ATOM     17  C   UNL A   1      37.357  33.725  33.226  1.00  0.00     0.029 A 
ATOM     18  N   UNL A   1      39.055  32.274  33.348  1.00  0.00    -0.354 N 
ATOM     19  C   UNL A   1      39.795  29.457  30.139  1.00  0.00     0.074 A 
ATOM     20  C   UNL A   1      38.836  29.633  29.067  1.00  0.00     0.031 C 
ATOM     21  C   UNL A   1      37.979  33.934  34.395  1.00  0.00     0.029 A 
ATOM     22  C   UNL A   1      39.061  32.968  34.535  1.00  0.00     0.049 A 
ATOM     23  H   UNL A   1      39.713  31.576  33.126  1.00  0.00     0.167 HD
ATOM     24  C   UNL A   1      40.796  28.539  30.140  1.00  0.00     0.034 A 
ATOM     25  C   UNL A   1      39.827  32.820  35.634  1.00  0.00     0.034 A 
ATOM     26  C   UNL A   1      41.738  28.382  31.226  1.00  0.00     0.049 A 
ATOM     27  C   UNL A   1      40.902  31.771  35.631  1.00  0.00     0.074 A 
ATOM     28  C   UNL A   1      42.821  27.523  31.312  1.00  0.00     0.029 A 
ATOM     29  N   UNL A   1      41.699  29.084  32.425  1.00  0.00    -0.354 N 
ATOM     30  N   UNL A   1      41.214  30.915  34.686  1.00  0.00    -0.248 NA
ATOM     31  C   UNL A   1      41.732  31.671  36.837  1.00  0.00     0.031 C 
ATOM     32  C   UNL A   1      43.387  27.651  32.585  1.00  0.00     0.029 A 
ATOM     33  C   UNL A   1      42.711  28.648  33.270  1.00  0.00     0.049 A 
ATOM     34  H   UNL A   1      41.047  29.789  32.644  1.00  0.00     0.167 HD
ATOM     35  C   UNL A   1      42.289  30.182  35.179  1.00  0.00     0.074 A 
ATOM     36  C   UNL A   1      42.581  30.712  36.496  1.00  0.00     0.031 C 
ATOM     37  C   UNL A   1      42.974  29.167  34.593  1.00  0.00     0.034 A 
BRANCH  24  38
ATOM     38  C   UNL A   1      40.887  27.606  28.953  1.00  0.00     0.023 A 
ATOM     39  C   UNL A   1      41.852  27.776  27.946  1.00  0.00     0.031 A 
ATOM     40  C   UNL A   1      39.969  26.549  28.810  1.00  0.00     0.131 A 
ATOM     41  C   UNL A   1      41.827  26.960  26.803  1.00  0.00     0.055 A 
ATOM     42  C   UNL A   1      40.002  25.687  27.711  1.00  0.00     0.041 A 
ATOM     43  F   UNL A   1      39.011  26.345  29.728  1.00  0.00    -0.206 F 
ATOM     44  C   UNL A   1      40.923  25.901  26.690  1.00  0.00     0.022 A 
BRANCH  41  45
ATOM     45  S   UNL A   1      42.882  27.404  25.396  1.00  0.00     0.124 S 
ATOM     46  O   UNL A   1      44.109  27.830  26.069  1.00  0.00    -0.237 OA
ATOM     47  O   UNL A   1      42.963  26.151  24.655  1.00  0.00    -0.237 OA
ATOM     48  O   UNL A   1      42.141  28.475  24.735  1.00  0.00    -0.744 OA
ENDBRANCH  41  45
ENDBRANCH  24  38
BRANCH  25  49
ATOM     49  C   UNL A   1      39.557  33.657  36.835  1.00  0.00     0.023 A 
ATOM     50  C   UNL A   1      38.944  33.121  37.977  1.00  0.00     0.031 A 
ATOM     51  C   UNL A   1      39.923  35.015  36.856  1.00  0.00     0.131 A 
ATOM     52  C   UNL A   1      38.693  33.946  39.085  1.00  0.00     0.055 A 
ATOM     53  C   UNL A   1      39.717  35.819  37.976  1.00  0.00     0.041 A 
ATOM     54  F   UNL A   1      40.520  35.573  35.790  1.00  0.00    -0.206 F 
ATOM     55  C   UNL A   1      39.090  35.287  39.098  1.00  0.00     0.022 A 
BRANCH  52  56
ATOM     56  S   UNL A   1      37.790  33.256  40.496  1.00  0.00     0.124 S 
ATOM     57  O   UNL A   1      38.575  32.065  40.799  1.00  0.00    -0.237 OA
ATOM     58  O   UNL A   1      37.870  34.342  41.468  1.00  0.00    -0.237 OA
ATOM     59  O   UNL A   1      36.456  33.004  39.957  1.00  0.00    -0.744 OA
ENDBRANCH  52  56
ENDBRANCH  25  49
BRANCH  37  60
ATOM     60  C   UNL A   1      44.129  28.589  35.372  1.00  0.00     0.023 A 
ATOM     61  C   UNL A   1      43.955  27.522  36.271  1.00  0.00     0.031 A 
ATOM     62  C   UNL A   1      45.422  29.122  35.221  1.00  0.00     0.131 A 
ATOM     63  C   UNL A   1      45.045  27.056  37.021  1.00  0.00     0.055 A 
ATOM     64  C   UNL A   1      46.513  28.617  35.927  1.00  0.00     0.041 A 
ATOM     65  F   UNL A   1      45.643  30.145  34.380  1.00  0.00    -0.206 F 
ATOM     66  C   UNL A   1      46.326  27.585  36.843  1.00  0.00     0.022 A 
BRANCH  63  67
ATOM     67  S   UNL A   1      44.753  25.801  38.298  1.00  0.00     0.124 S 
ATOM     68  O   UNL A   1      46.103  25.311  38.556  1.00  0.00    -0.237 OA
ATOM     69  O   UNL A   1      44.140  26.580  39.369  1.00  0.00    -0.237 OA
ATOM     70  O   UNL A   1      43.862  24.846  37.642  1.00  0.00    -0.744 OA
ENDBRANCH  63  67
ENDBRANCH  37  60
ENDBRANCH  11  12
ENDBRANCH   4   6
ENDBRANCH   1   2
BRANCH   1  71
ATOM     71  C   UNL A   1      31.360  31.926  26.818  1.00  0.00     0.023 C 
BRANCH  71  72
ATOM     72  C   UNL A   1      31.422  30.864  25.717  1.00  0.00     0.023 C 
BRANCH  72  73
ATOM     73  C   UNL A   1      32.423  29.735  25.963  1.00  0.00     0.116 C 
BRANCH  73  74
ATOM     74  N   UNL A   1      31.774  28.558  26.508  1.00  0.00    -0.351 N 
ATOM     75  C   UNL A   1      31.399  27.407  25.866  1.00  0.00     0.273 C 
ATOM     76  H   UNL A   1      31.576  28.588  27.472  1.00  0.00     0.163 HD
ATOM     77  O   UNL A   1      30.665  26.612  26.460  1.00  0.00    -0.267 OA
BRANCH  75  78
ATOM     78  C   UNL A   1      31.854  27.160  24.507  1.00  0.00     0.174 A 
ATOM     79  N   UNL A   1      32.984  26.435  24.156  1.00  0.00    -0.211 NA
ATOM     80  C   UNL A   1      31.189  27.545  23.358  1.00  0.00     0.167 A 
ATOM     81  C   UNL A   1      32.941  26.409  22.845  1.00  0.00     0.309 A 
ATOM     82  O   UNL A   1      31.884  27.055  22.284  1.00  0.00    -0.443 OA
BRANCH  80  83
ATOM     83  C   UNL A   1      30.017  28.341  23.064  1.00  0.00     0.026 A 
ATOM     84  C   UNL A   1      30.151  29.594  22.453  1.00  0.00     0.051 A 
ATOM     85  C   UNL A   1      28.739  27.882  23.402  1.00  0.00     0.051 A 
ATOM     86  C   UNL A   1      29.023  30.368  22.197  1.00  0.00     0.126 A 
ATOM     87  C   UNL A   1      27.627  28.679  23.146  1.00  0.00     0.126 A 
ATOM     88  F   UNL A   1      29.163  31.557  21.599  1.00  0.00    -0.207 F 
ATOM     89  C   UNL A   1      27.756  29.923  22.545  1.00  0.00     0.078 A 
ATOM     90  F   UNL A   1      26.410  28.237  23.490  1.00  0.00    -0.207 F 
ENDBRANCH  80  83
ENDBRANCH  75  78
ENDBRANCH  73  74
ENDBRANCH  72  73
ENDBRANCH  71  72
ENDBRANCH   1  71
TORSDOF 15
ENDMDL
MODEL 2
REMARK VINA RESULT:     -12.0      1.425      1.748
REMARK SMILES O=C(NCCCCNC(=O)c1ncoc1-c1cc(F)cc(F)c1)c1ccc(-c2c3nc(c(-c4cc(S(=O)(=O)[O-])ccc4F)c4ccc([nH]4)c(-c4cc(S(=O)(=O)[O-])ccc4F)c4nc(c(-c5cc(S(=O)(=O)[O-])ccc5F)c5ccc2[nH]5)C=C4)C=C3)cc1
REMARK SMILES IDX 4 1 3 2 1 3 2 4 24 6 25 7 86 8 26 9 85 10 27 11 28 12 29 13
REMARK SMILES IDX 79 14 30 15 84 16 78 17 80 18 31 19 83 20 77 21 76 22 32 24
REMARK SMILES IDX 64 25 44 26 63 27 45 28 48 29 62 30 81 31 46 32 47 33 61 35
REMARK SMILES IDX 82 36 49 37 33 38 34 39 42 40 35 41 41 42 43 43 40 44 36 45
REMARK SMILES IDX 37 46 38 47 39 48 65 49 66 50 74 51 67 52 73 53 75 54 72 55
REMARK SMILES IDX 68 56 69 57 70 58 71 59 50 60 51 61 59 62 52 63 58 64 60 65
REMARK SMILES IDX 57 66 53 67 54 68 55 69 56 70 5 71 6 72 7 73 8 74 9 75 10 77
REMARK SMILES IDX 11 78 12 79 15 80 13 81 14 82 16 83 17 84 23 85 18 86 21 87
REMARK SMILES IDX 19 88 20 89 22 90
REMARK H PARENT 3 5 80 23 48 34 8 76
REMARK Flexibility Score: inf
ROOT
ATOM      1  C   UNL A   1      32.615  32.315  26.970  1.00  0.00     0.116 C 
ENDROOT
BRANCH   1   2
ATOM      2  N   UNL A   1      32.524  33.686  27.447  1.00  0.00    -0.352 N 
ATOM      3  O   UNL A   1      32.983  35.450  28.773  1.00  0.00    -0.269 OA
ATOM      4  C   UNL A   1      33.288  34.323  28.396  1.00  0.00     0.251 C 
ATOM      5  H   UNL A   1      31.818  34.234  27.033  1.00  0.00     0.163 HD
BRANCH   4   6
ATOM      6  C   UNL A   1      34.462  33.634  28.974  1.00  0.00     0.039 A 
ATOM      7  C   UNL A   1      34.303  32.465  29.724  1.00  0.00     0.014 A 
ATOM      8  C   UNL A   1      35.735  34.170  28.768  1.00  0.00     0.014 A 
ATOM      9  C   UNL A   1      35.399  31.907  30.374  1.00  0.00     0.010 A 
ATOM     10  C   UNL A   1      36.847  33.560  29.356  1.00  0.00     0.010 A 
ATOM     11  C   UNL A   1      36.684  32.439  30.186  1.00  0.00    -0.014 A 
BRANCH  11  12
ATOM     12  C   UNL A   1      37.852  31.773  30.817  1.00  0.00     0.031 A 
ATOM     13  C   UNL A   1      38.652  30.741  30.074  1.00  0.00     0.074 A 
ATOM     14  C   UNL A   1      38.186  32.114  32.078  1.00  0.00     0.049 A 
ATOM     15  N   UNL A   1      39.680  30.043  30.483  1.00  0.00    -0.248 NA
ATOM     16  C   UNL A   1      38.233  30.444  28.697  1.00  0.00     0.031 C 
ATOM     17  C   UNL A   1      37.470  33.095  32.898  1.00  0.00     0.029 A 
ATOM     18  N   UNL A   1      39.202  31.680  32.888  1.00  0.00    -0.354 N 
ATOM     19  C   UNL A   1      40.024  29.210  29.423  1.00  0.00     0.074 A 
ATOM     20  C   UNL A   1      39.067  29.469  28.366  1.00  0.00     0.031 C 
ATOM     21  C   UNL A   1      38.081  33.202  34.086  1.00  0.00     0.029 A 
ATOM     22  C   UNL A   1      39.186  32.252  34.138  1.00  0.00     0.049 A 
ATOM     23  H   UNL A   1      39.878  31.022  32.603  1.00  0.00     0.167 HD
ATOM     24  C   UNL A   1      41.048  28.321  29.341  1.00  0.00     0.034 A 
ATOM     25  C   UNL A   1      39.950  32.016  35.223  1.00  0.00     0.034 A 
ATOM     26  C   UNL A   1      41.988  28.079  30.412  1.00  0.00     0.049 A 
ATOM     27  C   UNL A   1      41.050  30.997  35.124  1.00  0.00     0.074 A 
ATOM     28  C   UNL A   1      43.091  27.242  30.420  1.00  0.00     0.029 A 
ATOM     29  N   UNL A   1      41.926  28.659  31.675  1.00  0.00    -0.354 N 
ATOM     30  N   UNL A   1      41.387  30.246  34.101  1.00  0.00    -0.248 NA
ATOM     31  C   UNL A   1      41.876  30.799  36.320  1.00  0.00     0.031 C 
ATOM     32  C   UNL A   1      43.647  27.257  31.705  1.00  0.00     0.029 A 
ATOM     33  C   UNL A   1      42.944  28.166  32.479  1.00  0.00     0.049 A 
ATOM     34  H   UNL A   1      41.256  29.323  31.957  1.00  0.00     0.167 HD
ATOM     35  C   UNL A   1      42.477  29.494  34.527  1.00  0.00     0.074 A 
ATOM     36  C   UNL A   1      42.749  29.898  35.893  1.00  0.00     0.031 C 
ATOM     37  C   UNL A   1      43.189  28.558  33.849  1.00  0.00     0.034 A 
BRANCH  24  38
ATOM     38  C   UNL A   1      41.166  27.512  28.068  1.00  0.00     0.023 A 
ATOM     39  C   UNL A   1      40.787  26.160  28.008  1.00  0.00     0.031 A 
ATOM     40  C   UNL A   1      41.700  28.095  26.904  1.00  0.00     0.131 A 
ATOM     41  C   UNL A   1      41.023  25.415  26.841  1.00  0.00     0.055 A 
ATOM     42  C   UNL A   1      41.854  27.371  25.720  1.00  0.00     0.041 A 
ATOM     43  F   UNL A   1      42.098  29.377  26.902  1.00  0.00    -0.206 F 
ATOM     44  C   UNL A   1      41.532  26.018  25.688  1.00  0.00     0.022 A 
BRANCH  41  45
ATOM     45  S   UNL A   1      40.809  23.615  26.903  1.00  0.00     0.124 S 
ATOM     46  O   UNL A   1      41.832  23.162  25.962  1.00  0.00    -0.237 OA
ATOM     47  O   UNL A   1      41.058  23.316  28.308  1.00  0.00    -0.237 OA
ATOM     48  O   UNL A   1      39.432  23.416  26.456  1.00  0.00    -0.744 OA
ENDBRANCH  41  45
ENDBRANCH  24  38
BRANCH  25  49
ATOM     49  C   UNL A   1      39.654  32.723  36.498  1.00  0.00     0.023 A 
ATOM     50  C   UNL A   1      38.670  32.256  37.382  1.00  0.00     0.031 A 
ATOM     51  C   UNL A   1      40.369  33.882  36.854  1.00  0.00     0.131 A 
ATOM     52  C   UNL A   1      38.411  32.960  38.569  1.00  0.00     0.055 A 
ATOM     53  C   UNL A   1      40.142  34.549  38.057  1.00  0.00     0.041 A 
ATOM     54  F   UNL A   1      41.326  34.364  36.044  1.00  0.00    -0.206 F 
ATOM     55  C   UNL A   1      39.151  34.093  38.920  1.00  0.00     0.022 A 
BRANCH  52  56
ATOM     56  S   UNL A   1      37.051  32.403  39.631  1.00  0.00     0.124 S 
ATOM     57  O   UNL A   1      35.894  32.615  38.769  1.00  0.00    -0.237 OA
ATOM     58  O   UNL A   1      37.415  31.013  39.886  1.00  0.00    -0.237 OA
ATOM     59  O   UNL A   1      37.138  33.289  40.789  1.00  0.00    -0.744 OA
ENDBRANCH  52  56
ENDBRANCH  25  49
BRANCH  37  60
ATOM     60  C   UNL A   1      44.354  27.932  34.575  1.00  0.00     0.023 A 
ATOM     61  C   UNL A   1      44.217  26.737  35.302  1.00  0.00     0.031 A 
ATOM     62  C   UNL A   1      45.617  28.551  34.549  1.00  0.00     0.131 A 
ATOM     63  C   UNL A   1      45.312  26.224  36.014  1.00  0.00     0.055 A 
ATOM     64  C   UNL A   1      46.716  28.005  35.212  1.00  0.00     0.041 A 
ATOM     65  F   UNL A   1      45.802  29.697  33.875  1.00  0.00    -0.206 F 
ATOM     66  C   UNL A   1      46.564  26.841  35.960  1.00  0.00     0.022 A 
BRANCH  63  67
ATOM     67  S   UNL A   1      45.058  24.780  37.083  1.00  0.00     0.124 S 
ATOM     68  O   UNL A   1      44.258  25.342  38.167  1.00  0.00    -0.237 OA
ATOM     69  O   UNL A   1      44.368  23.850  36.195  1.00  0.00    -0.237 OA
ATOM     70  O   UNL A   1      46.416  24.386  37.455  1.00  0.00    -0.744 OA
ENDBRANCH  63  67
ENDBRANCH  37  60
ENDBRANCH  11  12
ENDBRANCH   4   6
ENDBRANCH   1   2
BRANCH   1  71
ATOM     71  C   UNL A   1      31.282  31.772  26.467  1.00  0.00     0.023 C 
BRANCH  71  72
ATOM     72  C   UNL A   1      31.371  30.493  25.632  1.00  0.00     0.023 C 
BRANCH  72  73
ATOM     73  C   UNL A   1      32.330  29.432  26.173  1.00  0.00     0.116 C 
BRANCH  73  74
ATOM     74  N   UNL A   1      31.619  28.243  26.604  1.00  0.00    -0.351 N 
ATOM     75  C   UNL A   1      31.247  27.149  25.868  1.00  0.00     0.273 C 
ATOM     76  H   UNL A   1      31.371  28.218  27.556  1.00  0.00     0.163 HD
ATOM     77  O   UNL A   1      30.461  26.341  26.370  1.00  0.00    -0.267 OA
BRANCH  75  78
ATOM     78  C   UNL A   1      31.768  26.976  24.522  1.00  0.00     0.174 A 
ATOM     79  N   UNL A   1      32.918  26.273  24.187  1.00  0.00    -0.211 NA
ATOM     80  C   UNL A   1      31.157  27.419  23.364  1.00  0.00     0.167 A 
ATOM     81  C   UNL A   1      32.937  26.317  22.876  1.00  0.00     0.309 A 
ATOM     82  O   UNL A   1      31.904  26.989  22.300  1.00  0.00    -0.443 OA
BRANCH  80  83
ATOM     83  C   UNL A   1      29.995  28.226  23.056  1.00  0.00     0.026 A 
ATOM     84  C   UNL A   1      30.146  29.464  22.418  1.00  0.00     0.051 A 
ATOM     85  C   UNL A   1      28.712  27.793  23.408  1.00  0.00     0.051 A 
ATOM     86  C   UNL A   1      29.028  30.248  22.150  1.00  0.00     0.126 A 
ATOM     87  C   UNL A   1      27.611  28.601  23.138  1.00  0.00     0.126 A 
ATOM     88  F   UNL A   1      29.184  31.422  21.527  1.00  0.00    -0.207 F 
ATOM     89  C   UNL A   1      27.756  29.830  22.510  1.00  0.00     0.078 A 
ATOM     90  F   UNL A   1      26.389  28.184  23.495  1.00  0.00    -0.207 F 
ENDBRANCH  80  83
ENDBRANCH  75  78
ENDBRANCH  73  74
ENDBRANCH  72  73
ENDBRANCH  71  72
ENDBRANCH   1  71
TORSDOF 15
ENDMDL
MODEL 3
REMARK VINA RESULT:     -12.0      6.904     11.909
REMARK SMILES O=C(NCCCCNC(=O)c1ncoc1-c1cc(F)cc(F)c1)c1ccc(-c2c3nc(c(-c4cc(S(=O)(=O)[O-])ccc4F)c4ccc([nH]4)c(-c4cc(S(=O)(=O)[O-])ccc4F)c4nc(c(-c5cc(S(=O)(=O)[O-])ccc5F)c5ccc2[nH]5)C=C4)C=C3)cc1
REMARK SMILES IDX 4 1 3 2 1 3 2 4 24 6 25 7 86 8 26 9 85 10 27 11 28 12 29 13
REMARK SMILES IDX 79 14 30 15 84 16 78 17 80 18 31 19 83 20 77 21 76 22 32 24
REMARK SMILES IDX 64 25 44 26 63 27 45 28 48 29 62 30 81 31 46 32 47 33 61 35
REMARK SMILES IDX 82 36 49 37 33 38 34 39 42 40 35 41 41 42 43 43 40 44 36 45
REMARK SMILES IDX 37 46 38 47 39 48 65 49 66 50 74 51 67 52 73 53 75 54 72 55
REMARK SMILES IDX 68 56 69 57 70 58 71 59 50 60 51 61 59 62 52 63 58 64 60 65
REMARK SMILES IDX 57 66 53 67 54 68 55 69 56 70 5 71 6 72 7 73 8 74 9 75 10 77
REMARK SMILES IDX 11 78 12 79 15 80 13 81 14 82 16 83 17 84 23 85 18 86 21 87
REMARK SMILES IDX 19 88 20 89 22 90
REMARK H PARENT 3 5 80 23 48 34 8 76
REMARK Flexibility Score: inf
ROOT
ATOM      1  C   UNL A   1      38.832  20.272  25.835  1.00  0.00     0.116 C 
ENDROOT
BRANCH   1   2
ATOM      2  N   UNL A   1      39.917  19.308  25.927  1.00  0.00    -0.352 N 
ATOM      3  O   UNL A   1      42.055  18.605  26.050  1.00  0.00    -0.269 OA
ATOM      4  C   UNL A   1      41.257  19.533  26.136  1.00  0.00     0.251 C 
ATOM      5  H   UNL A   1      39.656  18.364  25.825  1.00  0.00     0.163 HD
BRANCH   4   6
ATOM      6  C   UNL A   1      41.731  20.901  26.442  1.00  0.00     0.039 A 
ATOM      7  C   UNL A   1      41.993  21.285  27.760  1.00  0.00     0.014 A 
ATOM      8  C   UNL A   1      41.908  21.808  25.396  1.00  0.00     0.014 A 
ATOM      9  C   UNL A   1      42.304  22.610  28.044  1.00  0.00     0.010 A 
ATOM     10  C   UNL A   1      42.301  23.121  25.676  1.00  0.00     0.010 A 
ATOM     11  C   UNL A   1      42.475  23.539  27.005  1.00  0.00    -0.014 A 
BRANCH  11  12
ATOM     12  C   UNL A   1      42.897  24.927  27.325  1.00  0.00     0.031 A 
ATOM     13  C   UNL A   1      41.960  25.888  28.000  1.00  0.00     0.074 A 
ATOM     14  C   UNL A   1      44.146  25.312  26.998  1.00  0.00     0.049 A 
ATOM     15  N   UNL A   1      42.155  27.140  28.325  1.00  0.00    -0.248 NA
ATOM     16  C   UNL A   1      40.624  25.379  28.342  1.00  0.00     0.031 C 
ATOM     17  C   UNL A   1      45.136  24.466  26.327  1.00  0.00     0.029 A 
ATOM     18  N   UNL A   1      44.797  26.505  27.179  1.00  0.00    -0.354 N 
ATOM     19  C   UNL A   1      40.964  27.578  28.894  1.00  0.00     0.074 A 
ATOM     20  C   UNL A   1      40.041  26.463  28.834  1.00  0.00     0.031 C 
ATOM     21  C   UNL A   1      46.273  25.158  26.173  1.00  0.00     0.029 A 
ATOM     22  C   UNL A   1      46.073  26.514  26.668  1.00  0.00     0.049 A 
ATOM     23  H   UNL A   1      44.390  27.279  27.632  1.00  0.00     0.167 HD
ATOM     24  C   UNL A   1      40.675  28.796  29.422  1.00  0.00     0.034 A 
ATOM     25  C   UNL A   1      46.974  27.512  26.572  1.00  0.00     0.034 A 
ATOM     26  C   UNL A   1      41.614  29.895  29.466  1.00  0.00     0.049 A 
ATOM     27  C   UNL A   1      46.618  28.863  27.125  1.00  0.00     0.074 A 
ATOM     28  C   UNL A   1      41.446  31.152  30.023  1.00  0.00     0.029 A 
ATOM     29  N   UNL A   1      42.891  29.877  28.916  1.00  0.00    -0.354 N 
ATOM     30  N   UNL A   1      45.501  29.251  27.695  1.00  0.00    -0.248 NA
ATOM     31  C   UNL A   1      47.643  29.908  27.028  1.00  0.00     0.031 C 
ATOM     32  C   UNL A   1      42.586  31.914  29.743  1.00  0.00     0.029 A 
ATOM     33  C   UNL A   1      43.502  31.111  29.083  1.00  0.00     0.049 A 
ATOM     34  H   UNL A   1      43.301  29.100  28.471  1.00  0.00     0.167 HD
ATOM     35  C   UNL A   1      45.695  30.584  28.039  1.00  0.00     0.074 A 
ATOM     36  C   UNL A   1      47.043  30.925  27.628  1.00  0.00     0.031 C 
ATOM     37  C   UNL A   1      44.838  31.446  28.644  1.00  0.00     0.034 A 
BRANCH  24  38
ATOM     38  C   UNL A   1      39.272  29.012  29.945  1.00  0.00     0.023 A 
ATOM     39  C   UNL A   1      38.267  29.603  29.158  1.00  0.00     0.031 A 
ATOM     40  C   UNL A   1      38.943  28.652  31.265  1.00  0.00     0.131 A 
ATOM     41  C   UNL A   1      37.013  29.891  29.720  1.00  0.00     0.055 A 
ATOM     42  C   UNL A   1      37.668  28.865  31.792  1.00  0.00     0.041 A 
ATOM     43  F   UNL A   1      39.863  28.101  32.073  1.00  0.00    -0.206 F 
ATOM     44  C   UNL A   1      36.699  29.505  31.025  1.00  0.00     0.022 A 
BRANCH  41  45
ATOM     45  S   UNL A   1      35.858  30.924  28.778  1.00  0.00     0.124 S 
ATOM     46  O   UNL A   1      36.772  31.734  27.974  1.00  0.00    -0.237 OA
ATOM     47  O   UNL A   1      35.073  29.935  28.049  1.00  0.00    -0.237 OA
ATOM     48  O   UNL A   1      35.133  31.660  29.811  1.00  0.00    -0.744 OA
ENDBRANCH  41  45
ENDBRANCH  24  38
BRANCH  25  49
ATOM     49  C   UNL A   1      48.268  27.269  25.879  1.00  0.00     0.023 A 
ATOM     50  C   UNL A   1      48.395  27.428  24.491  1.00  0.00     0.031 A 
ATOM     51  C   UNL A   1      49.407  26.881  26.609  1.00  0.00     0.131 A 
ATOM     52  C   UNL A   1      49.630  27.175  23.872  1.00  0.00     0.055 A 
ATOM     53  C   UNL A   1      50.643  26.679  25.996  1.00  0.00     0.041 A 
ATOM     54  F   UNL A   1      49.338  26.723  27.941  1.00  0.00    -0.206 F 
ATOM     55  C   UNL A   1      50.758  26.818  24.617  1.00  0.00     0.022 A 
BRANCH  52  56
ATOM     56  S   UNL A   1      49.732  27.269  22.065  1.00  0.00     0.124 S 
ATOM     57  O   UNL A   1      51.135  26.949  21.829  1.00  0.00    -0.237 OA
ATOM     58  O   UNL A   1      48.764  26.257  21.653  1.00  0.00    -0.237 OA
ATOM     59  O   UNL A   1      49.348  28.648  21.773  1.00  0.00    -0.744 OA
ENDBRANCH  52  56
ENDBRANCH  25  49
BRANCH  37  60
ATOM     60  C   UNL A   1      45.356  32.836  28.922  1.00  0.00     0.023 A 
ATOM     61  C   UNL A   1      45.211  33.879  27.991  1.00  0.00     0.031 A 
ATOM     62  C   UNL A   1      46.015  33.115  30.132  1.00  0.00     0.131 A 
ATOM     63  C   UNL A   1      45.762  35.141  28.265  1.00  0.00     0.055 A 
ATOM     64  C   UNL A   1      46.511  34.386  30.422  1.00  0.00     0.041 A 
ATOM     65  F   UNL A   1      46.186  32.154  31.054  1.00  0.00    -0.206 F 
ATOM     66  C   UNL A   1      46.396  35.405  29.481  1.00  0.00     0.022 A 
BRANCH  63  67
ATOM     67  S   UNL A   1      45.712  36.413  26.972  1.00  0.00     0.124 S 
ATOM     68  O   UNL A   1      44.296  36.761  26.943  1.00  0.00    -0.237 OA
ATOM     69  O   UNL A   1      46.611  37.433  27.502  1.00  0.00    -0.237 OA
ATOM     70  O   UNL A   1      46.203  35.714  25.785  1.00  0.00    -0.744 OA
ENDBRANCH  63  67
ENDBRANCH  37  60
ENDBRANCH  11  12
ENDBRANCH   4   6
ENDBRANCH   1   2
BRANCH   1  71
ATOM     71  C   UNL A   1      37.813  19.918  24.758  1.00  0.00     0.023 C 
BRANCH  71  72
ATOM     72  C   UNL A   1      36.393  20.430  25.008  1.00  0.00     0.023 C 
BRANCH  72  73
ATOM     73  C   UNL A   1      36.266  21.949  25.132  1.00  0.00     0.116 C 
BRANCH  73  74
ATOM     74  N   UNL A   1      35.775  22.544  23.903  1.00  0.00    -0.351 N 
ATOM     75  C   UNL A   1      34.489  22.871  23.559  1.00  0.00     0.273 C 
ATOM     76  H   UNL A   1      36.459  22.741  23.224  1.00  0.00     0.163 HD
ATOM     77  O   UNL A   1      34.251  23.167  22.385  1.00  0.00    -0.267 OA
BRANCH  75  78
ATOM     78  C   UNL A   1      33.445  22.844  24.569  1.00  0.00     0.174 A 
ATOM     79  N   UNL A   1      32.999  23.940  25.296  1.00  0.00    -0.211 NA
ATOM     80  C   UNL A   1      32.685  21.740  24.906  1.00  0.00     0.167 A 
ATOM     81  C   UNL A   1      32.009  23.458  26.008  1.00  0.00     0.309 A 
ATOM     82  O   UNL A   1      31.752  22.134  25.828  1.00  0.00    -0.443 OA
BRANCH  80  83
ATOM     83  C   UNL A   1      32.691  20.337  24.549  1.00  0.00     0.026 A 
ATOM     84  C   UNL A   1      32.468  19.947  23.222  1.00  0.00     0.051 A 
ATOM     85  C   UNL A   1      32.898  19.354  25.522  1.00  0.00     0.051 A 
ATOM     86  C   UNL A   1      32.448  18.596  22.890  1.00  0.00     0.126 A 
ATOM     87  C   UNL A   1      32.861  18.009  25.166  1.00  0.00     0.126 A 
ATOM     88  F   UNL A   1      32.248  18.235  21.616  1.00  0.00    -0.207 F 
ATOM     89  C   UNL A   1      32.637  17.617  23.854  1.00  0.00     0.078 A 
ATOM     90  F   UNL A   1      33.044  17.076  26.110  1.00  0.00    -0.207 F 
ENDBRANCH  80  83
ENDBRANCH  75  78
ENDBRANCH  73  74
ENDBRANCH  72  73
ENDBRANCH  71  72
ENDBRANCH   1  71
TORSDOF 15
ENDMDL
