MODEL 1
REMARK VINA RESULT:     -13.6      0.000      0.000
REMARK SMILES NS(=O)(=O)c1ccc(-n2nc(C(=O)NCCCCNC(=O)c3ccc(-c4c5nc(c(-c6cc(S(=O)(=O)[O-])ccc6F)c6ccc([nH]6)c(-c6cc(S(=O)(=O)[O-])ccc6F)c6nc(c(-c7cc(S(=O)(=O)[O-])ccc7F)c7ccc4[nH]7)C=C6)C=C5)cc3)c(Cl)c2-c2ccc(Cl)cc2)cc1
REMARK SMILES IDX 16 1 15 2 14 3 12 4 13 5 11 7 9 8 10 9 87 10 85 11 86 12
REMARK SMILES IDX 8 13 5 14 6 15 96 16 7 17 95 18 2 19 3 20 4 21 1 22 88 25
REMARK SMILES IDX 89 26 94 27 90 28 93 29 91 30 92 31 17 32 18 33 19 34 20 35
REMARK SMILES IDX 21 37 22 38 23 39 84 40 24 41 83 42 25 43 26 44 27 45 77 46
REMARK SMILES IDX 28 47 82 48 76 49 78 50 29 51 81 52 75 53 74 54 30 56 62 57
REMARK SMILES IDX 42 58 61 59 43 60 46 61 60 62 79 63 44 64 45 65 59 67 80 68
REMARK SMILES IDX 47 69 31 70 32 71 40 72 33 73 39 74 41 75 38 76 34 77 35 78
REMARK SMILES IDX 36 79 37 80 63 81 64 82 72 83 65 84 71 85 73 86 70 87 66 88
REMARK SMILES IDX 67 89 68 90 69 91 48 92 49 93 57 94 50 95 56 96 58 97 55 98
REMARK SMILES IDX 51 99 52 100 53 101 54 102
REMARK H PARENT 14 6 1 23 1 24 19 36 78 55 46 66
REMARK Flexibility Score: inf
ROOT
ATOM      1  C   UNL A   1      36.144  20.632  25.035  1.00  0.00     0.023 C 
ENDROOT
BRANCH   1   2
ATOM      2  C   UNL A   1      35.248  21.824  24.652  1.00  0.00     0.116 C 
BRANCH   2   3
ATOM      3  N   UNL A   1      33.993  21.381  24.058  1.00  0.00    -0.351 N 
ATOM      4  C   UNL A   1      32.767  21.983  23.843  1.00  0.00     0.273 C 
ATOM      5  O   UNL A   1      31.933  21.274  23.271  1.00  0.00    -0.267 OA
ATOM      6  H   UNL A   1      34.026  20.450  23.741  1.00  0.00     0.163 HD
BRANCH   4   7
ATOM      7  C   UNL A   1      32.466  23.392  24.194  1.00  0.00     0.169 A 
ATOM      8  N   UNL A   1      31.700  25.390  23.869  1.00  0.00    -0.231 N 
ATOM      9  N   UNL A   1      31.656  24.127  23.385  1.00  0.00    -0.160 NA
ATOM     10  C   UNL A   1      32.512  25.489  24.978  1.00  0.00     0.094 A 
ATOM     11  C   UNL A   1      32.777  24.180  25.325  1.00  0.00     0.100 A 
ATOM     12  Cl  UNL A   1      33.267  23.746  26.891  1.00  0.00    -0.079 Cl
BRANCH   8  13
ATOM     13  C   UNL A   1      30.830  26.408  23.400  1.00  0.00     0.065 A 
ATOM     14  C   UNL A   1      29.217  28.623  22.924  1.00  0.00     0.082 A 
ATOM     15  C   UNL A   1      28.663  27.478  23.510  1.00  0.00     0.024 A 
ATOM     16  C   UNL A   1      30.557  28.644  22.526  1.00  0.00     0.024 A 
ATOM     17  C   UNL A   1      29.467  26.352  23.727  1.00  0.00     0.030 A 
ATOM     18  C   UNL A   1      31.370  27.543  22.783  1.00  0.00     0.030 A 
BRANCH  14  19
ATOM     19  S   UNL A   1      28.246  30.080  22.681  1.00  0.00     0.238 S 
ATOM     20  O   UNL A   1      29.105  31.245  22.819  1.00  0.00    -0.207 OA
ATOM     21  O   UNL A   1      27.014  29.939  23.403  1.00  0.00    -0.207 OA
BRANCH  19  22
ATOM     22  N   UNL A   1      27.845  30.041  21.051  1.00  0.00    -0.225 NA
ATOM     23  H   UNL A   1      27.038  29.432  20.913  1.00  0.00     0.137 HD
ATOM     24  H   UNL A   1      28.636  29.686  20.514  1.00  0.00     0.137 HD
ENDBRANCH  19  22
ENDBRANCH  14  19
ENDBRANCH   8  13
BRANCH  10  25
ATOM     25  C   UNL A   1      32.755  26.652  25.822  1.00  0.00     0.002 A 
ATOM     26  C   UNL A   1      31.708  27.128  26.622  1.00  0.00     0.012 A 
ATOM     27  C   UNL A   1      33.898  27.434  25.625  1.00  0.00     0.012 A 
ATOM     28  C   UNL A   1      31.780  28.405  27.178  1.00  0.00     0.021 A 
ATOM     29  C   UNL A   1      33.966  28.713  26.180  1.00  0.00     0.021 A 
ATOM     30  C   UNL A   1      32.899  29.199  26.935  1.00  0.00     0.041 A 
ATOM     31  Cl  UNL A   1      32.944  30.812  27.526  1.00  0.00    -0.084 Cl
ENDBRANCH  10  25
ENDBRANCH   4   7
ENDBRANCH   2   3
ENDBRANCH   1   2
BRANCH   1  32
ATOM     32  C   UNL A   1      37.599  20.646  24.558  1.00  0.00     0.023 C 
BRANCH  32  33
ATOM     33  C   UNL A   1      38.623  20.797  25.672  1.00  0.00     0.116 C 
BRANCH  33  34
ATOM     34  N   UNL A   1      39.523  19.643  25.816  1.00  0.00    -0.352 N 
ATOM     35  C   UNL A   1      40.902  19.665  25.976  1.00  0.00     0.251 C 
ATOM     36  H   UNL A   1      39.098  18.755  25.799  1.00  0.00     0.163 HD
ATOM     37  O   UNL A   1      41.593  18.697  25.685  1.00  0.00    -0.269 OA
BRANCH  35  38
ATOM     38  C   UNL A   1      41.503  20.890  26.532  1.00  0.00     0.039 A 
ATOM     39  C   UNL A   1      42.093  21.882  25.743  1.00  0.00     0.014 A 
ATOM     40  C   UNL A   1      41.345  21.063  27.901  1.00  0.00     0.014 A 
ATOM     41  C   UNL A   1      42.433  23.094  26.347  1.00  0.00     0.010 A 
ATOM     42  C   UNL A   1      41.459  22.316  28.427  1.00  0.00     0.010 A 
ATOM     43  C   UNL A   1      42.087  23.312  27.690  1.00  0.00    -0.014 A 
BRANCH  43  44
ATOM     44  C   UNL A   1      42.254  24.600  28.352  1.00  0.00     0.031 A 
ATOM     45  C   UNL A   1      41.109  25.532  28.190  1.00  0.00     0.074 A 
ATOM     46  C   UNL A   1      43.233  24.824  29.261  1.00  0.00     0.049 A 
ATOM     47  N   UNL A   1      41.072  26.612  27.483  1.00  0.00    -0.248 NA
ATOM     48  C   UNL A   1      39.797  25.143  28.734  1.00  0.00     0.031 C 
ATOM     49  C   UNL A   1      44.251  23.892  29.765  1.00  0.00     0.029 A 
ATOM     50  N   UNL A   1      43.449  25.922  30.032  1.00  0.00    -0.354 N 
ATOM     51  C   UNL A   1      39.825  27.180  27.719  1.00  0.00     0.074 A 
ATOM     52  C   UNL A   1      39.020  26.130  28.282  1.00  0.00     0.031 C 
ATOM     53  C   UNL A   1      44.789  24.373  30.909  1.00  0.00     0.029 A 
ATOM     54  C   UNL A   1      44.295  25.721  31.121  1.00  0.00     0.049 A 
ATOM     55  H   UNL A   1      43.038  26.794  29.834  1.00  0.00     0.167 HD
ATOM     56  C   UNL A   1      39.654  28.533  27.684  1.00  0.00     0.034 A 
ATOM     57  C   UNL A   1      44.557  26.597  32.130  1.00  0.00     0.034 A 
ATOM     58  C   UNL A   1      40.793  29.178  27.060  1.00  0.00     0.049 A 
ATOM     59  C   UNL A   1      44.229  27.945  31.596  1.00  0.00     0.074 A 
ATOM     60  C   UNL A   1      41.429  29.043  25.839  1.00  0.00     0.029 A 
ATOM     61  N   UNL A   1      41.710  29.808  27.874  1.00  0.00    -0.354 N 
ATOM     62  N   UNL A   1      44.876  28.491  30.602  1.00  0.00    -0.248 NA
ATOM     63  C   UNL A   1      42.875  28.442  31.800  1.00  0.00     0.031 C 
ATOM     64  C   UNL A   1      42.822  29.077  26.152  1.00  0.00     0.029 A 
ATOM     65  C   UNL A   1      42.955  29.343  27.516  1.00  0.00     0.049 A 
ATOM     66  H   UNL A   1      41.513  30.467  28.579  1.00  0.00     0.167 HD
ATOM     67  C   UNL A   1      43.894  29.050  29.798  1.00  0.00     0.074 A 
ATOM     68  C   UNL A   1      42.689  29.065  30.632  1.00  0.00     0.031 C 
ATOM     69  C   UNL A   1      44.057  29.171  28.445  1.00  0.00     0.034 A 
BRANCH  56  70
ATOM     70  C   UNL A   1      38.671  29.311  28.536  1.00  0.00     0.023 A 
ATOM     71  C   UNL A   1      38.930  29.367  29.919  1.00  0.00     0.031 A 
ATOM     72  C   UNL A   1      37.383  29.739  28.138  1.00  0.00     0.131 A 
ATOM     73  C   UNL A   1      37.918  29.707  30.833  1.00  0.00     0.055 A 
ATOM     74  C   UNL A   1      36.403  30.148  29.047  1.00  0.00     0.041 A 
ATOM     75  F   UNL A   1      36.963  29.700  26.870  1.00  0.00    -0.206 F 
ATOM     76  C   UNL A   1      36.653  30.098  30.406  1.00  0.00     0.022 A 
BRANCH  73  77
ATOM     77  S   UNL A   1      38.233  29.441  32.595  1.00  0.00     0.124 S 
ATOM     78  O   UNL A   1      37.467  28.225  32.849  1.00  0.00    -0.237 OA
ATOM     79  O   UNL A   1      39.685  29.306  32.622  1.00  0.00    -0.237 OA
ATOM     80  O   UNL A   1      37.708  30.653  33.220  1.00  0.00    -0.744 OA
ENDBRANCH  73  77
ENDBRANCH  56  70
BRANCH  57  81
ATOM     81  C   UNL A   1      44.737  26.306  33.584  1.00  0.00     0.023 A 
ATOM     82  C   UNL A   1      43.715  26.513  34.540  1.00  0.00     0.031 A 
ATOM     83  C   UNL A   1      45.857  25.560  34.016  1.00  0.00     0.131 A 
ATOM     84  C   UNL A   1      43.835  25.978  35.848  1.00  0.00     0.055 A 
ATOM     85  C   UNL A   1      45.967  25.030  35.306  1.00  0.00     0.041 A 
ATOM     86  F   UNL A   1      46.850  25.242  33.171  1.00  0.00    -0.206 F 
ATOM     87  C   UNL A   1      44.950  25.225  36.224  1.00  0.00     0.022 A 
BRANCH  84  88
ATOM     88  S   UNL A   1      42.487  26.165  37.064  1.00  0.00     0.124 S 
ATOM     89  O   UNL A   1      41.642  25.014  36.768  1.00  0.00    -0.237 OA
ATOM     90  O   UNL A   1      43.200  26.138  38.336  1.00  0.00    -0.237 OA
ATOM     91  O   UNL A   1      41.898  27.461  36.724  1.00  0.00    -0.744 OA
ENDBRANCH  84  88
ENDBRANCH  57  81
BRANCH  69  92
ATOM     92  C   UNL A   1      45.430  28.915  27.846  1.00  0.00     0.023 A 
ATOM     93  C   UNL A   1      45.849  27.702  27.248  1.00  0.00     0.031 A 
ATOM     94  C   UNL A   1      46.306  30.012  27.766  1.00  0.00     0.131 A 
ATOM     95  C   UNL A   1      47.109  27.624  26.615  1.00  0.00     0.055 A 
ATOM     96  C   UNL A   1      47.538  29.939  27.119  1.00  0.00     0.041 A 
ATOM     97  F   UNL A   1      45.958  31.199  28.290  1.00  0.00    -0.206 F 
ATOM     98  C   UNL A   1      47.948  28.741  26.545  1.00  0.00     0.022 A 
BRANCH  95  99
ATOM     99  S   UNL A   1      47.695  26.060  25.879  1.00  0.00     0.124 S 
ATOM    100  O   UNL A   1      47.221  25.044  26.811  1.00  0.00    -0.237 OA
ATOM    101  O   UNL A   1      47.058  26.067  24.565  1.00  0.00    -0.237 OA
ATOM    102  O   UNL A   1      49.150  26.224  25.847  1.00  0.00    -0.744 OA
ENDBRANCH  95  99
ENDBRANCH  69  92
ENDBRANCH  43  44
ENDBRANCH  35  38
ENDBRANCH  33  34
ENDBRANCH  32  33
ENDBRANCH   1  32
TORSDOF 18
ENDMDL
MODEL 2
REMARK VINA RESULT:     -12.8      4.133      5.412
REMARK SMILES NS(=O)(=O)c1ccc(-n2nc(C(=O)NCCCCNC(=O)c3ccc(-c4c5nc(c(-c6cc(S(=O)(=O)[O-])ccc6F)c6ccc([nH]6)c(-c6cc(S(=O)(=O)[O-])ccc6F)c6nc(c(-c7cc(S(=O)(=O)[O-])ccc7F)c7ccc4[nH]7)C=C6)C=C5)cc3)c(Cl)c2-c2ccc(Cl)cc2)cc1
REMARK SMILES IDX 16 1 15 2 14 3 12 4 13 5 11 7 9 8 10 9 87 10 85 11 86 12
REMARK SMILES IDX 8 13 5 14 6 15 96 16 7 17 95 18 2 19 3 20 4 21 1 22 88 25
REMARK SMILES IDX 89 26 94 27 90 28 93 29 91 30 92 31 17 32 18 33 19 34 20 35
REMARK SMILES IDX 21 37 22 38 23 39 84 40 24 41 83 42 25 43 26 44 27 45 77 46
REMARK SMILES IDX 28 47 82 48 76 49 78 50 29 51 81 52 75 53 74 54 30 56 62 57
REMARK SMILES IDX 42 58 61 59 43 60 46 61 60 62 79 63 44 64 45 65 59 67 80 68
REMARK SMILES IDX 47 69 31 70 32 71 40 72 33 73 39 74 41 75 38 76 34 77 35 78
REMARK SMILES IDX 36 79 37 80 63 81 64 82 72 83 65 84 71 85 73 86 70 87 66 88
REMARK SMILES IDX 67 89 68 90 69 91 48 92 49 93 57 94 50 95 56 96 58 97 55 98
REMARK SMILES IDX 51 99 52 100 53 101 54 102
REMARK H PARENT 14 6 1 23 1 24 19 36 78 55 46 66
REMARK Flexibility Score: inf
ROOT
ATOM      1  C   UNL A   1      36.657  22.357  24.988  1.00  0.00     0.023 C 
ENDROOT
BRANCH   1   2
ATOM      2  C   UNL A   1      35.444  21.689  25.662  1.00  0.00     0.116 C 
BRANCH   2   3
ATOM      3  N   UNL A   1      34.454  21.263  24.681  1.00  0.00    -0.351 N 
ATOM      4  C   UNL A   1      33.343  21.860  24.116  1.00  0.00     0.273 C 
ATOM      5  O   UNL A   1      32.752  21.172  23.277  1.00  0.00    -0.267 OA
ATOM      6  H   UNL A   1      34.611  20.350  24.349  1.00  0.00     0.163 HD
BRANCH   4   7
ATOM      7  C   UNL A   1      32.908  23.246  24.416  1.00  0.00     0.169 A 
ATOM      8  N   UNL A   1      31.959  25.150  24.020  1.00  0.00    -0.231 N 
ATOM      9  N   UNL A   1      32.038  23.873  23.579  1.00  0.00    -0.160 NA
ATOM     10  C   UNL A   1      32.750  25.363  25.128  1.00  0.00     0.094 A 
ATOM     11  C   UNL A   1      33.134  24.097  25.521  1.00  0.00     0.100 A 
ATOM     12  Cl  UNL A   1      33.650  23.765  27.103  1.00  0.00    -0.079 Cl
BRANCH   8  13
ATOM     13  C   UNL A   1      31.001  26.065  23.512  1.00  0.00     0.065 A 
ATOM     14  C   UNL A   1      29.238  28.133  22.922  1.00  0.00     0.082 A 
ATOM     15  C   UNL A   1      28.795  27.043  23.682  1.00  0.00     0.024 A 
ATOM     16  C   UNL A   1      30.539  28.165  22.411  1.00  0.00     0.024 A 
ATOM     17  C   UNL A   1      29.674  25.988  23.959  1.00  0.00     0.030 A 
ATOM     18  C   UNL A   1      31.428  27.140  22.723  1.00  0.00     0.030 A 
BRANCH  14  19
ATOM     19  S   UNL A   1      28.174  29.506  22.595  1.00  0.00     0.238 S 
ATOM     20  O   UNL A   1      28.219  29.808  21.174  1.00  0.00    -0.207 OA
ATOM     21  O   UNL A   1      28.385  30.504  23.604  1.00  0.00    -0.207 OA
BRANCH  19  22
ATOM     22  N   UNL A   1      26.628  28.899  22.849  1.00  0.00    -0.225 NA
ATOM     23  H   UNL A   1      26.438  28.861  23.850  1.00  0.00     0.137 HD
ATOM     24  H   UNL A   1      26.561  27.962  22.453  1.00  0.00     0.137 HD
ENDBRANCH  19  22
ENDBRANCH  14  19
ENDBRANCH   8  13
BRANCH  10  25
ATOM     25  C   UNL A   1      32.875  26.572  25.932  1.00  0.00     0.002 A 
ATOM     26  C   UNL A   1      31.757  27.017  26.649  1.00  0.00     0.012 A 
ATOM     27  C   UNL A   1      33.982  27.411  25.768  1.00  0.00     0.012 A 
ATOM     28  C   UNL A   1      31.723  28.317  27.151  1.00  0.00     0.021 A 
ATOM     29  C   UNL A   1      33.944  28.713  26.269  1.00  0.00     0.021 A 
ATOM     30  C   UNL A   1      32.808  29.166  26.939  1.00  0.00     0.041 A 
ATOM     31  Cl  UNL A   1      32.726  30.802  27.460  1.00  0.00    -0.084 Cl
ENDBRANCH  10  25
ENDBRANCH   4   7
ENDBRANCH   2   3
ENDBRANCH   1   2
BRANCH   1  32
ATOM     32  C   UNL A   1      36.925  23.833  25.292  1.00  0.00     0.023 C 
BRANCH  32  33
ATOM     33  C   UNL A   1      37.820  24.072  26.499  1.00  0.00     0.116 C 
BRANCH  33  34
ATOM     34  N   UNL A   1      39.256  24.058  26.189  1.00  0.00    -0.352 N 
ATOM     35  C   UNL A   1      40.162  25.100  26.343  1.00  0.00     0.251 C 
ATOM     36  H   UNL A   1      39.617  23.214  25.832  1.00  0.00     0.163 HD
ATOM     37  O   UNL A   1      41.205  25.138  25.702  1.00  0.00    -0.269 OA
BRANCH  35  38
ATOM     38  C   UNL A   1      39.832  26.147  27.325  1.00  0.00     0.039 A 
ATOM     39  C   UNL A   1      39.427  25.871  28.634  1.00  0.00     0.014 A 
ATOM     40  C   UNL A   1      40.062  27.452  26.906  1.00  0.00     0.014 A 
ATOM     41  C   UNL A   1      39.352  26.929  29.542  1.00  0.00     0.010 A 
ATOM     42  C   UNL A   1      40.214  28.430  27.844  1.00  0.00     0.010 A 
ATOM     43  C   UNL A   1      39.773  28.207  29.142  1.00  0.00    -0.014 A 
BRANCH  43  44
ATOM     44  C   UNL A   1      39.884  29.330  30.066  1.00  0.00     0.031 A 
ATOM     45  C   UNL A   1      38.616  30.069  30.295  1.00  0.00     0.074 A 
ATOM     46  C   UNL A   1      40.969  29.512  30.855  1.00  0.00     0.049 A 
ATOM     47  N   UNL A   1      38.315  31.255  29.884  1.00  0.00    -0.248 NA
ATOM     48  C   UNL A   1      37.482  29.357  30.908  1.00  0.00     0.031 C 
ATOM     49  C   UNL A   1      42.172  28.676  30.971  1.00  0.00     0.029 A 
ATOM     50  N   UNL A   1      41.171  30.435  31.831  1.00  0.00    -0.354 N 
ATOM     51  C   UNL A   1      37.065  31.542  30.422  1.00  0.00     0.074 A 
ATOM     52  C   UNL A   1      36.515  30.274  30.821  1.00  0.00     0.031 C 
ATOM     53  C   UNL A   1      42.835  28.979  32.110  1.00  0.00     0.029 A 
ATOM     54  C   UNL A   1      42.214  30.147  32.709  1.00  0.00     0.049 A 
ATOM     55  H   UNL A   1      40.622  31.248  31.909  1.00  0.00     0.167 HD
ATOM     56  C   UNL A   1      36.717  32.821  30.740  1.00  0.00     0.034 A 
ATOM     57  C   UNL A   1      42.532  30.813  33.854  1.00  0.00     0.034 A 
ATOM     58  C   UNL A   1      37.635  33.768  30.137  1.00  0.00     0.049 A 
ATOM     59  C   UNL A   1      41.942  32.170  33.713  1.00  0.00     0.074 A 
ATOM     60  C   UNL A   1      38.058  34.011  28.843  1.00  0.00     0.029 A 
ATOM     61  N   UNL A   1      38.590  34.351  30.943  1.00  0.00    -0.354 N 
ATOM     62  N   UNL A   1      42.329  33.020  32.800  1.00  0.00    -0.248 NA
ATOM     63  C   UNL A   1      40.592  32.376  34.219  1.00  0.00     0.031 C 
ATOM     64  C   UNL A   1      39.468  34.209  28.957  1.00  0.00     0.029 A 
ATOM     65  C   UNL A   1      39.802  34.190  30.312  1.00  0.00     0.049 A 
ATOM     66  H   UNL A   1      38.435  34.797  31.807  1.00  0.00     0.167 HD
ATOM     67  C   UNL A   1      41.157  33.569  32.301  1.00  0.00     0.074 A 
ATOM     68  C   UNL A   1      40.125  33.199  33.274  1.00  0.00     0.031 C 
ATOM     69  C   UNL A   1      41.063  34.007  31.009  1.00  0.00     0.034 A 
BRANCH  56  70
ATOM     70  C   UNL A   1      35.805  33.219  31.883  1.00  0.00     0.023 A 
ATOM     71  C   UNL A   1      34.821  34.188  31.607  1.00  0.00     0.031 A 
ATOM     72  C   UNL A   1      36.017  32.938  33.253  1.00  0.00     0.131 A 
ATOM     73  C   UNL A   1      34.197  34.904  32.643  1.00  0.00     0.055 A 
ATOM     74  C   UNL A   1      35.340  33.603  34.280  1.00  0.00     0.041 A 
ATOM     75  F   UNL A   1      36.949  32.083  33.684  1.00  0.00    -0.206 F 
ATOM     76  C   UNL A   1      34.451  34.618  33.981  1.00  0.00     0.022 A 
BRANCH  73  77
ATOM     77  S   UNL A   1      33.195  36.345  32.202  1.00  0.00     0.124 S 
ATOM     78  O   UNL A   1      33.874  37.409  32.936  1.00  0.00    -0.237 OA
ATOM     79  O   UNL A   1      33.335  36.374  30.750  1.00  0.00    -0.237 OA
ATOM     80  O   UNL A   1      31.864  35.996  32.694  1.00  0.00    -0.744 OA
ENDBRANCH  73  77
ENDBRANCH  56  70
BRANCH  57  81
ATOM     81  C   UNL A   1      43.000  30.246  35.154  1.00  0.00     0.023 A 
ATOM     82  C   UNL A   1      42.678  28.936  35.580  1.00  0.00     0.031 A 
ATOM     83  C   UNL A   1      44.007  30.914  35.888  1.00  0.00     0.131 A 
ATOM     84  C   UNL A   1      43.356  28.351  36.680  1.00  0.00     0.055 A 
ATOM     85  C   UNL A   1      44.676  30.329  36.969  1.00  0.00     0.041 A 
ATOM     86  F   UNL A   1      44.442  32.131  35.526  1.00  0.00    -0.206 F 
ATOM     87  C   UNL A   1      44.362  29.039  37.361  1.00  0.00     0.022 A 
BRANCH  84  88
ATOM     88  S   UNL A   1      43.009  26.632  37.187  1.00  0.00     0.124 S 
ATOM     89  O   UNL A   1      41.564  26.652  37.378  1.00  0.00    -0.237 OA
ATOM     90  O   UNL A   1      43.504  25.860  36.053  1.00  0.00    -0.237 OA
ATOM     91  O   UNL A   1      43.788  26.475  38.416  1.00  0.00    -0.744 OA
ENDBRANCH  84  88
ENDBRANCH  57  81
BRANCH  69  92
ATOM     92  C   UNL A   1      42.331  34.122  30.179  1.00  0.00     0.023 A 
ATOM     93  C   UNL A   1      43.187  35.249  30.143  1.00  0.00     0.031 A 
ATOM     94  C   UNL A   1      42.750  32.969  29.493  1.00  0.00     0.131 A 
ATOM     95  C   UNL A   1      44.404  35.190  29.428  1.00  0.00     0.055 A 
ATOM     96  C   UNL A   1      43.963  32.907  28.808  1.00  0.00     0.041 A 
ATOM     97  F   UNL A   1      41.997  31.856  29.508  1.00  0.00    -0.206 F 
ATOM     98  C   UNL A   1      44.793  34.021  28.768  1.00  0.00     0.022 A 
BRANCH  95  99
ATOM     99  S   UNL A   1      45.503  36.643  29.326  1.00  0.00     0.124 S 
ATOM    100  O   UNL A   1      46.287  36.568  30.553  1.00  0.00    -0.237 OA
ATOM    101  O   UNL A   1      46.236  36.403  28.085  1.00  0.00    -0.237 OA
ATOM    102  O   UNL A   1      44.571  37.772  29.269  1.00  0.00    -0.744 OA
ENDBRANCH  95  99
ENDBRANCH  69  92
ENDBRANCH  43  44
ENDBRANCH  35  38
ENDBRANCH  33  34
ENDBRANCH  32  33
ENDBRANCH   1  32
TORSDOF 18
ENDMDL
MODEL 3
REMARK VINA RESULT:     -12.4      2.941      6.652
REMARK SMILES NS(=O)(=O)c1ccc(-n2nc(C(=O)NCCCCNC(=O)c3ccc(-c4c5nc(c(-c6cc(S(=O)(=O)[O-])ccc6F)c6ccc([nH]6)c(-c6cc(S(=O)(=O)[O-])ccc6F)c6nc(c(-c7cc(S(=O)(=O)[O-])ccc7F)c7ccc4[nH]7)C=C6)C=C5)cc3)c(Cl)c2-c2ccc(Cl)cc2)cc1
REMARK SMILES IDX 16 1 15 2 14 3 12 4 13 5 11 7 9 8 10 9 87 10 85 11 86 12
REMARK SMILES IDX 8 13 5 14 6 15 96 16 7 17 95 18 2 19 3 20 4 21 1 22 88 25
REMARK SMILES IDX 89 26 94 27 90 28 93 29 91 30 92 31 17 32 18 33 19 34 20 35
REMARK SMILES IDX 21 37 22 38 23 39 84 40 24 41 83 42 25 43 26 44 27 45 77 46
REMARK SMILES IDX 28 47 82 48 76 49 78 50 29 51 81 52 75 53 74 54 30 56 62 57
REMARK SMILES IDX 42 58 61 59 43 60 46 61 60 62 79 63 44 64 45 65 59 67 80 68
REMARK SMILES IDX 47 69 31 70 32 71 40 72 33 73 39 74 41 75 38 76 34 77 35 78
REMARK SMILES IDX 36 79 37 80 63 81 64 82 72 83 65 84 71 85 73 86 70 87 66 88
REMARK SMILES IDX 67 89 68 90 69 91 48 92 49 93 57 94 50 95 56 96 58 97 55 98
REMARK SMILES IDX 51 99 52 100 53 101 54 102
REMARK H PARENT 14 6 1 23 1 24 19 36 78 55 46 66
REMARK Flexibility Score: inf
ROOT
ATOM      1  C   UNL A   1      36.260  21.662  24.405  1.00  0.00     0.023 C 
ENDROOT
BRANCH   1   2
ATOM      2  C   UNL A   1      35.057  21.143  25.215  1.00  0.00     0.116 C 
BRANCH   2   3
ATOM      3  N   UNL A   1      33.939  20.795  24.347  1.00  0.00    -0.351 N 
ATOM      4  C   UNL A   1      32.822  21.476  23.900  1.00  0.00     0.273 C 
ATOM      5  O   UNL A   1      32.095  20.837  23.133  1.00  0.00    -0.267 OA
ATOM      6  H   UNL A   1      33.990  19.873  24.005  1.00  0.00     0.163 HD
BRANCH   4   7
ATOM      7  C   UNL A   1      32.527  22.890  24.238  1.00  0.00     0.169 A 
ATOM      8  N   UNL A   1      31.762  24.886  23.898  1.00  0.00    -0.231 N 
ATOM      9  N   UNL A   1      31.712  23.617  23.428  1.00  0.00    -0.160 NA
ATOM     10  C   UNL A   1      32.583  24.995  24.998  1.00  0.00     0.094 A 
ATOM     11  C   UNL A   1      32.848  23.689  25.358  1.00  0.00     0.100 A 
ATOM     12  Cl  UNL A   1      33.350  23.271  26.924  1.00  0.00    -0.079 Cl
BRANCH   8  13
ATOM     13  C   UNL A   1      30.891  25.900  23.425  1.00  0.00     0.065 A 
ATOM     14  C   UNL A   1      29.330  28.143  22.906  1.00  0.00     0.082 A 
ATOM     15  C   UNL A   1      28.793  27.083  23.649  1.00  0.00     0.024 A 
ATOM     16  C   UNL A   1      30.621  28.061  22.377  1.00  0.00     0.024 A 
ATOM     17  C   UNL A   1      29.568  25.942  23.889  1.00  0.00     0.030 A 
ATOM     18  C   UNL A   1      31.411  26.948  22.654  1.00  0.00     0.030 A 
BRANCH  14  19
ATOM     19  S   UNL A   1      28.400  29.619  22.626  1.00  0.00     0.238 S 
ATOM     20  O   UNL A   1      28.371  29.893  21.198  1.00  0.00    -0.207 OA
ATOM     21  O   UNL A   1      28.793  30.604  23.593  1.00  0.00    -0.207 OA
BRANCH  19  22
ATOM     22  N   UNL A   1      26.821  29.191  23.006  1.00  0.00    -0.225 NA
ATOM     23  H   UNL A   1      26.486  29.771  23.775  1.00  0.00     0.137 HD
ATOM     24  H   UNL A   1      26.792  28.209  23.282  1.00  0.00     0.137 HD
ENDBRANCH  19  22
ENDBRANCH  14  19
ENDBRANCH   8  13
BRANCH  10  25
ATOM     25  C   UNL A   1      32.836  26.167  25.828  1.00  0.00     0.002 A 
ATOM     26  C   UNL A   1      31.802  26.642  26.646  1.00  0.00     0.012 A 
ATOM     27  C   UNL A   1      33.969  26.954  25.601  1.00  0.00     0.012 A 
ATOM     28  C   UNL A   1      31.877  27.924  27.189  1.00  0.00     0.021 A 
ATOM     29  C   UNL A   1      34.040  28.238  26.144  1.00  0.00     0.021 A 
ATOM     30  C   UNL A   1      32.985  28.724  26.917  1.00  0.00     0.041 A 
ATOM     31  Cl  UNL A   1      33.031  30.342  27.494  1.00  0.00    -0.084 Cl
ENDBRANCH  10  25
ENDBRANCH   4   7
ENDBRANCH   2   3
ENDBRANCH   1   2
BRANCH   1  32
ATOM     32  C   UNL A   1      36.576  23.158  24.469  1.00  0.00     0.023 C 
BRANCH  32  33
ATOM     33  C   UNL A   1      37.222  23.608  25.770  1.00  0.00     0.116 C 
BRANCH  33  34
ATOM     34  N   UNL A   1      38.108  22.604  26.376  1.00  0.00    -0.352 N 
ATOM     35  C   UNL A   1      39.413  22.787  26.814  1.00  0.00     0.251 C 
ATOM     36  H   UNL A   1      37.732  21.700  26.484  1.00  0.00     0.163 HD
ATOM     37  O   UNL A   1      40.188  21.844  26.918  1.00  0.00    -0.269 OA
BRANCH  35  38
ATOM     38  C   UNL A   1      39.825  24.155  27.172  1.00  0.00     0.039 A 
ATOM     39  C   UNL A   1      38.924  25.212  27.326  1.00  0.00     0.014 A 
ATOM     40  C   UNL A   1      41.173  24.314  27.467  1.00  0.00     0.014 A 
ATOM     41  C   UNL A   1      39.391  26.407  27.877  1.00  0.00     0.010 A 
ATOM     42  C   UNL A   1      41.564  25.386  28.213  1.00  0.00     0.010 A 
ATOM     43  C   UNL A   1      40.714  26.476  28.342  1.00  0.00    -0.014 A 
BRANCH  43  44
ATOM     44  C   UNL A   1      41.236  27.622  29.077  1.00  0.00     0.031 A 
ATOM     45  C   UNL A   1      42.219  28.443  28.325  1.00  0.00     0.074 A 
ATOM     46  C   UNL A   1      40.672  28.060  30.228  1.00  0.00     0.049 A 
ATOM     47  N   UNL A   1      43.489  28.531  28.535  1.00  0.00    -0.248 NA
ATOM     48  C   UNL A   1      41.780  29.119  27.092  1.00  0.00     0.031 C 
ATOM     49  C   UNL A   1      39.490  27.541  30.930  1.00  0.00     0.029 A 
ATOM     50  N   UNL A   1      40.973  29.164  30.961  1.00  0.00    -0.354 N 
ATOM     51  C   UNL A   1      43.960  29.485  27.638  1.00  0.00     0.074 A 
ATOM     52  C   UNL A   1      42.934  29.618  26.640  1.00  0.00     0.031 C 
ATOM     53  C   UNL A   1      39.038  28.459  31.812  1.00  0.00     0.029 A 
ATOM     54  C   UNL A   1      39.995  29.549  31.876  1.00  0.00     0.049 A 
ATOM     55  H   UNL A   1      41.820  29.653  30.854  1.00  0.00     0.167 HD
ATOM     56  C   UNL A   1      45.027  30.273  27.952  1.00  0.00     0.034 A 
ATOM     57  C   UNL A   1      39.969  30.690  32.619  1.00  0.00     0.034 A 
ATOM     58  C   UNL A   1      45.736  29.745  29.101  1.00  0.00     0.049 A 
ATOM     59  C   UNL A   1      41.377  31.163  32.690  1.00  0.00     0.074 A 
ATOM     60  C   UNL A   1      46.317  28.525  29.400  1.00  0.00     0.029 A 
ATOM     61  N   UNL A   1      45.549  30.361  30.321  1.00  0.00    -0.354 N 
ATOM     62  N   UNL A   1      42.323  30.486  33.283  1.00  0.00    -0.248 NA
ATOM     63  C   UNL A   1      41.830  32.092  31.665  1.00  0.00     0.031 C 
ATOM     64  C   UNL A   1      45.927  28.260  30.748  1.00  0.00     0.029 A 
ATOM     65  C   UNL A   1      45.235  29.374  31.227  1.00  0.00     0.049 A 
ATOM     66  H   UNL A   1      45.625  31.324  30.508  1.00  0.00     0.167 HD
ATOM     67  C   UNL A   1      43.410  30.562  32.425  1.00  0.00     0.074 A 
ATOM     68  C   UNL A   1      43.075  31.638  31.488  1.00  0.00     0.031 C 
ATOM     69  C   UNL A   1      44.341  29.562  32.355  1.00  0.00     0.034 A 
BRANCH  56  70
ATOM     70  C   UNL A   1      45.222  31.704  27.490  1.00  0.00     0.023 A 
ATOM     71  C   UNL A   1      46.476  32.031  26.939  1.00  0.00     0.031 A 
ATOM     72  C   UNL A   1      44.391  32.802  27.813  1.00  0.00     0.131 A 
ATOM     73  C   UNL A   1      46.899  33.368  26.845  1.00  0.00     0.055 A 
ATOM     74  C   UNL A   1      44.789  34.132  27.647  1.00  0.00     0.041 A 
ATOM     75  F   UNL A   1      43.193  32.663  28.389  1.00  0.00    -0.206 F 
ATOM     76  C   UNL A   1      46.063  34.423  27.196  1.00  0.00     0.022 A 
BRANCH  73  77
ATOM     77  S   UNL A   1      48.633  33.688  26.436  1.00  0.00     0.124 S 
ATOM     78  O   UNL A   1      48.514  34.307  25.120  1.00  0.00    -0.237 OA
ATOM     79  O   UNL A   1      49.041  34.566  27.527  1.00  0.00    -0.237 OA
ATOM     80  O   UNL A   1      49.235  32.356  26.448  1.00  0.00    -0.744 OA
ENDBRANCH  73  77
ENDBRANCH  56  70
BRANCH  57  81
ATOM     81  C   UNL A   1      38.793  31.543  32.962  1.00  0.00     0.023 A 
ATOM     82  C   UNL A   1      37.775  31.858  32.031  1.00  0.00     0.031 A 
ATOM     83  C   UNL A   1      38.520  31.852  34.315  1.00  0.00     0.131 A 
ATOM     84  C   UNL A   1      36.557  32.440  32.466  1.00  0.00     0.055 A 
ATOM     85  C   UNL A   1      37.314  32.419  34.739  1.00  0.00     0.041 A 
ATOM     86  F   UNL A   1      39.384  31.529  35.290  1.00  0.00    -0.206 F 
ATOM     87  C   UNL A   1      36.321  32.704  33.817  1.00  0.00     0.022 A 
BRANCH  84  88
ATOM     88  S   UNL A   1      35.204  32.773  31.287  1.00  0.00     0.124 S 
ATOM     89  O   UNL A   1      35.391  31.717  30.298  1.00  0.00    -0.237 OA
ATOM     90  O   UNL A   1      34.017  32.673  32.128  1.00  0.00    -0.237 OA
ATOM     91  O   UNL A   1      35.497  34.123  30.804  1.00  0.00    -0.744 OA
ENDBRANCH  84  88
ENDBRANCH  57  81
BRANCH  69  92
ATOM     92  C   UNL A   1      44.319  28.465  33.407  1.00  0.00     0.023 A 
ATOM     93  C   UNL A   1      44.861  28.568  34.711  1.00  0.00     0.031 A 
ATOM     94  C   UNL A   1      43.590  27.302  33.100  1.00  0.00     0.131 A 
ATOM     95  C   UNL A   1      44.670  27.523  35.641  1.00  0.00     0.055 A 
ATOM     96  C   UNL A   1      43.383  26.284  34.028  1.00  0.00     0.041 A 
ATOM     97  F   UNL A   1      43.027  27.152  31.889  1.00  0.00    -0.206 F 
ATOM     98  C   UNL A   1      43.928  26.387  35.303  1.00  0.00     0.022 A 
BRANCH  95  99
ATOM     99  S   UNL A   1      45.399  27.609  37.312  1.00  0.00     0.124 S 
ATOM    100  O   UNL A   1      44.298  28.083  38.142  1.00  0.00    -0.237 OA
ATOM    101  O   UNL A   1      45.827  26.232  37.545  1.00  0.00    -0.237 OA
ATOM    102  O   UNL A   1      46.497  28.566  37.156  1.00  0.00    -0.744 OA
ENDBRANCH  95  99
ENDBRANCH  69  92
ENDBRANCH  43  44
ENDBRANCH  35  38
ENDBRANCH  33  34
ENDBRANCH  32  33
ENDBRANCH   1  32
TORSDOF 18
ENDMDL
