MODEL 1
REMARK VINA RESULT:      -9.5      0.000      0.000
REMARK SMILES Cc1ccc(S(=O)(=O)n2cc(C(=O)C(=O)N[C@@H](Cc3c[nH]c4ccccc34)C(=O)NCC(=O)NCCCCNC(=O)c3ccc(-c4c5nc(c(-c6cc(S(=O)(=O)[O-])ccc6F)c6ccc([nH]6)c(-c6cc(S(=O)(=O)[O-])ccc6F)c6nc(c(-c7cc(S(=O)(=O)[O-])ccc7F)c7ccc4[nH]7)C=C6)C=C5)cc3)c3ccccc32)cc1
REMARK SMILES IDX 32 1 33 2 34 3 31 5 30 6 28 7 29 8 17 10 16 11 14 12 15 13
REMARK SMILES IDX 12 15 13 16 11 17 9 18 10 19 110 20 105 21 109 22 106 23
REMARK SMILES IDX 108 24 107 25 6 26 7 27 8 28 5 29 1 30 2 31 3 32 112 33 4 34
REMARK SMILES IDX 111 35 18 36 19 37 20 38 27 39 21 40 22 41 26 42 23 44 25 45
REMARK SMILES IDX 24 46 35 47 36 48 37 49 38 50 39 51 40 52 41 54 42 55 43 56
REMARK SMILES IDX 104 57 44 58 103 59 45 60 46 61 47 62 97 63 48 64 102 65
REMARK SMILES IDX 96 66 98 67 49 68 101 69 95 70 94 71 50 73 82 74 62 75 81 76
REMARK SMILES IDX 63 77 66 78 80 79 99 80 64 81 65 82 79 84 100 85 67 86 51 87
REMARK SMILES IDX 52 88 60 89 53 90 59 91 61 92 58 93 54 94 55 95 56 96 57 97
REMARK SMILES IDX 83 98 84 99 92 100 85 101 91 102 93 103 90 104 86 105 87 106
REMARK SMILES IDX 88 107 89 108 68 109 69 110 77 111 70 112 76 113 78 114
REMARK SMILES IDX 75 115 71 116 72 117 73 118 74 119
REMARK H PARENT 34 4 30 9 16 14 21 43 39 53 98 72 66 83
REMARK Flexibility Score: inf
ROOT
ATOM      1  C   UNL A   1      42.968  27.714  25.483  1.00  0.00     0.239 C 
ATOM      2  O   UNL A   1      42.432  27.674  24.374  1.00  0.00    -0.273 OA
ATOM      3  N   UNL A   1      44.270  28.109  25.587  1.00  0.00    -0.355 N 
ATOM      4  H   UNL A   1      44.716  28.383  24.753  1.00  0.00     0.163 HD
ENDROOT
BRANCH   1   5
ATOM      5  C   UNL A   1      42.185  27.484  26.772  1.00  0.00     0.216 C 
BRANCH   5   6
ATOM      6  N   UNL A   1      41.263  26.366  26.817  1.00  0.00    -0.345 N 
ATOM      7  C   UNL A   1      41.471  25.060  27.156  1.00  0.00     0.243 C 
ATOM      8  O   UNL A   1      40.457  24.459  27.538  1.00  0.00    -0.273 OA
ATOM      9  H   UNL A   1      40.338  26.583  26.561  1.00  0.00     0.164 HD
BRANCH   7  10
ATOM     10  C   UNL A   1      42.867  24.345  27.214  1.00  0.00     0.176 C 
BRANCH  10  11
ATOM     11  N   UNL A   1      43.172  23.494  28.390  1.00  0.00    -0.337 N 
ATOM     12  C   UNL A   1      43.955  23.734  29.534  1.00  0.00     0.293 C 
ATOM     13  O   UNL A   1      44.235  22.773  30.246  1.00  0.00    -0.265 OA
ATOM     14  H   UNL A   1      42.753  22.602  28.365  1.00  0.00     0.164 HD
BRANCH  12  15
ATOM     15  C   UNL A   1      44.436  25.166  29.885  1.00  0.00     0.252 C 
ATOM     16  O   UNL A   1      43.559  25.886  30.372  1.00  0.00    -0.283 OA
BRANCH  15  17
ATOM     17  C   UNL A   1      45.792  25.725  29.610  1.00  0.00     0.054 A 
ATOM     18  N   UNL A   1      47.949  26.083  28.992  1.00  0.00    -0.240 N 
ATOM     19  C   UNL A   1      46.873  25.199  28.908  1.00  0.00     0.117 A 
ATOM     20  C   UNL A   1      47.507  27.297  29.498  1.00  0.00     0.065 A 
ATOM     21  C   UNL A   1      46.219  27.052  30.006  1.00  0.00     0.012 A 
ATOM     22  C   UNL A   1      48.070  28.589  29.551  1.00  0.00     0.028 A 
ATOM     23  C   UNL A   1      45.564  28.097  30.701  1.00  0.00     0.011 A 
ATOM     24  C   UNL A   1      47.350  29.620  30.162  1.00  0.00     0.002 A 
ATOM     25  C   UNL A   1      46.128  29.371  30.766  1.00  0.00     0.001 A 
BRANCH  18  26
ATOM     26  S   UNL A   1      49.451  25.850  28.163  1.00  0.00     0.268 S 
ATOM     27  O   UNL A   1      49.515  24.441  27.805  1.00  0.00    -0.201 OA
ATOM     28  O   UNL A   1      50.456  26.385  29.072  1.00  0.00    -0.201 OA
BRANCH  26  29
ATOM     29  C   UNL A   1      49.611  26.761  26.615  1.00  0.00     0.088 A 
ATOM     30  C   UNL A   1      51.514  28.276  23.008  1.00  0.00     0.044 C 
ATOM     31  C   UNL A   1      50.757  27.810  24.223  1.00  0.00    -0.051 A 
ATOM     32  C   UNL A   1      49.955  26.659  24.196  1.00  0.00     0.005 A 
ATOM     33  C   UNL A   1      50.948  28.449  25.447  1.00  0.00     0.005 A 
ATOM     34  C   UNL A   1      49.385  26.135  25.380  1.00  0.00     0.022 A 
ATOM     35  C   UNL A   1      50.401  27.914  26.623  1.00  0.00     0.022 A 
ENDBRANCH  26  29
ENDBRANCH  18  26
ENDBRANCH  15  17
ENDBRANCH  12  15
ENDBRANCH  10  11
BRANCH  10  36
ATOM     36  C   UNL A   1      43.302  23.702  25.862  1.00  0.00     0.072 C 
BRANCH  36  37
ATOM     37  C   UNL A   1      43.150  22.213  25.671  1.00  0.00    -0.020 A 
ATOM     38  C   UNL A   1      41.984  21.495  25.886  1.00  0.00     0.087 A 
ATOM     39  C   UNL A   1      44.145  21.251  25.274  1.00  0.00     0.003 A 
ATOM     40  N   UNL A   1      42.260  20.160  25.748  1.00  0.00    -0.361 N 
ATOM     41  C   UNL A   1      43.595  19.981  25.479  1.00  0.00     0.046 A 
ATOM     42  C   UNL A   1      45.499  21.327  24.886  1.00  0.00     0.010 A 
ATOM     43  H   UNL A   1      41.599  19.435  25.831  1.00  0.00     0.166 HD
ATOM     44  C   UNL A   1      44.353  18.805  25.428  1.00  0.00     0.026 A 
ATOM     45  C   UNL A   1      46.277  20.163  24.854  1.00  0.00     0.001 A 
ATOM     46  C   UNL A   1      45.715  18.924  25.144  1.00  0.00     0.002 A 
ENDBRANCH  36  37
ENDBRANCH  10  36
ENDBRANCH   7  10
ENDBRANCH   5   6
ENDBRANCH   1   5
BRANCH   3  47
ATOM     47  C   UNL A   1      45.068  28.165  26.797  1.00  0.00     0.116 C 
BRANCH  47  48
ATOM     48  C   UNL A   1      46.476  28.697  26.520  1.00  0.00     0.023 C 
BRANCH  48  49
ATOM     49  C   UNL A   1      46.496  30.116  25.953  1.00  0.00     0.023 C 
BRANCH  49  50
ATOM     50  C   UNL A   1      47.020  31.142  26.947  1.00  0.00     0.116 C 
BRANCH  50  51
ATOM     51  N   UNL A   1      46.464  32.471  26.842  1.00  0.00    -0.352 N 
ATOM     52  C   UNL A   1      45.283  32.947  27.394  1.00  0.00     0.251 C 
ATOM     53  H   UNL A   1      46.987  33.118  26.316  1.00  0.00     0.163 HD
ATOM     54  O   UNL A   1      44.784  33.987  27.001  1.00  0.00    -0.269 OA
BRANCH  52  55
ATOM     55  C   UNL A   1      44.695  32.240  28.568  1.00  0.00     0.039 A 
ATOM     56  C   UNL A   1      43.754  31.238  28.297  1.00  0.00     0.014 A 
ATOM     57  C   UNL A   1      44.876  32.679  29.877  1.00  0.00     0.014 A 
ATOM     58  C   UNL A   1      42.846  30.866  29.284  1.00  0.00     0.010 A 
ATOM     59  C   UNL A   1      43.905  32.410  30.817  1.00  0.00     0.010 A 
ATOM     60  C   UNL A   1      42.856  31.553  30.494  1.00  0.00    -0.014 A 
BRANCH  60  61
ATOM     61  C   UNL A   1      41.801  31.451  31.489  1.00  0.00     0.031 A 
ATOM     62  C   UNL A   1      40.747  32.472  31.508  1.00  0.00     0.074 A 
ATOM     63  C   UNL A   1      41.786  30.389  32.322  1.00  0.00     0.049 A 
ATOM     64  N   UNL A   1      39.956  32.703  32.494  1.00  0.00    -0.248 NA
ATOM     65  C   UNL A   1      40.549  33.382  30.384  1.00  0.00     0.031 C 
ATOM     66  C   UNL A   1      40.761  29.995  33.287  1.00  0.00     0.029 A 
ATOM     67  N   UNL A   1      42.924  29.686  32.728  1.00  0.00    -0.354 N 
ATOM     68  C   UNL A   1      38.957  33.529  32.030  1.00  0.00     0.074 A 
ATOM     69  C   UNL A   1      39.442  34.019  30.766  1.00  0.00     0.031 C 
ATOM     70  C   UNL A   1      41.378  29.442  34.347  1.00  0.00     0.029 A 
ATOM     71  C   UNL A   1      42.805  29.640  34.129  1.00  0.00     0.049 A 
ATOM     72  H   UNL A   1      43.640  29.312  32.166  1.00  0.00     0.167 HD
ATOM     73  C   UNL A   1      37.767  33.535  32.693  1.00  0.00     0.034 A 
ATOM     74  C   UNL A   1      43.611  30.413  34.914  1.00  0.00     0.034 A 
ATOM     75  C   UNL A   1      37.900  32.875  33.994  1.00  0.00     0.049 A 
ATOM     76  C   UNL A   1      42.848  31.214  35.941  1.00  0.00     0.074 A 
ATOM     77  C   UNL A   1      37.542  31.625  34.473  1.00  0.00     0.029 A 
ATOM     78  N   UNL A   1      38.774  33.419  34.929  1.00  0.00    -0.354 N 
ATOM     79  N   UNL A   1      41.678  31.752  35.726  1.00  0.00    -0.248 NA
ATOM     80  C   UNL A   1      43.321  31.412  37.306  1.00  0.00     0.031 C 
ATOM     81  C   UNL A   1      38.282  31.385  35.663  1.00  0.00     0.029 A 
ATOM     82  C   UNL A   1      39.057  32.504  35.920  1.00  0.00     0.049 A 
ATOM     83  H   UNL A   1      39.140  34.332  34.889  1.00  0.00     0.167 HD
ATOM     84  C   UNL A   1      41.212  32.297  36.902  1.00  0.00     0.074 A 
ATOM     85  C   UNL A   1      42.288  32.077  37.851  1.00  0.00     0.031 C 
ATOM     86  C   UNL A   1      39.966  32.855  37.002  1.00  0.00     0.034 A 
BRANCH  73  87
ATOM     87  C   UNL A   1      36.432  33.811  32.027  1.00  0.00     0.023 A 
ATOM     88  C   UNL A   1      36.160  33.193  30.787  1.00  0.00     0.031 A 
ATOM     89  C   UNL A   1      35.450  34.725  32.460  1.00  0.00     0.131 A 
ATOM     90  C   UNL A   1      35.049  33.559  30.003  1.00  0.00     0.055 A 
ATOM     91  C   UNL A   1      34.359  35.113  31.669  1.00  0.00     0.041 A 
ATOM     92  F   UNL A   1      35.461  35.263  33.682  1.00  0.00    -0.206 F 
ATOM     93  C   UNL A   1      34.161  34.540  30.425  1.00  0.00     0.022 A 
BRANCH  90  94
ATOM     94  S   UNL A   1      34.793  32.744  28.404  1.00  0.00     0.124 S 
ATOM     95  O   UNL A   1      34.963  31.335  28.748  1.00  0.00    -0.237 OA
ATOM     96  O   UNL A   1      33.442  33.166  28.053  1.00  0.00    -0.237 OA
ATOM     97  O   UNL A   1      35.851  33.306  27.565  1.00  0.00    -0.744 OA
ENDBRANCH  90  94
ENDBRANCH  73  87
BRANCH  74  98
ATOM     98  C   UNL A   1      44.917  30.806  34.297  1.00  0.00     0.023 A 
ATOM     99  C   UNL A   1      45.119  32.163  33.953  1.00  0.00     0.031 A 
ATOM    100  C   UNL A   1      46.021  29.959  34.164  1.00  0.00     0.131 A 
ATOM    101  C   UNL A   1      46.365  32.651  33.548  1.00  0.00     0.055 A 
ATOM    102  C   UNL A   1      47.278  30.446  33.757  1.00  0.00     0.041 A 
ATOM    103  F   UNL A   1      45.926  28.658  34.470  1.00  0.00    -0.206 F 
ATOM    104  C   UNL A   1      47.459  31.799  33.461  1.00  0.00     0.022 A 
BRANCH 101 105
ATOM    105  S   UNL A   1      46.517  34.417  33.169  1.00  0.00     0.124 S 
ATOM    106  O   UNL A   1      45.109  34.808  33.152  1.00  0.00    -0.237 OA
ATOM    107  O   UNL A   1      47.301  34.938  34.288  1.00  0.00    -0.237 OA
ATOM    108  O   UNL A   1      47.195  34.439  31.879  1.00  0.00    -0.744 OA
ENDBRANCH 101 105
ENDBRANCH  74  98
BRANCH  86 109
ATOM    109  C   UNL A   1      39.435  33.725  38.130  1.00  0.00     0.023 A 
ATOM    110  C   UNL A   1      38.766  33.226  39.257  1.00  0.00     0.031 A 
ATOM    111  C   UNL A   1      39.703  35.121  38.156  1.00  0.00     0.131 A 
ATOM    112  C   UNL A   1      38.361  34.077  40.305  1.00  0.00     0.055 A 
ATOM    113  C   UNL A   1      39.360  35.951  39.227  1.00  0.00     0.041 A 
ATOM    114  F   UNL A   1      40.334  35.745  37.151  1.00  0.00    -0.206 F 
ATOM    115  C   UNL A   1      38.678  35.432  40.311  1.00  0.00     0.022 A 
BRANCH 112 116
ATOM    116  S   UNL A   1      37.382  33.372  41.657  1.00  0.00     0.124 S 
ATOM    117  O   UNL A   1      38.411  33.076  42.649  1.00  0.00    -0.237 OA
ATOM    118  O   UNL A   1      36.477  34.467  41.992  1.00  0.00    -0.237 OA
ATOM    119  O   UNL A   1      36.747  32.204  41.053  1.00  0.00    -0.744 OA
ENDBRANCH 112 116
ENDBRANCH  86 109
ENDBRANCH  60  61
ENDBRANCH  52  55
ENDBRANCH  50  51
ENDBRANCH  49  50
ENDBRANCH  48  49
ENDBRANCH  47  48
ENDBRANCH   3  47
TORSDOF 23
ENDMDL
MODEL 2
REMARK VINA RESULT:      -9.4      5.033     10.062
REMARK SMILES Cc1ccc(S(=O)(=O)n2cc(C(=O)C(=O)N[C@@H](Cc3c[nH]c4ccccc34)C(=O)NCC(=O)NCCCCNC(=O)c3ccc(-c4c5nc(c(-c6cc(S(=O)(=O)[O-])ccc6F)c6ccc([nH]6)c(-c6cc(S(=O)(=O)[O-])ccc6F)c6nc(c(-c7cc(S(=O)(=O)[O-])ccc7F)c7ccc4[nH]7)C=C6)C=C5)cc3)c3ccccc32)cc1
REMARK SMILES IDX 32 1 33 2 34 3 31 5 30 6 28 7 29 8 17 10 16 11 14 12 15 13
REMARK SMILES IDX 12 15 13 16 11 17 9 18 10 19 110 20 105 21 109 22 106 23
REMARK SMILES IDX 108 24 107 25 6 26 7 27 8 28 5 29 1 30 2 31 3 32 112 33 4 34
REMARK SMILES IDX 111 35 18 36 19 37 20 38 27 39 21 40 22 41 26 42 23 44 25 45
REMARK SMILES IDX 24 46 35 47 36 48 37 49 38 50 39 51 40 52 41 54 42 55 43 56
REMARK SMILES IDX 104 57 44 58 103 59 45 60 46 61 47 62 97 63 48 64 102 65
REMARK SMILES IDX 96 66 98 67 49 68 101 69 95 70 94 71 50 73 82 74 62 75 81 76
REMARK SMILES IDX 63 77 66 78 80 79 99 80 64 81 65 82 79 84 100 85 67 86 51 87
REMARK SMILES IDX 52 88 60 89 53 90 59 91 61 92 58 93 54 94 55 95 56 96 57 97
REMARK SMILES IDX 83 98 84 99 92 100 85 101 91 102 93 103 90 104 86 105 87 106
REMARK SMILES IDX 88 107 89 108 68 109 69 110 77 111 70 112 76 113 78 114
REMARK SMILES IDX 75 115 71 116 72 117 73 118 74 119
REMARK H PARENT 34 4 30 9 16 14 21 43 39 53 98 72 66 83
REMARK Flexibility Score: inf
ROOT
ATOM      1  C   UNL A   1      50.559  27.871  27.062  1.00  0.00     0.239 C 
ATOM      2  O   UNL A   1      51.554  27.318  26.587  1.00  0.00    -0.273 OA
ATOM      3  N   UNL A   1      50.655  29.154  27.516  1.00  0.00    -0.355 N 
ATOM      4  H   UNL A   1      51.528  29.596  27.406  1.00  0.00     0.163 HD
ENDROOT
BRANCH   1   5
ATOM      5  C   UNL A   1      49.176  27.227  27.023  1.00  0.00     0.216 C 
BRANCH   5   6
ATOM      6  N   UNL A   1      48.788  26.525  25.815  1.00  0.00    -0.345 N 
ATOM      7  C   UNL A   1      47.576  26.026  25.432  1.00  0.00     0.243 C 
ATOM      8  O   UNL A   1      47.436  25.897  24.207  1.00  0.00    -0.273 OA
ATOM      9  H   UNL A   1      49.515  26.387  25.166  1.00  0.00     0.164 HD
BRANCH   7  10
ATOM     10  C   UNL A   1      46.364  25.742  26.388  1.00  0.00     0.176 C 
BRANCH  10  11
ATOM     11  N   UNL A   1      44.998  26.060  25.905  1.00  0.00    -0.337 N 
ATOM     12  C   UNL A   1      44.122  25.353  25.063  1.00  0.00     0.293 C 
ATOM     13  O   UNL A   1      43.140  25.950  24.630  1.00  0.00    -0.265 OA
ATOM     14  H   UNL A   1      44.643  26.919  26.233  1.00  0.00     0.164 HD
BRANCH  12  15
ATOM     15  C   UNL A   1      44.385  23.867  24.703  1.00  0.00     0.252 C 
ATOM     16  O   UNL A   1      45.288  23.703  23.876  1.00  0.00    -0.283 OA
BRANCH  15  17
ATOM     17  C   UNL A   1      43.608  22.695  25.202  1.00  0.00     0.054 A 
ATOM     18  N   UNL A   1      42.036  21.279  26.031  1.00  0.00    -0.240 N 
ATOM     19  C   UNL A   1      42.268  22.572  25.560  1.00  0.00     0.117 A 
ATOM     20  C   UNL A   1      43.128  20.478  25.730  1.00  0.00     0.065 A 
ATOM     21  C   UNL A   1      44.152  21.359  25.341  1.00  0.00     0.012 A 
ATOM     22  C   UNL A   1      43.336  19.083  25.726  1.00  0.00     0.028 A 
ATOM     23  C   UNL A   1      45.437  20.822  25.090  1.00  0.00     0.011 A 
ATOM     24  C   UNL A   1      44.595  18.585  25.377  1.00  0.00     0.002 A 
ATOM     25  C   UNL A   1      45.647  19.443  25.100  1.00  0.00     0.001 A 
BRANCH  18  26
ATOM     26  S   UNL A   1      40.472  20.686  26.477  1.00  0.00     0.268 S 
ATOM     27  O   UNL A   1      40.420  20.700  27.932  1.00  0.00    -0.201 OA
ATOM     28  O   UNL A   1      40.358  19.407  25.789  1.00  0.00    -0.201 OA
BRANCH  26  29
ATOM     29  C   UNL A   1      39.089  21.702  25.924  1.00  0.00     0.088 A 
ATOM     30  C   UNL A   1      35.104  23.445  25.951  1.00  0.00     0.044 C 
ATOM     31  C   UNL A   1      36.505  22.905  25.843  1.00  0.00    -0.051 A 
ATOM     32  C   UNL A   1      37.601  23.583  26.397  1.00  0.00     0.005 A 
ATOM     33  C   UNL A   1      36.722  21.640  25.299  1.00  0.00     0.005 A 
ATOM     34  C   UNL A   1      38.885  22.990  26.439  1.00  0.00     0.022 A 
ATOM     35  C   UNL A   1      37.989  21.045  25.363  1.00  0.00     0.022 A 
ENDBRANCH  26  29
ENDBRANCH  18  26
ENDBRANCH  15  17
ENDBRANCH  12  15
ENDBRANCH  10  11
BRANCH  10  36
ATOM     36  C   UNL A   1      46.450  24.369  27.122  1.00  0.00     0.072 C 
BRANCH  36  37
ATOM     37  C   UNL A   1      45.677  24.167  28.401  1.00  0.00    -0.020 A 
ATOM     38  C   UNL A   1      44.609  23.297  28.561  1.00  0.00     0.087 A 
ATOM     39  C   UNL A   1      45.846  24.829  29.669  1.00  0.00     0.003 A 
ATOM     40  N   UNL A   1      44.073  23.486  29.808  1.00  0.00    -0.361 N 
ATOM     41  C   UNL A   1      44.745  24.489  30.462  1.00  0.00     0.046 A 
ATOM     42  C   UNL A   1      46.754  25.782  30.176  1.00  0.00     0.010 A 
ATOM     43  H   UNL A   1      43.316  22.978  30.180  1.00  0.00     0.166 HD
ATOM     44  C   UNL A   1      44.448  25.132  31.670  1.00  0.00     0.026 A 
ATOM     45  C   UNL A   1      46.460  26.452  31.370  1.00  0.00     0.001 A 
ATOM     46  C   UNL A   1      45.311  26.146  32.093  1.00  0.00     0.002 A 
ENDBRANCH  36  37
ENDBRANCH  10  36
ENDBRANCH   7  10
ENDBRANCH   5   6
ENDBRANCH   1   5
BRANCH   3  47
ATOM     47  C   UNL A   1      49.607  29.934  28.146  1.00  0.00     0.116 C 
BRANCH  47  48
ATOM     48  C   UNL A   1      49.185  31.118  27.274  1.00  0.00     0.023 C 
BRANCH  48  49
ATOM     49  C   UNL A   1      47.732  31.546  27.479  1.00  0.00     0.023 C 
BRANCH  49  50
ATOM     50  C   UNL A   1      46.776  30.875  26.504  1.00  0.00     0.116 C 
BRANCH  50  51
ATOM     51  N   UNL A   1      45.850  31.748  25.820  1.00  0.00    -0.352 N 
ATOM     52  C   UNL A   1      44.539  32.042  26.171  1.00  0.00     0.251 C 
ATOM     53  H   UNL A   1      46.189  32.187  25.007  1.00  0.00     0.163 HD
ATOM     54  O   UNL A   1      43.778  32.555  25.370  1.00  0.00    -0.269 OA
BRANCH  52  55
ATOM     55  C   UNL A   1      44.105  31.844  27.584  1.00  0.00     0.039 A 
ATOM     56  C   UNL A   1      44.318  32.911  28.466  1.00  0.00     0.014 A 
ATOM     57  C   UNL A   1      43.718  30.603  28.084  1.00  0.00     0.014 A 
ATOM     58  C   UNL A   1      44.380  32.667  29.835  1.00  0.00     0.010 A 
ATOM     59  C   UNL A   1      43.902  30.331  29.422  1.00  0.00     0.010 A 
ATOM     60  C   UNL A   1      44.296  31.352  30.283  1.00  0.00    -0.014 A 
BRANCH  60  61
ATOM     61  C   UNL A   1      44.616  30.940  31.640  1.00  0.00     0.031 A 
ATOM     62  C   UNL A   1      45.926  30.333  31.903  1.00  0.00     0.074 A 
ATOM     63  C   UNL A   1      43.727  31.185  32.626  1.00  0.00     0.049 A 
ATOM     64  N   UNL A   1      46.225  29.639  32.943  1.00  0.00    -0.248 NA
ATOM     65  C   UNL A   1      47.015  30.423  30.936  1.00  0.00     0.031 C 
ATOM     66  C   UNL A   1      43.885  31.004  34.067  1.00  0.00     0.029 A 
ATOM     67  N   UNL A   1      42.344  31.266  32.442  1.00  0.00    -0.354 N 
ATOM     68  C   UNL A   1      47.593  29.484  32.948  1.00  0.00     0.074 A 
ATOM     69  C   UNL A   1      48.013  29.872  31.626  1.00  0.00     0.031 C 
ATOM     70  C   UNL A   1      42.696  30.627  34.572  1.00  0.00     0.029 A 
ATOM     71  C   UNL A   1      41.826  30.403  33.425  1.00  0.00     0.049 A 
ATOM     72  H   UNL A   1      41.848  31.800  31.780  1.00  0.00     0.167 HD
ATOM     73  C   UNL A   1      48.208  29.229  34.137  1.00  0.00     0.034 A 
ATOM     74  C   UNL A   1      41.302  29.194  33.072  1.00  0.00     0.034 A 
ATOM     75  C   UNL A   1      47.224  28.848  35.152  1.00  0.00     0.049 A 
ATOM     76  C   UNL A   1      41.861  28.046  33.877  1.00  0.00     0.074 A 
ATOM     77  C   UNL A   1      46.640  29.516  36.216  1.00  0.00     0.029 A 
ATOM     78  N   UNL A   1      46.467  27.699  34.947  1.00  0.00    -0.354 N 
ATOM     79  N   UNL A   1      43.103  27.968  34.274  1.00  0.00    -0.248 NA
ATOM     80  C   UNL A   1      41.044  26.934  34.351  1.00  0.00     0.031 C 
ATOM     81  C   UNL A   1      45.468  28.803  36.591  1.00  0.00     0.029 A 
ATOM     82  C   UNL A   1      45.368  27.686  35.778  1.00  0.00     0.049 A 
ATOM     83  H   UNL A   1      46.687  26.992  34.299  1.00  0.00     0.167 HD
ATOM     84  C   UNL A   1      43.245  26.867  35.088  1.00  0.00     0.074 A 
ATOM     85  C   UNL A   1      41.934  26.244  35.084  1.00  0.00     0.031 C 
ATOM     86  C   UNL A   1      44.423  26.580  35.724  1.00  0.00     0.034 A 
BRANCH  73  87
ATOM     87  C   UNL A   1      49.624  29.665  34.465  1.00  0.00     0.023 A 
ATOM     88  C   UNL A   1      50.629  28.676  34.545  1.00  0.00     0.031 A 
ATOM     89  C   UNL A   1      50.042  30.963  34.818  1.00  0.00     0.131 A 
ATOM     90  C   UNL A   1      51.912  28.961  35.051  1.00  0.00     0.055 A 
ATOM     91  C   UNL A   1      51.309  31.245  35.349  1.00  0.00     0.041 A 
ATOM     92  F   UNL A   1      49.274  32.040  34.631  1.00  0.00    -0.206 F 
ATOM     93  C   UNL A   1      52.249  30.238  35.482  1.00  0.00     0.022 A 
BRANCH  90  94
ATOM     94  S   UNL A   1      53.133  27.626  35.156  1.00  0.00     0.124 S 
ATOM     95  O   UNL A   1      52.885  27.089  36.491  1.00  0.00    -0.237 OA
ATOM     96  O   UNL A   1      52.758  26.772  34.035  1.00  0.00    -0.237 OA
ATOM     97  O   UNL A   1      54.409  28.323  34.999  1.00  0.00    -0.744 OA
ENDBRANCH  90  94
ENDBRANCH  73  87
BRANCH  74  98
ATOM     98  C   UNL A   1      40.790  29.104  31.668  1.00  0.00     0.023 A 
ATOM     99  C   UNL A   1      41.495  28.299  30.743  1.00  0.00     0.031 A 
ATOM    100  C   UNL A   1      39.576  29.641  31.228  1.00  0.00     0.131 A 
ATOM    101  C   UNL A   1      40.990  28.010  29.471  1.00  0.00     0.055 A 
ATOM    102  C   UNL A   1      39.064  29.353  29.949  1.00  0.00     0.041 A 
ATOM    103  F   UNL A   1      38.837  30.413  32.035  1.00  0.00    -0.206 F 
ATOM    104  C   UNL A   1      39.763  28.523  29.069  1.00  0.00     0.022 A 
BRANCH 101 105
ATOM    105  S   UNL A   1      41.962  26.935  28.383  1.00  0.00     0.124 S 
ATOM    106  O   UNL A   1      43.281  27.052  29.000  1.00  0.00    -0.237 OA
ATOM    107  O   UNL A   1      41.314  25.632  28.525  1.00  0.00    -0.237 OA
ATOM    108  O   UNL A   1      41.823  27.553  27.069  1.00  0.00    -0.744 OA
ENDBRANCH 101 105
ENDBRANCH  74  98
BRANCH  86 109
ATOM    109  C   UNL A   1      44.803  25.280  36.415  1.00  0.00     0.023 A 
ATOM    110  C   UNL A   1      45.286  24.148  35.744  1.00  0.00     0.031 A 
ATOM    111  C   UNL A   1      44.797  25.185  37.833  1.00  0.00     0.131 A 
ATOM    112  C   UNL A   1      45.690  22.996  36.449  1.00  0.00     0.055 A 
ATOM    113  C   UNL A   1      45.260  24.067  38.532  1.00  0.00     0.041 A 
ATOM    114  F   UNL A   1      44.362  26.185  38.613  1.00  0.00    -0.206 F 
ATOM    115  C   UNL A   1      45.706  22.956  37.840  1.00  0.00     0.022 A 
BRANCH 112 116
ATOM    116  S   UNL A   1      46.172  21.529  35.499  1.00  0.00     0.124 S 
ATOM    117  O   UNL A   1      44.896  21.112  34.925  1.00  0.00    -0.237 OA
ATOM    118  O   UNL A   1      47.144  22.072  34.556  1.00  0.00    -0.237 OA
ATOM    119  O   UNL A   1      46.722  20.628  36.509  1.00  0.00    -0.744 OA
ENDBRANCH 112 116
ENDBRANCH  86 109
ENDBRANCH  60  61
ENDBRANCH  52  55
ENDBRANCH  50  51
ENDBRANCH  49  50
ENDBRANCH  48  49
ENDBRANCH  47  48
ENDBRANCH   3  47
TORSDOF 23
ENDMDL
MODEL 3
REMARK VINA RESULT:      -9.3      4.270     10.261
REMARK SMILES Cc1ccc(S(=O)(=O)n2cc(C(=O)C(=O)N[C@@H](Cc3c[nH]c4ccccc34)C(=O)NCC(=O)NCCCCNC(=O)c3ccc(-c4c5nc(c(-c6cc(S(=O)(=O)[O-])ccc6F)c6ccc([nH]6)c(-c6cc(S(=O)(=O)[O-])ccc6F)c6nc(c(-c7cc(S(=O)(=O)[O-])ccc7F)c7ccc4[nH]7)C=C6)C=C5)cc3)c3ccccc32)cc1
REMARK SMILES IDX 32 1 33 2 34 3 31 5 30 6 28 7 29 8 17 10 16 11 14 12 15 13
REMARK SMILES IDX 12 15 13 16 11 17 9 18 10 19 110 20 105 21 109 22 106 23
REMARK SMILES IDX 108 24 107 25 6 26 7 27 8 28 5 29 1 30 2 31 3 32 112 33 4 34
REMARK SMILES IDX 111 35 18 36 19 37 20 38 27 39 21 40 22 41 26 42 23 44 25 45
REMARK SMILES IDX 24 46 35 47 36 48 37 49 38 50 39 51 40 52 41 54 42 55 43 56
REMARK SMILES IDX 104 57 44 58 103 59 45 60 46 61 47 62 97 63 48 64 102 65
REMARK SMILES IDX 96 66 98 67 49 68 101 69 95 70 94 71 50 73 82 74 62 75 81 76
REMARK SMILES IDX 63 77 66 78 80 79 99 80 64 81 65 82 79 84 100 85 67 86 51 87
REMARK SMILES IDX 52 88 60 89 53 90 59 91 61 92 58 93 54 94 55 95 56 96 57 97
REMARK SMILES IDX 83 98 84 99 92 100 85 101 91 102 93 103 90 104 86 105 87 106
REMARK SMILES IDX 88 107 89 108 68 109 69 110 77 111 70 112 76 113 78 114
REMARK SMILES IDX 75 115 71 116 72 117 73 118 74 119
REMARK H PARENT 34 4 30 9 16 14 21 43 39 53 98 72 66 83
REMARK Flexibility Score: inf
ROOT
ATOM      1  C   UNL A   1      46.049  29.580  26.009  1.00  0.00     0.239 C 
ATOM      2  O   UNL A   1      47.088  29.069  25.587  1.00  0.00    -0.273 OA
ATOM      3  N   UNL A   1      45.842  30.919  25.845  1.00  0.00    -0.355 N 
ATOM      4  H   UNL A   1      46.535  31.415  25.353  1.00  0.00     0.163 HD
ENDROOT
BRANCH   1   5
ATOM      5  C   UNL A   1      44.906  28.744  26.578  1.00  0.00     0.216 C 
BRANCH   5   6
ATOM      6  N   UNL A   1      44.147  27.917  25.659  1.00  0.00    -0.345 N 
ATOM      7  C   UNL A   1      43.929  26.570  25.654  1.00  0.00     0.243 C 
ATOM      8  O   UNL A   1      42.907  26.216  25.049  1.00  0.00    -0.273 OA
ATOM      9  H   UNL A   1      43.718  28.408  24.921  1.00  0.00     0.164 HD
BRANCH   7  10
ATOM     10  C   UNL A   1      44.779  25.506  26.435  1.00  0.00     0.176 C 
BRANCH  10  11
ATOM     11  N   UNL A   1      46.007  24.977  25.793  1.00  0.00    -0.337 N 
ATOM     12  C   UNL A   1      46.220  23.845  24.986  1.00  0.00     0.293 C 
ATOM     13  O   UNL A   1      47.381  23.503  24.778  1.00  0.00    -0.265 OA
ATOM     14  H   UNL A   1      46.815  25.515  25.961  1.00  0.00     0.164 HD
BRANCH  12  15
ATOM     15  C   UNL A   1      45.027  23.064  24.376  1.00  0.00     0.252 C 
ATOM     16  O   UNL A   1      45.005  23.064  23.141  1.00  0.00    -0.283 OA
BRANCH  15  17
ATOM     17  C   UNL A   1      43.921  22.418  25.142  1.00  0.00     0.054 A 
ATOM     18  N   UNL A   1      42.063  21.944  26.362  1.00  0.00    -0.240 N 
ATOM     19  C   UNL A   1      42.743  22.944  25.665  1.00  0.00     0.117 A 
ATOM     20  C   UNL A   1      42.634  20.714  26.071  1.00  0.00     0.065 A 
ATOM     21  C   UNL A   1      43.853  21.000  25.431  1.00  0.00     0.012 A 
ATOM     22  C   UNL A   1      42.218  19.380  26.267  1.00  0.00     0.028 A 
ATOM     23  C   UNL A   1      44.717  19.922  25.124  1.00  0.00     0.011 A 
ATOM     24  C   UNL A   1      43.059  18.339  25.861  1.00  0.00     0.002 A 
ATOM     25  C   UNL A   1      44.312  18.603  25.332  1.00  0.00     0.001 A 
BRANCH  18  26
ATOM     26  S   UNL A   1      40.500  22.161  27.072  1.00  0.00     0.268 S 
ATOM     27  O   UNL A   1      40.462  21.320  28.260  1.00  0.00    -0.201 OA
ATOM     28  O   UNL A   1      39.565  21.881  25.991  1.00  0.00    -0.201 OA
BRANCH  26  29
ATOM     29  C   UNL A   1      40.152  23.836  27.642  1.00  0.00     0.088 A 
ATOM     30  C   UNL A   1      40.438  28.173  27.823  1.00  0.00     0.044 C 
ATOM     31  C   UNL A   1      40.258  26.678  27.848  1.00  0.00    -0.051 A 
ATOM     32  C   UNL A   1      39.250  26.045  27.106  1.00  0.00     0.005 A 
ATOM     33  C   UNL A   1      41.186  25.878  28.513  1.00  0.00     0.005 A 
ATOM     34  C   UNL A   1      39.194  24.635  27.001  1.00  0.00     0.022 A 
ATOM     35  C   UNL A   1      41.142  24.482  28.389  1.00  0.00     0.022 A 
ENDBRANCH  26  29
ENDBRANCH  18  26
ENDBRANCH  15  17
ENDBRANCH  12  15
ENDBRANCH  10  11
BRANCH  10  36
ATOM     36  C   UNL A   1      44.973  25.842  27.945  1.00  0.00     0.072 C 
BRANCH  36  37
ATOM     37  C   UNL A   1      44.812  24.748  28.971  1.00  0.00    -0.020 A 
ATOM     38  C   UNL A   1      44.476  23.432  28.690  1.00  0.00     0.087 A 
ATOM     39  C   UNL A   1      44.931  24.833  30.404  1.00  0.00     0.003 A 
ATOM     40  N   UNL A   1      44.282  22.768  29.873  1.00  0.00    -0.361 N 
ATOM     41  C   UNL A   1      44.452  23.628  30.930  1.00  0.00     0.046 A 
ATOM     42  C   UNL A   1      45.276  25.857  31.311  1.00  0.00     0.010 A 
ATOM     43  H   UNL A   1      44.055  21.813  29.954  1.00  0.00     0.166 HD
ATOM     44  C   UNL A   1      44.194  23.440  32.293  1.00  0.00     0.026 A 
ATOM     45  C   UNL A   1      45.002  25.694  32.674  1.00  0.00     0.001 A 
ATOM     46  C   UNL A   1      44.448  24.512  33.153  1.00  0.00     0.002 A 
ENDBRANCH  36  37
ENDBRANCH  10  36
ENDBRANCH   7  10
ENDBRANCH   5   6
ENDBRANCH   1   5
BRANCH   3  47
ATOM     47  C   UNL A   1      44.708  31.688  26.321  1.00  0.00     0.116 C 
BRANCH  47  48
ATOM     48  C   UNL A   1      45.133  33.075  26.809  1.00  0.00     0.023 C 
BRANCH  48  49
ATOM     49  C   UNL A   1      43.962  34.026  27.054  1.00  0.00     0.023 C 
BRANCH  49  50
ATOM     50  C   UNL A   1      43.845  34.455  28.508  1.00  0.00     0.116 C 
BRANCH  50  51
ATOM     51  N   UNL A   1      42.598  34.139  29.167  1.00  0.00    -0.352 N 
ATOM     52  C   UNL A   1      42.302  33.025  29.941  1.00  0.00     0.251 C 
ATOM     53  H   UNL A   1      41.871  34.793  29.054  1.00  0.00     0.163 HD
ATOM     54  O   UNL A   1      41.147  32.732  30.198  1.00  0.00    -0.269 OA
BRANCH  52  55
ATOM     55  C   UNL A   1      43.418  32.260  30.568  1.00  0.00     0.039 A 
ATOM     56  C   UNL A   1      43.359  30.864  30.476  1.00  0.00     0.014 A 
ATOM     57  C   UNL A   1      44.361  32.857  31.401  1.00  0.00     0.014 A 
ATOM     58  C   UNL A   1      44.065  30.086  31.388  1.00  0.00     0.010 A 
ATOM     59  C   UNL A   1      44.962  32.101  32.385  1.00  0.00     0.010 A 
ATOM     60  C   UNL A   1      44.758  30.723  32.412  1.00  0.00    -0.014 A 
BRANCH  60  61
ATOM     61  C   UNL A   1      45.301  30.033  33.571  1.00  0.00     0.031 A 
ATOM     62  C   UNL A   1      46.482  29.179  33.395  1.00  0.00     0.074 A 
ATOM     63  C   UNL A   1      44.746  30.249  34.782  1.00  0.00     0.049 A 
ATOM     64  N   UNL A   1      46.872  28.275  34.221  1.00  0.00    -0.248 NA
ATOM     65  C   UNL A   1      47.301  29.253  32.191  1.00  0.00     0.031 C 
ATOM     66  C   UNL A   1      45.203  29.796  36.094  1.00  0.00     0.029 A 
ATOM     67  N   UNL A   1      43.406  30.590  34.988  1.00  0.00    -0.354 N 
ATOM     68  C   UNL A   1      48.139  27.895  33.839  1.00  0.00     0.074 A 
ATOM     69  C   UNL A   1      48.300  28.431  32.512  1.00  0.00     0.031 C 
ATOM     70  C   UNL A   1      44.118  29.541  36.849  1.00  0.00     0.029 A 
ATOM     71  C   UNL A   1      42.972  29.668  35.958  1.00  0.00     0.049 A 
ATOM     72  H   UNL A   1      42.888  31.307  34.556  1.00  0.00     0.167 HD
ATOM     73  C   UNL A   1      48.954  27.337  34.778  1.00  0.00     0.034 A 
ATOM     74  C   UNL A   1      42.140  28.644  35.611  1.00  0.00     0.034 A 
ATOM     75  C   UNL A   1      48.185  26.955  35.964  1.00  0.00     0.049 A 
ATOM     76  C   UNL A   1      42.626  27.297  36.086  1.00  0.00     0.074 A 
ATOM     77  C   UNL A   1      48.025  27.517  37.221  1.00  0.00     0.029 A 
ATOM     78  N   UNL A   1      47.181  26.003  35.828  1.00  0.00    -0.354 N 
ATOM     79  N   UNL A   1      43.883  26.944  36.122  1.00  0.00    -0.248 NA
ATOM     80  C   UNL A   1      41.735  26.272  36.619  1.00  0.00     0.031 C 
ATOM     81  C   UNL A   1      46.856  26.955  37.804  1.00  0.00     0.029 A 
ATOM     82  C   UNL A   1      46.335  26.030  36.915  1.00  0.00     0.049 A 
ATOM     83  H   UNL A   1      47.088  25.393  35.061  1.00  0.00     0.167 HD
ATOM     84  C   UNL A   1      43.987  25.710  36.724  1.00  0.00     0.074 A 
ATOM     85  C   UNL A   1      42.613  25.326  36.995  1.00  0.00     0.031 C 
ATOM     86  C   UNL A   1      45.197  25.124  36.979  1.00  0.00     0.034 A 
BRANCH  73  87
ATOM     87  C   UNL A   1      50.466  27.466  34.765  1.00  0.00     0.023 A 
ATOM     88  C   UNL A   1      51.241  26.286  34.784  1.00  0.00     0.031 A 
ATOM     89  C   UNL A   1      51.208  28.661  34.851  1.00  0.00     0.131 A 
ATOM     90  C   UNL A   1      52.633  26.315  34.991  1.00  0.00     0.055 A 
ATOM     91  C   UNL A   1      52.590  28.694  35.085  1.00  0.00     0.041 A 
ATOM     92  F   UNL A   1      50.654  29.863  34.671  1.00  0.00    -0.206 F 
ATOM     93  C   UNL A   1      53.310  27.515  35.172  1.00  0.00     0.022 A 
BRANCH  90  94
ATOM     94  S   UNL A   1      53.549  24.752  35.040  1.00  0.00     0.124 S 
ATOM     95  O   UNL A   1      52.479  23.766  34.920  1.00  0.00    -0.237 OA
ATOM     96  O   UNL A   1      54.444  24.879  33.896  1.00  0.00    -0.237 OA
ATOM     97  O   UNL A   1      54.208  24.788  36.345  1.00  0.00    -0.744 OA
ENDBRANCH  90  94
ENDBRANCH  73  87
BRANCH  74  98
ATOM     98  C   UNL A   1      41.299  28.887  34.396  1.00  0.00     0.023 A 
ATOM     99  C   UNL A   1      40.253  29.835  34.479  1.00  0.00     0.031 A 
ATOM    100  C   UNL A   1      41.558  28.355  33.130  1.00  0.00     0.131 A 
ATOM    101  C   UNL A   1      39.541  30.259  33.353  1.00  0.00     0.055 A 
ATOM    102  C   UNL A   1      40.845  28.780  31.993  1.00  0.00     0.041 A 
ATOM    103  F   UNL A   1      42.534  27.454  32.952  1.00  0.00    -0.206 F 
ATOM    104  C   UNL A   1      39.842  29.746  32.097  1.00  0.00     0.022 A 
BRANCH 101 105
ATOM    105  S   UNL A   1      38.245  31.507  33.572  1.00  0.00     0.124 S 
ATOM    106  O   UNL A   1      38.789  32.601  32.770  1.00  0.00    -0.237 OA
ATOM    107  O   UNL A   1      37.053  30.859  33.027  1.00  0.00    -0.237 OA
ATOM    108  O   UNL A   1      38.219  31.732  35.013  1.00  0.00    -0.744 OA
ENDBRANCH 101 105
ENDBRANCH  74  98
BRANCH  86 109
ATOM    109  C   UNL A   1      45.454  23.678  37.374  1.00  0.00     0.023 A 
ATOM    110  C   UNL A   1      45.596  22.628  36.457  1.00  0.00     0.031 A 
ATOM    111  C   UNL A   1      45.687  23.330  38.733  1.00  0.00     0.131 A 
ATOM    112  C   UNL A   1      45.906  21.320  36.883  1.00  0.00     0.055 A 
ATOM    113  C   UNL A   1      46.060  22.048  39.146  1.00  0.00     0.041 A 
ATOM    114  F   UNL A   1      45.589  24.225  39.726  1.00  0.00    -0.206 F 
ATOM    115  C   UNL A   1      46.166  21.028  38.218  1.00  0.00     0.022 A 
BRANCH 112 116
ATOM    116  S   UNL A   1      45.935  19.996  35.646  1.00  0.00     0.124 S 
ATOM    117  O   UNL A   1      47.310  20.069  35.161  1.00  0.00    -0.237 OA
ATOM    118  O   UNL A   1      45.606  18.817  36.442  1.00  0.00    -0.237 OA
ATOM    119  O   UNL A   1      44.915  20.399  34.682  1.00  0.00    -0.744 OA
ENDBRANCH 112 116
ENDBRANCH  86 109
ENDBRANCH  60  61
ENDBRANCH  52  55
ENDBRANCH  50  51
ENDBRANCH  49  50
ENDBRANCH  48  49
ENDBRANCH  47  48
ENDBRANCH   3  47
TORSDOF 23
ENDMDL
