MODEL 1
REMARK VINA RESULT:     -11.9      0.000      0.000
REMARK SMILES CC(C)Cc1ccc([C@H](C)C(=O)NCCCCNC(=O)c2ccc(-c3c4nc(c(-c5cc(S(=O)(=O)[O-])ccc5F)c5ccc([nH]5)c(-c5cc(S(=O)(=O)[O-])ccc5F)c5nc(c(-c6cc(S(=O)(=O)[O-])ccc6F)c6ccc3[nH]6)C=C5)C=C4)cc2)cc1
REMARK SMILES IDX 15 1 14 2 13 3 11 4 12 5 9 7 10 8 8 9 5 10 6 11 85 12 7 13
REMARK SMILES IDX 84 14 4 15 2 16 1 17 3 18 16 19 17 20 18 21 19 22 20 24
REMARK SMILES IDX 21 25 22 26 83 27 23 28 82 29 24 30 25 31 26 32 76 33 27 34
REMARK SMILES IDX 81 35 75 36 77 37 28 38 80 39 74 40 73 41 29 43 61 44 41 45
REMARK SMILES IDX 60 46 42 47 45 48 59 49 78 50 43 51 44 52 58 54 79 55 46 56
REMARK SMILES IDX 30 57 31 58 39 59 32 60 38 61 40 62 37 63 33 64 34 65 35 66
REMARK SMILES IDX 36 67 62 68 63 69 71 70 64 71 70 72 72 73 69 74 65 75 66 76
REMARK SMILES IDX 67 77 68 78 47 79 48 80 56 81 49 82 55 83 57 84 54 85 50 86
REMARK SMILES IDX 51 87 52 88 53 89
REMARK H PARENT 13 6 18 23 77 42 45 53
REMARK Flexibility Score: inf
ROOT
ATOM      1  C   UNL A   1      31.849  29.148  27.407  1.00  0.00     0.023 C 
ENDROOT
BRANCH   1   2
ATOM      2  C   UNL A   1      32.298  27.861  26.728  1.00  0.00     0.116 C 
BRANCH   2   3
ATOM      3  N   UNL A   1      31.365  26.763  26.929  1.00  0.00    -0.356 N 
ATOM      4  C   UNL A   1      30.778  25.928  26.022  1.00  0.00     0.227 C 
ATOM      5  O   UNL A   1      30.169  24.952  26.472  1.00  0.00    -0.274 OA
ATOM      6  H   UNL A   1      31.119  26.595  27.867  1.00  0.00     0.163 HD
BRANCH   4   7
ATOM      7  C   UNL A   1      30.817  26.184  24.511  1.00  0.00     0.105 C 
ATOM      8  C   UNL A   1      30.571  24.880  23.742  1.00  0.00     0.023 C 
BRANCH   7   9
ATOM      9  C   UNL A   1      30.019  27.377  23.996  1.00  0.00    -0.036 A 
ATOM     10  C   UNL A   1      28.495  29.561  23.006  1.00  0.00    -0.048 A 
ATOM     11  C   UNL A   1      29.828  29.726  23.385  1.00  0.00     0.004 A 
ATOM     12  C   UNL A   1      27.919  28.295  23.144  1.00  0.00     0.004 A 
ATOM     13  C   UNL A   1      30.589  28.639  23.809  1.00  0.00     0.005 A 
ATOM     14  C   UNL A   1      28.668  27.220  23.639  1.00  0.00     0.005 A 
BRANCH  10  15
ATOM     15  C   UNL A   1      27.703  30.721  22.445  1.00  0.00     0.038 C 
BRANCH  15  16
ATOM     16  C   UNL A   1      28.569  31.814  21.774  1.00  0.00    -0.013 C 
ATOM     17  C   UNL A   1      28.002  32.240  20.416  1.00  0.00     0.008 C 
ATOM     18  C   UNL A   1      28.704  33.029  22.690  1.00  0.00     0.008 C 
ENDBRANCH  15  16
ENDBRANCH  10  15
ENDBRANCH   7   9
ENDBRANCH   4   7
ENDBRANCH   2   3
ENDBRANCH   1   2
BRANCH   1  19
ATOM     19  C   UNL A   1      32.150  30.430  26.624  1.00  0.00     0.023 C 
BRANCH  19  20
ATOM     20  C   UNL A   1      33.215  31.346  27.223  1.00  0.00     0.116 C 
BRANCH  20  21
ATOM     21  N   UNL A   1      32.778  32.731  27.350  1.00  0.00    -0.352 N 
ATOM     22  C   UNL A   1      33.250  33.719  28.183  1.00  0.00     0.251 C 
ATOM     23  H   UNL A   1      32.040  32.997  26.755  1.00  0.00     0.163 HD
ATOM     24  O   UNL A   1      32.674  34.803  28.236  1.00  0.00    -0.269 OA
BRANCH  22  25
ATOM     25  C   UNL A   1      34.422  33.452  29.042  1.00  0.00     0.039 A 
ATOM     26  C   UNL A   1      34.240  32.756  30.239  1.00  0.00     0.014 A 
ATOM     27  C   UNL A   1      35.703  33.839  28.638  1.00  0.00     0.014 A 
ATOM     28  C   UNL A   1      35.354  32.356  30.981  1.00  0.00     0.010 A 
ATOM     29  C   UNL A   1      36.814  33.384  29.345  1.00  0.00     0.010 A 
ATOM     30  C   UNL A   1      36.650  32.619  30.511  1.00  0.00    -0.014 A 
BRANCH  30  31
ATOM     31  C   UNL A   1      37.848  32.062  31.194  1.00  0.00     0.031 A 
ATOM     32  C   UNL A   1      38.616  30.928  30.575  1.00  0.00     0.074 A 
ATOM     33  C   UNL A   1      38.188  32.521  32.416  1.00  0.00     0.049 A 
ATOM     34  N   UNL A   1      39.615  30.239  31.064  1.00  0.00    -0.248 NA
ATOM     35  C   UNL A   1      38.184  30.498  29.238  1.00  0.00     0.031 C 
ATOM     36  C   UNL A   1      37.496  33.590  33.140  1.00  0.00     0.029 A 
ATOM     37  N   UNL A   1      39.190  32.138  33.273  1.00  0.00    -0.354 N 
ATOM     38  C   UNL A   1      39.925  29.285  30.102  1.00  0.00     0.074 A 
ATOM     39  C   UNL A   1      38.968  29.451  29.027  1.00  0.00     0.031 C 
ATOM     40  C   UNL A   1      38.104  33.788  34.320  1.00  0.00     0.029 A 
ATOM     41  C   UNL A   1      39.195  32.830  34.463  1.00  0.00     0.049 A 
ATOM     42  H   UNL A   1      39.844  31.435  33.057  1.00  0.00     0.167 HD
ATOM     43  C   UNL A   1      40.925  28.368  30.107  1.00  0.00     0.034 A 
ATOM     44  C   UNL A   1      39.976  32.696  35.553  1.00  0.00     0.034 A 
ATOM     45  C   UNL A   1      41.873  28.220  31.185  1.00  0.00     0.049 A 
ATOM     46  C   UNL A   1      41.056  31.645  35.553  1.00  0.00     0.074 A 
ATOM     47  C   UNL A   1      42.961  27.366  31.265  1.00  0.00     0.029 A 
ATOM     48  N   UNL A   1      41.843  28.933  32.376  1.00  0.00    -0.354 N 
ATOM     49  N   UNL A   1      41.367  30.782  34.613  1.00  0.00    -0.248 NA
ATOM     50  C   UNL A   1      41.892  31.553  36.756  1.00  0.00     0.031 C 
ATOM     51  C   UNL A   1      43.547  27.517  32.527  1.00  0.00     0.029 A 
ATOM     52  C   UNL A   1      42.870  28.515  33.210  1.00  0.00     0.049 A 
ATOM     53  H   UNL A   1      41.188  29.634  32.597  1.00  0.00     0.167 HD
ATOM     54  C   UNL A   1      42.451  30.062  35.105  1.00  0.00     0.074 A 
ATOM     55  C   UNL A   1      42.749  30.601  36.415  1.00  0.00     0.031 C 
ATOM     56  C   UNL A   1      43.144  29.049  34.523  1.00  0.00     0.034 A 
BRANCH  43  57
ATOM     57  C   UNL A   1      41.021  27.443  28.918  1.00  0.00     0.023 A 
ATOM     58  C   UNL A   1      42.016  27.605  27.937  1.00  0.00     0.031 A 
ATOM     59  C   UNL A   1      40.092  26.401  28.747  1.00  0.00     0.131 A 
ATOM     60  C   UNL A   1      42.012  26.792  26.794  1.00  0.00     0.055 A 
ATOM     61  C   UNL A   1      40.142  25.543  27.646  1.00  0.00     0.041 A 
ATOM     62  F   UNL A   1      39.108  26.209  29.641  1.00  0.00    -0.206 F 
ATOM     63  C   UNL A   1      41.096  25.746  26.653  1.00  0.00     0.022 A 
BRANCH  60  64
ATOM     64  S   UNL A   1      43.128  27.213  25.429  1.00  0.00     0.124 S 
ATOM     65  O   UNL A   1      44.266  27.786  26.145  1.00  0.00    -0.237 OA
ATOM     66  O   UNL A   1      43.357  25.920  24.797  1.00  0.00    -0.237 OA
ATOM     67  O   UNL A   1      42.356  28.169  24.637  1.00  0.00    -0.744 OA
ENDBRANCH  60  64
ENDBRANCH  43  57
BRANCH  44  68
ATOM     68  C   UNL A   1      39.761  33.561  36.748  1.00  0.00     0.023 A 
ATOM     69  C   UNL A   1      39.125  33.063  37.895  1.00  0.00     0.031 A 
ATOM     70  C   UNL A   1      40.154  34.912  36.745  1.00  0.00     0.131 A 
ATOM     71  C   UNL A   1      38.859  33.919  38.976  1.00  0.00     0.055 A 
ATOM     72  C   UNL A   1      39.932  35.747  37.841  1.00  0.00     0.041 A 
ATOM     73  F   UNL A   1      40.772  35.437  35.675  1.00  0.00    -0.206 F 
ATOM     74  C   UNL A   1      39.270  35.254  38.962  1.00  0.00     0.022 A 
BRANCH  71  75
ATOM     75  S   UNL A   1      37.898  33.278  40.374  1.00  0.00     0.124 S 
ATOM     76  O   UNL A   1      38.682  32.112  40.764  1.00  0.00    -0.237 OA
ATOM     77  O   UNL A   1      37.921  34.406  41.299  1.00  0.00    -0.237 OA
ATOM     78  O   UNL A   1      36.594  32.985  39.784  1.00  0.00    -0.744 OA
ENDBRANCH  71  75
ENDBRANCH  44  68
BRANCH  56  79
ATOM     79  C   UNL A   1      44.312  28.490  35.293  1.00  0.00     0.023 A 
ATOM     80  C   UNL A   1      44.142  27.500  36.277  1.00  0.00     0.031 A 
ATOM     81  C   UNL A   1      45.613  28.961  35.045  1.00  0.00     0.131 A 
ATOM     82  C   UNL A   1      45.250  27.048  37.011  1.00  0.00     0.055 A 
ATOM     83  C   UNL A   1      46.719  28.467  35.740  1.00  0.00     0.041 A 
ATOM     84  F   UNL A   1      45.832  29.907  34.118  1.00  0.00    -0.206 F 
ATOM     85  C   UNL A   1      46.539  27.512  36.737  1.00  0.00     0.022 A 
BRANCH  82  86
ATOM     86  S   UNL A   1      44.975  25.894  38.384  1.00  0.00     0.124 S 
ATOM     87  O   UNL A   1      44.898  24.612  37.691  1.00  0.00    -0.237 OA
ATOM     88  O   UNL A   1      46.159  26.102  39.211  1.00  0.00    -0.237 OA
ATOM     89  O   UNL A   1      43.721  26.357  38.974  1.00  0.00    -0.744 OA
ENDBRANCH  82  86
ENDBRANCH  56  79
ENDBRANCH  30  31
ENDBRANCH  22  25
ENDBRANCH  20  21
ENDBRANCH  19  20
ENDBRANCH   1  19
TORSDOF 17
ENDMDL
MODEL 2
REMARK VINA RESULT:     -11.7      1.883      2.383
REMARK SMILES CC(C)Cc1ccc([C@H](C)C(=O)NCCCCNC(=O)c2ccc(-c3c4nc(c(-c5cc(S(=O)(=O)[O-])ccc5F)c5ccc([nH]5)c(-c5cc(S(=O)(=O)[O-])ccc5F)c5nc(c(-c6cc(S(=O)(=O)[O-])ccc6F)c6ccc3[nH]6)C=C5)C=C4)cc2)cc1
REMARK SMILES IDX 15 1 14 2 13 3 11 4 12 5 9 7 10 8 8 9 5 10 6 11 85 12 7 13
REMARK SMILES IDX 84 14 4 15 2 16 1 17 3 18 16 19 17 20 18 21 19 22 20 24
REMARK SMILES IDX 21 25 22 26 83 27 23 28 82 29 24 30 25 31 26 32 76 33 27 34
REMARK SMILES IDX 81 35 75 36 77 37 28 38 80 39 74 40 73 41 29 43 61 44 41 45
REMARK SMILES IDX 60 46 42 47 45 48 59 49 78 50 43 51 44 52 58 54 79 55 46 56
REMARK SMILES IDX 30 57 31 58 39 59 32 60 38 61 40 62 37 63 33 64 34 65 35 66
REMARK SMILES IDX 36 67 62 68 63 69 71 70 64 71 70 72 72 73 69 74 65 75 66 76
REMARK SMILES IDX 67 77 68 78 47 79 48 80 56 81 49 82 55 83 57 84 54 85 50 86
REMARK SMILES IDX 51 87 52 88 53 89
REMARK H PARENT 13 6 18 23 77 42 45 53
REMARK Flexibility Score: inf
ROOT
ATOM      1  C   UNL A   1      31.443  27.857  26.931  1.00  0.00     0.023 C 
ENDROOT
BRANCH   1   2
ATOM      2  C   UNL A   1      32.217  26.614  26.510  1.00  0.00     0.116 C 
BRANCH   2   3
ATOM      3  N   UNL A   1      31.423  25.399  26.601  1.00  0.00    -0.356 N 
ATOM      4  C   UNL A   1      30.940  24.586  25.617  1.00  0.00     0.227 C 
ATOM      5  O   UNL A   1      30.452  23.507  25.971  1.00  0.00    -0.274 OA
ATOM      6  H   UNL A   1      31.199  25.119  27.518  1.00  0.00     0.163 HD
BRANCH   4   7
ATOM      7  C   UNL A   1      30.948  24.980  24.135  1.00  0.00     0.105 C 
ATOM      8  C   UNL A   1      30.740  23.744  23.253  1.00  0.00     0.023 C 
BRANCH   7   9
ATOM      9  C   UNL A   1      30.097  26.183  23.742  1.00  0.00    -0.036 A 
ATOM     10  C   UNL A   1      28.563  28.460  23.011  1.00  0.00    -0.048 A 
ATOM     11  C   UNL A   1      27.983  27.390  23.693  1.00  0.00     0.004 A 
ATOM     12  C   UNL A   1      29.918  28.378  22.678  1.00  0.00     0.004 A 
ATOM     13  C   UNL A   1      28.753  26.305  24.105  1.00  0.00     0.005 A 
ATOM     14  C   UNL A   1      30.673  27.252  23.033  1.00  0.00     0.005 A 
BRANCH  10  15
ATOM     15  C   UNL A   1      27.747  29.684  22.659  1.00  0.00     0.038 C 
BRANCH  15  16
ATOM     16  C   UNL A   1      28.589  30.897  22.199  1.00  0.00    -0.013 C 
ATOM     17  C   UNL A   1      28.107  31.454  20.856  1.00  0.00     0.008 C 
ATOM     18  C   UNL A   1      28.569  31.997  23.259  1.00  0.00     0.008 C 
ENDBRANCH  15  16
ENDBRANCH  10  15
ENDBRANCH   7   9
ENDBRANCH   4   7
ENDBRANCH   2   3
ENDBRANCH   1   2
BRANCH   1  19
ATOM     19  C   UNL A   1      31.536  29.035  25.955  1.00  0.00     0.023 C 
BRANCH  19  20
ATOM     20  C   UNL A   1      32.793  29.896  26.063  1.00  0.00     0.116 C 
BRANCH  20  21
ATOM     21  N   UNL A   1      32.524  31.254  26.516  1.00  0.00    -0.352 N 
ATOM     22  C   UNL A   1      33.274  32.062  27.340  1.00  0.00     0.251 C 
ATOM     23  H   UNL A   1      31.685  31.651  26.186  1.00  0.00     0.163 HD
ATOM     24  O   UNL A   1      32.827  33.143  27.712  1.00  0.00    -0.269 OA
BRANCH  22  25
ATOM     25  C   UNL A   1      34.598  31.600  27.806  1.00  0.00     0.039 A 
ATOM     26  C   UNL A   1      35.642  32.523  27.900  1.00  0.00     0.014 A 
ATOM     27  C   UNL A   1      34.791  30.273  28.199  1.00  0.00     0.014 A 
ATOM     28  C   UNL A   1      36.851  32.140  28.488  1.00  0.00     0.010 A 
ATOM     29  C   UNL A   1      35.972  29.911  28.842  1.00  0.00     0.010 A 
ATOM     30  C   UNL A   1      37.005  30.847  29.013  1.00  0.00    -0.014 A 
BRANCH  30  31
ATOM     31  C   UNL A   1      38.216  30.466  29.788  1.00  0.00     0.031 A 
ATOM     32  C   UNL A   1      39.182  29.455  29.238  1.00  0.00     0.074 A 
ATOM     33  C   UNL A   1      38.394  30.966  31.028  1.00  0.00     0.049 A 
ATOM     34  N   UNL A   1      40.230  28.916  29.806  1.00  0.00    -0.248 NA
ATOM     35  C   UNL A   1      38.918  28.970  27.876  1.00  0.00     0.031 C 
ATOM     36  C   UNL A   1      37.503  31.924  31.689  1.00  0.00     0.029 A 
ATOM     37  N   UNL A   1      39.373  30.729  31.961  1.00  0.00    -0.354 N 
ATOM     38  C   UNL A   1      40.745  28.018  28.878  1.00  0.00     0.074 A 
ATOM     39  C   UNL A   1      39.858  28.048  27.733  1.00  0.00     0.031 C 
ATOM     40  C   UNL A   1      37.986  32.204  32.910  1.00  0.00     0.029 A 
ATOM     41  C   UNL A   1      39.190  31.413  33.142  1.00  0.00     0.049 A 
ATOM     42  H   UNL A   1      40.135  30.128  31.800  1.00  0.00     0.167 HD
ATOM     43  C   UNL A   1      41.863  27.255  28.965  1.00  0.00     0.034 A 
ATOM     44  C   UNL A   1      39.898  31.390  34.288  1.00  0.00     0.034 A 
ATOM     45  C   UNL A   1      42.739  27.242  30.112  1.00  0.00     0.049 A 
ATOM     46  C   UNL A   1      41.115  30.505  34.377  1.00  0.00     0.074 A 
ATOM     47  C   UNL A   1      43.929  26.553  30.280  1.00  0.00     0.029 A 
ATOM     48  N   UNL A   1      42.518  27.942  31.291  1.00  0.00    -0.354 N 
ATOM     49  N   UNL A   1      41.616  29.698  33.471  1.00  0.00    -0.248 NA
ATOM     50  C   UNL A   1      41.862  30.531  35.641  1.00  0.00     0.031 C 
ATOM     51  C   UNL A   1      44.391  26.784  31.581  1.00  0.00     0.029 A 
ATOM     52  C   UNL A   1      43.529  27.673  32.203  1.00  0.00     0.049 A 
ATOM     53  H   UNL A   1      41.754  28.540  31.457  1.00  0.00     0.167 HD
ATOM     54  C   UNL A   1      42.752  29.140  34.048  1.00  0.00     0.074 A 
ATOM     55  C   UNL A   1      42.870  29.713  35.373  1.00  0.00     0.031 C 
ATOM     56  C   UNL A   1      43.624  28.239  33.528  1.00  0.00     0.034 A 
BRANCH  43  57
ATOM     57  C   UNL A   1      42.180  26.356  27.795  1.00  0.00     0.023 A 
ATOM     58  C   UNL A   1      41.808  25.000  27.787  1.00  0.00     0.031 A 
ATOM     59  C   UNL A   1      42.887  26.851  26.685  1.00  0.00     0.131 A 
ATOM     60  C   UNL A   1      42.210  24.169  26.730  1.00  0.00     0.055 A 
ATOM     61  C   UNL A   1      43.214  26.037  25.597  1.00  0.00     0.041 A 
ATOM     62  F   UNL A   1      43.285  28.133  26.644  1.00  0.00    -0.206 F 
ATOM     63  C   UNL A   1      42.889  24.684  25.624  1.00  0.00     0.022 A 
BRANCH  60  64
ATOM     64  S   UNL A   1      41.957  22.381  26.892  1.00  0.00     0.124 S 
ATOM     65  O   UNL A   1      41.638  22.256  28.312  1.00  0.00    -0.237 OA
ATOM     66  O   UNL A   1      40.859  22.132  25.966  1.00  0.00    -0.237 OA
ATOM     67  O   UNL A   1      43.246  21.815  26.499  1.00  0.00    -0.744 OA
ENDBRANCH  60  64
ENDBRANCH  43  57
BRANCH  44  68
ATOM     68  C   UNL A   1      39.472  32.213  35.456  1.00  0.00     0.023 A 
ATOM     69  C   UNL A   1      38.733  31.648  36.506  1.00  0.00     0.031 A 
ATOM     70  C   UNL A   1      39.764  33.587  35.520  1.00  0.00     0.131 A 
ATOM     71  C   UNL A   1      38.272  32.460  37.555  1.00  0.00     0.055 A 
ATOM     72  C   UNL A   1      39.347  34.381  36.589  1.00  0.00     0.041 A 
ATOM     73  F   UNL A   1      40.474  34.177  34.544  1.00  0.00    -0.206 F 
ATOM     74  C   UNL A   1      38.585  33.820  37.610  1.00  0.00     0.022 A 
BRANCH  71  75
ATOM     75  S   UNL A   1      37.190  31.725  38.811  1.00  0.00     0.124 S 
ATOM     76  O   UNL A   1      38.009  31.839  40.013  1.00  0.00    -0.237 OA
ATOM     77  O   UNL A   1      36.019  32.591  38.747  1.00  0.00    -0.237 OA
ATOM     78  O   UNL A   1      36.982  30.362  38.325  1.00  0.00    -0.744 OA
ENDBRANCH  71  75
ENDBRANCH  44  68
BRANCH  56  79
ATOM     79  C   UNL A   1      44.800  27.851  34.388  1.00  0.00     0.023 A 
ATOM     80  C   UNL A   1      44.710  26.820  35.340  1.00  0.00     0.031 A 
ATOM     81  C   UNL A   1      46.024  28.530  34.259  1.00  0.00     0.131 A 
ATOM     82  C   UNL A   1      45.812  26.530  36.160  1.00  0.00     0.055 A 
ATOM     83  C   UNL A   1      47.133  28.199  35.040  1.00  0.00     0.041 A 
ATOM     84  F   UNL A   1      46.163  29.524  33.368  1.00  0.00    -0.206 F 
ATOM     85  C   UNL A   1      47.028  27.201  36.004  1.00  0.00     0.022 A 
BRANCH  82  86
ATOM     86  S   UNL A   1      45.614  25.310  37.488  1.00  0.00     0.124 S 
ATOM     87  O   UNL A   1      46.463  24.217  37.025  1.00  0.00    -0.237 OA
ATOM     88  O   UNL A   1      46.094  26.039  38.658  1.00  0.00    -0.237 OA
ATOM     89  O   UNL A   1      44.180  25.027  37.483  1.00  0.00    -0.744 OA
ENDBRANCH  82  86
ENDBRANCH  56  79
ENDBRANCH  30  31
ENDBRANCH  22  25
ENDBRANCH  20  21
ENDBRANCH  19  20
ENDBRANCH   1  19
TORSDOF 17
ENDMDL
MODEL 3
REMARK VINA RESULT:     -11.3      1.990      2.316
REMARK SMILES CC(C)Cc1ccc([C@H](C)C(=O)NCCCCNC(=O)c2ccc(-c3c4nc(c(-c5cc(S(=O)(=O)[O-])ccc5F)c5ccc([nH]5)c(-c5cc(S(=O)(=O)[O-])ccc5F)c5nc(c(-c6cc(S(=O)(=O)[O-])ccc6F)c6ccc3[nH]6)C=C5)C=C4)cc2)cc1
REMARK SMILES IDX 15 1 14 2 13 3 11 4 12 5 9 7 10 8 8 9 5 10 6 11 85 12 7 13
REMARK SMILES IDX 84 14 4 15 2 16 1 17 3 18 16 19 17 20 18 21 19 22 20 24
REMARK SMILES IDX 21 25 22 26 83 27 23 28 82 29 24 30 25 31 26 32 76 33 27 34
REMARK SMILES IDX 81 35 75 36 77 37 28 38 80 39 74 40 73 41 29 43 61 44 41 45
REMARK SMILES IDX 60 46 42 47 45 48 59 49 78 50 43 51 44 52 58 54 79 55 46 56
REMARK SMILES IDX 30 57 31 58 39 59 32 60 38 61 40 62 37 63 33 64 34 65 35 66
REMARK SMILES IDX 36 67 62 68 63 69 71 70 64 71 70 72 72 73 69 74 65 75 66 76
REMARK SMILES IDX 67 77 68 78 47 79 48 80 56 81 49 82 55 83 57 84 54 85 50 86
REMARK SMILES IDX 51 87 52 88 53 89
REMARK H PARENT 13 6 18 23 77 42 45 53
REMARK Flexibility Score: inf
ROOT
ATOM      1  C   UNL A   1      32.126  28.403  27.531  1.00  0.00     0.023 C 
ENDROOT
BRANCH   1   2
ATOM      2  C   UNL A   1      32.364  27.271  26.539  1.00  0.00     0.116 C 
BRANCH   2   3
ATOM      3  N   UNL A   1      31.388  26.201  26.661  1.00  0.00    -0.356 N 
ATOM      4  C   UNL A   1      30.735  25.489  25.696  1.00  0.00     0.227 C 
ATOM      5  O   UNL A   1      30.095  24.500  26.066  1.00  0.00    -0.274 OA
ATOM      6  H   UNL A   1      31.162  25.950  27.585  1.00  0.00     0.163 HD
BRANCH   4   7
ATOM      7  C   UNL A   1      30.743  25.895  24.217  1.00  0.00     0.105 C 
ATOM      8  C   UNL A   1      30.425  24.686  23.330  1.00  0.00     0.023 C 
BRANCH   7   9
ATOM      9  C   UNL A   1      29.976  27.161  23.850  1.00  0.00    -0.036 A 
ATOM     10  C   UNL A   1      28.588  29.554  23.201  1.00  0.00    -0.048 A 
ATOM     11  C   UNL A   1      27.930  28.323  23.225  1.00  0.00     0.004 A 
ATOM     12  C   UNL A   1      29.956  29.580  23.488  1.00  0.00     0.004 A 
ATOM     13  C   UNL A   1      28.600  27.164  23.605  1.00  0.00     0.005 A 
ATOM     14  C   UNL A   1      30.641  28.399  23.801  1.00  0.00     0.005 A 
BRANCH  10  15
ATOM     15  C   UNL A   1      27.832  30.827  22.892  1.00  0.00     0.038 C 
BRANCH  15  16
ATOM     16  C   UNL A   1      28.649  31.872  22.096  1.00  0.00    -0.013 C 
ATOM     17  C   UNL A   1      28.015  32.182  20.737  1.00  0.00     0.008 C 
ATOM     18  C   UNL A   1      28.806  33.159  22.906  1.00  0.00     0.008 C 
ENDBRANCH  15  16
ENDBRANCH  10  15
ENDBRANCH   7   9
ENDBRANCH   4   7
ENDBRANCH   2   3
ENDBRANCH   1   2
BRANCH   1  19
ATOM     19  C   UNL A   1      31.928  29.784  26.898  1.00  0.00     0.023 C 
BRANCH  19  20
ATOM     20  C   UNL A   1      33.103  30.753  27.022  1.00  0.00     0.116 C 
BRANCH  20  21
ATOM     21  N   UNL A   1      32.692  32.148  27.109  1.00  0.00    -0.352 N 
ATOM     22  C   UNL A   1      33.232  33.169  27.858  1.00  0.00     0.251 C 
ATOM     23  H   UNL A   1      31.919  32.396  26.553  1.00  0.00     0.163 HD
ATOM     24  O   UNL A   1      32.675  34.262  27.895  1.00  0.00    -0.269 OA
BRANCH  22  25
ATOM     25  C   UNL A   1      34.457  32.926  28.647  1.00  0.00     0.039 A 
ATOM     26  C   UNL A   1      34.343  32.347  29.913  1.00  0.00     0.014 A 
ATOM     27  C   UNL A   1      35.716  33.218  28.115  1.00  0.00     0.014 A 
ATOM     28  C   UNL A   1      35.495  31.964  30.604  1.00  0.00     0.010 A 
ATOM     29  C   UNL A   1      36.861  32.778  28.776  1.00  0.00     0.010 A 
ATOM     30  C   UNL A   1      36.761  32.126  30.016  1.00  0.00    -0.014 A 
BRANCH  30  31
ATOM     31  C   UNL A   1      37.986  31.579  30.655  1.00  0.00     0.031 A 
ATOM     32  C   UNL A   1      38.792  30.514  29.964  1.00  0.00     0.074 A 
ATOM     33  C   UNL A   1      38.321  31.978  31.899  1.00  0.00     0.049 A 
ATOM     34  N   UNL A   1      39.822  29.838  30.404  1.00  0.00    -0.248 NA
ATOM     35  C   UNL A   1      38.363  30.146  28.608  1.00  0.00     0.031 C 
ATOM     36  C   UNL A   1      37.595  32.975  32.690  1.00  0.00     0.029 A 
ATOM     37  N   UNL A   1      39.345  31.586  32.724  1.00  0.00    -0.354 N 
ATOM     38  C   UNL A   1      40.159  28.955  29.385  1.00  0.00     0.074 A 
ATOM     39  C   UNL A   1      39.185  29.145  28.329  1.00  0.00     0.031 C 
ATOM     40  C   UNL A   1      38.206  33.128  33.875  1.00  0.00     0.029 A 
ATOM     41  C   UNL A   1      39.336  32.207  33.953  1.00  0.00     0.049 A 
ATOM     42  H   UNL A   1      40.024  30.923  32.462  1.00  0.00     0.167 HD
ATOM     43  C   UNL A   1      41.195  28.080  29.329  1.00  0.00     0.034 A 
ATOM     44  C   UNL A   1      40.132  32.041  35.027  1.00  0.00     0.034 A 
ATOM     45  C   UNL A   1      42.159  27.906  30.388  1.00  0.00     0.049 A 
ATOM     46  C   UNL A   1      41.253  31.036  34.956  1.00  0.00     0.074 A 
ATOM     47  C   UNL A   1      43.280  27.094  30.409  1.00  0.00     0.029 A 
ATOM     48  N   UNL A   1      42.113  28.548  31.619  1.00  0.00    -0.354 N 
ATOM     49  N   UNL A   1      41.588  30.242  33.965  1.00  0.00    -0.248 NA
ATOM     50  C   UNL A   1      42.104  30.907  36.146  1.00  0.00     0.031 C 
ATOM     51  C   UNL A   1      43.872  27.194  31.673  1.00  0.00     0.029 A 
ATOM     52  C   UNL A   1      43.163  28.122  32.419  1.00  0.00     0.049 A 
ATOM     53  H   UNL A   1      41.433  29.207  31.887  1.00  0.00     0.167 HD
ATOM     54  C   UNL A   1      42.704  29.538  34.405  1.00  0.00     0.074 A 
ATOM     55  C   UNL A   1      42.994  30.011  35.743  1.00  0.00     0.031 C 
ATOM     56  C   UNL A   1      43.430  28.590  33.759  1.00  0.00     0.034 A 
BRANCH  43  57
ATOM     57  C   UNL A   1      41.315  27.230  28.087  1.00  0.00     0.023 A 
ATOM     58  C   UNL A   1      40.946  25.873  28.084  1.00  0.00     0.031 A 
ATOM     59  C   UNL A   1      41.830  27.773  26.896  1.00  0.00     0.131 A 
ATOM     60  C   UNL A   1      41.168  25.088  26.943  1.00  0.00     0.055 A 
ATOM     61  C   UNL A   1      41.974  27.006  25.738  1.00  0.00     0.041 A 
ATOM     62  F   UNL A   1      42.218  29.058  26.843  1.00  0.00    -0.206 F 
ATOM     63  C   UNL A   1      41.657  25.651  25.762  1.00  0.00     0.022 A 
BRANCH  60  64
ATOM     64  S   UNL A   1      40.944  23.293  27.071  1.00  0.00     0.124 S 
ATOM     65  O   UNL A   1      41.737  22.816  25.941  1.00  0.00    -0.237 OA
ATOM     66  O   UNL A   1      41.479  23.002  28.396  1.00  0.00    -0.237 OA
ATOM     67  O   UNL A   1      39.500  23.116  26.928  1.00  0.00    -0.744 OA
ENDBRANCH  60  64
ENDBRANCH  43  57
BRANCH  44  68
ATOM     68  C   UNL A   1      39.896  32.826  36.272  1.00  0.00     0.023 A 
ATOM     69  C   UNL A   1      38.982  32.385  37.241  1.00  0.00     0.031 A 
ATOM     70  C   UNL A   1      40.552  34.050  36.493  1.00  0.00     0.131 A 
ATOM     71  C   UNL A   1      38.714  33.181  38.366  1.00  0.00     0.055 A 
ATOM     72  C   UNL A   1      40.320  34.816  37.637  1.00  0.00     0.041 A 
ATOM     73  F   UNL A   1      41.441  34.515  35.601  1.00  0.00    -0.206 F 
ATOM     74  C   UNL A   1      39.387  34.387  38.576  1.00  0.00     0.022 A 
BRANCH  71  75
ATOM     75  S   UNL A   1      37.415  32.652  39.515  1.00  0.00     0.124 S 
ATOM     76  O   UNL A   1      37.870  31.318  39.885  1.00  0.00    -0.237 OA
ATOM     77  O   UNL A   1      37.497  33.671  40.555  1.00  0.00    -0.237 OA
ATOM     78  O   UNL A   1      36.203  32.694  38.699  1.00  0.00    -0.744 OA
ENDBRANCH  71  75
ENDBRANCH  44  68
BRANCH  56  79
ATOM     79  C   UNL A   1      44.627  28.033  34.486  1.00  0.00     0.023 A 
ATOM     80  C   UNL A   1      45.896  28.629  34.383  1.00  0.00     0.031 A 
ATOM     81  C   UNL A   1      44.498  26.883  35.284  1.00  0.00     0.131 A 
ATOM     82  C   UNL A   1      46.997  28.045  35.030  1.00  0.00     0.055 A 
ATOM     83  C   UNL A   1      45.585  26.338  35.970  1.00  0.00     0.041 A 
ATOM     84  F   UNL A   1      43.310  26.272  35.414  1.00  0.00    -0.206 F 
ATOM     85  C   UNL A   1      46.846  26.913  35.836  1.00  0.00     0.022 A 
BRANCH  82  86
ATOM     86  S   UNL A   1      48.647  28.741  34.745  1.00  0.00     0.124 S 
ATOM     87  O   UNL A   1      49.205  28.759  36.093  1.00  0.00    -0.237 OA
ATOM     88  O   UNL A   1      49.239  27.778  33.822  1.00  0.00    -0.237 OA
ATOM     89  O   UNL A   1      48.370  30.056  34.171  1.00  0.00    -0.744 OA
ENDBRANCH  82  86
ENDBRANCH  56  79
ENDBRANCH  30  31
ENDBRANCH  22  25
ENDBRANCH  20  21
ENDBRANCH  19  20
ENDBRANCH   1  19
TORSDOF 17
ENDMDL
