MODEL 1
REMARK VINA RESULT:     -11.1      0.000      0.000
REMARK SMILES COC(=O)Cc1nc(NC(=O)[C@H]2CC[C@@H]2C(=O)NCCCCNC(=O)c2ccc(-c3c4nc(c(-c5cc(S(=O)(=O)[O-])ccc5F)c5ccc([nH]5)c(-c5cc(S(=O)(=O)[O-])ccc5F)c5nc(c(-c6cc(S(=O)(=O)[O-])ccc6F)c6ccc3[nH]6)C=C5)C=C4)cc2)sc1C
REMARK SMILES IDX 19 1 18 2 16 3 17 4 15 6 12 7 13 8 14 9 10 10 9 11 11 13
REMARK SMILES IDX 8 14 6 15 7 16 90 17 89 18 91 19 5 20 3 21 4 22 2 23 1 24
REMARK SMILES IDX 20 25 21 26 22 27 23 28 24 29 25 31 26 32 27 33 88 34 28 35
REMARK SMILES IDX 87 36 29 37 30 38 31 39 81 40 32 41 86 42 80 43 82 44 33 45
REMARK SMILES IDX 85 46 79 47 78 48 34 50 66 51 46 52 65 53 47 54 50 55 64 56
REMARK SMILES IDX 83 57 48 58 49 59 63 61 84 62 51 63 35 64 36 65 44 66 37 67
REMARK SMILES IDX 43 68 45 69 42 70 38 71 39 72 40 73 41 74 67 75 68 76 76 77
REMARK SMILES IDX 69 78 75 79 77 80 74 81 70 82 71 83 72 84 73 85 52 86 53 87
REMARK SMILES IDX 61 88 54 89 60 90 62 91 59 92 55 93 56 94 57 95 58 96
REMARK H PARENT 18 5 9 12 23 30 82 49 50 60
REMARK Flexibility Score: inf
ROOT
ATOM      1  C   UNL A   1      37.926  23.527  26.156  1.00  0.00     0.116 C 
ENDROOT
BRANCH   1   2
ATOM      2  N   UNL A   1      37.346  23.142  24.889  1.00  0.00    -0.356 N 
ATOM      3  C   UNL A   1      36.030  23.156  24.496  1.00  0.00     0.223 C 
ATOM      4  O   UNL A   1      35.809  22.828  23.322  1.00  0.00    -0.275 OA
ATOM      5  H   UNL A   1      37.986  22.825  24.211  1.00  0.00     0.163 HD
BRANCH   3   6
ATOM      6  C   UNL A   1      34.900  23.567  25.479  1.00  0.00     0.091 C 
ATOM      7  C   UNL A   1      33.438  23.228  24.955  1.00  0.00     0.091 C 
ATOM      8  C   UNL A   1      33.379  24.724  24.519  1.00  0.00     0.015 C 
ATOM      9  C   UNL A   1      34.398  25.029  25.607  1.00  0.00     0.015 C 
BRANCH   7  10
ATOM     10  C   UNL A   1      32.396  22.703  25.980  1.00  0.00     0.230 C 
ATOM     11  N   UNL A   1      31.921  21.409  25.918  1.00  0.00    -0.302 N 
ATOM     12  H   UNL A   1      31.204  21.189  26.556  1.00  0.00     0.172 HD
ATOM     13  O   UNL A   1      31.874  23.439  26.831  1.00  0.00    -0.274 OA
BRANCH  11  14
ATOM     14  C   UNL A   1      32.307  20.388  25.095  1.00  0.00     0.189 A 
ATOM     15  C   UNL A   1      32.639  18.286  24.482  1.00  0.00     0.068 A 
ATOM     16  N   UNL A   1      32.628  19.199  25.542  1.00  0.00    -0.224 NA
ATOM     17  C   UNL A   1      32.414  18.872  23.241  1.00  0.00     0.027 A 
ATOM     18  S   UNL A   1      32.484  20.580  23.417  1.00  0.00    -0.102 S 
ATOM     19  C   UNL A   1      32.125  18.299  21.899  1.00  0.00     0.058 C 
BRANCH  15  20
ATOM     20  C   UNL A   1      32.844  16.852  24.858  1.00  0.00     0.180 C 
BRANCH  20  21
ATOM     21  C   UNL A   1      33.932  16.138  24.108  1.00  0.00     0.311 C 
ATOM     22  O   UNL A   1      34.115  16.242  22.901  1.00  0.00    -0.252 OA
BRANCH  21  23
ATOM     23  O   UNL A   1      34.675  15.358  24.942  1.00  0.00    -0.469 OA
ATOM     24  C   UNL A   1      35.742  16.052  25.590  1.00  0.00     0.282 C 
ENDBRANCH  21  23
ENDBRANCH  20  21
ENDBRANCH  15  20
ENDBRANCH  11  14
ENDBRANCH   7  10
ENDBRANCH   3   6
ENDBRANCH   1   2
BRANCH   1  25
ATOM     25  C   UNL A   1      39.285  22.899  26.432  1.00  0.00     0.023 C 
BRANCH  25  26
ATOM     26  C   UNL A   1      39.484  21.472  25.927  1.00  0.00     0.023 C 
BRANCH  26  27
ATOM     27  C   UNL A   1      40.278  20.549  26.844  1.00  0.00     0.116 C 
BRANCH  27  28
ATOM     28  N   UNL A   1      41.239  19.723  26.128  1.00  0.00    -0.352 N 
ATOM     29  C   UNL A   1      42.498  20.039  25.663  1.00  0.00     0.251 C 
ATOM     30  H   UNL A   1      40.945  18.801  25.947  1.00  0.00     0.163 HD
ATOM     31  O   UNL A   1      43.097  19.248  24.948  1.00  0.00    -0.269 OA
BRANCH  29  32
ATOM     32  C   UNL A   1      43.100  21.348  26.004  1.00  0.00     0.039 A 
ATOM     33  C   UNL A   1      43.083  22.374  25.056  1.00  0.00     0.014 A 
ATOM     34  C   UNL A   1      43.658  21.569  27.265  1.00  0.00     0.014 A 
ATOM     35  C   UNL A   1      43.537  23.651  25.406  1.00  0.00     0.010 A 
ATOM     36  C   UNL A   1      44.033  22.858  27.636  1.00  0.00     0.010 A 
ATOM     37  C   UNL A   1      43.969  23.915  26.715  1.00  0.00    -0.014 A 
BRANCH  37  38
ATOM     38  C   UNL A   1      44.369  25.279  27.157  1.00  0.00     0.031 A 
ATOM     39  C   UNL A   1      43.331  26.209  27.725  1.00  0.00     0.074 A 
ATOM     40  C   UNL A   1      45.628  25.716  26.953  1.00  0.00     0.049 A 
ATOM     41  N   UNL A   1      43.417  27.487  27.993  1.00  0.00    -0.248 NA
ATOM     42  C   UNL A   1      42.008  25.627  27.991  1.00  0.00     0.031 C 
ATOM     43  C   UNL A   1      46.722  24.920  26.392  1.00  0.00     0.029 A 
ATOM     44  N   UNL A   1      46.198  26.946  27.175  1.00  0.00    -0.354 N 
ATOM     45  C   UNL A   1      42.154  27.867  28.434  1.00  0.00     0.074 A 
ATOM     46  C   UNL A   1      41.309  26.695  28.342  1.00  0.00     0.031 C 
ATOM     47  C   UNL A   1      47.829  25.676  26.326  1.00  0.00     0.029 A 
ATOM     48  C   UNL A   1      47.515  27.026  26.783  1.00  0.00     0.049 A 
ATOM     49  H   UNL A   1      45.709  27.700  27.579  1.00  0.00     0.167 HD
ATOM     50  C   UNL A   1      41.742  29.076  28.890  1.00  0.00     0.034 A 
ATOM     51  C   UNL A   1      48.365  28.075  26.767  1.00  0.00     0.034 A 
ATOM     52  C   UNL A   1      42.602  30.229  28.993  1.00  0.00     0.049 A 
ATOM     53  C   UNL A   1      47.877  29.418  27.251  1.00  0.00     0.074 A 
ATOM     54  C   UNL A   1      42.300  31.490  29.478  1.00  0.00     0.029 A 
ATOM     55  N   UNL A   1      43.936  30.263  28.605  1.00  0.00    -0.354 N 
ATOM     56  N   UNL A   1      46.685  29.758  27.682  1.00  0.00    -0.248 NA
ATOM     57  C   UNL A   1      48.851  30.518  27.254  1.00  0.00     0.031 C 
ATOM     58  C   UNL A   1      43.429  32.302  29.325  1.00  0.00     0.029 A 
ATOM     59  C   UNL A   1      44.462  31.528  28.820  1.00  0.00     0.049 A 
ATOM     60  H   UNL A   1      44.434  29.501  28.231  1.00  0.00     0.167 HD
ATOM     61  C   UNL A   1      46.781  31.098  28.048  1.00  0.00     0.074 A 
ATOM     62  C   UNL A   1      48.145  31.504  27.787  1.00  0.00     0.031 C 
ATOM     63  C   UNL A   1      45.829  31.916  28.565  1.00  0.00     0.034 A 
BRANCH  50  64
ATOM     64  C   UNL A   1      40.290  29.212  29.283  1.00  0.00     0.023 A 
ATOM     65  C   UNL A   1      39.881  29.158  30.628  1.00  0.00     0.031 A 
ATOM     66  C   UNL A   1      39.296  29.363  28.300  1.00  0.00     0.131 A 
ATOM     67  C   UNL A   1      38.515  29.172  30.946  1.00  0.00     0.055 A 
ATOM     68  C   UNL A   1      37.942  29.465  28.630  1.00  0.00     0.041 A 
ATOM     69  F   UNL A   1      39.621  29.399  26.999  1.00  0.00    -0.206 F 
ATOM     70  C   UNL A   1      37.544  29.353  29.959  1.00  0.00     0.022 A 
BRANCH  67  71
ATOM     71  S   UNL A   1      38.021  28.795  32.649  1.00  0.00     0.124 S 
ATOM     72  O   UNL A   1      39.037  29.516  33.415  1.00  0.00    -0.237 OA
ATOM     73  O   UNL A   1      36.669  29.334  32.714  1.00  0.00    -0.237 OA
ATOM     74  O   UNL A   1      38.118  27.338  32.720  1.00  0.00    -0.744 OA
ENDBRANCH  67  71
ENDBRANCH  50  64
BRANCH  51  75
ATOM     75  C   UNL A   1      49.760  27.912  26.264  1.00  0.00     0.023 A 
ATOM     76  C   UNL A   1      50.084  28.199  24.929  1.00  0.00     0.031 A 
ATOM     77  C   UNL A   1      50.781  27.419  27.098  1.00  0.00     0.131 A 
ATOM     78  C   UNL A   1      51.379  27.943  24.451  1.00  0.00     0.055 A 
ATOM     79  C   UNL A   1      52.081  27.220  26.632  1.00  0.00     0.041 A 
ATOM     80  F   UNL A   1      50.528  27.133  28.385  1.00  0.00    -0.206 F 
ATOM     81  C   UNL A   1      52.383  27.469  25.297  1.00  0.00     0.022 A 
BRANCH  78  82
ATOM     82  S   UNL A   1      51.706  28.154  22.679  1.00  0.00     0.124 S 
ATOM     83  O   UNL A   1      50.814  29.259  22.343  1.00  0.00    -0.237 OA
ATOM     84  O   UNL A   1      53.134  28.454  22.669  1.00  0.00    -0.237 OA
ATOM     85  O   UNL A   1      51.338  26.859  22.109  1.00  0.00    -0.744 OA
ENDBRANCH  78  82
ENDBRANCH  51  75
BRANCH  63  86
ATOM     86  C   UNL A   1      46.252  33.310  28.958  1.00  0.00     0.023 A 
ATOM     87  C   UNL A   1      46.141  34.401  28.080  1.00  0.00     0.031 A 
ATOM     88  C   UNL A   1      46.763  33.544  30.247  1.00  0.00     0.131 A 
ATOM     89  C   UNL A   1      46.577  35.671  28.490  1.00  0.00     0.055 A 
ATOM     90  C   UNL A   1      47.143  34.819  30.668  1.00  0.00     0.041 A 
ATOM     91  F   UNL A   1      46.891  32.535  31.125  1.00  0.00    -0.206 F 
ATOM     92  C   UNL A   1      47.060  35.890  29.783  1.00  0.00     0.022 A 
BRANCH  89  93
ATOM     93  S   UNL A   1      46.567  37.029  27.287  1.00  0.00     0.124 S 
ATOM     94  O   UNL A   1      45.157  37.402  27.261  1.00  0.00    -0.237 OA
ATOM     95  O   UNL A   1      47.471  37.996  27.903  1.00  0.00    -0.237 OA
ATOM     96  O   UNL A   1      47.068  36.408  26.063  1.00  0.00    -0.744 OA
ENDBRANCH  89  93
ENDBRANCH  63  86
ENDBRANCH  37  38
ENDBRANCH  29  32
ENDBRANCH  27  28
ENDBRANCH  26  27
ENDBRANCH  25  26
ENDBRANCH   1  25
TORSDOF 19
ENDMDL
MODEL 2
REMARK VINA RESULT:     -11.1      3.063      4.946
REMARK SMILES COC(=O)Cc1nc(NC(=O)[C@H]2CC[C@@H]2C(=O)NCCCCNC(=O)c2ccc(-c3c4nc(c(-c5cc(S(=O)(=O)[O-])ccc5F)c5ccc([nH]5)c(-c5cc(S(=O)(=O)[O-])ccc5F)c5nc(c(-c6cc(S(=O)(=O)[O-])ccc6F)c6ccc3[nH]6)C=C5)C=C4)cc2)sc1C
REMARK SMILES IDX 19 1 18 2 16 3 17 4 15 6 12 7 13 8 14 9 10 10 9 11 11 13
REMARK SMILES IDX 8 14 6 15 7 16 90 17 89 18 91 19 5 20 3 21 4 22 2 23 1 24
REMARK SMILES IDX 20 25 21 26 22 27 23 28 24 29 25 31 26 32 27 33 88 34 28 35
REMARK SMILES IDX 87 36 29 37 30 38 31 39 81 40 32 41 86 42 80 43 82 44 33 45
REMARK SMILES IDX 85 46 79 47 78 48 34 50 66 51 46 52 65 53 47 54 50 55 64 56
REMARK SMILES IDX 83 57 48 58 49 59 63 61 84 62 51 63 35 64 36 65 44 66 37 67
REMARK SMILES IDX 43 68 45 69 42 70 38 71 39 72 40 73 41 74 67 75 68 76 76 77
REMARK SMILES IDX 69 78 75 79 77 80 74 81 70 82 71 83 72 84 73 85 52 86 53 87
REMARK SMILES IDX 61 88 54 89 60 90 62 91 59 92 55 93 56 94 57 95 58 96
REMARK H PARENT 18 5 9 12 23 30 82 49 50 60
REMARK Flexibility Score: inf
ROOT
ATOM      1  C   UNL A   1      35.562  21.521  24.964  1.00  0.00     0.116 C 
ENDROOT
BRANCH   1   2
ATOM      2  N   UNL A   1      34.906  22.617  25.641  1.00  0.00    -0.356 N 
ATOM      3  C   UNL A   1      33.911  23.447  25.187  1.00  0.00     0.223 C 
ATOM      4  O   UNL A   1      33.481  24.277  26.000  1.00  0.00    -0.275 OA
ATOM      5  H   UNL A   1      35.218  22.793  26.558  1.00  0.00     0.163 HD
BRANCH   3   6
ATOM      6  C   UNL A   1      33.366  23.334  23.736  1.00  0.00     0.091 C 
ATOM      7  C   UNL A   1      32.585  24.626  23.241  1.00  0.00     0.091 C 
ATOM      8  C   UNL A   1      31.292  23.839  23.614  1.00  0.00     0.015 C 
ATOM      9  C   UNL A   1      32.071  22.552  23.392  1.00  0.00     0.015 C 
BRANCH   7  10
ATOM     10  C   UNL A   1      32.786  25.085  21.771  1.00  0.00     0.230 C 
ATOM     11  N   UNL A   1      32.342  26.320  21.341  1.00  0.00    -0.302 N 
ATOM     12  H   UNL A   1      32.439  26.492  20.376  1.00  0.00     0.172 HD
ATOM     13  O   UNL A   1      33.259  24.338  20.902  1.00  0.00    -0.274 OA
BRANCH  11  14
ATOM     14  C   UNL A   1      31.788  27.337  22.065  1.00  0.00     0.189 A 
ATOM     15  C   UNL A   1      30.173  28.475  23.067  1.00  0.00     0.068 A 
ATOM     16  N   UNL A   1      30.519  27.655  21.987  1.00  0.00    -0.224 NA
ATOM     17  C   UNL A   1      31.253  28.819  23.872  1.00  0.00     0.027 A 
ATOM     18  S   UNL A   1      32.704  28.341  23.084  1.00  0.00    -0.102 S 
ATOM     19  C   UNL A   1      31.341  29.465  25.209  1.00  0.00     0.058 C 
BRANCH  15  20
ATOM     20  C   UNL A   1      28.719  28.802  23.197  1.00  0.00     0.180 C 
BRANCH  20  21
ATOM     21  C   UNL A   1      28.231  29.924  22.325  1.00  0.00     0.311 C 
ATOM     22  O   UNL A   1      28.301  29.923  21.103  1.00  0.00    -0.252 OA
BRANCH  21  23
ATOM     23  O   UNL A   1      27.713  30.939  23.074  1.00  0.00    -0.469 OA
ATOM     24  C   UNL A   1      28.394  32.185  22.911  1.00  0.00     0.282 C 
ENDBRANCH  21  23
ENDBRANCH  20  21
ENDBRANCH  15  20
ENDBRANCH  11  14
ENDBRANCH   7  10
ENDBRANCH   3   6
ENDBRANCH   1   2
BRANCH   1  25
ATOM     25  C   UNL A   1      37.059  21.721  24.766  1.00  0.00     0.023 C 
BRANCH  25  26
ATOM     26  C   UNL A   1      37.934  20.484  24.954  1.00  0.00     0.023 C 
BRANCH  26  27
ATOM     27  C   UNL A   1      39.030  20.602  26.006  1.00  0.00     0.116 C 
BRANCH  27  28
ATOM     28  N   UNL A   1      39.999  19.518  25.944  1.00  0.00    -0.352 N 
ATOM     29  C   UNL A   1      41.374  19.558  26.041  1.00  0.00     0.251 C 
ATOM     30  H   UNL A   1      39.614  18.621  25.810  1.00  0.00     0.163 HD
ATOM     31  O   UNL A   1      42.028  18.550  25.813  1.00  0.00    -0.269 OA
BRANCH  29  32
ATOM     32  C   UNL A   1      42.049  20.829  26.387  1.00  0.00     0.039 A 
ATOM     33  C   UNL A   1      42.372  21.729  25.368  1.00  0.00     0.014 A 
ATOM     34  C   UNL A   1      42.340  21.143  27.716  1.00  0.00     0.014 A 
ATOM     35  C   UNL A   1      42.898  22.985  25.691  1.00  0.00     0.010 A 
ATOM     36  C   UNL A   1      42.787  22.422  28.040  1.00  0.00     0.010 A 
ATOM     37  C   UNL A   1      43.062  23.360  27.033  1.00  0.00    -0.014 A 
BRANCH  37  38
ATOM     38  C   UNL A   1      43.526  24.719  27.425  1.00  0.00     0.031 A 
ATOM     39  C   UNL A   1      42.550  25.692  28.029  1.00  0.00     0.074 A 
ATOM     40  C   UNL A   1      44.785  25.112  27.145  1.00  0.00     0.049 A 
ATOM     41  N   UNL A   1      42.688  26.971  28.266  1.00  0.00    -0.248 NA
ATOM     42  C   UNL A   1      41.226  25.156  28.378  1.00  0.00     0.031 C 
ATOM     43  C   UNL A   1      45.822  24.272  26.542  1.00  0.00     0.029 A 
ATOM     44  N   UNL A   1      45.403  26.329  27.310  1.00  0.00    -0.354 N 
ATOM     45  C   UNL A   1      41.463  27.399  28.766  1.00  0.00     0.074 A 
ATOM     46  C   UNL A   1      40.580  26.252  28.744  1.00  0.00     0.031 C 
ATOM     47  C   UNL A   1      46.946  24.992  26.400  1.00  0.00     0.029 A 
ATOM     48  C   UNL A   1      46.698  26.360  26.846  1.00  0.00     0.049 A 
ATOM     49  H   UNL A   1      44.960  27.105  27.724  1.00  0.00     0.167 HD
ATOM     50  C   UNL A   1      41.113  28.629  29.218  1.00  0.00     0.034 A 
ATOM     51  C   UNL A   1      47.578  27.381  26.762  1.00  0.00     0.034 A 
ATOM     52  C   UNL A   1      42.012  29.756  29.251  1.00  0.00     0.049 A 
ATOM     53  C   UNL A   1      47.158  28.748  27.244  1.00  0.00     0.074 A 
ATOM     54  C   UNL A   1      41.775  31.035  29.725  1.00  0.00     0.029 A 
ATOM     55  N   UNL A   1      43.324  29.741  28.791  1.00  0.00    -0.354 N 
ATOM     56  N   UNL A   1      46.001  29.133  27.732  1.00  0.00    -0.248 NA
ATOM     57  C   UNL A   1      48.163  29.817  27.171  1.00  0.00     0.031 C 
ATOM     58  C   UNL A   1      42.918  31.808  29.495  1.00  0.00     0.029 A 
ATOM     59  C   UNL A   1      43.898  30.993  28.951  1.00  0.00     0.049 A 
ATOM     60  H   UNL A   1      43.777  28.957  28.406  1.00  0.00     0.167 HD
ATOM     61  C   UNL A   1      46.158  30.476  28.064  1.00  0.00     0.074 A 
ATOM     62  C   UNL A   1      47.517  30.834  27.722  1.00  0.00     0.031 C 
ATOM     63  C   UNL A   1      45.260  31.333  28.615  1.00  0.00     0.034 A 
BRANCH  50  64
ATOM     64  C   UNL A   1      39.690  28.817  29.687  1.00  0.00     0.023 A 
ATOM     65  C   UNL A   1      38.680  29.265  28.817  1.00  0.00     0.031 A 
ATOM     66  C   UNL A   1      39.342  28.576  31.028  1.00  0.00     0.131 A 
ATOM     67  C   UNL A   1      37.396  29.537  29.315  1.00  0.00     0.055 A 
ATOM     68  C   UNL A   1      38.040  28.764  31.498  1.00  0.00     0.041 A 
ATOM     69  F   UNL A   1      40.266  28.167  31.911  1.00  0.00    -0.206 F 
ATOM     70  C   UNL A   1      37.062  29.264  30.643  1.00  0.00     0.022 A 
BRANCH  67  71
ATOM     71  S   UNL A   1      36.218  30.397  28.239  1.00  0.00     0.124 S 
ATOM     72  O   UNL A   1      36.435  31.791  28.621  1.00  0.00    -0.237 OA
ATOM     73  O   UNL A   1      36.673  30.021  26.906  1.00  0.00    -0.237 OA
ATOM     74  O   UNL A   1      34.924  29.846  28.636  1.00  0.00    -0.744 OA
ENDBRANCH  67  71
ENDBRANCH  50  64
BRANCH  51  75
ATOM     75  C   UNL A   1      48.937  27.165  26.189  1.00  0.00     0.023 A 
ATOM     76  C   UNL A   1      49.213  27.475  24.848  1.00  0.00     0.031 A 
ATOM     77  C   UNL A   1      49.971  26.598  26.958  1.00  0.00     0.131 A 
ATOM     78  C   UNL A   1      50.469  27.171  24.301  1.00  0.00     0.055 A 
ATOM     79  C   UNL A   1      51.236  26.350  26.424  1.00  0.00     0.041 A 
ATOM     80  F   UNL A   1      49.764  26.287  28.248  1.00  0.00    -0.206 F 
ATOM     81  C   UNL A   1      51.487  26.623  25.084  1.00  0.00     0.022 A 
BRANCH  78  82
ATOM     82  S   UNL A   1      50.723  27.418  22.521  1.00  0.00     0.124 S 
ATOM     83  O   UNL A   1      49.564  26.733  21.959  1.00  0.00    -0.237 OA
ATOM     84  O   UNL A   1      50.724  28.873  22.415  1.00  0.00    -0.237 OA
ATOM     85  O   UNL A   1      52.011  26.775  22.270  1.00  0.00    -0.744 OA
ENDBRANCH  78  82
ENDBRANCH  51  75
BRANCH  63  86
ATOM     86  C   UNL A   1      45.746  32.720  28.955  1.00  0.00     0.023 A 
ATOM     87  C   UNL A   1      45.613  33.800  28.066  1.00  0.00     0.031 A 
ATOM     88  C   UNL A   1      46.341  32.961  30.207  1.00  0.00     0.131 A 
ATOM     89  C   UNL A   1      46.108  35.062  28.425  1.00  0.00     0.055 A 
ATOM     90  C   UNL A   1      46.782  34.231  30.580  1.00  0.00     0.041 A 
ATOM     91  F   UNL A   1      46.493  31.964  31.094  1.00  0.00    -0.206 F 
ATOM     92  C   UNL A   1      46.676  35.288  29.682  1.00  0.00     0.022 A 
BRANCH  89  93
ATOM     93  S   UNL A   1      46.064  36.400  27.200  1.00  0.00     0.124 S 
ATOM     94  O   UNL A   1      44.635  36.680  27.107  1.00  0.00    -0.237 OA
ATOM     95  O   UNL A   1      46.876  37.432  27.836  1.00  0.00    -0.237 OA
ATOM     96  O   UNL A   1      46.656  35.795  26.008  1.00  0.00    -0.744 OA
ENDBRANCH  89  93
ENDBRANCH  63  86
ENDBRANCH  37  38
ENDBRANCH  29  32
ENDBRANCH  27  28
ENDBRANCH  26  27
ENDBRANCH  25  26
ENDBRANCH   1  25
TORSDOF 19
ENDMDL
MODEL 3
REMARK VINA RESULT:     -11.0      5.870      8.824
REMARK SMILES COC(=O)Cc1nc(NC(=O)[C@H]2CC[C@@H]2C(=O)NCCCCNC(=O)c2ccc(-c3c4nc(c(-c5cc(S(=O)(=O)[O-])ccc5F)c5ccc([nH]5)c(-c5cc(S(=O)(=O)[O-])ccc5F)c5nc(c(-c6cc(S(=O)(=O)[O-])ccc6F)c6ccc3[nH]6)C=C5)C=C4)cc2)sc1C
REMARK SMILES IDX 19 1 18 2 16 3 17 4 15 6 12 7 13 8 14 9 10 10 9 11 11 13
REMARK SMILES IDX 8 14 6 15 7 16 90 17 89 18 91 19 5 20 3 21 4 22 2 23 1 24
REMARK SMILES IDX 20 25 21 26 22 27 23 28 24 29 25 31 26 32 27 33 88 34 28 35
REMARK SMILES IDX 87 36 29 37 30 38 31 39 81 40 32 41 86 42 80 43 82 44 33 45
REMARK SMILES IDX 85 46 79 47 78 48 34 50 66 51 46 52 65 53 47 54 50 55 64 56
REMARK SMILES IDX 83 57 48 58 49 59 63 61 84 62 51 63 35 64 36 65 44 66 37 67
REMARK SMILES IDX 43 68 45 69 42 70 38 71 39 72 40 73 41 74 67 75 68 76 76 77
REMARK SMILES IDX 69 78 75 79 77 80 74 81 70 82 71 83 72 84 73 85 52 86 53 87
REMARK SMILES IDX 61 88 54 89 60 90 62 91 59 92 55 93 56 94 57 95 58 96
REMARK H PARENT 18 5 9 12 23 30 82 49 50 60
REMARK Flexibility Score: inf
ROOT
ATOM      1  C   UNL A   1      30.426  29.628  23.778  1.00  0.00     0.116 C 
ENDROOT
BRANCH   1   2
ATOM      2  N   UNL A   1      29.958  28.313  24.152  1.00  0.00    -0.356 N 
ATOM      3  C   UNL A   1      30.381  27.083  23.712  1.00  0.00     0.223 C 
ATOM      4  O   UNL A   1      29.847  26.100  24.244  1.00  0.00    -0.275 OA
ATOM      5  H   UNL A   1      29.233  28.297  24.818  1.00  0.00     0.163 HD
BRANCH   3   6
ATOM      6  C   UNL A   1      31.470  26.952  22.612  1.00  0.00     0.091 C 
ATOM      7  C   UNL A   1      32.408  25.680  22.785  1.00  0.00     0.091 C 
ATOM      8  C   UNL A   1      33.420  26.667  23.441  1.00  0.00     0.015 C 
ATOM      9  C   UNL A   1      32.779  27.784  22.633  1.00  0.00     0.015 C 
BRANCH   7  10
ATOM     10  C   UNL A   1      32.834  24.905  21.508  1.00  0.00     0.230 C 
ATOM     11  N   UNL A   1      33.326  23.618  21.584  1.00  0.00    -0.302 N 
ATOM     12  H   UNL A   1      33.647  23.236  20.735  1.00  0.00     0.172 HD
ATOM     13  O   UNL A   1      32.846  25.432  20.385  1.00  0.00    -0.274 OA
BRANCH  11  14
ATOM     14  C   UNL A   1      33.430  22.797  22.672  1.00  0.00     0.189 A 
ATOM     15  C   UNL A   1      33.108  20.967  23.876  1.00  0.00     0.068 A 
ATOM     16  N   UNL A   1      32.572  21.841  22.924  1.00  0.00    -0.224 NA
ATOM     17  C   UNL A   1      34.339  21.378  24.376  1.00  0.00     0.027 A 
ATOM     18  S   UNL A   1      34.641  22.985  23.848  1.00  0.00    -0.102 S 
ATOM     19  C   UNL A   1      35.361  20.691  25.211  1.00  0.00     0.058 C 
BRANCH  15  20
ATOM     20  C   UNL A   1      32.303  19.738  24.160  1.00  0.00     0.180 C 
BRANCH  20  21
ATOM     21  C   UNL A   1      32.716  18.508  23.403  1.00  0.00     0.311 C 
ATOM     22  O   UNL A   1      32.292  18.211  22.294  1.00  0.00    -0.252 OA
BRANCH  21  23
ATOM     23  O   UNL A   1      33.611  17.768  24.117  1.00  0.00    -0.469 OA
ATOM     24  C   UNL A   1      33.085  17.234  25.333  1.00  0.00     0.282 C 
ENDBRANCH  21  23
ENDBRANCH  20  21
ENDBRANCH  15  20
ENDBRANCH  11  14
ENDBRANCH   7  10
ENDBRANCH   3   6
ENDBRANCH   1   2
BRANCH   1  25
ATOM     25  C   UNL A   1      31.057  30.411  24.921  1.00  0.00     0.023 C 
BRANCH  25  26
ATOM     26  C   UNL A   1      32.248  29.752  25.613  1.00  0.00     0.023 C 
BRANCH  26  27
ATOM     27  C   UNL A   1      32.552  30.246  27.022  1.00  0.00     0.116 C 
BRANCH  27  28
ATOM     28  N   UNL A   1      32.706  31.691  27.098  1.00  0.00    -0.352 N 
ATOM     29  C   UNL A   1      33.739  32.441  27.621  1.00  0.00     0.251 C 
ATOM     30  H   UNL A   1      31.960  32.212  26.722  1.00  0.00     0.163 HD
ATOM     31  O   UNL A   1      33.617  33.652  27.727  1.00  0.00    -0.269 OA
BRANCH  29  32
ATOM     32  C   UNL A   1      34.976  31.767  28.080  1.00  0.00     0.039 A 
ATOM     33  C   UNL A   1      36.142  32.521  28.242  1.00  0.00     0.014 A 
ATOM     34  C   UNL A   1      34.978  30.402  28.374  1.00  0.00     0.014 A 
ATOM     35  C   UNL A   1      37.283  31.925  28.791  1.00  0.00     0.010 A 
ATOM     36  C   UNL A   1      36.087  29.833  28.994  1.00  0.00     0.010 A 
ATOM     37  C   UNL A   1      37.248  30.589  29.218  1.00  0.00    -0.014 A 
BRANCH  37  38
ATOM     38  C   UNL A   1      38.406  29.943  29.895  1.00  0.00     0.031 A 
ATOM     39  C   UNL A   1      38.818  30.406  31.267  1.00  0.00     0.074 A 
ATOM     40  C   UNL A   1      39.145  29.023  29.244  1.00  0.00     0.049 A 
ATOM     41  N   UNL A   1      39.894  30.121  31.953  1.00  0.00    -0.248 NA
ATOM     42  C   UNL A   1      37.909  31.348  31.937  1.00  0.00     0.031 C 
ATOM     43  C   UNL A   1      38.865  28.503  27.903  1.00  0.00     0.029 A 
ATOM     44  N   UNL A   1      40.300  28.375  29.612  1.00  0.00    -0.354 N 
ATOM     45  C   UNL A   1      39.806  30.867  33.123  1.00  0.00     0.074 A 
ATOM     46  C   UNL A   1      38.598  31.659  33.024  1.00  0.00     0.031 C 
ATOM     47  C   UNL A   1      39.811  27.611  27.569  1.00  0.00     0.029 A 
ATOM     48  C   UNL A   1      40.798  27.536  28.641  1.00  0.00     0.049 A 
ATOM     49  H   UNL A   1      40.730  28.499  30.489  1.00  0.00     0.167 HD
ATOM     50  C   UNL A   1      40.645  30.878  34.189  1.00  0.00     0.034 A 
ATOM     51  C   UNL A   1      41.935  26.809  28.607  1.00  0.00     0.034 A 
ATOM     52  C   UNL A   1      41.835  30.068  34.279  1.00  0.00     0.049 A 
ATOM     53  C   UNL A   1      42.869  26.858  29.791  1.00  0.00     0.074 A 
ATOM     54  C   UNL A   1      42.734  29.970  35.327  1.00  0.00     0.029 A 
ATOM     55  N   UNL A   1      42.294  29.214  33.283  1.00  0.00    -0.354 N 
ATOM     56  N   UNL A   1      42.764  27.554  30.899  1.00  0.00    -0.248 NA
ATOM     57  C   UNL A   1      44.073  26.017  29.724  1.00  0.00     0.031 C 
ATOM     58  C   UNL A   1      43.767  29.108  34.942  1.00  0.00     0.029 A 
ATOM     59  C   UNL A   1      43.473  28.605  33.685  1.00  0.00     0.049 A 
ATOM     60  H   UNL A   1      41.848  29.066  32.419  1.00  0.00     0.167 HD
ATOM     61  C   UNL A   1      43.863  27.200  31.677  1.00  0.00     0.074 A 
ATOM     62  C   UNL A   1      44.618  26.230  30.913  1.00  0.00     0.031 C 
ATOM     63  C   UNL A   1      44.209  27.630  32.917  1.00  0.00     0.034 A 
BRANCH  50  64
ATOM     64  C   UNL A   1      40.313  31.816  35.325  1.00  0.00     0.023 A 
ATOM     65  C   UNL A   1      39.376  31.472  36.316  1.00  0.00     0.031 A 
ATOM     66  C   UNL A   1      40.914  33.085  35.401  1.00  0.00     0.131 A 
ATOM     67  C   UNL A   1      39.009  32.413  37.289  1.00  0.00     0.055 A 
ATOM     68  C   UNL A   1      40.608  33.985  36.425  1.00  0.00     0.041 A 
ATOM     69  F   UNL A   1      41.799  33.480  34.473  1.00  0.00    -0.206 F 
ATOM     70  C   UNL A   1      39.638  33.657  37.367  1.00  0.00     0.022 A 
BRANCH  67  71
ATOM     71  S   UNL A   1      37.588  32.044  38.354  1.00  0.00     0.124 S 
ATOM     72  O   UNL A   1      36.606  33.018  37.881  1.00  0.00    -0.237 OA
ATOM     73  O   UNL A   1      37.309  30.649  38.037  1.00  0.00    -0.237 OA
ATOM     74  O   UNL A   1      38.097  32.289  39.702  1.00  0.00    -0.744 OA
ENDBRANCH  67  71
ENDBRANCH  50  64
BRANCH  51  75
ATOM     75  C   UNL A   1      42.271  25.982  27.412  1.00  0.00     0.023 A 
ATOM     76  C   UNL A   1      41.923  24.623  27.353  1.00  0.00     0.031 A 
ATOM     77  C   UNL A   1      42.989  26.524  26.330  1.00  0.00     0.131 A 
ATOM     78  C   UNL A   1      42.336  23.840  26.265  1.00  0.00     0.055 A 
ATOM     79  C   UNL A   1      43.348  25.754  25.223  1.00  0.00     0.041 A 
ATOM     80  F   UNL A   1      43.343  27.820  26.331  1.00  0.00    -0.206 F 
ATOM     81  C   UNL A   1      43.034  24.399  25.192  1.00  0.00     0.022 A 
BRANCH  78  82
ATOM     82  S   UNL A   1      42.025  22.052  26.315  1.00  0.00     0.124 S 
ATOM     83  O   UNL A   1      42.426  21.721  27.678  1.00  0.00    -0.237 OA
ATOM     84  O   UNL A   1      40.596  21.986  26.031  1.00  0.00    -0.237 OA
ATOM     85  O   UNL A   1      42.894  21.527  25.263  1.00  0.00    -0.744 OA
ENDBRANCH  78  82
ENDBRANCH  51  75
BRANCH  63  86
ATOM     86  C   UNL A   1      45.418  26.993  33.558  1.00  0.00     0.023 A 
ATOM     87  C   UNL A   1      45.329  25.814  34.316  1.00  0.00     0.031 A 
ATOM     88  C   UNL A   1      46.685  27.579  33.388  1.00  0.00     0.131 A 
ATOM     89  C   UNL A   1      46.483  25.281  34.912  1.00  0.00     0.055 A 
ATOM     90  C   UNL A   1      47.837  27.014  33.936  1.00  0.00     0.041 A 
ATOM     91  F   UNL A   1      46.826  28.708  32.672  1.00  0.00    -0.206 F 
ATOM     92  C   UNL A   1      47.738  25.864  34.713  1.00  0.00     0.022 A 
BRANCH  89  93
ATOM     93  S   UNL A   1      46.317  23.848  36.012  1.00  0.00     0.124 S 
ATOM     94  O   UNL A   1      44.939  23.435  35.767  1.00  0.00    -0.237 OA
ATOM     95  O   UNL A   1      47.351  22.948  35.510  1.00  0.00    -0.237 OA
ATOM     96  O   UNL A   1      46.572  24.403  37.341  1.00  0.00    -0.744 OA
ENDBRANCH  89  93
ENDBRANCH  63  86
ENDBRANCH  37  38
ENDBRANCH  29  32
ENDBRANCH  27  28
ENDBRANCH  26  27
ENDBRANCH  25  26
ENDBRANCH   1  25
TORSDOF 19
ENDMDL
