MODEL 1
REMARK VINA RESULT:     -13.0      0.000      0.000
REMARK SMILES Cc1ccccc1OCc1nc2cc(C(=O)NCCCCNC(=O)c3ccc(-c4c5nc(c(-c6cc(S(=O)(=O)[O-])ccc6F)c6ccc([nH]6)c(-c6cc(S(=O)(=O)[O-])ccc6F)c6nc(c(-c7cc(S(=O)(=O)[O-])ccc7F)c7ccc4[nH]7)C=C6)C=C5)cc3)ccc2n1C[C@H](C)O
REMARK SMILES IDX 19 1 18 2 17 3 15 4 16 5 14 7 10 8 11 9 91 10 12 11 90 12
REMARK SMILES IDX 13 13 89 14 88 15 9 16 8 17 7 18 1 19 2 20 3 21 4 22 6 23
REMARK SMILES IDX 5 24 92 25 93 26 94 27 95 28 20 30 21 31 22 32 23 33 24 35
REMARK SMILES IDX 25 36 26 37 87 38 27 39 86 40 28 41 29 42 30 43 80 44 31 45
REMARK SMILES IDX 85 46 79 47 81 48 32 49 84 50 78 51 77 52 33 54 65 55 45 56
REMARK SMILES IDX 64 57 46 58 49 59 63 60 82 61 47 62 48 63 62 65 83 66 50 67
REMARK SMILES IDX 34 68 35 69 43 70 36 71 42 72 44 73 41 74 37 75 38 76 39 77
REMARK SMILES IDX 40 78 66 79 67 80 75 81 68 82 74 83 76 84 73 85 69 86 70 87
REMARK SMILES IDX 71 88 72 89 51 90 52 91 60 92 53 93 59 94 61 95 58 96 54 97
REMARK SMILES IDX 55 98 56 99 57 100
REMARK H PARENT 17 6 95 29 22 34 81 53 49 64
REMARK Flexibility Score: inf
ROOT
ATOM      1  C   UNL A   1      36.297  21.469  24.617  1.00  0.00     0.023 C 
ENDROOT
BRANCH   1   2
ATOM      2  C   UNL A   1      35.035  21.408  25.486  1.00  0.00     0.116 C 
BRANCH   2   3
ATOM      3  N   UNL A   1      34.514  20.038  25.595  1.00  0.00    -0.352 N 
ATOM      4  C   UNL A   1      33.230  19.600  25.332  1.00  0.00     0.251 C 
ATOM      5  O   UNL A   1      32.873  18.445  25.514  1.00  0.00    -0.269 OA
ATOM      6  H   UNL A   1      35.154  19.352  25.891  1.00  0.00     0.163 HD
BRANCH   4   7
ATOM      7  C   UNL A   1      32.330  20.593  24.720  1.00  0.00     0.042 A 
ATOM      8  C   UNL A   1      31.159  24.876  24.514  1.00  0.00     0.148 A 
ATOM      9  N   UNL A   1      30.985  23.975  25.474  1.00  0.00    -0.229 NA
ATOM     10  N   UNL A   1      32.086  24.403  23.614  1.00  0.00    -0.322 N 
ATOM     11  C   UNL A   1      31.529  22.818  24.965  1.00  0.00     0.090 A 
ATOM     12  C   UNL A   1      31.972  23.030  23.663  1.00  0.00     0.068 A 
ATOM     13  C   UNL A   1      31.733  21.562  25.544  1.00  0.00     0.044 A 
ATOM     14  C   UNL A   1      32.359  22.019  22.781  1.00  0.00     0.029 A 
ATOM     15  C   UNL A   1      32.503  20.757  23.339  1.00  0.00     0.016 A 
BRANCH   8  16
ATOM     16  C   UNL A   1      30.291  26.045  24.184  1.00  0.00     0.304 C 
BRANCH  16  17
ATOM     17  O   UNL A   1      30.301  26.862  25.378  1.00  0.00    -0.485 OA
BRANCH  17  18
ATOM     18  C   UNL A   1      31.441  27.601  25.545  1.00  0.00     0.122 A 
ATOM     19  C   UNL A   1      30.517  29.453  24.041  1.00  0.00     0.048 C 
ATOM     20  C   UNL A   1      31.560  28.869  24.949  1.00  0.00    -0.009 A 
ATOM     21  C   UNL A   1      32.741  29.600  25.144  1.00  0.00     0.007 A 
ATOM     22  C   UNL A   1      33.744  29.117  25.981  1.00  0.00     0.001 A 
ATOM     23  C   UNL A   1      32.438  27.129  26.398  1.00  0.00     0.047 A 
ATOM     24  C   UNL A   1      33.586  27.890  26.621  1.00  0.00     0.004 A 
ENDBRANCH  17  18
ENDBRANCH  16  17
ENDBRANCH   8  16
BRANCH  10  25
ATOM     25  C   UNL A   1      33.327  25.068  23.219  1.00  0.00     0.155 C 
BRANCH  25  26
ATOM     26  C   UNL A   1      33.272  25.848  21.905  1.00  0.00     0.131 C 
ATOM     27  C   UNL A   1      33.381  27.345  22.148  1.00  0.00     0.040 C 
BRANCH  26  28
ATOM     28  O   UNL A   1      32.102  25.563  21.143  1.00  0.00    -0.392 OA
ATOM     29  H   UNL A   1      31.381  26.143  21.430  1.00  0.00     0.211 HD
ENDBRANCH  26  28
ENDBRANCH  25  26
ENDBRANCH  10  25
ENDBRANCH   4   7
ENDBRANCH   2   3
ENDBRANCH   1   2
BRANCH   1  30
ATOM     30  C   UNL A   1      37.577  21.291  25.431  1.00  0.00     0.023 C 
BRANCH  30  31
ATOM     31  C   UNL A   1      38.291  22.615  25.670  1.00  0.00     0.116 C 
BRANCH  31  32
ATOM     32  N   UNL A   1      39.643  22.496  26.191  1.00  0.00    -0.352 N 
ATOM     33  C   UNL A   1      40.492  23.496  26.650  1.00  0.00     0.251 C 
ATOM     34  H   UNL A   1      40.007  21.582  26.223  1.00  0.00     0.163 HD
ATOM     35  O   UNL A   1      41.655  23.261  26.908  1.00  0.00    -0.269 OA
BRANCH  33  36
ATOM     36  C   UNL A   1      39.926  24.840  26.945  1.00  0.00     0.039 A 
ATOM     37  C   UNL A   1      40.454  25.928  26.234  1.00  0.00     0.014 A 
ATOM     38  C   UNL A   1      39.090  25.061  28.033  1.00  0.00     0.014 A 
ATOM     39  C   UNL A   1      40.356  27.209  26.768  1.00  0.00     0.010 A 
ATOM     40  C   UNL A   1      39.092  26.306  28.626  1.00  0.00     0.010 A 
ATOM     41  C   UNL A   1      39.784  27.362  28.029  1.00  0.00    -0.014 A 
BRANCH  41  42
ATOM     42  C   UNL A   1      39.945  28.552  28.857  1.00  0.00     0.031 A 
ATOM     43  C   UNL A   1      38.921  29.619  28.816  1.00  0.00     0.074 A 
ATOM     44  C   UNL A   1      40.975  28.625  29.730  1.00  0.00     0.049 A 
ATOM     45  N   UNL A   1      39.096  30.821  29.246  1.00  0.00    -0.248 NA
ATOM     46  C   UNL A   1      37.604  29.417  28.223  1.00  0.00     0.031 C 
ATOM     47  C   UNL A   1      41.155  29.594  30.810  1.00  0.00     0.029 A 
ATOM     48  N   UNL A   1      42.205  27.969  29.690  1.00  0.00    -0.354 N 
ATOM     49  C   UNL A   1      37.867  31.446  29.277  1.00  0.00     0.074 A 
ATOM     50  C   UNL A   1      36.996  30.561  28.543  1.00  0.00     0.031 C 
ATOM     51  C   UNL A   1      42.468  29.705  31.068  1.00  0.00     0.029 A 
ATOM     52  C   UNL A   1      43.151  28.940  30.037  1.00  0.00     0.049 A 
ATOM     53  H   UNL A   1      42.372  27.025  29.465  1.00  0.00     0.167 HD
ATOM     54  C   UNL A   1      37.717  32.566  30.043  1.00  0.00     0.034 A 
ATOM     55  C   UNL A   1      44.107  29.443  29.196  1.00  0.00     0.034 A 
ATOM     56  C   UNL A   1      39.014  33.026  30.554  1.00  0.00     0.049 A 
ATOM     57  C   UNL A   1      44.080  30.955  29.135  1.00  0.00     0.074 A 
ATOM     58  C   UNL A   1      39.636  32.938  31.788  1.00  0.00     0.029 A 
ATOM     59  N   UNL A   1      39.993  33.438  29.652  1.00  0.00    -0.354 N 
ATOM     60  N   UNL A   1      43.021  31.674  29.399  1.00  0.00    -0.248 NA
ATOM     61  C   UNL A   1      45.237  31.770  28.786  1.00  0.00     0.031 C 
ATOM     62  C   UNL A   1      41.014  33.238  31.608  1.00  0.00     0.029 A 
ATOM     63  C   UNL A   1      41.222  33.544  30.272  1.00  0.00     0.049 A 
ATOM     64  H   UNL A   1      39.830  33.630  28.700  1.00  0.00     0.167 HD
ATOM     65  C   UNL A   1      43.330  33.007  29.292  1.00  0.00     0.074 A 
ATOM     66  C   UNL A   1      44.733  33.010  28.908  1.00  0.00     0.031 C 
ATOM     67  C   UNL A   1      42.401  33.984  29.532  1.00  0.00     0.034 A 
BRANCH  54  68
ATOM     68  C   UNL A   1      36.389  33.089  30.575  1.00  0.00     0.023 A 
ATOM     69  C   UNL A   1      35.536  33.803  29.702  1.00  0.00     0.031 A 
ATOM     70  C   UNL A   1      35.926  33.000  31.903  1.00  0.00     0.131 A 
ATOM     71  C   UNL A   1      34.375  34.457  30.165  1.00  0.00     0.055 A 
ATOM     72  C   UNL A   1      34.796  33.685  32.376  1.00  0.00     0.041 A 
ATOM     73  F   UNL A   1      36.504  32.207  32.810  1.00  0.00    -0.206 F 
ATOM     74  C   UNL A   1      34.019  34.430  31.508  1.00  0.00     0.022 A 
BRANCH  71  75
ATOM     75  S   UNL A   1      33.333  35.361  28.986  1.00  0.00     0.124 S 
ATOM     76  O   UNL A   1      32.682  34.278  28.256  1.00  0.00    -0.237 OA
ATOM     77  O   UNL A   1      32.483  36.152  29.867  1.00  0.00    -0.237 OA
ATOM     78  O   UNL A   1      34.298  36.136  28.206  1.00  0.00    -0.744 OA
ENDBRANCH  71  75
ENDBRANCH  54  68
BRANCH  55  79
ATOM     79  C   UNL A   1      44.506  28.547  28.073  1.00  0.00     0.023 A 
ATOM     80  C   UNL A   1      45.341  27.468  28.402  1.00  0.00     0.031 A 
ATOM     81  C   UNL A   1      43.814  28.480  26.858  1.00  0.00     0.131 A 
ATOM     82  C   UNL A   1      45.249  26.266  27.698  1.00  0.00     0.055 A 
ATOM     83  C   UNL A   1      43.847  27.320  26.067  1.00  0.00     0.041 A 
ATOM     84  F   UNL A   1      43.003  29.476  26.478  1.00  0.00    -0.206 F 
ATOM     85  C   UNL A   1      44.523  26.181  26.515  1.00  0.00     0.022 A 
BRANCH  82  86
ATOM     86  S   UNL A   1      45.814  24.776  28.566  1.00  0.00     0.124 S 
ATOM     87  O   UNL A   1      46.071  25.274  29.915  1.00  0.00    -0.237 OA
ATOM     88  O   UNL A   1      44.633  23.921  28.454  1.00  0.00    -0.237 OA
ATOM     89  O   UNL A   1      46.984  24.354  27.808  1.00  0.00    -0.744 OA
ENDBRANCH  82  86
ENDBRANCH  55  79
BRANCH  67  90
ATOM     90  C   UNL A   1      42.538  35.457  29.183  1.00  0.00     0.023 A 
ATOM     91  C   UNL A   1      43.395  36.339  29.855  1.00  0.00     0.031 A 
ATOM     92  C   UNL A   1      41.851  36.016  28.074  1.00  0.00     0.131 A 
ATOM     93  C   UNL A   1      43.488  37.697  29.494  1.00  0.00     0.055 A 
ATOM     94  C   UNL A   1      42.002  37.346  27.667  1.00  0.00     0.041 A 
ATOM     95  F   UNL A   1      41.014  35.292  27.317  1.00  0.00    -0.206 F 
ATOM     96  C   UNL A   1      42.814  38.203  28.389  1.00  0.00     0.022 A 
BRANCH  93  97
ATOM     97  S   UNL A   1      44.474  38.793  30.546  1.00  0.00     0.124 S 
ATOM     98  O   UNL A   1      43.460  39.718  31.047  1.00  0.00    -0.237 OA
ATOM     99  O   UNL A   1      45.028  37.870  31.530  1.00  0.00    -0.237 OA
ATOM    100  O   UNL A   1      45.446  39.376  29.624  1.00  0.00    -0.744 OA
ENDBRANCH  93  97
ENDBRANCH  67  90
ENDBRANCH  41  42
ENDBRANCH  33  36
ENDBRANCH  31  32
ENDBRANCH  30  31
ENDBRANCH   1  30
TORSDOF 20
ENDMDL
MODEL 2
REMARK VINA RESULT:     -12.3      1.847      2.151
REMARK SMILES Cc1ccccc1OCc1nc2cc(C(=O)NCCCCNC(=O)c3ccc(-c4c5nc(c(-c6cc(S(=O)(=O)[O-])ccc6F)c6ccc([nH]6)c(-c6cc(S(=O)(=O)[O-])ccc6F)c6nc(c(-c7cc(S(=O)(=O)[O-])ccc7F)c7ccc4[nH]7)C=C6)C=C5)cc3)ccc2n1C[C@H](C)O
REMARK SMILES IDX 19 1 18 2 17 3 15 4 16 5 14 7 10 8 11 9 91 10 12 11 90 12
REMARK SMILES IDX 13 13 89 14 88 15 9 16 8 17 7 18 1 19 2 20 3 21 4 22 6 23
REMARK SMILES IDX 5 24 92 25 93 26 94 27 95 28 20 30 21 31 22 32 23 33 24 35
REMARK SMILES IDX 25 36 26 37 87 38 27 39 86 40 28 41 29 42 30 43 80 44 31 45
REMARK SMILES IDX 85 46 79 47 81 48 32 49 84 50 78 51 77 52 33 54 65 55 45 56
REMARK SMILES IDX 64 57 46 58 49 59 63 60 82 61 47 62 48 63 62 65 83 66 50 67
REMARK SMILES IDX 34 68 35 69 43 70 36 71 42 72 44 73 41 74 37 75 38 76 39 77
REMARK SMILES IDX 40 78 66 79 67 80 75 81 68 82 74 83 76 84 73 85 69 86 70 87
REMARK SMILES IDX 71 88 72 89 51 90 52 91 60 92 53 93 59 94 61 95 58 96 54 97
REMARK SMILES IDX 55 98 56 99 57 100
REMARK H PARENT 17 6 95 29 22 34 81 53 49 64
REMARK Flexibility Score: inf
ROOT
ATOM      1  C   UNL A   1      36.528  21.676  24.302  1.00  0.00     0.023 C 
ENDROOT
BRANCH   1   2
ATOM      2  C   UNL A   1      35.269  21.447  25.148  1.00  0.00     0.116 C 
BRANCH   2   3
ATOM      3  N   UNL A   1      34.868  20.032  25.157  1.00  0.00    -0.352 N 
ATOM      4  C   UNL A   1      33.606  19.512  24.946  1.00  0.00     0.251 C 
ATOM      5  O   UNL A   1      33.358  18.318  25.035  1.00  0.00    -0.269 OA
ATOM      6  H   UNL A   1      35.583  19.379  25.334  1.00  0.00     0.163 HD
BRANCH   4   7
ATOM      7  C   UNL A   1      32.583  20.476  24.504  1.00  0.00     0.042 A 
ATOM      8  C   UNL A   1      31.193  24.695  24.637  1.00  0.00     0.148 A 
ATOM      9  N   UNL A   1      31.197  23.755  25.574  1.00  0.00    -0.229 NA
ATOM     10  N   UNL A   1      32.007  24.303  23.600  1.00  0.00    -0.322 N 
ATOM     11  C   UNL A   1      31.719  22.646  24.948  1.00  0.00     0.090 A 
ATOM     12  C   UNL A   1      31.966  22.925  23.607  1.00  0.00     0.068 A 
ATOM     13  C   UNL A   1      32.062  21.383  25.441  1.00  0.00     0.044 A 
ATOM     14  C   UNL A   1      32.275  21.967  22.640  1.00  0.00     0.029 A 
ATOM     15  C   UNL A   1      32.555  20.696  23.120  1.00  0.00     0.016 A 
BRANCH   8  16
ATOM     16  C   UNL A   1      30.233  25.828  24.478  1.00  0.00     0.304 C 
BRANCH  16  17
ATOM     17  O   UNL A   1      30.402  26.627  25.672  1.00  0.00    -0.485 OA
BRANCH  17  18
ATOM     18  C   UNL A   1      31.545  27.378  25.690  1.00  0.00     0.122 A 
ATOM     19  C   UNL A   1      30.554  29.014  23.992  1.00  0.00     0.048 C 
ATOM     20  C   UNL A   1      31.636  28.554  24.925  1.00  0.00    -0.009 A 
ATOM     21  C   UNL A   1      32.822  29.301  24.971  1.00  0.00     0.007 A 
ATOM     22  C   UNL A   1      33.861  28.932  25.822  1.00  0.00     0.001 A 
ATOM     23  C   UNL A   1      32.579  27.021  26.557  1.00  0.00     0.047 A 
ATOM     24  C   UNL A   1      33.733  27.802  26.627  1.00  0.00     0.004 A 
ENDBRANCH  17  18
ENDBRANCH  16  17
ENDBRANCH   8  16
BRANCH  10  25
ATOM     25  C   UNL A   1      33.148  25.046  23.066  1.00  0.00     0.155 C 
BRANCH  25  26
ATOM     26  C   UNL A   1      32.803  26.230  22.162  1.00  0.00     0.131 C 
ATOM     27  C   UNL A   1      32.156  25.764  20.866  1.00  0.00     0.040 C 
BRANCH  26  28
ATOM     28  O   UNL A   1      33.932  27.050  21.874  1.00  0.00    -0.392 OA
ATOM     29  H   UNL A   1      33.642  27.841  21.393  1.00  0.00     0.211 HD
ENDBRANCH  26  28
ENDBRANCH  25  26
ENDBRANCH  10  25
ENDBRANCH   4   7
ENDBRANCH   2   3
ENDBRANCH   1   2
BRANCH   1  30
ATOM     30  C   UNL A   1      37.797  21.195  25.001  1.00  0.00     0.023 C 
BRANCH  30  31
ATOM     31  C   UNL A   1      38.349  22.238  25.965  1.00  0.00     0.116 C 
BRANCH  31  32
ATOM     32  N   UNL A   1      39.789  22.188  26.161  1.00  0.00    -0.352 N 
ATOM     33  C   UNL A   1      40.677  23.236  26.374  1.00  0.00     0.251 C 
ATOM     34  H   UNL A   1      40.190  21.290  26.140  1.00  0.00     0.163 HD
ATOM     35  O   UNL A   1      41.877  23.052  26.362  1.00  0.00    -0.269 OA
BRANCH  33  36
ATOM     36  C   UNL A   1      40.136  24.572  26.745  1.00  0.00     0.039 A 
ATOM     37  C   UNL A   1      40.737  25.692  26.154  1.00  0.00     0.014 A 
ATOM     38  C   UNL A   1      39.247  24.735  27.800  1.00  0.00     0.014 A 
ATOM     39  C   UNL A   1      40.648  26.931  26.784  1.00  0.00     0.010 A 
ATOM     40  C   UNL A   1      39.253  25.929  28.491  1.00  0.00     0.010 A 
ATOM     41  C   UNL A   1      40.010  27.004  28.020  1.00  0.00    -0.014 A 
BRANCH  41  42
ATOM     42  C   UNL A   1      40.160  28.118  28.948  1.00  0.00     0.031 A 
ATOM     43  C   UNL A   1      39.237  29.272  28.866  1.00  0.00     0.074 A 
ATOM     44  C   UNL A   1      41.075  28.043  29.941  1.00  0.00     0.049 A 
ATOM     45  N   UNL A   1      39.451  30.423  29.403  1.00  0.00    -0.248 NA
ATOM     46  C   UNL A   1      37.993  29.226  28.106  1.00  0.00     0.031 C 
ATOM     47  C   UNL A   1      41.194  28.921  31.104  1.00  0.00     0.029 A 
ATOM     48  N   UNL A   1      42.244  27.286  29.999  1.00  0.00    -0.354 N 
ATOM     49  C   UNL A   1      38.281  31.150  29.334  1.00  0.00     0.074 A 
ATOM     50  C   UNL A   1      37.442  30.395  28.437  1.00  0.00     0.031 C 
ATOM     51  C   UNL A   1      42.469  28.898  31.525  1.00  0.00     0.029 A 
ATOM     52  C   UNL A   1      43.213  28.145  30.529  1.00  0.00     0.049 A 
ATOM     53  H   UNL A   1      42.363  26.348  29.725  1.00  0.00     0.167 HD
ATOM     54  C   UNL A   1      38.126  32.227  30.159  1.00  0.00     0.034 A 
ATOM     55  C   UNL A   1      44.304  28.616  29.849  1.00  0.00     0.034 A 
ATOM     56  C   UNL A   1      39.382  32.537  30.854  1.00  0.00     0.049 A 
ATOM     57  C   UNL A   1      44.405  30.125  29.899  1.00  0.00     0.074 A 
ATOM     58  C   UNL A   1      39.834  32.314  32.144  1.00  0.00     0.029 A 
ATOM     59  N   UNL A   1      40.495  32.919  30.109  1.00  0.00    -0.354 N 
ATOM     60  N   UNL A   1      43.382  30.915  30.088  1.00  0.00    -0.248 NA
ATOM     61  C   UNL A   1      45.657  30.856  29.753  1.00  0.00     0.031 C 
ATOM     62  C   UNL A   1      41.244  32.503  32.153  1.00  0.00     0.029 A 
ATOM     63  C   UNL A   1      41.642  32.876  30.879  1.00  0.00     0.049 A 
ATOM     64  H   UNL A   1      40.469  33.186  29.162  1.00  0.00     0.167 HD
ATOM     65  C   UNL A   1      43.806  32.221  30.119  1.00  0.00     0.074 A 
ATOM     66  C   UNL A   1      45.242  32.125  29.907  1.00  0.00     0.031 C 
ATOM     67  C   UNL A   1      42.935  33.257  30.319  1.00  0.00     0.034 A 
BRANCH  54  68
ATOM     68  C   UNL A   1      36.788  32.829  30.566  1.00  0.00     0.023 A 
ATOM     69  C   UNL A   1      35.984  33.441  29.577  1.00  0.00     0.031 A 
ATOM     70  C   UNL A   1      36.271  32.911  31.875  1.00  0.00     0.131 A 
ATOM     71  C   UNL A   1      34.817  34.163  29.907  1.00  0.00     0.055 A 
ATOM     72  C   UNL A   1      35.135  33.663  32.212  1.00  0.00     0.041 A 
ATOM     73  F   UNL A   1      36.797  32.228  32.896  1.00  0.00    -0.206 F 
ATOM     74  C   UNL A   1      34.407  34.306  31.227  1.00  0.00     0.022 A 
BRANCH  71  75
ATOM     75  S   UNL A   1      33.840  34.928  28.584  1.00  0.00     0.124 S 
ATOM     76  O   UNL A   1      34.293  36.314  28.628  1.00  0.00    -0.237 OA
ATOM     77  O   UNL A   1      34.241  34.153  27.415  1.00  0.00    -0.237 OA
ATOM     78  O   UNL A   1      32.459  34.716  29.016  1.00  0.00    -0.744 OA
ENDBRANCH  71  75
ENDBRANCH  54  68
BRANCH  55  79
ATOM     79  C   UNL A   1      44.768  27.763  28.717  1.00  0.00     0.023 A 
ATOM     80  C   UNL A   1      45.013  28.420  27.501  1.00  0.00     0.031 A 
ATOM     81  C   UNL A   1      45.332  26.494  28.889  1.00  0.00     0.131 A 
ATOM     82  C   UNL A   1      46.010  27.959  26.639  1.00  0.00     0.055 A 
ATOM     83  C   UNL A   1      46.220  25.959  27.942  1.00  0.00     0.041 A 
ATOM     84  F   UNL A   1      45.136  25.807  30.023  1.00  0.00    -0.206 F 
ATOM     85  C   UNL A   1      46.609  26.718  26.834  1.00  0.00     0.022 A 
BRANCH  82  86
ATOM     86  S   UNL A   1      46.717  29.176  25.494  1.00  0.00     0.124 S 
ATOM     87  O   UNL A   1      45.911  30.366  25.763  1.00  0.00    -0.237 OA
ATOM     88  O   UNL A   1      48.092  29.257  25.983  1.00  0.00    -0.237 OA
ATOM     89  O   UNL A   1      46.536  28.567  24.184  1.00  0.00    -0.744 OA
ENDBRANCH  82  86
ENDBRANCH  55  79
BRANCH  67  90
ATOM     90  C   UNL A   1      43.231  34.733  30.102  1.00  0.00     0.023 A 
ATOM     91  C   UNL A   1      42.924  35.423  28.922  1.00  0.00     0.031 A 
ATOM     92  C   UNL A   1      43.771  35.534  31.142  1.00  0.00     0.131 A 
ATOM     93  C   UNL A   1      43.217  36.791  28.769  1.00  0.00     0.055 A 
ATOM     94  C   UNL A   1      43.991  36.910  31.017  1.00  0.00     0.041 A 
ATOM     95  F   UNL A   1      44.093  35.023  32.339  1.00  0.00    -0.206 F 
ATOM     96  C   UNL A   1      43.728  37.547  29.817  1.00  0.00     0.022 A 
BRANCH  93  97
ATOM     97  S   UNL A   1      42.960  37.541  27.140  1.00  0.00     0.124 S 
ATOM     98  O   UNL A   1      42.681  36.370  26.313  1.00  0.00    -0.237 OA
ATOM     99  O   UNL A   1      41.828  38.430  27.378  1.00  0.00    -0.237 OA
ATOM    100  O   UNL A   1      44.229  38.210  26.862  1.00  0.00    -0.744 OA
ENDBRANCH  93  97
ENDBRANCH  67  90
ENDBRANCH  41  42
ENDBRANCH  33  36
ENDBRANCH  31  32
ENDBRANCH  30  31
ENDBRANCH   1  30
TORSDOF 20
ENDMDL
MODEL 3
REMARK VINA RESULT:     -12.1      2.585      3.851
REMARK SMILES Cc1ccccc1OCc1nc2cc(C(=O)NCCCCNC(=O)c3ccc(-c4c5nc(c(-c6cc(S(=O)(=O)[O-])ccc6F)c6ccc([nH]6)c(-c6cc(S(=O)(=O)[O-])ccc6F)c6nc(c(-c7cc(S(=O)(=O)[O-])ccc7F)c7ccc4[nH]7)C=C6)C=C5)cc3)ccc2n1C[C@H](C)O
REMARK SMILES IDX 19 1 18 2 17 3 15 4 16 5 14 7 10 8 11 9 91 10 12 11 90 12
REMARK SMILES IDX 13 13 89 14 88 15 9 16 8 17 7 18 1 19 2 20 3 21 4 22 6 23
REMARK SMILES IDX 5 24 92 25 93 26 94 27 95 28 20 30 21 31 22 32 23 33 24 35
REMARK SMILES IDX 25 36 26 37 87 38 27 39 86 40 28 41 29 42 30 43 80 44 31 45
REMARK SMILES IDX 85 46 79 47 81 48 32 49 84 50 78 51 77 52 33 54 65 55 45 56
REMARK SMILES IDX 64 57 46 58 49 59 63 60 82 61 47 62 48 63 62 65 83 66 50 67
REMARK SMILES IDX 34 68 35 69 43 70 36 71 42 72 44 73 41 74 37 75 38 76 39 77
REMARK SMILES IDX 40 78 66 79 67 80 75 81 68 82 74 83 76 84 73 85 69 86 70 87
REMARK SMILES IDX 71 88 72 89 51 90 52 91 60 92 53 93 59 94 61 95 58 96 54 97
REMARK SMILES IDX 55 98 56 99 57 100
REMARK H PARENT 17 6 95 29 22 34 81 53 49 64
REMARK Flexibility Score: inf
ROOT
ATOM      1  C   UNL A   1      35.430  22.250  24.708  1.00  0.00     0.023 C 
ENDROOT
BRANCH   1   2
ATOM      2  C   UNL A   1      35.236  23.753  24.477  1.00  0.00     0.116 C 
BRANCH   2   3
ATOM      3  N   UNL A   1      34.674  24.033  23.147  1.00  0.00    -0.352 N 
ATOM      4  C   UNL A   1      33.641  24.895  22.832  1.00  0.00     0.251 C 
ATOM      5  O   UNL A   1      33.199  25.014  21.698  1.00  0.00    -0.269 OA
ATOM      6  H   UNL A   1      35.081  23.548  22.393  1.00  0.00     0.163 HD
BRANCH   4   7
ATOM      7  C   UNL A   1      33.161  25.746  23.934  1.00  0.00     0.042 A 
ATOM      8  C   UNL A   1      32.069  29.863  25.205  1.00  0.00     0.148 A 
ATOM      9  N   UNL A   1      33.252  29.325  24.935  1.00  0.00    -0.229 NA
ATOM     10  N   UNL A   1      31.078  29.036  24.729  1.00  0.00    -0.322 N 
ATOM     11  C   UNL A   1      32.972  28.014  24.622  1.00  0.00     0.090 A 
ATOM     12  C   UNL A   1      31.611  27.766  24.773  1.00  0.00     0.068 A 
ATOM     13  C   UNL A   1      33.792  26.981  24.157  1.00  0.00     0.044 A 
ATOM     14  C   UNL A   1      31.029  26.497  24.762  1.00  0.00     0.029 A 
ATOM     15  C   UNL A   1      31.857  25.459  24.361  1.00  0.00     0.016 A 
BRANCH   8  16
ATOM     16  C   UNL A   1      31.760  30.964  26.165  1.00  0.00     0.304 C 
BRANCH  16  17
ATOM     17  O   UNL A   1      32.555  30.668  27.337  1.00  0.00    -0.485 OA
BRANCH  17  18
ATOM     18  C   UNL A   1      33.489  31.621  27.640  1.00  0.00     0.122 A 
ATOM     19  C   UNL A   1      35.355  29.871  27.604  1.00  0.00     0.048 C 
ATOM     20  C   UNL A   1      34.850  31.278  27.735  1.00  0.00    -0.009 A 
ATOM     21  C   UNL A   1      35.780  32.282  28.044  1.00  0.00     0.007 A 
ATOM     22  C   UNL A   1      35.376  33.609  28.171  1.00  0.00     0.001 A 
ATOM     23  C   UNL A   1      33.090  32.953  27.748  1.00  0.00     0.047 A 
ATOM     24  C   UNL A   1      34.034  33.947  28.006  1.00  0.00     0.004 A 
ENDBRANCH  17  18
ENDBRANCH  16  17
ENDBRANCH   8  16
BRANCH  10  25
ATOM     25  C   UNL A   1      30.021  29.406  23.788  1.00  0.00     0.155 C 
BRANCH  25  26
ATOM     26  C   UNL A   1      30.430  29.455  22.316  1.00  0.00     0.131 C 
ATOM     27  C   UNL A   1      29.532  30.394  21.526  1.00  0.00     0.040 C 
BRANCH  26  28
ATOM     28  O   UNL A   1      30.447  28.169  21.704  1.00  0.00    -0.392 OA
ATOM     29  H   UNL A   1      29.754  28.123  21.028  1.00  0.00     0.211 HD
ENDBRANCH  26  28
ENDBRANCH  25  26
ENDBRANCH  10  25
ENDBRANCH   4   7
ENDBRANCH   2   3
ENDBRANCH   1   2
BRANCH   1  30
ATOM     30  C   UNL A   1      36.901  21.866  24.856  1.00  0.00     0.023 C 
BRANCH  30  31
ATOM     31  C   UNL A   1      37.649  22.817  25.782  1.00  0.00     0.116 C 
BRANCH  31  32
ATOM     32  N   UNL A   1      38.942  22.335  26.239  1.00  0.00    -0.352 N 
ATOM     33  C   UNL A   1      40.015  23.060  26.745  1.00  0.00     0.251 C 
ATOM     34  H   UNL A   1      39.077  21.362  26.182  1.00  0.00     0.163 HD
ATOM     35  O   UNL A   1      41.092  22.534  26.936  1.00  0.00    -0.269 OA
BRANCH  33  36
ATOM     36  C   UNL A   1      39.793  24.469  27.170  1.00  0.00     0.039 A 
ATOM     37  C   UNL A   1      40.268  25.477  26.319  1.00  0.00     0.014 A 
ATOM     38  C   UNL A   1      39.357  24.788  28.450  1.00  0.00     0.014 A 
ATOM     39  C   UNL A   1      40.546  26.739  26.839  1.00  0.00     0.010 A 
ATOM     40  C   UNL A   1      39.739  25.994  28.997  1.00  0.00     0.010 A 
ATOM     41  C   UNL A   1      40.397  26.941  28.209  1.00  0.00    -0.014 A 
BRANCH  41  42
ATOM     42  C   UNL A   1      40.988  28.058  28.935  1.00  0.00     0.031 A 
ATOM     43  C   UNL A   1      40.173  29.258  29.227  1.00  0.00     0.074 A 
ATOM     44  C   UNL A   1      42.244  27.948  29.425  1.00  0.00     0.049 A 
ATOM     45  N   UNL A   1      40.650  30.404  29.573  1.00  0.00    -0.248 NA
ATOM     46  C   UNL A   1      38.721  29.268  29.095  1.00  0.00     0.031 C 
ATOM     47  C   UNL A   1      42.901  28.834  30.385  1.00  0.00     0.029 A 
ATOM     48  N   UNL A   1      43.285  27.131  28.990  1.00  0.00    -0.354 N 
ATOM     49  C   UNL A   1      39.602  31.191  30.000  1.00  0.00     0.074 A 
ATOM     50  C   UNL A   1      38.422  30.470  29.593  1.00  0.00     0.031 C 
ATOM     51  C   UNL A   1      44.229  28.749  30.201  1.00  0.00     0.029 A 
ATOM     52  C   UNL A   1      44.424  27.944  29.007  1.00  0.00     0.049 A 
ATOM     53  H   UNL A   1      43.231  26.183  28.725  1.00  0.00     0.167 HD
ATOM     54  C   UNL A   1      39.873  32.286  30.770  1.00  0.00     0.034 A 
ATOM     55  C   UNL A   1      45.120  28.346  27.899  1.00  0.00     0.034 A 
ATOM     56  C   UNL A   1      41.318  32.538  30.829  1.00  0.00     0.049 A 
ATOM     57  C   UNL A   1      45.296  29.848  27.846  1.00  0.00     0.074 A 
ATOM     58  C   UNL A   1      42.284  32.309  31.794  1.00  0.00     0.029 A 
ATOM     59  N   UNL A   1      42.003  32.850  29.657  1.00  0.00    -0.354 N 
ATOM     60  N   UNL A   1      44.496  30.695  28.437  1.00  0.00    -0.248 NA
ATOM     61  C   UNL A   1      46.384  30.509  27.136  1.00  0.00     0.031 C 
ATOM     62  C   UNL A   1      43.559  32.422  31.175  1.00  0.00     0.029 A 
ATOM     63  C   UNL A   1      43.368  32.756  29.843  1.00  0.00     0.049 A 
ATOM     64  H   UNL A   1      41.572  33.105  28.809  1.00  0.00     0.167 HD
ATOM     65  C   UNL A   1      44.945  31.976  28.232  1.00  0.00     0.074 A 
ATOM     66  C   UNL A   1      46.134  31.800  27.412  1.00  0.00     0.031 C 
ATOM     67  C   UNL A   1      44.296  33.060  28.757  1.00  0.00     0.034 A 
BRANCH  54  68
ATOM     68  C   UNL A   1      38.879  32.964  31.703  1.00  0.00     0.023 A 
ATOM     69  C   UNL A   1      38.848  32.583  33.065  1.00  0.00     0.031 A 
ATOM     70  C   UNL A   1      37.902  33.913  31.338  1.00  0.00     0.131 A 
ATOM     71  C   UNL A   1      37.847  33.045  33.945  1.00  0.00     0.055 A 
ATOM     72  C   UNL A   1      36.880  34.340  32.199  1.00  0.00     0.041 A 
ATOM     73  F   UNL A   1      37.907  34.523  30.150  1.00  0.00    -0.206 F 
ATOM     74  C   UNL A   1      36.840  33.897  33.508  1.00  0.00     0.022 A 
BRANCH  71  75
ATOM     75  S   UNL A   1      37.868  32.506  35.677  1.00  0.00     0.124 S 
ATOM     76  O   UNL A   1      36.593  33.012  36.174  1.00  0.00    -0.237 OA
ATOM     77  O   UNL A   1      37.984  31.058  35.550  1.00  0.00    -0.237 OA
ATOM     78  O   UNL A   1      39.050  33.171  36.225  1.00  0.00    -0.744 OA
ENDBRANCH  71  75
ENDBRANCH  54  68
BRANCH  55  79
ATOM     79  C   UNL A   1      45.000  27.454  26.710  1.00  0.00     0.023 A 
ATOM     80  C   UNL A   1      45.834  26.325  26.690  1.00  0.00     0.031 A 
ATOM     81  C   UNL A   1      43.890  27.450  25.859  1.00  0.00     0.131 A 
ATOM     82  C   UNL A   1      45.407  25.145  26.078  1.00  0.00     0.055 A 
ATOM     83  C   UNL A   1      43.546  26.308  25.118  1.00  0.00     0.041 A 
ATOM     84  F   UNL A   1      43.053  28.497  25.822  1.00  0.00    -0.206 F 
ATOM     85  C   UNL A   1      44.276  25.125  25.269  1.00  0.00     0.022 A 
BRANCH  82  86
ATOM     86  S   UNL A   1      46.176  23.608  26.660  1.00  0.00     0.124 S 
ATOM     87  O   UNL A   1      46.357  22.856  25.420  1.00  0.00    -0.237 OA
ATOM     88  O   UNL A   1      47.417  24.117  27.242  1.00  0.00    -0.237 OA
ATOM     89  O   UNL A   1      45.204  23.066  27.598  1.00  0.00    -0.744 OA
ENDBRANCH  82  86
ENDBRANCH  55  79
BRANCH  67  90
ATOM     90  C   UNL A   1      44.527  34.514  28.379  1.00  0.00     0.023 A 
ATOM     91  C   UNL A   1      45.317  35.398  29.128  1.00  0.00     0.031 A 
ATOM     92  C   UNL A   1      44.012  35.049  27.169  1.00  0.00     0.131 A 
ATOM     93  C   UNL A   1      45.501  36.736  28.735  1.00  0.00     0.055 A 
ATOM     94  C   UNL A   1      44.260  36.357  26.739  1.00  0.00     0.041 A 
ATOM     95  F   UNL A   1      43.259  34.319  26.333  1.00  0.00    -0.206 F 
ATOM     96  C   UNL A   1      44.997  37.218  27.533  1.00  0.00     0.022 A 
BRANCH  93  97
ATOM     97  S   UNL A   1      46.376  37.845  29.870  1.00  0.00     0.124 S 
ATOM     98  O   UNL A   1      47.282  38.546  28.964  1.00  0.00    -0.237 OA
ATOM     99  O   UNL A   1      45.291  38.647  30.424  1.00  0.00    -0.237 OA
ATOM    100  O   UNL A   1      47.022  36.935  30.814  1.00  0.00    -0.744 OA
ENDBRANCH  93  97
ENDBRANCH  67  90
ENDBRANCH  41  42
ENDBRANCH  33  36
ENDBRANCH  31  32
ENDBRANCH  30  31
ENDBRANCH   1  30
TORSDOF 20
ENDMDL
