MODEL 1
REMARK VINA RESULT:     -12.8      0.000      0.000
REMARK SMILES Cc1cc(/C=C2\C(=O)N(Cc3ccco3)C(=O)[NH+]=C2NCCCCNC(=O)c2ccc(-c3c4nc(c(-c5cc(S(=O)(=O)[O-])ccc5F)c5ccc([nH]5)c(-c5cc(S(=O)(=O)[O-])ccc5F)c5nc(c(-c6cc(S(=O)(=O)[O-])ccc6F)c6ccc3[nH]6)C=C5)C=C4)cc2)c(C)n1-c1ccc(Cl)c(C(=O)[O-])c1
REMARK SMILES IDX 23 1 22 2 21 3 20 4 5 5 6 6 7 7 19 8 8 9 9 10 18 11 16 12
REMARK SMILES IDX 17 15 4 16 1 17 2 18 3 19 93 20 91 21 92 22 94 23 95 24
REMARK SMILES IDX 103 25 96 26 99 27 97 28 98 29 100 30 101 31 102 32 10 33
REMARK SMILES IDX 11 34 12 35 15 36 13 37 14 38 24 39 25 40 26 41 27 43 28 44
REMARK SMILES IDX 29 45 90 46 30 47 89 48 31 49 32 50 33 51 83 52 34 53 88 54
REMARK SMILES IDX 82 55 84 56 35 57 87 58 81 59 80 60 36 62 68 63 48 64 67 65
REMARK SMILES IDX 49 66 52 67 66 68 85 69 50 70 51 71 65 73 86 74 53 75 37 76
REMARK SMILES IDX 38 77 46 78 39 79 45 80 47 81 44 82 40 83 41 84 42 85 43 86
REMARK SMILES IDX 69 87 70 88 78 89 71 90 77 91 79 92 76 93 72 94 73 95 74 96
REMARK SMILES IDX 75 97 54 98 55 99 63 100 56 101 62 102 64 103 61 104 57 105
REMARK SMILES IDX 58 106 59 107 60 108
REMARK H PARENT 18 13 20 14 25 42 84 61 52 72
REMARK Flexibility Score: inf
ROOT
ATOM      1  C   UNL A   1      39.220  22.331  26.048  1.00  0.00     0.024 C 
ENDROOT
BRANCH   1   2
ATOM      2  C   UNL A   1      38.926  23.807  26.380  1.00  0.00     0.039 C 
BRANCH   2   3
ATOM      3  C   UNL A   1      37.480  24.263  26.173  1.00  0.00     0.194 C 
BRANCH   3   4
ATOM      4  N   UNL A   1      36.579  23.293  26.752  1.00  0.00    -0.305 N 
ATOM      5  C   UNL A   1      34.379  24.535  24.969  1.00  0.00     0.032 C 
ATOM      6  C   UNL A   1      34.617  23.219  25.116  1.00  0.00     0.129 C 
ATOM      7  C   UNL A   1      33.953  22.131  24.360  1.00  0.00     0.323 C 
ATOM      8  C   UNL A   1      35.438  22.727  26.251  1.00  0.00     0.236 C 
ATOM      9  O   UNL A   1      33.876  22.117  23.155  1.00  0.00    -0.250 OA
ATOM     10  N   UNL A   1      33.413  21.193  25.228  1.00  0.00    -0.182 N 
ATOM     11  N   UNL A   1      35.073  21.635  26.867  1.00  0.00    -0.210 N 
ATOM     12  C   UNL A   1      33.926  20.980  26.496  1.00  0.00     0.444 C 
ATOM     13  H   UNL A   1      35.624  21.280  27.601  1.00  0.00     0.270 HD
ATOM     14  H   UNL A   1      36.826  22.990  27.655  1.00  0.00     0.256 HD
ATOM     15  O   UNL A   1      33.364  20.221  27.288  1.00  0.00    -0.212 OA
BRANCH   5  16
ATOM     16  C   UNL A   1      33.564  25.268  24.042  1.00  0.00    -0.003 A 
ATOM     17  C   UNL A   1      32.399  26.022  20.583  1.00  0.00     0.065 C 
ATOM     18  C   UNL A   1      32.693  25.891  22.038  1.00  0.00     0.020 A 
ATOM     19  C   UNL A   1      33.594  25.038  22.644  1.00  0.00     0.031 A 
ATOM     20  N   UNL A   1      32.124  26.673  23.029  1.00  0.00    -0.318 N 
ATOM     21  C   UNL A   1      32.687  26.322  24.260  1.00  0.00     0.027 A 
ATOM     22  C   UNL A   1      32.244  26.950  25.536  1.00  0.00     0.065 C 
BRANCH  20  23
ATOM     23  C   UNL A   1      31.087  27.629  22.857  1.00  0.00     0.046 A 
ATOM     24  C   UNL A   1      31.414  28.952  22.558  1.00  0.00     0.028 A 
ATOM     25  C   UNL A   1      29.765  27.272  23.139  1.00  0.00     0.038 A 
ATOM     26  C   UNL A   1      30.435  29.939  22.641  1.00  0.00     0.023 A 
ATOM     27  C   UNL A   1      28.765  28.265  23.214  1.00  0.00     0.018 A 
ATOM     28  C   UNL A   1      29.119  29.607  22.987  1.00  0.00     0.050 A 
ATOM     29  Cl  UNL A   1      28.027  30.941  23.132  1.00  0.00    -0.084 Cl
BRANCH  27  30
ATOM     30  C   UNL A   1      27.372  27.874  23.574  1.00  0.00     0.073 C 
ATOM     31  O   UNL A   1      26.995  26.872  24.150  1.00  0.00    -0.545 OA
ATOM     32  O   UNL A   1      26.469  28.798  23.192  1.00  0.00    -0.545 OA
ENDBRANCH  27  30
ENDBRANCH  20  23
ENDBRANCH   5  16
BRANCH  10  33
ATOM     33  C   UNL A   1      32.216  20.478  24.831  1.00  0.00     0.285 C 
BRANCH  33  34
ATOM     34  C   UNL A   1      32.514  19.229  24.099  1.00  0.00     0.138 A 
ATOM     35  C   UNL A   1      32.976  17.986  24.476  1.00  0.00     0.049 A 
ATOM     36  O   UNL A   1      32.208  19.231  22.770  1.00  0.00    -0.466 OA
ATOM     37  C   UNL A   1      32.967  17.190  23.306  1.00  0.00     0.042 A 
ATOM     38  C   UNL A   1      32.498  17.995  22.294  1.00  0.00     0.195 A 
ENDBRANCH  33  34
ENDBRANCH  10  33
ENDBRANCH   3   4
ENDBRANCH   2   3
ENDBRANCH   1   2
BRANCH   1  39
ATOM     39  C   UNL A   1      40.213  21.576  26.949  1.00  0.00     0.116 C 
BRANCH  39  40
ATOM     40  N   UNL A   1      41.406  21.140  26.271  1.00  0.00    -0.352 N 
ATOM     41  C   UNL A   1      42.543  21.875  25.994  1.00  0.00     0.251 C 
ATOM     42  H   UNL A   1      41.412  20.203  25.968  1.00  0.00     0.163 HD
ATOM     43  O   UNL A   1      43.414  21.335  25.320  1.00  0.00    -0.269 OA
BRANCH  41  44
ATOM     44  C   UNL A   1      42.673  23.320  26.383  1.00  0.00     0.039 A 
ATOM     45  C   UNL A   1      42.753  23.600  27.732  1.00  0.00     0.014 A 
ATOM     46  C   UNL A   1      42.509  24.418  25.515  1.00  0.00     0.014 A 
ATOM     47  C   UNL A   1      42.708  24.942  28.179  1.00  0.00     0.010 A 
ATOM     48  C   UNL A   1      42.367  25.787  25.998  1.00  0.00     0.010 A 
ATOM     49  C   UNL A   1      42.425  26.101  27.363  1.00  0.00    -0.014 A 
BRANCH  49  50
ATOM     50  C   UNL A   1      41.877  27.392  28.145  1.00  0.00     0.031 A 
ATOM     51  C   UNL A   1      42.957  28.404  27.955  1.00  0.00     0.074 A 
ATOM     52  C   UNL A   1      40.888  27.863  29.002  1.00  0.00     0.049 A 
ATOM     53  N   UNL A   1      44.176  28.118  28.316  1.00  0.00    -0.248 NA
ATOM     54  C   UNL A   1      42.837  29.526  27.022  1.00  0.00     0.031 C 
ATOM     55  C   UNL A   1      39.810  27.117  29.664  1.00  0.00     0.029 A 
ATOM     56  N   UNL A   1      40.615  29.177  29.497  1.00  0.00    -0.354 N 
ATOM     57  C   UNL A   1      44.956  29.155  27.882  1.00  0.00     0.074 A 
ATOM     58  C   UNL A   1      44.125  29.873  26.926  1.00  0.00     0.031 C 
ATOM     59  C   UNL A   1      38.952  27.953  30.322  1.00  0.00     0.029 A 
ATOM     60  C   UNL A   1      39.385  29.346  30.217  1.00  0.00     0.049 A 
ATOM     61  H   UNL A   1      41.237  29.926  29.351  1.00  0.00     0.167 HD
ATOM     62  C   UNL A   1      45.867  29.655  28.765  1.00  0.00     0.034 A 
ATOM     63  C   UNL A   1      38.784  30.487  30.740  1.00  0.00     0.034 A 
ATOM     64  C   UNL A   1      45.425  30.922  29.283  1.00  0.00     0.049 A 
ATOM     65  C   UNL A   1      39.855  31.458  30.985  1.00  0.00     0.074 A 
ATOM     66  C   UNL A   1      44.969  32.083  28.693  1.00  0.00     0.029 A 
ATOM     67  N   UNL A   1      44.935  30.916  30.571  1.00  0.00    -0.354 N 
ATOM     68  N   UNL A   1      40.644  31.352  32.007  1.00  0.00    -0.248 NA
ATOM     69  C   UNL A   1      40.057  32.638  30.154  1.00  0.00     0.031 C 
ATOM     70  C   UNL A   1      43.868  32.498  29.485  1.00  0.00     0.029 A 
ATOM     71  C   UNL A   1      43.860  31.778  30.675  1.00  0.00     0.049 A 
ATOM     72  H   UNL A   1      45.297  30.375  31.309  1.00  0.00     0.167 HD
ATOM     73  C   UNL A   1      41.709  32.125  31.668  1.00  0.00     0.074 A 
ATOM     74  C   UNL A   1      41.194  33.074  30.699  1.00  0.00     0.031 C 
ATOM     75  C   UNL A   1      42.947  31.587  31.795  1.00  0.00     0.034 A 
BRANCH  62  76
ATOM     76  C   UNL A   1      46.585  28.589  29.555  1.00  0.00     0.023 A 
ATOM     77  C   UNL A   1      45.923  27.963  30.621  1.00  0.00     0.031 A 
ATOM     78  C   UNL A   1      47.960  28.317  29.391  1.00  0.00     0.131 A 
ATOM     79  C   UNL A   1      46.646  27.153  31.516  1.00  0.00     0.055 A 
ATOM     80  C   UNL A   1      48.687  27.567  30.315  1.00  0.00     0.041 A 
ATOM     81  F   UNL A   1      48.628  28.805  28.332  1.00  0.00    -0.206 F 
ATOM     82  C   UNL A   1      48.030  26.990  31.396  1.00  0.00     0.022 A 
BRANCH  79  83
ATOM     83  S   UNL A   1      45.746  26.296  32.837  1.00  0.00     0.124 S 
ATOM     84  O   UNL A   1      44.374  26.285  32.339  1.00  0.00    -0.237 OA
ATOM     85  O   UNL A   1      46.411  24.995  32.867  1.00  0.00    -0.237 OA
ATOM     86  O   UNL A   1      45.974  27.128  34.018  1.00  0.00    -0.744 OA
ENDBRANCH  79  83
ENDBRANCH  62  76
BRANCH  63  87
ATOM     87  C   UNL A   1      37.446  31.010  31.305  1.00  0.00     0.023 A 
ATOM     88  C   UNL A   1      37.377  31.674  32.590  1.00  0.00     0.031 A 
ATOM     89  C   UNL A   1      36.308  31.171  30.508  1.00  0.00     0.131 A 
ATOM     90  C   UNL A   1      36.282  32.488  32.982  1.00  0.00     0.055 A 
ATOM     91  C   UNL A   1      35.203  31.960  30.912  1.00  0.00     0.041 A 
ATOM     92  F   UNL A   1      36.265  30.651  29.274  1.00  0.00    -0.206 F 
ATOM     93  C   UNL A   1      35.195  32.638  32.133  1.00  0.00     0.022 A 
BRANCH  90  94
ATOM     94  S   UNL A   1      36.347  33.542  34.492  1.00  0.00     0.124 S 
ATOM     95  O   UNL A   1      37.125  34.693  34.052  1.00  0.00    -0.237 OA
ATOM     96  O   UNL A   1      34.938  33.783  34.786  1.00  0.00    -0.237 OA
ATOM     97  O   UNL A   1      37.022  32.685  35.469  1.00  0.00    -0.744 OA
ENDBRANCH  90  94
ENDBRANCH  63  87
BRANCH  75  98
ATOM     98  C   UNL A   1      43.210  30.643  32.983  1.00  0.00     0.023 A 
ATOM     99  C   UNL A   1      42.496  29.454  33.300  1.00  0.00     0.031 A 
ATOM    100  C   UNL A   1      44.227  30.999  33.887  1.00  0.00     0.131 A 
ATOM    101  C   UNL A   1      42.779  28.712  34.467  1.00  0.00     0.055 A 
ATOM    102  C   UNL A   1      44.551  30.231  35.010  1.00  0.00     0.041 A 
ATOM    103  F   UNL A   1      44.940  32.120  33.700  1.00  0.00    -0.206 F 
ATOM    104  C   UNL A   1      43.818  29.091  35.312  1.00  0.00     0.022 A 
BRANCH 101 105
ATOM    105  S   UNL A   1      41.728  27.297  34.943  1.00  0.00     0.124 S 
ATOM    106  O   UNL A   1      42.641  26.162  34.875  1.00  0.00    -0.237 OA
ATOM    107  O   UNL A   1      41.269  27.669  36.278  1.00  0.00    -0.237 OA
ATOM    108  O   UNL A   1      40.682  27.291  33.918  1.00  0.00    -0.744 OA
ENDBRANCH 101 105
ENDBRANCH  75  98
ENDBRANCH  49  50
ENDBRANCH  41  44
ENDBRANCH  39  40
ENDBRANCH   1  39
TORSDOF 18
ENDMDL
MODEL 2
REMARK VINA RESULT:     -12.3      3.864      7.950
REMARK SMILES Cc1cc(/C=C2\C(=O)N(Cc3ccco3)C(=O)[NH+]=C2NCCCCNC(=O)c2ccc(-c3c4nc(c(-c5cc(S(=O)(=O)[O-])ccc5F)c5ccc([nH]5)c(-c5cc(S(=O)(=O)[O-])ccc5F)c5nc(c(-c6cc(S(=O)(=O)[O-])ccc6F)c6ccc3[nH]6)C=C5)C=C4)cc2)c(C)n1-c1ccc(Cl)c(C(=O)[O-])c1
REMARK SMILES IDX 23 1 22 2 21 3 20 4 5 5 6 6 7 7 19 8 8 9 9 10 18 11 16 12
REMARK SMILES IDX 17 15 4 16 1 17 2 18 3 19 93 20 91 21 92 22 94 23 95 24
REMARK SMILES IDX 103 25 96 26 99 27 97 28 98 29 100 30 101 31 102 32 10 33
REMARK SMILES IDX 11 34 12 35 15 36 13 37 14 38 24 39 25 40 26 41 27 43 28 44
REMARK SMILES IDX 29 45 90 46 30 47 89 48 31 49 32 50 33 51 83 52 34 53 88 54
REMARK SMILES IDX 82 55 84 56 35 57 87 58 81 59 80 60 36 62 68 63 48 64 67 65
REMARK SMILES IDX 49 66 52 67 66 68 85 69 50 70 51 71 65 73 86 74 53 75 37 76
REMARK SMILES IDX 38 77 46 78 39 79 45 80 47 81 44 82 40 83 41 84 42 85 43 86
REMARK SMILES IDX 69 87 70 88 78 89 71 90 77 91 79 92 76 93 72 94 73 95 74 96
REMARK SMILES IDX 75 97 54 98 55 99 63 100 56 101 62 102 64 103 61 104 57 105
REMARK SMILES IDX 58 106 59 107 60 108
REMARK H PARENT 18 13 20 14 25 42 84 61 52 72
REMARK Flexibility Score: inf
ROOT
ATOM      1  C   UNL A   1      33.959  28.537  25.658  1.00  0.00     0.024 C 
ENDROOT
BRANCH   1   2
ATOM      2  C   UNL A   1      33.659  27.047  25.906  1.00  0.00     0.039 C 
BRANCH   2   3
ATOM      3  C   UNL A   1      34.389  26.057  24.995  1.00  0.00     0.194 C 
BRANCH   3   4
ATOM      4  N   UNL A   1      33.493  24.982  24.633  1.00  0.00    -0.305 N 
ATOM      5  C   UNL A   1      35.871  23.069  25.131  1.00  0.00     0.032 C 
ATOM      6  C   UNL A   1      34.617  22.894  25.584  1.00  0.00     0.129 C 
ATOM      7  C   UNL A   1      34.174  21.821  26.506  1.00  0.00     0.323 C 
ATOM      8  C   UNL A   1      33.491  23.663  24.997  1.00  0.00     0.236 C 
ATOM      9  O   UNL A   1      34.728  21.579  27.552  1.00  0.00    -0.250 OA
ATOM     10  N   UNL A   1      33.093  21.135  25.971  1.00  0.00    -0.182 N 
ATOM     11  N   UNL A   1      32.353  23.057  24.791  1.00  0.00    -0.210 N 
ATOM     12  C   UNL A   1      32.217  21.722  25.075  1.00  0.00     0.444 C 
ATOM     13  H   UNL A   1      31.589  23.561  24.431  1.00  0.00     0.270 HD
ATOM     14  H   UNL A   1      32.765  25.242  24.023  1.00  0.00     0.256 HD
ATOM     15  O   UNL A   1      31.329  21.061  24.531  1.00  0.00    -0.212 OA
BRANCH   5  16
ATOM     16  C   UNL A   1      37.109  22.411  25.441  1.00  0.00    -0.003 A 
ATOM     17  C   UNL A   1      39.292  19.392  25.498  1.00  0.00     0.065 C 
ATOM     18  C   UNL A   1      38.620  20.719  25.569  1.00  0.00     0.020 A 
ATOM     19  C   UNL A   1      37.339  21.040  25.165  1.00  0.00     0.031 A 
ATOM     20  N   UNL A   1      39.182  21.857  26.124  1.00  0.00    -0.318 N 
ATOM     21  C   UNL A   1      38.241  22.890  26.085  1.00  0.00     0.027 A 
ATOM     22  C   UNL A   1      38.561  24.265  26.562  1.00  0.00     0.065 C 
BRANCH  20  23
ATOM     23  C   UNL A   1      40.515  21.994  26.596  1.00  0.00     0.046 A 
ATOM     24  C   UNL A   1      40.757  22.057  27.969  1.00  0.00     0.028 A 
ATOM     25  C   UNL A   1      41.551  22.218  25.683  1.00  0.00     0.038 A 
ATOM     26  C   UNL A   1      42.012  22.445  28.430  1.00  0.00     0.023 A 
ATOM     27  C   UNL A   1      42.829  22.602  26.143  1.00  0.00     0.018 A 
ATOM     28  C   UNL A   1      43.042  22.738  27.526  1.00  0.00     0.050 A 
ATOM     29  Cl  UNL A   1      44.522  23.286  28.235  1.00  0.00    -0.084 Cl
BRANCH  27  30
ATOM     30  C   UNL A   1      43.905  22.895  25.153  1.00  0.00     0.073 C 
ATOM     31  O   UNL A   1      44.168  23.953  24.617  1.00  0.00    -0.545 OA
ATOM     32  O   UNL A   1      44.646  21.806  24.871  1.00  0.00    -0.545 OA
ENDBRANCH  27  30
ENDBRANCH  20  23
ENDBRANCH   5  16
BRANCH  10  33
ATOM     33  C   UNL A   1      32.928  19.730  26.288  1.00  0.00     0.285 C 
BRANCH  33  34
ATOM     34  C   UNL A   1      33.298  18.843  25.164  1.00  0.00     0.138 A 
ATOM     35  C   UNL A   1      34.493  18.501  24.570  1.00  0.00     0.049 A 
ATOM     36  O   UNL A   1      32.278  18.125  24.613  1.00  0.00    -0.466 OA
ATOM     37  C   UNL A   1      34.182  17.530  23.588  1.00  0.00     0.042 A 
ATOM     38  C   UNL A   1      32.821  17.342  23.648  1.00  0.00     0.195 A 
ENDBRANCH  33  34
ENDBRANCH  10  33
ENDBRANCH   3   4
ENDBRANCH   2   3
ENDBRANCH   1   2
BRANCH   1  39
ATOM     39  C   UNL A   1      34.345  29.405  26.868  1.00  0.00     0.116 C 
BRANCH  39  40
ATOM     40  N   UNL A   1      33.580  30.617  26.990  1.00  0.00    -0.352 N 
ATOM     41  C   UNL A   1      33.938  31.787  27.633  1.00  0.00     0.251 C 
ATOM     42  H   UNL A   1      32.692  30.613  26.563  1.00  0.00     0.163 HD
ATOM     43  O   UNL A   1      33.095  32.676  27.699  1.00  0.00    -0.269 OA
BRANCH  41  44
ATOM     44  C   UNL A   1      35.255  31.938  28.340  1.00  0.00     0.039 A 
ATOM     45  C   UNL A   1      35.504  31.077  29.389  1.00  0.00     0.014 A 
ATOM     46  C   UNL A   1      36.158  33.006  28.168  1.00  0.00     0.014 A 
ATOM     47  C   UNL A   1      36.644  31.267  30.205  1.00  0.00     0.010 A 
ATOM     48  C   UNL A   1      37.274  33.246  29.076  1.00  0.00     0.010 A 
ATOM     49  C   UNL A   1      37.541  32.400  30.161  1.00  0.00    -0.014 A 
BRANCH  49  50
ATOM     50  C   UNL A   1      38.385  32.679  31.498  1.00  0.00     0.031 A 
ATOM     51  C   UNL A   1      39.784  32.844  31.005  1.00  0.00     0.074 A 
ATOM     52  C   UNL A   1      38.334  32.693  32.889  1.00  0.00     0.049 A 
ATOM     53  N   UNL A   1      40.329  31.899  30.293  1.00  0.00    -0.248 NA
ATOM     54  C   UNL A   1      40.440  34.149  30.907  1.00  0.00     0.031 C 
ATOM     55  C   UNL A   1      37.230  32.299  33.775  1.00  0.00     0.029 A 
ATOM     56  N   UNL A   1      39.304  33.080  33.865  1.00  0.00    -0.354 N 
ATOM     57  C   UNL A   1      41.531  32.392  29.861  1.00  0.00     0.074 A 
ATOM     58  C   UNL A   1      41.448  33.828  30.088  1.00  0.00     0.031 C 
ATOM     59  C   UNL A   1      37.510  32.586  35.081  1.00  0.00     0.029 A 
ATOM     60  C   UNL A   1      38.849  33.155  35.224  1.00  0.00     0.049 A 
ATOM     61  H   UNL A   1      40.235  33.283  33.618  1.00  0.00     0.167 HD
ATOM     62  C   UNL A   1      42.613  31.571  29.976  1.00  0.00     0.034 A 
ATOM     63  C   UNL A   1      39.497  33.580  36.380  1.00  0.00     0.034 A 
ATOM     64  C   UNL A   1      43.453  31.992  31.066  1.00  0.00     0.049 A 
ATOM     65  C   UNL A   1      40.935  33.401  36.153  1.00  0.00     0.074 A 
ATOM     66  C   UNL A   1      44.004  33.204  31.427  1.00  0.00     0.029 A 
ATOM     67  N   UNL A   1      43.389  31.230  32.212  1.00  0.00    -0.354 N 
ATOM     68  N   UNL A   1      41.489  32.232  36.218  1.00  0.00    -0.248 NA
ATOM     69  C   UNL A   1      41.842  34.517  35.918  1.00  0.00     0.031 C 
ATOM     70  C   UNL A   1      43.832  33.288  32.833  1.00  0.00     0.029 A 
ATOM     71  C   UNL A   1      43.466  32.041  33.328  1.00  0.00     0.049 A 
ATOM     72  H   UNL A   1      43.301  30.250  32.233  1.00  0.00     0.167 HD
ATOM     73  C   UNL A   1      42.664  32.401  35.555  1.00  0.00     0.074 A 
ATOM     74  C   UNL A   1      42.946  33.821  35.640  1.00  0.00     0.031 C 
ATOM     75  C   UNL A   1      42.980  31.501  34.590  1.00  0.00     0.034 A 
BRANCH  62  76
ATOM     76  C   UNL A   1      42.324  30.140  29.595  1.00  0.00     0.023 A 
ATOM     77  C   UNL A   1      41.045  29.615  29.824  1.00  0.00     0.031 A 
ATOM     78  C   UNL A   1      43.335  29.243  29.186  1.00  0.00     0.131 A 
ATOM     79  C   UNL A   1      40.824  28.230  29.707  1.00  0.00     0.055 A 
ATOM     80  C   UNL A   1      43.130  27.865  29.133  1.00  0.00     0.041 A 
ATOM     81  F   UNL A   1      44.555  29.698  28.854  1.00  0.00    -0.206 F 
ATOM     82  C   UNL A   1      41.869  27.349  29.409  1.00  0.00     0.022 A 
BRANCH  79  83
ATOM     83  S   UNL A   1      39.141  27.593  29.933  1.00  0.00     0.124 S 
ATOM     84  O   UNL A   1      38.343  28.488  29.101  1.00  0.00    -0.237 OA
ATOM     85  O   UNL A   1      39.263  26.223  29.438  1.00  0.00    -0.237 OA
ATOM     86  O   UNL A   1      38.910  27.707  31.372  1.00  0.00    -0.744 OA
ENDBRANCH  79  83
ENDBRANCH  62  76
BRANCH  63  87
ATOM     87  C   UNL A   1      39.233  33.993  37.844  1.00  0.00     0.023 A 
ATOM     88  C   UNL A   1      39.170  33.011  38.906  1.00  0.00     0.031 A 
ATOM     89  C   UNL A   1      39.357  35.314  38.284  1.00  0.00     0.131 A 
ATOM     90  C   UNL A   1      39.305  33.347  40.279  1.00  0.00     0.055 A 
ATOM     91  C   UNL A   1      39.462  35.652  39.655  1.00  0.00     0.041 A 
ATOM     92  F   UNL A   1      39.478  36.315  37.400  1.00  0.00    -0.206 F 
ATOM     93  C   UNL A   1      39.461  34.674  40.652  1.00  0.00     0.022 A 
BRANCH  90  94
ATOM     94  S   UNL A   1      39.506  32.057  41.579  1.00  0.00     0.124 S 
ATOM     95  O   UNL A   1      38.443  31.110  41.266  1.00  0.00    -0.237 OA
ATOM     96  O   UNL A   1      40.874  31.592  41.372  1.00  0.00    -0.237 OA
ATOM     97  O   UNL A   1      39.312  32.804  42.824  1.00  0.00    -0.744 OA
ENDBRANCH  90  94
ENDBRANCH  63  87
BRANCH  75  98
ATOM     98  C   UNL A   1      42.592  30.028  34.817  1.00  0.00     0.023 A 
ATOM     99  C   UNL A   1      43.258  29.092  35.655  1.00  0.00     0.031 A 
ATOM    100  C   UNL A   1      41.497  29.522  34.094  1.00  0.00     0.131 A 
ATOM    101  C   UNL A   1      42.854  27.740  35.719  1.00  0.00     0.055 A 
ATOM    102  C   UNL A   1      41.056  28.200  34.204  1.00  0.00     0.041 A 
ATOM    103  F   UNL A   1      40.819  30.314  33.247  1.00  0.00    -0.206 F 
ATOM    104  C   UNL A   1      41.743  27.299  35.007  1.00  0.00     0.022 A 
BRANCH 101 105
ATOM    105  S   UNL A   1      43.837  26.522  36.660  1.00  0.00     0.124 S 
ATOM    106  O   UNL A   1      45.206  26.993  36.490  1.00  0.00    -0.237 OA
ATOM    107  O   UNL A   1      43.285  26.633  38.008  1.00  0.00    -0.237 OA
ATOM    108  O   UNL A   1      43.546  25.257  35.984  1.00  0.00    -0.744 OA
ENDBRANCH 101 105
ENDBRANCH  75  98
ENDBRANCH  49  50
ENDBRANCH  41  44
ENDBRANCH  39  40
ENDBRANCH   1  39
TORSDOF 18
ENDMDL
MODEL 3
REMARK VINA RESULT:     -12.2      4.705      9.958
REMARK SMILES Cc1cc(/C=C2\C(=O)N(Cc3ccco3)C(=O)[NH+]=C2NCCCCNC(=O)c2ccc(-c3c4nc(c(-c5cc(S(=O)(=O)[O-])ccc5F)c5ccc([nH]5)c(-c5cc(S(=O)(=O)[O-])ccc5F)c5nc(c(-c6cc(S(=O)(=O)[O-])ccc6F)c6ccc3[nH]6)C=C5)C=C4)cc2)c(C)n1-c1ccc(Cl)c(C(=O)[O-])c1
REMARK SMILES IDX 23 1 22 2 21 3 20 4 5 5 6 6 7 7 19 8 8 9 9 10 18 11 16 12
REMARK SMILES IDX 17 15 4 16 1 17 2 18 3 19 93 20 91 21 92 22 94 23 95 24
REMARK SMILES IDX 103 25 96 26 99 27 97 28 98 29 100 30 101 31 102 32 10 33
REMARK SMILES IDX 11 34 12 35 15 36 13 37 14 38 24 39 25 40 26 41 27 43 28 44
REMARK SMILES IDX 29 45 90 46 30 47 89 48 31 49 32 50 33 51 83 52 34 53 88 54
REMARK SMILES IDX 82 55 84 56 35 57 87 58 81 59 80 60 36 62 68 63 48 64 67 65
REMARK SMILES IDX 49 66 52 67 66 68 85 69 50 70 51 71 65 73 86 74 53 75 37 76
REMARK SMILES IDX 38 77 46 78 39 79 45 80 47 81 44 82 40 83 41 84 42 85 43 86
REMARK SMILES IDX 69 87 70 88 78 89 71 90 77 91 79 92 76 93 72 94 73 95 74 96
REMARK SMILES IDX 75 97 54 98 55 99 63 100 56 101 62 102 64 103 61 104 57 105
REMARK SMILES IDX 58 106 59 107 60 108
REMARK H PARENT 18 13 20 14 25 42 84 61 52 72
REMARK Flexibility Score: inf
ROOT
ATOM      1  C   UNL A   1      33.859  28.434  26.854  1.00  0.00     0.024 C 
ENDROOT
BRANCH   1   2
ATOM      2  C   UNL A   1      33.819  27.896  25.411  1.00  0.00     0.039 C 
BRANCH   2   3
ATOM      3  C   UNL A   1      34.555  26.576  25.168  1.00  0.00     0.194 C 
BRANCH   3   4
ATOM      4  N   UNL A   1      33.598  25.538  24.860  1.00  0.00    -0.305 N 
ATOM      5  C   UNL A   1      35.907  23.527  25.290  1.00  0.00     0.032 C 
ATOM      6  C   UNL A   1      34.666  23.414  25.797  1.00  0.00     0.129 C 
ATOM      7  C   UNL A   1      34.214  22.376  26.753  1.00  0.00     0.323 C 
ATOM      8  C   UNL A   1      33.552  24.225  25.245  1.00  0.00     0.236 C 
ATOM      9  O   UNL A   1      34.799  22.124  27.779  1.00  0.00    -0.250 OA
ATOM     10  N   UNL A   1      33.082  21.732  26.274  1.00  0.00    -0.182 N 
ATOM     11  N   UNL A   1      32.380  23.669  25.095  1.00  0.00    -0.210 N 
ATOM     12  C   UNL A   1      32.197  22.346  25.405  1.00  0.00     0.444 C 
ATOM     13  H   UNL A   1      31.625  24.203  24.758  1.00  0.00     0.270 HD
ATOM     14  H   UNL A   1      32.857  25.822  24.276  1.00  0.00     0.256 HD
ATOM     15  O   UNL A   1      31.258  21.719  24.908  1.00  0.00    -0.212 OA
BRANCH   5  16
ATOM     16  C   UNL A   1      37.125  22.818  25.560  1.00  0.00    -0.003 A 
ATOM     17  C   UNL A   1      39.212  19.732  25.468  1.00  0.00     0.065 C 
ATOM     18  C   UNL A   1      38.583  21.075  25.602  1.00  0.00     0.020 A 
ATOM     19  C   UNL A   1      37.310  21.453  25.224  1.00  0.00     0.031 A 
ATOM     20  N   UNL A   1      39.185  22.170  26.200  1.00  0.00    -0.318 N 
ATOM     21  C   UNL A   1      38.277  23.233  26.213  1.00  0.00     0.027 A 
ATOM     22  C   UNL A   1      38.645  24.576  26.745  1.00  0.00     0.065 C 
BRANCH  20  23
ATOM     23  C   UNL A   1      40.526  22.246  26.663  1.00  0.00     0.046 A 
ATOM     24  C   UNL A   1      40.791  22.124  28.028  1.00  0.00     0.028 A 
ATOM     25  C   UNL A   1      41.547  22.592  25.772  1.00  0.00     0.038 A 
ATOM     26  C   UNL A   1      42.053  22.449  28.516  1.00  0.00     0.023 A 
ATOM     27  C   UNL A   1      42.832  22.913  26.258  1.00  0.00     0.018 A 
ATOM     28  C   UNL A   1      43.068  22.863  27.643  1.00  0.00     0.050 A 
ATOM     29  Cl  UNL A   1      44.559  23.313  28.395  1.00  0.00    -0.084 Cl
BRANCH  27  30
ATOM     30  C   UNL A   1      43.892  23.338  25.299  1.00  0.00     0.073 C 
ATOM     31  O   UNL A   1      44.959  22.804  25.068  1.00  0.00    -0.545 OA
ATOM     32  O   UNL A   1      43.552  24.458  24.631  1.00  0.00    -0.545 OA
ENDBRANCH  27  30
ENDBRANCH  20  23
ENDBRANCH   5  16
BRANCH  10  33
ATOM     33  C   UNL A   1      32.867  20.341  26.620  1.00  0.00     0.285 C 
BRANCH  33  34
ATOM     34  C   UNL A   1      33.148  19.422  25.495  1.00  0.00     0.138 A 
ATOM     35  C   UNL A   1      34.245  19.202  24.691  1.00  0.00     0.049 A 
ATOM     36  O   UNL A   1      32.164  18.524  25.201  1.00  0.00    -0.466 OA
ATOM     37  C   UNL A   1      33.905  18.118  23.847  1.00  0.00     0.042 A 
ATOM     38  C   UNL A   1      32.627  17.746  24.192  1.00  0.00     0.195 A 
ENDBRANCH  33  34
ENDBRANCH  10  33
ENDBRANCH   3   4
ENDBRANCH   2   3
ENDBRANCH   1   2
BRANCH   1  39
ATOM     39  C   UNL A   1      35.069  29.288  27.269  1.00  0.00     0.116 C 
BRANCH  39  40
ATOM     40  N   UNL A   1      35.161  29.528  28.686  1.00  0.00    -0.352 N 
ATOM     41  C   UNL A   1      36.273  29.410  29.497  1.00  0.00     0.251 C 
ATOM     42  H   UNL A   1      34.329  29.811  29.131  1.00  0.00     0.163 HD
ATOM     43  O   UNL A   1      36.113  29.573  30.703  1.00  0.00    -0.269 OA
BRANCH  41  44
ATOM     44  C   UNL A   1      37.609  28.976  28.962  1.00  0.00     0.039 A 
ATOM     45  C   UNL A   1      38.426  28.270  29.820  1.00  0.00     0.014 A 
ATOM     46  C   UNL A   1      38.181  29.404  27.748  1.00  0.00     0.014 A 
ATOM     47  C   UNL A   1      39.759  27.975  29.445  1.00  0.00     0.010 A 
ATOM     48  C   UNL A   1      39.584  29.177  27.417  1.00  0.00     0.010 A 
ATOM     49  C   UNL A   1      40.444  28.479  28.276  1.00  0.00    -0.014 A 
BRANCH  49  50
ATOM     50  C   UNL A   1      42.047  28.484  28.352  1.00  0.00     0.031 A 
ATOM     51  C   UNL A   1      42.340  29.262  29.591  1.00  0.00     0.074 A 
ATOM     52  C   UNL A   1      43.216  28.170  27.665  1.00  0.00     0.049 A 
ATOM     53  N   UNL A   1      41.858  30.466  29.723  1.00  0.00    -0.248 NA
ATOM     54  C   UNL A   1      42.773  28.630  30.839  1.00  0.00     0.031 C 
ATOM     55  C   UNL A   1      43.372  27.667  26.293  1.00  0.00     0.029 A 
ATOM     56  N   UNL A   1      44.589  28.235  28.059  1.00  0.00    -0.354 N 
ATOM     57  C   UNL A   1      42.154  30.858  31.000  1.00  0.00     0.074 A 
ATOM     58  C   UNL A   1      42.522  29.630  31.692  1.00  0.00     0.031 C 
ATOM     59  C   UNL A   1      44.673  27.345  26.023  1.00  0.00     0.029 A 
ATOM     60  C   UNL A   1      45.541  27.644  27.161  1.00  0.00     0.049 A 
ATOM     61  H   UNL A   1      44.867  28.663  28.901  1.00  0.00     0.167 HD
ATOM     62  C   UNL A   1      42.664  32.112  31.159  1.00  0.00     0.034 A 
ATOM     63  C   UNL A   1      46.914  27.457  27.283  1.00  0.00     0.034 A 
ATOM     64  C   UNL A   1      44.075  32.052  31.434  1.00  0.00     0.049 A 
ATOM     65  C   UNL A   1      47.402  28.477  28.216  1.00  0.00     0.074 A 
ATOM     66  C   UNL A   1      44.837  31.343  32.340  1.00  0.00     0.029 A 
ATOM     67  N   UNL A   1      44.913  32.392  30.395  1.00  0.00    -0.354 N 
ATOM     68  N   UNL A   1      47.558  29.709  27.851  1.00  0.00    -0.248 NA
ATOM     69  C   UNL A   1      47.814  28.167  29.580  1.00  0.00     0.031 C 
ATOM     70  C   UNL A   1      45.969  30.900  31.609  1.00  0.00     0.029 A 
ATOM     71  C   UNL A   1      46.028  31.575  30.395  1.00  0.00     0.049 A 
ATOM     72  H   UNL A   1      44.741  33.111  29.745  1.00  0.00     0.167 HD
ATOM     73  C   UNL A   1      47.593  30.388  29.028  1.00  0.00     0.074 A 
ATOM     74  C   UNL A   1      48.018  29.413  30.014  1.00  0.00     0.031 C 
ATOM     75  C   UNL A   1      46.789  31.472  29.158  1.00  0.00     0.034 A 
BRANCH  62  76
ATOM     76  C   UNL A   1      41.983  33.150  30.303  1.00  0.00     0.023 A 
ATOM     77  C   UNL A   1      42.760  33.977  29.479  1.00  0.00     0.031 A 
ATOM     78  C   UNL A   1      40.610  33.457  30.427  1.00  0.00     0.131 A 
ATOM     79  C   UNL A   1      42.179  35.102  28.866  1.00  0.00     0.055 A 
ATOM     80  C   UNL A   1      40.051  34.607  29.871  1.00  0.00     0.041 A 
ATOM     81  F   UNL A   1      39.792  32.647  31.119  1.00  0.00    -0.206 F 
ATOM     82  C   UNL A   1      40.842  35.446  29.095  1.00  0.00     0.022 A 
BRANCH  79  83
ATOM     83  S   UNL A   1      43.192  36.105  27.746  1.00  0.00     0.124 S 
ATOM     84  O   UNL A   1      42.828  35.587  26.431  1.00  0.00    -0.237 OA
ATOM     85  O   UNL A   1      42.722  37.458  28.036  1.00  0.00    -0.237 OA
ATOM     86  O   UNL A   1      44.565  35.830  28.167  1.00  0.00    -0.744 OA
ENDBRANCH  79  83
ENDBRANCH  62  76
BRANCH  63  87
ATOM     87  C   UNL A   1      48.100  26.688  26.660  1.00  0.00     0.023 A 
ATOM     88  C   UNL A   1      48.846  27.230  25.543  1.00  0.00     0.031 A 
ATOM     89  C   UNL A   1      48.722  25.617  27.307  1.00  0.00     0.131 A 
ATOM     90  C   UNL A   1      50.139  26.768  25.181  1.00  0.00     0.055 A 
ATOM     91  C   UNL A   1      49.998  25.137  26.927  1.00  0.00     0.041 A 
ATOM     92  F   UNL A   1      48.160  25.060  28.390  1.00  0.00    -0.206 F 
ATOM     93  C   UNL A   1      50.720  25.723  25.885  1.00  0.00     0.022 A 
BRANCH  90  94
ATOM     94  S   UNL A   1      51.177  27.657  23.947  1.00  0.00     0.124 S 
ATOM     95  O   UNL A   1      51.193  29.023  24.457  1.00  0.00    -0.237 OA
ATOM     96  O   UNL A   1      52.442  26.930  23.995  1.00  0.00    -0.237 OA
ATOM     97  O   UNL A   1      50.435  27.481  22.696  1.00  0.00    -0.744 OA
ENDBRANCH  90  94
ENDBRANCH  63  87
BRANCH  75  98
ATOM     98  C   UNL A   1      46.573  32.367  27.923  1.00  0.00     0.023 A 
ATOM     99  C   UNL A   1      47.433  33.401  27.459  1.00  0.00     0.031 A 
ATOM    100  C   UNL A   1      45.385  32.193  27.190  1.00  0.00     0.131 A 
ATOM    101  C   UNL A   1      47.086  34.210  26.356  1.00  0.00     0.055 A 
ATOM    102  C   UNL A   1      45.069  32.951  26.059  1.00  0.00     0.041 A 
ATOM    103  F   UNL A   1      44.488  31.266  27.563  1.00  0.00    -0.206 F 
ATOM    104  C   UNL A   1      45.912  33.974  25.646  1.00  0.00     0.022 A 
BRANCH 101 105
ATOM    105  S   UNL A   1      48.120  35.644  25.897  1.00  0.00     0.124 S 
ATOM    106  O   UNL A   1      48.950  35.128  24.815  1.00  0.00    -0.237 OA
ATOM    107  O   UNL A   1      47.130  36.649  25.519  1.00  0.00    -0.237 OA
ATOM    108  O   UNL A   1      48.852  35.942  27.129  1.00  0.00    -0.744 OA
ENDBRANCH 101 105
ENDBRANCH  75  98
ENDBRANCH  49  50
ENDBRANCH  41  44
ENDBRANCH  39  40
ENDBRANCH   1  39
TORSDOF 18
ENDMDL
