MODEL 1
REMARK VINA RESULT:     -12.0      0.000      0.000
REMARK SMILES O=C(NCCCCNC(=O)[C@H](CO)NC(=O)[C@H](CS)NC(=O)[C@H](Cc1c[nH]c2ccccc12)NC(=O)c1ccc(F)cc1)c1ccc(-c2c3nc(c(-c4cc(S(=O)(=O)[O-])ccc4F)c4ccc([nH]4)c(-c4cc(S(=O)(=O)[O-])ccc4F)c4nc(c(-c5cc(S(=O)(=O)[O-])ccc5F)c5ccc2[nH]5)C=C4)C=C3)cc1
REMARK SMILES IDX 7 1 6 2 5 3 4 4 3 5 1 6 2 7 44 9 45 10 106 11 46 12 105 13
REMARK SMILES IDX 47 14 48 15 49 16 99 17 50 18 104 19 98 20 100 21 51 22
REMARK SMILES IDX 103 23 97 24 96 25 52 27 84 28 64 29 83 30 65 31 68 32 82 33
REMARK SMILES IDX 101 34 66 35 67 36 81 38 102 39 69 40 53 41 54 42 62 43
REMARK SMILES IDX 55 44 61 45 63 46 60 47 56 48 57 49 58 50 59 51 85 52 86 53
REMARK SMILES IDX 94 54 87 55 93 56 95 57 92 58 88 59 89 60 90 61 91 62 70 63
REMARK SMILES IDX 71 64 79 65 72 66 78 67 80 68 77 69 73 70 74 71 75 72 76 73
REMARK SMILES IDX 8 74 9 75 10 77 11 78 14 79 15 80 16 82 17 83 20 84 21 85
REMARK SMILES IDX 22 87 23 88 34 89 35 90 36 92 37 93 38 94 43 95 39 96 42 97
REMARK SMILES IDX 40 98 41 99 24 100 25 101 26 102 33 103 27 104 28 105 32 106
REMARK SMILES IDX 29 108 31 109 30 110 18 111 19 112 12 114 13 115
REMARK H PARENT 3 8 100 26 68 37 8 76 14 81 20 86 34 91 27 107 19 113 13 116
REMARK Flexibility Score: inf
ROOT
ATOM      1  C   UNL A   1      35.524  20.309  25.099  1.00  0.00     0.116 C 
ENDROOT
BRANCH   1   2
ATOM      2  C   UNL A   1      36.934  19.729  24.983  1.00  0.00     0.023 C 
BRANCH   2   3
ATOM      3  C   UNL A   1      38.026  20.796  24.883  1.00  0.00     0.023 C 
BRANCH   3   4
ATOM      4  C   UNL A   1      38.973  20.812  26.070  1.00  0.00     0.116 C 
BRANCH   4   5
ATOM      5  N   UNL A   1      39.888  19.679  26.039  1.00  0.00    -0.352 N 
ATOM      6  O   UNL A   1      41.914  18.695  25.875  1.00  0.00    -0.269 OA
ATOM      7  C   UNL A   1      41.253  19.707  26.080  1.00  0.00     0.251 C 
ATOM      8  H   UNL A   1      39.474  18.788  25.983  1.00  0.00     0.163 HD
BRANCH   7   9
ATOM      9  C   UNL A   1      41.891  20.996  26.371  1.00  0.00     0.039 A 
ATOM     10  C   UNL A   1      42.170  21.865  25.311  1.00  0.00     0.014 A 
ATOM     11  C   UNL A   1      42.265  21.290  27.680  1.00  0.00     0.014 A 
ATOM     12  C   UNL A   1      42.891  23.019  25.557  1.00  0.00     0.010 A 
ATOM     13  C   UNL A   1      42.921  22.488  27.937  1.00  0.00     0.010 A 
ATOM     14  C   UNL A   1      43.223  23.361  26.878  1.00  0.00    -0.014 A 
BRANCH  14  15
ATOM     15  C   UNL A   1      43.722  24.720  27.158  1.00  0.00     0.031 A 
ATOM     16  C   UNL A   1      42.834  25.778  27.726  1.00  0.00     0.074 A 
ATOM     17  C   UNL A   1      45.015  24.963  26.877  1.00  0.00     0.049 A 
ATOM     18  N   UNL A   1      43.110  27.032  27.966  1.00  0.00    -0.248 NA
ATOM     19  C   UNL A   1      41.460  25.383  28.062  1.00  0.00     0.031 C 
ATOM     20  C   UNL A   1      45.957  23.974  26.341  1.00  0.00     0.029 A 
ATOM     21  N   UNL A   1      45.769  26.093  27.021  1.00  0.00    -0.354 N 
ATOM     22  C   UNL A   1      41.945  27.585  28.480  1.00  0.00     0.074 A 
ATOM     23  C   UNL A   1      40.950  26.530  28.487  1.00  0.00     0.031 C 
ATOM     24  C   UNL A   1      47.175  24.521  26.265  1.00  0.00     0.029 A 
ATOM     25  C   UNL A   1      47.081  25.920  26.661  1.00  0.00     0.049 A 
ATOM     26  H   UNL A   1      45.406  26.947  27.353  1.00  0.00     0.167 HD
ATOM     27  C   UNL A   1      41.739  28.856  28.902  1.00  0.00     0.034 A 
ATOM     28  C   UNL A   1      48.098  26.798  26.627  1.00  0.00     0.034 A 
ATOM     29  C   UNL A   1      42.752  29.886  28.852  1.00  0.00     0.049 A 
ATOM     30  C   UNL A   1      47.826  28.214  27.024  1.00  0.00     0.074 A 
ATOM     31  C   UNL A   1      42.650  31.219  29.214  1.00  0.00     0.029 A 
ATOM     32  N   UNL A   1      44.057  29.698  28.407  1.00  0.00    -0.354 N 
ATOM     33  N   UNL A   1      46.699  28.748  27.435  1.00  0.00    -0.248 NA
ATOM     34  C   UNL A   1      48.952  29.147  26.945  1.00  0.00     0.031 C 
ATOM     35  C   UNL A   1      43.870  31.845  28.936  1.00  0.00     0.029 A 
ATOM     36  C   UNL A   1      44.762  30.891  28.471  1.00  0.00     0.049 A 
ATOM     37  H   UNL A   1      44.427  28.842  28.091  1.00  0.00     0.167 HD
ATOM     38  C   UNL A   1      46.983  30.084  27.682  1.00  0.00     0.074 A 
ATOM     39  C   UNL A   1      48.391  30.269  27.374  1.00  0.00     0.031 C 
ATOM     40  C   UNL A   1      46.158  31.062  28.133  1.00  0.00     0.034 A 
BRANCH  27  41
ATOM     41  C   UNL A   1      40.358  29.204  29.401  1.00  0.00     0.023 A 
ATOM     42  C   UNL A   1      40.060  29.248  30.774  1.00  0.00     0.031 A 
ATOM     43  C   UNL A   1      39.318  29.469  28.492  1.00  0.00     0.131 A 
ATOM     44  C   UNL A   1      38.743  29.492  31.198  1.00  0.00     0.055 A 
ATOM     45  C   UNL A   1      38.027  29.782  28.921  1.00  0.00     0.041 A 
ATOM     46  F   UNL A   1      39.537  29.418  27.169  1.00  0.00    -0.206 F 
ATOM     47  C   UNL A   1      37.730  29.784  30.282  1.00  0.00     0.022 A 
BRANCH  44  48
ATOM     48  S   UNL A   1      38.348  29.302  32.957  1.00  0.00     0.124 S 
ATOM     49  O   UNL A   1      37.507  28.107  32.942  1.00  0.00    -0.237 OA
ATOM     50  O   UNL A   1      39.665  29.148  33.562  1.00  0.00    -0.237 OA
ATOM     51  O   UNL A   1      37.651  30.543  33.287  1.00  0.00    -0.744 OA
ENDBRANCH  44  48
ENDBRANCH  27  41
BRANCH  28  52
ATOM     52  C   UNL A   1      49.438  26.332  26.193  1.00  0.00     0.023 A 
ATOM     53  C   UNL A   1      49.987  26.774  24.981  1.00  0.00     0.031 A 
ATOM     54  C   UNL A   1      50.230  25.527  27.032  1.00  0.00     0.131 A 
ATOM     55  C   UNL A   1      51.298  26.409  24.641  1.00  0.00     0.055 A 
ATOM     56  C   UNL A   1      51.543  25.194  26.704  1.00  0.00     0.041 A 
ATOM     57  F   UNL A   1      49.753  25.108  28.216  1.00  0.00    -0.206 F 
ATOM     58  C   UNL A   1      52.084  25.636  25.501  1.00  0.00     0.022 A 
BRANCH  55  59
ATOM     59  S   UNL A   1      51.978  26.987  23.062  1.00  0.00     0.124 S 
ATOM     60  O   UNL A   1      52.847  25.877  22.690  1.00  0.00    -0.237 OA
ATOM     61  O   UNL A   1      50.774  27.161  22.255  1.00  0.00    -0.237 OA
ATOM     62  O   UNL A   1      52.665  28.226  23.422  1.00  0.00    -0.744 OA
ENDBRANCH  55  59
ENDBRANCH  28  52
BRANCH  40  63
ATOM     63  C   UNL A   1      46.779  32.413  28.357  1.00  0.00     0.023 A 
ATOM     64  C   UNL A   1      46.842  33.377  27.337  1.00  0.00     0.031 A 
ATOM     65  C   UNL A   1      47.324  32.734  29.614  1.00  0.00     0.131 A 
ATOM     66  C   UNL A   1      47.481  34.601  27.577  1.00  0.00     0.055 A 
ATOM     67  C   UNL A   1      47.910  33.974  29.861  1.00  0.00     0.041 A 
ATOM     68  F   UNL A   1      47.291  31.845  30.618  1.00  0.00    -0.206 F 
ATOM     69  C   UNL A   1      48.001  34.913  28.838  1.00  0.00     0.022 A 
BRANCH  66  70
ATOM     70  S   UNL A   1      47.689  35.761  26.198  1.00  0.00     0.124 S 
ATOM     71  O   UNL A   1      48.749  36.633  26.695  1.00  0.00    -0.237 OA
ATOM     72  O   UNL A   1      48.055  34.877  25.096  1.00  0.00    -0.237 OA
ATOM     73  O   UNL A   1      46.375  36.389  26.077  1.00  0.00    -0.744 OA
ENDBRANCH  66  70
ENDBRANCH  40  63
ENDBRANCH  14  15
ENDBRANCH   7   9
ENDBRANCH   4   5
ENDBRANCH   3   4
ENDBRANCH   2   3
ENDBRANCH   1   2
BRANCH   1  74
ATOM     74  N   UNL A   1      34.571  19.324  24.658  1.00  0.00    -0.354 N 
ATOM     75  C   UNL A   1      33.265  19.278  25.027  1.00  0.00     0.244 C 
ATOM     76  H   UNL A   1      34.891  18.627  24.040  1.00  0.00     0.163 HD
ATOM     77  O   UNL A   1      32.743  18.173  25.172  1.00  0.00    -0.273 OA
BRANCH  75  78
ATOM     78  C   UNL A   1      32.499  20.561  25.340  1.00  0.00     0.197 C 
BRANCH  78  79
ATOM     79  N   UNL A   1      32.784  21.021  26.687  1.00  0.00    -0.340 N 
ATOM     80  C   UNL A   1      32.944  22.303  27.105  1.00  0.00     0.244 C 
ATOM     81  H   UNL A   1      32.871  20.323  27.376  1.00  0.00     0.164 HD
ATOM     82  O   UNL A   1      33.003  22.489  28.323  1.00  0.00    -0.273 OA
BRANCH  80  83
ATOM     83  C   UNL A   1      33.004  23.463  26.078  1.00  0.00     0.181 C 
BRANCH  83  84
ATOM     84  N   UNL A   1      31.899  24.393  26.387  1.00  0.00    -0.342 N 
ATOM     85  C   UNL A   1      31.638  25.695  26.035  1.00  0.00     0.243 C 
ATOM     86  H   UNL A   1      31.207  23.998  26.965  1.00  0.00     0.164 HD
ATOM     87  O   UNL A   1      30.561  26.161  26.419  1.00  0.00    -0.273 OA
BRANCH  85  88
ATOM     88  C   UNL A   1      32.700  26.606  25.345  1.00  0.00     0.176 C 
BRANCH  88  89
ATOM     89  N   UNL A   1      32.794  26.317  23.896  1.00  0.00    -0.340 N 
ATOM     90  C   UNL A   1      31.843  26.328  22.908  1.00  0.00     0.251 C 
ATOM     91  H   UNL A   1      33.697  26.074  23.589  1.00  0.00     0.164 HD
ATOM     92  O   UNL A   1      31.918  25.559  21.953  1.00  0.00    -0.269 OA
BRANCH  90  93
ATOM     93  C   UNL A   1      30.756  27.328  22.896  1.00  0.00     0.040 A 
ATOM     94  C   UNL A   1      29.491  26.945  23.352  1.00  0.00     0.017 A 
ATOM     95  C   UNL A   1      31.024  28.686  22.681  1.00  0.00     0.017 A 
ATOM     96  C   UNL A   1      28.471  27.893  23.491  1.00  0.00     0.040 A 
ATOM     97  C   UNL A   1      30.001  29.633  22.808  1.00  0.00     0.040 A 
ATOM     98  C   UNL A   1      28.730  29.225  23.199  1.00  0.00     0.123 A 
ATOM     99  F   UNL A   1      27.747  30.127  23.300  1.00  0.00    -0.207 F 
ENDBRANCH  90  93
ENDBRANCH  88  89
BRANCH  88 100
ATOM    100  C   UNL A   1      32.159  28.024  25.561  1.00  0.00     0.072 C 
BRANCH 100 101
ATOM    101  C   UNL A   1      32.926  28.962  26.428  1.00  0.00    -0.020 A 
ATOM    102  C   UNL A   1      34.025  28.731  27.227  1.00  0.00     0.087 A 
ATOM    103  C   UNL A   1      32.553  30.330  26.630  1.00  0.00     0.003 A 
ATOM    104  N   UNL A   1      34.413  29.925  27.777  1.00  0.00    -0.361 N 
ATOM    105  C   UNL A   1      33.512  30.911  27.455  1.00  0.00     0.046 A 
ATOM    106  C   UNL A   1      31.475  31.116  26.177  1.00  0.00     0.010 A 
ATOM    107  H   UNL A   1      35.221  30.057  28.323  1.00  0.00     0.166 HD
ATOM    108  C   UNL A   1      33.468  32.260  27.823  1.00  0.00     0.026 A 
ATOM    109  C   UNL A   1      31.402  32.460  26.554  1.00  0.00     0.001 A 
ATOM    110  C   UNL A   1      32.391  33.023  27.357  1.00  0.00     0.002 A 
ENDBRANCH 100 101
ENDBRANCH  88 100
ENDBRANCH  85  88
ENDBRANCH  83  84
BRANCH  83 111
ATOM    111  C   UNL A   1      34.412  24.083  26.261  1.00  0.00     0.101 C 
BRANCH 111 112
ATOM    112  S   UNL A   1      35.529  24.003  24.828  1.00  0.00    -0.177 SA
ATOM    113  H   UNL A   1      36.812  23.878  25.259  1.00  0.00     0.102 HD
ENDBRANCH 111 112
ENDBRANCH  83 111
ENDBRANCH  80  83
ENDBRANCH  78  79
BRANCH  78 114
ATOM    114  C   UNL A   1      32.571  21.665  24.283  1.00  0.00     0.191 C 
BRANCH 114 115
ATOM    115  O   UNL A   1      32.760  21.088  22.986  1.00  0.00    -0.394 OA
ATOM    116  H   UNL A   1      33.659  20.728  22.919  1.00  0.00     0.210 HD
ENDBRANCH 114 115
ENDBRANCH  78 114
ENDBRANCH  75  78
ENDBRANCH   1  74
TORSDOF 26
ENDMDL
MODEL 2
REMARK VINA RESULT:     -11.8      0.694      7.139
REMARK SMILES O=C(NCCCCNC(=O)[C@H](CO)NC(=O)[C@H](CS)NC(=O)[C@H](Cc1c[nH]c2ccccc12)NC(=O)c1ccc(F)cc1)c1ccc(-c2c3nc(c(-c4cc(S(=O)(=O)[O-])ccc4F)c4ccc([nH]4)c(-c4cc(S(=O)(=O)[O-])ccc4F)c4nc(c(-c5cc(S(=O)(=O)[O-])ccc5F)c5ccc2[nH]5)C=C4)C=C3)cc1
REMARK SMILES IDX 7 1 6 2 5 3 4 4 3 5 1 6 2 7 44 9 45 10 106 11 46 12 105 13
REMARK SMILES IDX 47 14 48 15 49 16 99 17 50 18 104 19 98 20 100 21 51 22
REMARK SMILES IDX 103 23 97 24 96 25 52 27 84 28 64 29 83 30 65 31 68 32 82 33
REMARK SMILES IDX 101 34 66 35 67 36 81 38 102 39 69 40 53 41 54 42 62 43
REMARK SMILES IDX 55 44 61 45 63 46 60 47 56 48 57 49 58 50 59 51 85 52 86 53
REMARK SMILES IDX 94 54 87 55 93 56 95 57 92 58 88 59 89 60 90 61 91 62 70 63
REMARK SMILES IDX 71 64 79 65 72 66 78 67 80 68 77 69 73 70 74 71 75 72 76 73
REMARK SMILES IDX 8 74 9 75 10 77 11 78 14 79 15 80 16 82 17 83 20 84 21 85
REMARK SMILES IDX 22 87 23 88 34 89 35 90 36 92 37 93 38 94 43 95 39 96 42 97
REMARK SMILES IDX 40 98 41 99 24 100 25 101 26 102 33 103 27 104 28 105 32 106
REMARK SMILES IDX 29 108 31 109 30 110 18 111 19 112 12 114 13 115
REMARK H PARENT 3 8 100 26 68 37 8 76 14 81 20 86 34 91 27 107 19 113 13 116
REMARK Flexibility Score: inf
ROOT
ATOM      1  C   UNL A   1      35.666  20.246  25.048  1.00  0.00     0.116 C 
ENDROOT
BRANCH   1   2
ATOM      2  C   UNL A   1      37.047  19.593  24.981  1.00  0.00     0.023 C 
BRANCH   2   3
ATOM      3  C   UNL A   1      38.193  20.600  24.864  1.00  0.00     0.023 C 
BRANCH   3   4
ATOM      4  C   UNL A   1      39.123  20.607  26.064  1.00  0.00     0.116 C 
BRANCH   4   5
ATOM      5  N   UNL A   1      40.081  19.511  26.006  1.00  0.00    -0.352 N 
ATOM      6  O   UNL A   1      42.140  18.608  25.796  1.00  0.00    -0.269 OA
ATOM      7  C   UNL A   1      41.444  19.592  26.024  1.00  0.00     0.251 C 
ATOM      8  H   UNL A   1      39.701  18.605  25.946  1.00  0.00     0.163 HD
BRANCH   7   9
ATOM      9  C   UNL A   1      42.036  20.901  26.318  1.00  0.00     0.039 A 
ATOM     10  C   UNL A   1      42.340  21.759  25.256  1.00  0.00     0.014 A 
ATOM     11  C   UNL A   1      42.344  21.228  27.637  1.00  0.00     0.014 A 
ATOM     12  C   UNL A   1      43.020  22.936  25.512  1.00  0.00     0.010 A 
ATOM     13  C   UNL A   1      42.958  22.447  27.900  1.00  0.00     0.010 A 
ATOM     14  C   UNL A   1      43.285  23.308  26.840  1.00  0.00    -0.014 A 
BRANCH  14  15
ATOM     15  C   UNL A   1      43.737  24.684  27.116  1.00  0.00     0.031 A 
ATOM     16  C   UNL A   1      45.147  25.109  26.870  1.00  0.00     0.074 A 
ATOM     17  C   UNL A   1      42.818  25.541  27.601  1.00  0.00     0.049 A 
ATOM     18  N   UNL A   1      45.707  26.263  27.121  1.00  0.00    -0.248 NA
ATOM     19  C   UNL A   1      46.046  24.115  26.270  1.00  0.00     0.031 C 
ATOM     20  C   UNL A   1      41.411  25.208  27.848  1.00  0.00     0.029 A 
ATOM     21  N   UNL A   1      42.913  26.858  27.948  1.00  0.00    -0.354 N 
ATOM     22  C   UNL A   1      47.029  26.138  26.716  1.00  0.00     0.074 A 
ATOM     23  C   UNL A   1      47.191  24.782  26.229  1.00  0.00     0.031 C 
ATOM     24  C   UNL A   1      40.761  26.309  28.242  1.00  0.00     0.029 A 
ATOM     25  C   UNL A   1      41.721  27.397  28.361  1.00  0.00     0.049 A 
ATOM     26  H   UNL A   1      43.753  27.370  27.904  1.00  0.00     0.167 HD
ATOM     27  C   UNL A   1      48.006  27.077  26.753  1.00  0.00     0.034 A 
ATOM     28  C   UNL A   1      41.433  28.630  28.812  1.00  0.00     0.034 A 
ATOM     29  C   UNL A   1      47.810  28.411  27.273  1.00  0.00     0.049 A 
ATOM     30  C   UNL A   1      42.545  29.625  28.917  1.00  0.00     0.074 A 
ATOM     31  C   UNL A   1      48.732  29.435  27.399  1.00  0.00     0.029 A 
ATOM     32  N   UNL A   1      46.603  28.906  27.759  1.00  0.00    -0.354 N 
ATOM     33  N   UNL A   1      43.812  29.474  28.605  1.00  0.00    -0.248 NA
ATOM     34  C   UNL A   1      42.198  30.947  29.441  1.00  0.00     0.031 C 
ATOM     35  C   UNL A   1      48.100  30.525  28.009  1.00  0.00     0.029 A 
ATOM     36  C   UNL A   1      46.762  30.212  28.197  1.00  0.00     0.049 A 
ATOM     37  H   UNL A   1      45.758  28.402  27.787  1.00  0.00     0.167 HD
ATOM     38  C   UNL A   1      44.415  30.693  28.880  1.00  0.00     0.074 A 
ATOM     39  C   UNL A   1      43.368  31.567  29.381  1.00  0.00     0.031 C 
ATOM     40  C   UNL A   1      45.712  31.058  28.720  1.00  0.00     0.034 A 
BRANCH  27  41
ATOM     41  C   UNL A   1      49.375  26.669  26.266  1.00  0.00     0.023 A 
ATOM     42  C   UNL A   1      49.903  27.158  25.058  1.00  0.00     0.031 A 
ATOM     43  C   UNL A   1      50.153  25.760  27.005  1.00  0.00     0.131 A 
ATOM     44  C   UNL A   1      51.144  26.691  24.597  1.00  0.00     0.055 A 
ATOM     45  C   UNL A   1      51.418  25.354  26.576  1.00  0.00     0.041 A 
ATOM     46  F   UNL A   1      49.690  25.241  28.154  1.00  0.00    -0.206 F 
ATOM     47  C   UNL A   1      51.916  25.811  25.359  1.00  0.00     0.022 A 
BRANCH  44  48
ATOM     48  S   UNL A   1      51.681  27.155  22.928  1.00  0.00     0.124 S 
ATOM     49  O   UNL A   1      52.867  26.318  22.757  1.00  0.00    -0.237 OA
ATOM     50  O   UNL A   1      50.525  26.797  22.114  1.00  0.00    -0.237 OA
ATOM     51  O   UNL A   1      51.947  28.587  23.039  1.00  0.00    -0.744 OA
ENDBRANCH  44  48
ENDBRANCH  27  41
BRANCH  28  52
ATOM     52  C   UNL A   1      40.036  28.950  29.193  1.00  0.00     0.023 A 
ATOM     53  C   UNL A   1      39.634  28.900  30.534  1.00  0.00     0.031 A 
ATOM     54  C   UNL A   1      39.115  29.412  28.235  1.00  0.00     0.131 A 
ATOM     55  C   UNL A   1      38.340  29.311  30.886  1.00  0.00     0.055 A 
ATOM     56  C   UNL A   1      37.840  29.849  28.594  1.00  0.00     0.041 A 
ATOM     57  F   UNL A   1      39.469  29.505  26.943  1.00  0.00    -0.206 F 
ATOM     58  C   UNL A   1      37.446  29.799  29.928  1.00  0.00     0.022 A 
BRANCH  55  59
ATOM     59  S   UNL A   1      37.845  29.226  32.628  1.00  0.00     0.124 S 
ATOM     60  O   UNL A   1      37.962  27.798  32.901  1.00  0.00    -0.237 OA
ATOM     61  O   UNL A   1      38.832  30.087  33.271  1.00  0.00    -0.237 OA
ATOM     62  O   UNL A   1      36.480  29.751  32.619  1.00  0.00    -0.744 OA
ENDBRANCH  55  59
ENDBRANCH  28  52
BRANCH  40  63
ATOM     63  C   UNL A   1      46.055  32.483  29.058  1.00  0.00     0.023 A 
ATOM     64  C   UNL A   1      45.855  33.530  28.142  1.00  0.00     0.031 A 
ATOM     65  C   UNL A   1      46.599  32.792  30.318  1.00  0.00     0.131 A 
ATOM     66  C   UNL A   1      46.242  34.834  28.483  1.00  0.00     0.055 A 
ATOM     67  C   UNL A   1      46.931  34.100  30.670  1.00  0.00     0.041 A 
ATOM     68  F   UNL A   1      46.812  31.826  31.224  1.00  0.00    -0.206 F 
ATOM     69  C   UNL A   1      46.764  35.128  29.747  1.00  0.00     0.022 A 
BRANCH  66  70
ATOM     70  S   UNL A   1      46.122  36.135  27.225  1.00  0.00     0.124 S 
ATOM     71  O   UNL A   1      46.319  37.342  28.022  1.00  0.00    -0.237 OA
ATOM     72  O   UNL A   1      47.206  35.790  26.311  1.00  0.00    -0.237 OA
ATOM     73  O   UNL A   1      44.776  35.963  26.682  1.00  0.00    -0.744 OA
ENDBRANCH  66  70
ENDBRANCH  40  63
ENDBRANCH  14  15
ENDBRANCH   7   9
ENDBRANCH   4   5
ENDBRANCH   3   4
ENDBRANCH   2   3
ENDBRANCH   1   2
BRANCH   1  74
ATOM     74  N   UNL A   1      34.675  19.303  24.601  1.00  0.00    -0.354 N 
ATOM     75  C   UNL A   1      33.371  19.300  24.977  1.00  0.00     0.244 C 
ATOM     76  H   UNL A   1      34.966  18.604  23.970  1.00  0.00     0.163 HD
ATOM     77  O   UNL A   1      32.810  18.212  25.110  1.00  0.00    -0.273 OA
BRANCH  75  78
ATOM     78  C   UNL A   1      32.654  20.605  25.313  1.00  0.00     0.197 C 
BRANCH  78  79
ATOM     79  N   UNL A   1      32.847  20.961  26.706  1.00  0.00    -0.340 N 
ATOM     80  C   UNL A   1      33.033  22.203  27.222  1.00  0.00     0.244 C 
ATOM     81  H   UNL A   1      32.844  20.216  27.351  1.00  0.00     0.164 HD
ATOM     82  O   UNL A   1      33.000  22.307  28.451  1.00  0.00    -0.273 OA
BRANCH  80  83
ATOM     83  C   UNL A   1      33.234  23.422  26.285  1.00  0.00     0.181 C 
BRANCH  83  84
ATOM     84  N   UNL A   1      32.207  24.426  26.630  1.00  0.00    -0.342 N 
ATOM     85  C   UNL A   1      31.973  25.715  26.215  1.00  0.00     0.243 C 
ATOM     86  H   UNL A   1      31.556  24.106  27.295  1.00  0.00     0.164 HD
ATOM     87  O   UNL A   1      30.960  26.260  26.664  1.00  0.00    -0.273 OA
BRANCH  85  88
ATOM     88  C   UNL A   1      33.005  26.524  25.369  1.00  0.00     0.176 C 
BRANCH  88  89
ATOM     89  N   UNL A   1      33.044  26.044  23.970  1.00  0.00    -0.340 N 
ATOM     90  C   UNL A   1      32.038  25.715  23.098  1.00  0.00     0.251 C 
ATOM     91  H   UNL A   1      33.951  25.942  23.601  1.00  0.00     0.164 HD
ATOM     92  O   UNL A   1      32.199  24.841  22.250  1.00  0.00    -0.269 OA
BRANCH  90  93
ATOM     93  C   UNL A   1      30.765  26.464  23.072  1.00  0.00     0.040 A 
ATOM     94  C   UNL A   1      29.658  25.924  23.733  1.00  0.00     0.017 A 
ATOM     95  C   UNL A   1      30.716  27.791  22.626  1.00  0.00     0.017 A 
ATOM     96  C   UNL A   1      28.476  26.662  23.855  1.00  0.00     0.040 A 
ATOM     97  C   UNL A   1      29.529  28.527  22.737  1.00  0.00     0.040 A 
ATOM     98  C   UNL A   1      28.416  27.949  23.339  1.00  0.00     0.123 A 
ATOM     99  F   UNL A   1      27.275  28.644  23.426  1.00  0.00    -0.207 F 
ENDBRANCH  90  93
ENDBRANCH  88  89
BRANCH  88 100
ATOM    100  C   UNL A   1      32.469  27.958  25.416  1.00  0.00     0.072 C 
BRANCH 100 101
ATOM    101  C   UNL A   1      33.122  28.942  26.325  1.00  0.00    -0.020 A 
ATOM    102  C   UNL A   1      34.213  28.793  27.153  1.00  0.00     0.087 A 
ATOM    103  C   UNL A   1      32.621  30.266  26.541  1.00  0.00     0.003 A 
ATOM    104  N   UNL A   1      34.475  30.004  27.739  1.00  0.00    -0.361 N 
ATOM    105  C   UNL A   1      33.498  30.912  27.407  1.00  0.00     0.046 A 
ATOM    106  C   UNL A   1      31.491  30.963  26.069  1.00  0.00     0.010 A 
ATOM    107  H   UNL A   1      35.251  30.195  28.313  1.00  0.00     0.166 HD
ATOM    108  C   UNL A   1      33.323  32.243  27.800  1.00  0.00     0.026 A 
ATOM    109  C   UNL A   1      31.285  32.286  26.470  1.00  0.00     0.001 A 
ATOM    110  C   UNL A   1      32.195  32.917  27.315  1.00  0.00     0.002 A 
ENDBRANCH 100 101
ENDBRANCH  88 100
ENDBRANCH  85  88
ENDBRANCH  83  84
BRANCH  83 111
ATOM    111  C   UNL A   1      34.685  23.895  26.554  1.00  0.00     0.101 C 
BRANCH 111 112
ATOM    112  S   UNL A   1      35.817  23.894  25.131  1.00  0.00    -0.177 SA
ATOM    113  H   UNL A   1      36.950  24.573  25.452  1.00  0.00     0.102 HD
ENDBRANCH 111 112
ENDBRANCH  83 111
ENDBRANCH  80  83
ENDBRANCH  78  79
BRANCH  78 114
ATOM    114  C   UNL A   1      32.878  21.767  24.342  1.00  0.00     0.191 C 
BRANCH 114 115
ATOM    115  O   UNL A   1      31.637  22.435  24.086  1.00  0.00    -0.394 OA
ATOM    116  H   UNL A   1      31.499  22.507  23.128  1.00  0.00     0.210 HD
ENDBRANCH 114 115
ENDBRANCH  78 114
ENDBRANCH  75  78
ENDBRANCH   1  74
TORSDOF 26
ENDMDL
MODEL 3
REMARK VINA RESULT:     -11.7      1.641      3.034
REMARK SMILES O=C(NCCCCNC(=O)[C@H](CO)NC(=O)[C@H](CS)NC(=O)[C@H](Cc1c[nH]c2ccccc12)NC(=O)c1ccc(F)cc1)c1ccc(-c2c3nc(c(-c4cc(S(=O)(=O)[O-])ccc4F)c4ccc([nH]4)c(-c4cc(S(=O)(=O)[O-])ccc4F)c4nc(c(-c5cc(S(=O)(=O)[O-])ccc5F)c5ccc2[nH]5)C=C4)C=C3)cc1
REMARK SMILES IDX 7 1 6 2 5 3 4 4 3 5 1 6 2 7 44 9 45 10 106 11 46 12 105 13
REMARK SMILES IDX 47 14 48 15 49 16 99 17 50 18 104 19 98 20 100 21 51 22
REMARK SMILES IDX 103 23 97 24 96 25 52 27 84 28 64 29 83 30 65 31 68 32 82 33
REMARK SMILES IDX 101 34 66 35 67 36 81 38 102 39 69 40 53 41 54 42 62 43
REMARK SMILES IDX 55 44 61 45 63 46 60 47 56 48 57 49 58 50 59 51 85 52 86 53
REMARK SMILES IDX 94 54 87 55 93 56 95 57 92 58 88 59 89 60 90 61 91 62 70 63
REMARK SMILES IDX 71 64 79 65 72 66 78 67 80 68 77 69 73 70 74 71 75 72 76 73
REMARK SMILES IDX 8 74 9 75 10 77 11 78 14 79 15 80 16 82 17 83 20 84 21 85
REMARK SMILES IDX 22 87 23 88 34 89 35 90 36 92 37 93 38 94 43 95 39 96 42 97
REMARK SMILES IDX 40 98 41 99 24 100 25 101 26 102 33 103 27 104 28 105 32 106
REMARK SMILES IDX 29 108 31 109 30 110 18 111 19 112 12 114 13 115
REMARK H PARENT 3 8 100 26 68 37 8 76 14 81 20 86 34 91 27 107 19 113 13 116
REMARK Flexibility Score: inf
ROOT
ATOM      1  C   UNL A   1      35.756  20.657  25.294  1.00  0.00     0.116 C 
ENDROOT
BRANCH   1   2
ATOM      2  C   UNL A   1      37.143  21.289  25.177  1.00  0.00     0.023 C 
BRANCH   2   3
ATOM      3  C   UNL A   1      38.272  20.263  25.059  1.00  0.00     0.023 C 
BRANCH   3   4
ATOM      4  C   UNL A   1      39.386  20.465  26.072  1.00  0.00     0.116 C 
BRANCH   4   5
ATOM      5  N   UNL A   1      40.346  19.370  26.037  1.00  0.00    -0.352 N 
ATOM      6  O   UNL A   1      42.410  18.470  25.869  1.00  0.00    -0.269 OA
ATOM      7  C   UNL A   1      41.709  19.454  26.078  1.00  0.00     0.251 C 
ATOM      8  H   UNL A   1      39.969  18.464  25.977  1.00  0.00     0.163 HD
BRANCH   7   9
ATOM      9  C   UNL A   1      42.294  20.766  26.374  1.00  0.00     0.039 A 
ATOM     10  C   UNL A   1      42.642  21.606  25.311  1.00  0.00     0.014 A 
ATOM     11  C   UNL A   1      42.553  21.113  27.699  1.00  0.00     0.014 A 
ATOM     12  C   UNL A   1      43.316  22.784  25.574  1.00  0.00     0.010 A 
ATOM     13  C   UNL A   1      43.160  22.334  27.965  1.00  0.00     0.010 A 
ATOM     14  C   UNL A   1      43.531  23.177  26.905  1.00  0.00    -0.014 A 
BRANCH  14  15
ATOM     15  C   UNL A   1      43.977  24.556  27.176  1.00  0.00     0.031 A 
ATOM     16  C   UNL A   1      43.043  25.589  27.716  1.00  0.00     0.074 A 
ATOM     17  C   UNL A   1      45.266  24.842  26.915  1.00  0.00     0.049 A 
ATOM     18  N   UNL A   1      43.271  26.855  27.946  1.00  0.00    -0.248 NA
ATOM     19  C   UNL A   1      41.678  25.150  28.035  1.00  0.00     0.031 C 
ATOM     20  C   UNL A   1      46.250  23.880  26.406  1.00  0.00     0.029 A 
ATOM     21  N   UNL A   1      45.977  25.999  27.058  1.00  0.00    -0.354 N 
ATOM     22  C   UNL A   1      42.078  27.372  28.433  1.00  0.00     0.074 A 
ATOM     23  C   UNL A   1      41.121  26.284  28.436  1.00  0.00     0.031 C 
ATOM     24  C   UNL A   1      47.450  24.469  26.344  1.00  0.00     0.029 A 
ATOM     25  C   UNL A   1      47.300  25.868  26.721  1.00  0.00     0.049 A 
ATOM     26  H   UNL A   1      45.579  26.843  27.373  1.00  0.00     0.167 HD
ATOM     27  C   UNL A   1      41.820  28.640  28.836  1.00  0.00     0.034 A 
ATOM     28  C   UNL A   1      48.286  26.781  26.694  1.00  0.00     0.034 A 
ATOM     29  C   UNL A   1      42.797  29.705  28.790  1.00  0.00     0.049 A 
ATOM     30  C   UNL A   1      47.958  28.191  27.069  1.00  0.00     0.074 A 
ATOM     31  C   UNL A   1      42.642  31.037  29.134  1.00  0.00     0.029 A 
ATOM     32  N   UNL A   1      44.116  29.558  28.369  1.00  0.00    -0.354 N 
ATOM     33  N   UNL A   1      46.806  28.690  27.454  1.00  0.00    -0.248 NA
ATOM     34  C   UNL A   1      49.051  29.162  26.997  1.00  0.00     0.031 C 
ATOM     35  C   UNL A   1      43.845  31.703  28.869  1.00  0.00     0.029 A 
ATOM     36  C   UNL A   1      44.778  30.775  28.431  1.00  0.00     0.049 A 
ATOM     37  H   UNL A   1      44.521  28.711  28.071  1.00  0.00     0.167 HD
ATOM     38  C   UNL A   1      47.039  30.037  27.690  1.00  0.00     0.074 A 
ATOM     39  C   UNL A   1      48.444  30.268  27.403  1.00  0.00     0.031 C 
ATOM     40  C   UNL A   1      46.172  30.991  28.115  1.00  0.00     0.034 A 
BRANCH  27  41
ATOM     41  C   UNL A   1      40.420  28.945  29.307  1.00  0.00     0.023 A 
ATOM     42  C   UNL A   1      40.052  28.817  30.658  1.00  0.00     0.031 A 
ATOM     43  C   UNL A   1      39.430  29.343  28.391  1.00  0.00     0.131 A 
ATOM     44  C   UNL A   1      38.719  29.028  31.045  1.00  0.00     0.055 A 
ATOM     45  C   UNL A   1      38.123  29.621  28.793  1.00  0.00     0.041 A 
ATOM     46  F   UNL A   1      39.716  29.458  27.084  1.00  0.00    -0.206 F 
ATOM     47  C   UNL A   1      37.757  29.452  30.126  1.00  0.00     0.022 A 
BRANCH  44  48
ATOM     48  S   UNL A   1      38.232  28.620  32.743  1.00  0.00     0.124 S 
ATOM     49  O   UNL A   1      38.359  27.164  32.744  1.00  0.00    -0.237 OA
ATOM     50  O   UNL A   1      39.216  29.347  33.537  1.00  0.00    -0.237 OA
ATOM     51  O   UNL A   1      36.863  29.120  32.837  1.00  0.00    -0.744 OA
ENDBRANCH  44  48
ENDBRANCH  27  41
BRANCH  28  52
ATOM     52  C   UNL A   1      49.649  26.358  26.288  1.00  0.00     0.023 A 
ATOM     53  C   UNL A   1      50.178  26.751  25.051  1.00  0.00     0.031 A 
ATOM     54  C   UNL A   1      50.478  25.647  27.174  1.00  0.00     0.131 A 
ATOM     55  C   UNL A   1      51.506  26.433  24.733  1.00  0.00     0.055 A 
ATOM     56  C   UNL A   1      51.807  25.360  26.866  1.00  0.00     0.041 A 
ATOM     57  F   UNL A   1      50.020  25.278  28.382  1.00  0.00    -0.206 F 
ATOM     58  C   UNL A   1      52.328  25.754  25.638  1.00  0.00     0.022 A 
BRANCH  55  59
ATOM     59  S   UNL A   1      52.160  26.946  23.121  1.00  0.00     0.124 S 
ATOM     60  O   UNL A   1      53.127  25.891  22.844  1.00  0.00    -0.237 OA
ATOM     61  O   UNL A   1      50.959  26.952  22.291  1.00  0.00    -0.237 OA
ATOM     62  O   UNL A   1      52.731  28.264  23.391  1.00  0.00    -0.744 OA
ENDBRANCH  55  59
ENDBRANCH  28  52
BRANCH  40  63
ATOM     63  C   UNL A   1      46.741  32.366  28.332  1.00  0.00     0.023 A 
ATOM     64  C   UNL A   1      46.785  33.321  27.303  1.00  0.00     0.031 A 
ATOM     65  C   UNL A   1      47.257  32.719  29.593  1.00  0.00     0.131 A 
ATOM     66  C   UNL A   1      47.376  34.570  27.538  1.00  0.00     0.055 A 
ATOM     67  C   UNL A   1      47.795  33.982  29.835  1.00  0.00     0.041 A 
ATOM     68  F   UNL A   1      47.242  31.840  30.606  1.00  0.00    -0.206 F 
ATOM     69  C   UNL A   1      47.867  34.913  28.802  1.00  0.00     0.022 A 
BRANCH  66  70
ATOM     70  S   UNL A   1      47.563  35.722  26.149  1.00  0.00     0.124 S 
ATOM     71  O   UNL A   1      47.318  34.852  25.003  1.00  0.00    -0.237 OA
ATOM     72  O   UNL A   1      46.532  36.717  26.426  1.00  0.00    -0.237 OA
ATOM     73  O   UNL A   1      48.937  36.201  26.283  1.00  0.00    -0.744 OA
ENDBRANCH  66  70
ENDBRANCH  40  63
ENDBRANCH  14  15
ENDBRANCH   7   9
ENDBRANCH   4   5
ENDBRANCH   3   4
ENDBRANCH   2   3
ENDBRANCH   1   2
BRANCH   1  74
ATOM     74  N   UNL A   1      35.133  21.108  26.511  1.00  0.00    -0.354 N 
ATOM     75  C   UNL A   1      34.162  22.054  26.590  1.00  0.00     0.244 C 
ATOM     76  H   UNL A   1      35.434  20.698  27.355  1.00  0.00     0.163 HD
ATOM     77  O   UNL A   1      34.165  22.807  27.563  1.00  0.00    -0.273 OA
BRANCH  75  78
ATOM     78  C   UNL A   1      33.155  22.231  25.456  1.00  0.00     0.197 C 
BRANCH  78  79
ATOM     79  N   UNL A   1      33.830  22.439  24.189  1.00  0.00    -0.340 N 
ATOM     80  C   UNL A   1      33.835  23.566  23.431  1.00  0.00     0.244 C 
ATOM     81  H   UNL A   1      34.343  21.675  23.838  1.00  0.00     0.164 HD
ATOM     82  O   UNL A   1      34.616  23.592  22.477  1.00  0.00    -0.273 OA
BRANCH  80  83
ATOM     83  C   UNL A   1      32.920  24.763  23.797  1.00  0.00     0.181 C 
BRANCH  83  84
ATOM     84  N   UNL A   1      33.735  25.991  23.714  1.00  0.00    -0.342 N 
ATOM     85  C   UNL A   1      33.451  27.324  23.891  1.00  0.00     0.243 C 
ATOM     86  H   UNL A   1      34.677  25.820  23.486  1.00  0.00     0.164 HD
ATOM     87  O   UNL A   1      34.407  28.103  23.814  1.00  0.00    -0.273 OA
BRANCH  85  88
ATOM     88  C   UNL A   1      31.992  27.862  24.005  1.00  0.00     0.176 C 
BRANCH  88  89
ATOM     89  N   UNL A   1      31.460  27.682  25.374  1.00  0.00    -0.340 N 
ATOM     90  C   UNL A   1      32.053  27.827  26.602  1.00  0.00     0.251 C 
ATOM     91  H   UNL A   1      30.515  27.409  25.410  1.00  0.00     0.164 HD
ATOM     92  O   UNL A   1      31.710  27.132  27.554  1.00  0.00    -0.269 OA
BRANCH  90  93
ATOM     93  C   UNL A   1      33.048  28.890  26.855  1.00  0.00     0.040 A 
ATOM     94  C   UNL A   1      32.591  30.159  27.223  1.00  0.00     0.017 A 
ATOM     95  C   UNL A   1      34.411  28.591  26.979  1.00  0.00     0.017 A 
ATOM     96  C   UNL A   1      33.495  31.154  27.609  1.00  0.00     0.040 A 
ATOM     97  C   UNL A   1      35.318  29.589  27.353  1.00  0.00     0.040 A 
ATOM     98  C   UNL A   1      34.852  30.866  27.652  1.00  0.00     0.123 A 
ATOM     99  F   UNL A   1      35.722  31.826  27.989  1.00  0.00    -0.207 F 
ENDBRANCH  90  93
ENDBRANCH  88  89
BRANCH  88 100
ATOM    100  C   UNL A   1      32.128  29.356  23.689  1.00  0.00     0.072 C 
BRANCH 100 101
ATOM    101  C   UNL A   1      30.983  30.262  23.985  1.00  0.00    -0.020 A 
ATOM    102  C   UNL A   1      30.754  31.071  25.077  1.00  0.00     0.087 A 
ATOM    103  C   UNL A   1      29.829  30.370  23.145  1.00  0.00     0.003 A 
ATOM    104  N   UNL A   1      29.593  31.766  24.858  1.00  0.00    -0.361 N 
ATOM    105  C   UNL A   1      28.992  31.333  23.701  1.00  0.00     0.046 A 
ATOM    106  C   UNL A   1      29.431  29.724  21.957  1.00  0.00     0.010 A 
ATOM    107  H   UNL A   1      29.242  32.474  25.445  1.00  0.00     0.166 HD
ATOM    108  C   UNL A   1      27.784  31.714  23.106  1.00  0.00     0.026 A 
ATOM    109  C   UNL A   1      28.216  30.074  21.361  1.00  0.00     0.001 A 
ATOM    110  C   UNL A   1      27.412  31.061  21.924  1.00  0.00     0.002 A 
ENDBRANCH 100 101
ENDBRANCH  88 100
ENDBRANCH  85  88
ENDBRANCH  83  84
BRANCH  83 111
ATOM    111  C   UNL A   1      31.764  24.710  22.766  1.00  0.00     0.101 C 
BRANCH 111 112
ATOM    112  S   UNL A   1      30.218  23.928  23.318  1.00  0.00    -0.177 SA
ATOM    113  H   UNL A   1      29.399  24.872  23.854  1.00  0.00     0.102 HD
ENDBRANCH 111 112
ENDBRANCH  83 111
ENDBRANCH  80  83
ENDBRANCH  78  79
BRANCH  78 114
ATOM    114  C   UNL A   1      32.022  21.204  25.392  1.00  0.00     0.191 C 
BRANCH 114 115
ATOM    115  O   UNL A   1      30.900  21.666  26.154  1.00  0.00    -0.394 OA
ATOM    116  H   UNL A   1      30.473  22.402  25.688  1.00  0.00     0.210 HD
ENDBRANCH 114 115
ENDBRANCH  78 114
ENDBRANCH  75  78
ENDBRANCH   1  74
TORSDOF 26
ENDMDL
