MODEL 1
REMARK VINA RESULT:     -13.2      0.000      0.000
REMARK SMILES Cc1cccc(-c2cccnc2C(=O)NCCCCNC(=O)c2ccc(-c3c4nc(c(-c5cc(S(=O)(=O)[O-])ccc5F)c5ccc([nH]5)c(-c5cc(S(=O)(=O)[O-])ccc5F)c5nc(c(-c6cc(S(=O)(=O)[O-])ccc6F)c6ccc3[nH]6)C=C5)C=C4)cc2)c1
REMARK SMILES IDX 18 1 17 2 16 3 15 4 13 5 14 6 12 8 7 9 8 10 9 11 11 12 10 13
REMARK SMILES IDX 6 14 1 15 2 16 3 17 86 18 4 19 5 20 19 21 20 22 21 23 22 25
REMARK SMILES IDX 23 26 24 27 85 28 25 29 84 30 26 31 27 32 28 33 78 34 29 35
REMARK SMILES IDX 83 36 77 37 79 38 30 39 82 40 76 41 75 42 31 44 63 45 43 46
REMARK SMILES IDX 62 47 44 48 47 49 61 50 80 51 45 52 46 53 60 55 81 56 48 57
REMARK SMILES IDX 32 58 33 59 41 60 34 61 40 62 42 63 39 64 35 65 36 66 37 67
REMARK SMILES IDX 38 68 64 69 65 70 73 71 66 72 72 73 74 74 71 75 67 76 68 77
REMARK SMILES IDX 69 78 70 79 49 80 50 81 58 82 51 83 57 84 59 85 56 86 52 87
REMARK SMILES IDX 53 88 54 89 55 90
REMARK H PARENT 15 7 20 24 79 43 47 54
REMARK Flexibility Score: inf
ROOT
ATOM      1  C   UNL A   1      32.952  29.937  26.238  1.00  0.00     0.023 C 
ENDROOT
BRANCH   1   2
ATOM      2  C   UNL A   1      31.775  29.409  27.047  1.00  0.00     0.023 C 
BRANCH   2   3
ATOM      3  C   UNL A   1      31.803  27.953  27.498  1.00  0.00     0.116 C 
BRANCH   3   4
ATOM      4  N   UNL A   1      30.831  27.024  26.982  1.00  0.00    -0.351 N 
ATOM      5  C   UNL A   1      30.799  26.439  25.719  1.00  0.00     0.270 C 
ATOM      6  O   UNL A   1      29.987  25.520  25.564  1.00  0.00    -0.267 OA
ATOM      7  H   UNL A   1      30.103  26.773  27.595  1.00  0.00     0.163 HD
BRANCH   5   8
ATOM      8  C   UNL A   1      31.597  26.919  24.510  1.00  0.00     0.135 A 
ATOM      9  C   UNL A   1      31.222  27.901  23.573  1.00  0.00     0.013 A 
ATOM     10  C   UNL A   1      32.154  28.210  22.560  1.00  0.00     0.013 A 
ATOM     11  C   UNL A   1      33.394  27.586  22.507  1.00  0.00     0.021 A 
ATOM     12  N   UNL A   1      32.823  26.300  24.457  1.00  0.00    -0.250 NA
ATOM     13  C   UNL A   1      33.681  26.651  23.477  1.00  0.00     0.112 A 
BRANCH   9  14
ATOM     14  C   UNL A   1      29.929  28.587  23.522  1.00  0.00    -0.016 A 
ATOM     15  C   UNL A   1      28.789  32.225  23.390  1.00  0.00     0.044 C 
ATOM     16  C   UNL A   1      28.748  30.727  23.395  1.00  0.00    -0.051 A 
ATOM     17  C   UNL A   1      27.577  30.041  23.066  1.00  0.00     0.003 A 
ATOM     18  C   UNL A   1      29.893  29.987  23.702  1.00  0.00     0.012 A 
ATOM     19  C   UNL A   1      27.572  28.647  22.994  1.00  0.00     0.001 A 
ATOM     20  C   UNL A   1      28.744  27.918  23.207  1.00  0.00     0.009 A 
ENDBRANCH   9  14
ENDBRANCH   5   8
ENDBRANCH   3   4
ENDBRANCH   2   3
ENDBRANCH   1   2
BRANCH   1  21
ATOM     21  C   UNL A   1      34.342  29.844  26.853  1.00  0.00     0.116 C 
BRANCH  21  22
ATOM     22  N   UNL A   1      35.009  31.062  27.281  1.00  0.00    -0.352 N 
ATOM     23  C   UNL A   1      36.196  31.207  28.003  1.00  0.00     0.251 C 
ATOM     24  H   UNL A   1      34.564  31.901  27.026  1.00  0.00     0.163 HD
ATOM     25  O   UNL A   1      36.515  32.316  28.400  1.00  0.00    -0.269 OA
BRANCH  23  26
ATOM     26  C   UNL A   1      37.124  30.052  28.239  1.00  0.00     0.039 A 
ATOM     27  C   UNL A   1      37.063  29.346  29.459  1.00  0.00     0.014 A 
ATOM     28  C   UNL A   1      38.123  29.714  27.337  1.00  0.00     0.014 A 
ATOM     29  C   UNL A   1      38.092  28.466  29.823  1.00  0.00     0.010 A 
ATOM     30  C   UNL A   1      39.196  28.969  27.737  1.00  0.00     0.010 A 
ATOM     31  C   UNL A   1      39.196  28.364  28.987  1.00  0.00    -0.014 A 
BRANCH  31  32
ATOM     32  C   UNL A   1      40.464  27.720  29.270  1.00  0.00     0.031 A 
ATOM     33  C   UNL A   1      40.712  26.348  28.798  1.00  0.00     0.074 A 
ATOM     34  C   UNL A   1      41.486  28.553  29.566  1.00  0.00     0.049 A 
ATOM     35  N   UNL A   1      41.718  25.632  29.154  1.00  0.00    -0.248 NA
ATOM     36  C   UNL A   1      39.827  25.663  27.859  1.00  0.00     0.031 C 
ATOM     37  C   UNL A   1      42.917  28.333  29.399  1.00  0.00     0.029 A 
ATOM     38  N   UNL A   1      41.413  29.760  30.256  1.00  0.00    -0.354 N 
ATOM     39  C   UNL A   1      41.803  24.573  28.276  1.00  0.00     0.074 A 
ATOM     40  C   UNL A   1      40.555  24.585  27.552  1.00  0.00     0.031 C 
ATOM     41  C   UNL A   1      43.573  29.177  30.217  1.00  0.00     0.029 A 
ATOM     42  C   UNL A   1      42.568  29.826  31.044  1.00  0.00     0.049 A 
ATOM     43  H   UNL A   1      40.695  30.432  30.200  1.00  0.00     0.167 HD
ATOM     44  C   UNL A   1      42.989  23.912  28.156  1.00  0.00     0.034 A 
ATOM     45  C   UNL A   1      42.510  29.761  32.406  1.00  0.00     0.034 A 
ATOM     46  C   UNL A   1      43.992  24.489  29.053  1.00  0.00     0.049 A 
ATOM     47  C   UNL A   1      43.239  28.545  32.948  1.00  0.00     0.074 A 
ATOM     48  C   UNL A   1      45.062  25.346  28.848  1.00  0.00     0.029 A 
ATOM     49  N   UNL A   1      43.782  24.449  30.424  1.00  0.00    -0.354 N 
ATOM     50  N   UNL A   1      43.551  27.488  32.247  1.00  0.00    -0.248 NA
ATOM     51  C   UNL A   1      43.669  28.437  34.334  1.00  0.00     0.031 C 
ATOM     52  C   UNL A   1      45.466  25.852  30.113  1.00  0.00     0.029 A 
ATOM     53  C   UNL A   1      44.662  25.280  31.086  1.00  0.00     0.049 A 
ATOM     54  H   UNL A   1      43.095  23.901  30.868  1.00  0.00     0.167 HD
ATOM     55  C   UNL A   1      44.209  26.575  33.038  1.00  0.00     0.074 A 
ATOM     56  C   UNL A   1      44.259  27.230  34.336  1.00  0.00     0.031 C 
ATOM     57  C   UNL A   1      44.639  25.369  32.543  1.00  0.00     0.034 A 
BRANCH  44  58
ATOM     58  C   UNL A   1      43.349  22.938  27.054  1.00  0.00     0.023 A 
ATOM     59  C   UNL A   1      42.794  21.639  27.089  1.00  0.00     0.031 A 
ATOM     60  C   UNL A   1      44.210  23.188  25.969  1.00  0.00     0.131 A 
ATOM     61  C   UNL A   1      43.158  20.649  26.159  1.00  0.00     0.055 A 
ATOM     62  C   UNL A   1      44.610  22.191  25.065  1.00  0.00     0.041 A 
ATOM     63  F   UNL A   1      44.661  24.418  25.691  1.00  0.00    -0.206 F 
ATOM     64  C   UNL A   1      44.092  20.909  25.163  1.00  0.00     0.022 A 
BRANCH  61  65
ATOM     65  S   UNL A   1      42.383  19.014  26.272  1.00  0.00     0.124 S 
ATOM     66  O   UNL A   1      41.037  19.276  25.775  1.00  0.00    -0.237 OA
ATOM     67  O   UNL A   1      43.244  18.204  25.417  1.00  0.00    -0.237 OA
ATOM     68  O   UNL A   1      42.463  18.699  27.699  1.00  0.00    -0.744 OA
ENDBRANCH  61  65
ENDBRANCH  44  58
BRANCH  45  69
ATOM     69  C   UNL A   1      41.254  30.330  32.985  1.00  0.00     0.023 A 
ATOM     70  C   UNL A   1      41.132  31.734  33.072  1.00  0.00     0.031 A 
ATOM     71  C   UNL A   1      40.075  29.564  33.025  1.00  0.00     0.131 A 
ATOM     72  C   UNL A   1      39.862  32.332  33.089  1.00  0.00     0.055 A 
ATOM     73  C   UNL A   1      38.813  30.168  33.026  1.00  0.00     0.041 A 
ATOM     74  F   UNL A   1      40.124  28.231  32.888  1.00  0.00    -0.206 F 
ATOM     75  C   UNL A   1      38.702  31.557  33.018  1.00  0.00     0.022 A 
BRANCH  72  76
ATOM     76  S   UNL A   1      39.699  34.142  33.033  1.00  0.00     0.124 S 
ATOM     77  O   UNL A   1      38.828  34.328  31.878  1.00  0.00    -0.237 OA
ATOM     78  O   UNL A   1      39.106  34.469  34.325  1.00  0.00    -0.237 OA
ATOM     79  O   UNL A   1      41.080  34.583  32.850  1.00  0.00    -0.744 OA
ENDBRANCH  72  76
ENDBRANCH  45  69
BRANCH  57  80
ATOM     80  C   UNL A   1      45.141  24.170  33.342  1.00  0.00     0.023 A 
ATOM     81  C   UNL A   1      46.426  24.079  33.886  1.00  0.00     0.031 A 
ATOM     82  C   UNL A   1      44.299  23.060  33.631  1.00  0.00     0.131 A 
ATOM     83  C   UNL A   1      46.848  22.953  34.617  1.00  0.00     0.055 A 
ATOM     84  C   UNL A   1      44.698  21.965  34.406  1.00  0.00     0.041 A 
ATOM     85  F   UNL A   1      43.035  22.983  33.192  1.00  0.00    -0.206 F 
ATOM     86  C   UNL A   1      45.987  21.899  34.898  1.00  0.00     0.022 A 
BRANCH  83  87
ATOM     87  S   UNL A   1      48.578  22.890  35.147  1.00  0.00     0.124 S 
ATOM     88  O   UNL A   1      49.200  22.141  34.058  1.00  0.00    -0.237 OA
ATOM     89  O   UNL A   1      48.929  24.305  35.221  1.00  0.00    -0.237 OA
ATOM     90  O   UNL A   1      48.522  22.194  36.430  1.00  0.00    -0.744 OA
ENDBRANCH  83  87
ENDBRANCH  57  80
ENDBRANCH  31  32
ENDBRANCH  23  26
ENDBRANCH  21  22
ENDBRANCH   1  21
TORSDOF 15
ENDMDL
MODEL 2
REMARK VINA RESULT:     -12.8      1.587      2.295
REMARK SMILES Cc1cccc(-c2cccnc2C(=O)NCCCCNC(=O)c2ccc(-c3c4nc(c(-c5cc(S(=O)(=O)[O-])ccc5F)c5ccc([nH]5)c(-c5cc(S(=O)(=O)[O-])ccc5F)c5nc(c(-c6cc(S(=O)(=O)[O-])ccc6F)c6ccc3[nH]6)C=C5)C=C4)cc2)c1
REMARK SMILES IDX 18 1 17 2 16 3 15 4 13 5 14 6 12 8 7 9 8 10 9 11 11 12 10 13
REMARK SMILES IDX 6 14 1 15 2 16 3 17 86 18 4 19 5 20 19 21 20 22 21 23 22 25
REMARK SMILES IDX 23 26 24 27 85 28 25 29 84 30 26 31 27 32 28 33 78 34 29 35
REMARK SMILES IDX 83 36 77 37 79 38 30 39 82 40 76 41 75 42 31 44 63 45 43 46
REMARK SMILES IDX 62 47 44 48 47 49 61 50 80 51 45 52 46 53 60 55 81 56 48 57
REMARK SMILES IDX 32 58 33 59 41 60 34 61 40 62 42 63 39 64 35 65 36 66 37 67
REMARK SMILES IDX 38 68 64 69 65 70 73 71 66 72 72 73 74 74 71 75 67 76 68 77
REMARK SMILES IDX 69 78 70 79 49 80 50 81 58 82 51 83 57 84 59 85 56 86 52 87
REMARK SMILES IDX 53 88 54 89 55 90
REMARK H PARENT 15 7 20 24 79 43 47 54
REMARK Flexibility Score: inf
ROOT
ATOM      1  C   UNL A   1      32.790  29.938  26.645  1.00  0.00     0.023 C 
ENDROOT
BRANCH   1   2
ATOM      2  C   UNL A   1      31.729  29.043  27.272  1.00  0.00     0.023 C 
BRANCH   2   3
ATOM      3  C   UNL A   1      31.921  27.532  27.195  1.00  0.00     0.116 C 
BRANCH   3   4
ATOM      4  N   UNL A   1      30.924  26.717  26.552  1.00  0.00    -0.351 N 
ATOM      5  C   UNL A   1      30.976  25.348  26.303  1.00  0.00     0.270 C 
ATOM      6  O   UNL A   1      29.924  24.823  25.920  1.00  0.00    -0.267 OA
ATOM      7  H   UNL A   1      30.110  27.181  26.253  1.00  0.00     0.163 HD
BRANCH   5   8
ATOM      8  C   UNL A   1      32.239  24.493  26.356  1.00  0.00     0.135 A 
ATOM      9  C   UNL A   1      33.402  24.635  25.574  1.00  0.00     0.013 A 
ATOM     10  C   UNL A   1      34.466  23.748  25.841  1.00  0.00     0.013 A 
ATOM     11  C   UNL A   1      34.373  22.793  26.845  1.00  0.00     0.021 A 
ATOM     12  N   UNL A   1      32.147  23.547  27.349  1.00  0.00    -0.250 NA
ATOM     13  C   UNL A   1      33.204  22.740  27.571  1.00  0.00     0.112 A 
BRANCH   9  14
ATOM     14  C   UNL A   1      33.582  25.582  24.472  1.00  0.00    -0.016 A 
ATOM     15  C   UNL A   1      32.610  25.670  20.784  1.00  0.00     0.044 C 
ATOM     16  C   UNL A   1      33.150  26.092  22.117  1.00  0.00    -0.051 A 
ATOM     17  C   UNL A   1      33.522  27.416  22.353  1.00  0.00     0.003 A 
ATOM     18  C   UNL A   1      33.264  25.168  23.160  1.00  0.00     0.012 A 
ATOM     19  C   UNL A   1      33.945  27.815  23.623  1.00  0.00     0.001 A 
ATOM     20  C   UNL A   1      33.964  26.908  24.685  1.00  0.00     0.009 A 
ENDBRANCH   9  14
ENDBRANCH   5   8
ENDBRANCH   3   4
ENDBRANCH   2   3
ENDBRANCH   1   2
BRANCH   1  21
ATOM     21  C   UNL A   1      34.212  29.848  27.185  1.00  0.00     0.116 C 
BRANCH  21  22
ATOM     22  N   UNL A   1      34.944  31.073  27.456  1.00  0.00    -0.352 N 
ATOM     23  C   UNL A   1      36.199  31.234  28.049  1.00  0.00     0.251 C 
ATOM     24  H   UNL A   1      34.496  31.905  27.183  1.00  0.00     0.163 HD
ATOM     25  O   UNL A   1      36.580  32.359  28.331  1.00  0.00    -0.269 OA
BRANCH  23  26
ATOM     26  C   UNL A   1      37.119  30.072  28.281  1.00  0.00     0.039 A 
ATOM     27  C   UNL A   1      37.049  29.358  29.496  1.00  0.00     0.014 A 
ATOM     28  C   UNL A   1      38.119  29.734  27.381  1.00  0.00     0.014 A 
ATOM     29  C   UNL A   1      38.071  28.469  29.858  1.00  0.00     0.010 A 
ATOM     30  C   UNL A   1      39.186  28.980  27.779  1.00  0.00     0.010 A 
ATOM     31  C   UNL A   1      39.178  28.366  29.025  1.00  0.00    -0.014 A 
BRANCH  31  32
ATOM     32  C   UNL A   1      40.441  27.713  29.309  1.00  0.00     0.031 A 
ATOM     33  C   UNL A   1      40.684  26.344  28.825  1.00  0.00     0.074 A 
ATOM     34  C   UNL A   1      41.466  28.538  29.617  1.00  0.00     0.049 A 
ATOM     35  N   UNL A   1      41.683  25.619  29.180  1.00  0.00    -0.248 NA
ATOM     36  C   UNL A   1      39.799  25.672  27.876  1.00  0.00     0.031 C 
ATOM     37  C   UNL A   1      42.896  28.311  29.455  1.00  0.00     0.029 A 
ATOM     38  N   UNL A   1      41.397  29.739  30.317  1.00  0.00    -0.354 N 
ATOM     39  C   UNL A   1      41.768  24.568  28.293  1.00  0.00     0.074 A 
ATOM     40  C   UNL A   1      40.523  24.593  27.563  1.00  0.00     0.031 C 
ATOM     41  C   UNL A   1      43.553  29.144  30.283  1.00  0.00     0.029 A 
ATOM     42  C   UNL A   1      42.548  29.792  31.111  1.00  0.00     0.049 A 
ATOM     43  H   UNL A   1      40.682  30.415  30.264  1.00  0.00     0.167 HD
ATOM     44  C   UNL A   1      42.950  23.901  28.173  1.00  0.00     0.034 A 
ATOM     45  C   UNL A   1      42.482  29.714  32.473  1.00  0.00     0.034 A 
ATOM     46  C   UNL A   1      43.952  24.464  29.080  1.00  0.00     0.049 A 
ATOM     47  C   UNL A   1      43.203  28.490  33.007  1.00  0.00     0.074 A 
ATOM     48  C   UNL A   1      45.027  25.317  28.888  1.00  0.00     0.029 A 
ATOM     49  N   UNL A   1      43.735  24.413  30.450  1.00  0.00    -0.354 N 
ATOM     50  N   UNL A   1      43.511  27.438  32.298  1.00  0.00    -0.248 NA
ATOM     51  C   UNL A   1      43.624  28.367  34.394  1.00  0.00     0.031 C 
ATOM     52  C   UNL A   1      45.428  25.810  30.159  1.00  0.00     0.029 A 
ATOM     53  C   UNL A   1      44.617  25.234  31.123  1.00  0.00     0.049 A 
ATOM     54  H   UNL A   1      43.043  23.865  30.884  1.00  0.00     0.167 HD
ATOM     55  C   UNL A   1      44.161  26.514  33.084  1.00  0.00     0.074 A 
ATOM     56  C   UNL A   1      44.208  27.157  34.388  1.00  0.00     0.031 C 
ATOM     57  C   UNL A   1      44.587  25.310  32.581  1.00  0.00     0.034 A 
BRANCH  44  58
ATOM     58  C   UNL A   1      43.310  22.935  27.064  1.00  0.00     0.023 A 
ATOM     59  C   UNL A   1      42.756  21.635  27.090  1.00  0.00     0.031 A 
ATOM     60  C   UNL A   1      44.170  23.193  25.980  1.00  0.00     0.131 A 
ATOM     61  C   UNL A   1      43.120  20.653  26.153  1.00  0.00     0.055 A 
ATOM     62  C   UNL A   1      44.571  22.203  25.069  1.00  0.00     0.041 A 
ATOM     63  F   UNL A   1      44.621  24.425  25.711  1.00  0.00    -0.206 F 
ATOM     64  C   UNL A   1      44.053  20.920  25.158  1.00  0.00     0.022 A 
BRANCH  61  65
ATOM     65  S   UNL A   1      42.345  19.016  26.255  1.00  0.00     0.124 S 
ATOM     66  O   UNL A   1      41.000  19.281  25.755  1.00  0.00    -0.237 OA
ATOM     67  O   UNL A   1      43.209  18.212  25.397  1.00  0.00    -0.237 OA
ATOM     68  O   UNL A   1      42.422  18.694  27.679  1.00  0.00    -0.744 OA
ENDBRANCH  61  65
ENDBRANCH  44  58
BRANCH  45  69
ATOM     69  C   UNL A   1      41.227  30.285  33.051  1.00  0.00     0.023 A 
ATOM     70  C   UNL A   1      41.119  31.688  33.166  1.00  0.00     0.031 A 
ATOM     71  C   UNL A   1      40.040  29.532  33.063  1.00  0.00     0.131 A 
ATOM     72  C   UNL A   1      39.856  32.300  33.182  1.00  0.00     0.055 A 
ATOM     73  C   UNL A   1      38.784  30.150  33.063  1.00  0.00     0.041 A 
ATOM     74  F   UNL A   1      40.075  28.201  32.898  1.00  0.00    -0.206 F 
ATOM     75  C   UNL A   1      38.688  31.539  33.084  1.00  0.00     0.022 A 
BRANCH  72  76
ATOM     76  S   UNL A   1      39.713  34.113  33.163  1.00  0.00     0.124 S 
ATOM     77  O   UNL A   1      40.630  34.473  32.087  1.00  0.00    -0.237 OA
ATOM     78  O   UNL A   1      38.299  34.339  32.884  1.00  0.00    -0.237 OA
ATOM     79  O   UNL A   1      40.152  34.483  34.506  1.00  0.00    -0.744 OA
ENDBRANCH  72  76
ENDBRANCH  45  69
BRANCH  57  80
ATOM     80  C   UNL A   1      45.078  24.101  33.371  1.00  0.00     0.023 A 
ATOM     81  C   UNL A   1      46.387  23.957  33.842  1.00  0.00     0.031 A 
ATOM     82  C   UNL A   1      44.204  23.036  33.728  1.00  0.00     0.131 A 
ATOM     83  C   UNL A   1      46.798  22.824  34.568  1.00  0.00     0.055 A 
ATOM     84  C   UNL A   1      44.595  21.936  34.499  1.00  0.00     0.041 A 
ATOM     85  F   UNL A   1      42.914  23.013  33.365  1.00  0.00    -0.206 F 
ATOM     86  C   UNL A   1      45.907  21.816  34.917  1.00  0.00     0.022 A 
BRANCH  83  87
ATOM     87  S   UNL A   1      48.552  22.687  34.998  1.00  0.00     0.124 S 
ATOM     88  O   UNL A   1      48.853  21.314  34.602  1.00  0.00    -0.237 OA
ATOM     89  O   UNL A   1      49.153  23.729  34.172  1.00  0.00    -0.237 OA
ATOM     90  O   UNL A   1      48.576  22.941  36.436  1.00  0.00    -0.744 OA
ENDBRANCH  83  87
ENDBRANCH  57  80
ENDBRANCH  31  32
ENDBRANCH  23  26
ENDBRANCH  21  22
ENDBRANCH   1  21
TORSDOF 15
ENDMDL
MODEL 3
REMARK VINA RESULT:     -12.7      4.122     10.269
REMARK SMILES Cc1cccc(-c2cccnc2C(=O)NCCCCNC(=O)c2ccc(-c3c4nc(c(-c5cc(S(=O)(=O)[O-])ccc5F)c5ccc([nH]5)c(-c5cc(S(=O)(=O)[O-])ccc5F)c5nc(c(-c6cc(S(=O)(=O)[O-])ccc6F)c6ccc3[nH]6)C=C5)C=C4)cc2)c1
REMARK SMILES IDX 18 1 17 2 16 3 15 4 13 5 14 6 12 8 7 9 8 10 9 11 11 12 10 13
REMARK SMILES IDX 6 14 1 15 2 16 3 17 86 18 4 19 5 20 19 21 20 22 21 23 22 25
REMARK SMILES IDX 23 26 24 27 85 28 25 29 84 30 26 31 27 32 28 33 78 34 29 35
REMARK SMILES IDX 83 36 77 37 79 38 30 39 82 40 76 41 75 42 31 44 63 45 43 46
REMARK SMILES IDX 62 47 44 48 47 49 61 50 80 51 45 52 46 53 60 55 81 56 48 57
REMARK SMILES IDX 32 58 33 59 41 60 34 61 40 62 42 63 39 64 35 65 36 66 37 67
REMARK SMILES IDX 38 68 64 69 65 70 73 71 66 72 72 73 74 74 71 75 67 76 68 77
REMARK SMILES IDX 69 78 70 79 49 80 50 81 58 82 51 83 57 84 59 85 56 86 52 87
REMARK SMILES IDX 53 88 54 89 55 90
REMARK H PARENT 15 7 20 24 79 43 47 54
REMARK Flexibility Score: inf
ROOT
ATOM      1  C   UNL A   1      36.422  23.224  26.333  1.00  0.00     0.023 C 
ENDROOT
BRANCH   1   2
ATOM      2  C   UNL A   1      35.394  24.131  25.672  1.00  0.00     0.023 C 
BRANCH   2   3
ATOM      3  C   UNL A   1      33.935  23.690  25.671  1.00  0.00     0.116 C 
BRANCH   3   4
ATOM      4  N   UNL A   1      32.969  24.408  26.461  1.00  0.00    -0.351 N 
ATOM      5  C   UNL A   1      31.986  25.286  26.012  1.00  0.00     0.270 C 
ATOM      6  O   UNL A   1      31.141  25.631  26.847  1.00  0.00    -0.267 OA
ATOM      7  H   UNL A   1      33.009  24.262  27.434  1.00  0.00     0.163 HD
BRANCH   5   8
ATOM      8  C   UNL A   1      31.945  25.925  24.628  1.00  0.00     0.135 A 
ATOM      9  C   UNL A   1      32.362  27.222  24.272  1.00  0.00     0.013 A 
ATOM     10  C   UNL A   1      32.271  27.574  22.908  1.00  0.00     0.013 A 
ATOM     11  C   UNL A   1      31.811  26.669  21.960  1.00  0.00     0.021 A 
ATOM     12  N   UNL A   1      31.489  25.030  23.689  1.00  0.00    -0.250 NA
ATOM     13  C   UNL A   1      31.443  25.416  22.398  1.00  0.00     0.112 A 
BRANCH   9  14
ATOM     14  C   UNL A   1      32.825  28.257  25.199  1.00  0.00    -0.016 A 
ATOM     15  C   UNL A   1      31.416  31.549  26.515  1.00  0.00     0.044 C 
ATOM     16  C   UNL A   1      32.326  30.373  26.323  1.00  0.00    -0.051 A 
ATOM     17  C   UNL A   1      33.389  30.139  27.197  1.00  0.00     0.003 A 
ATOM     18  C   UNL A   1      32.106  29.470  25.279  1.00  0.00     0.012 A 
ATOM     19  C   UNL A   1      34.178  28.996  27.058  1.00  0.00     0.001 A 
ATOM     20  C   UNL A   1      33.893  28.049  26.073  1.00  0.00     0.009 A 
ENDBRANCH   9  14
ENDBRANCH   5   8
ENDBRANCH   3   4
ENDBRANCH   2   3
ENDBRANCH   1   2
BRANCH   1  21
ATOM     21  C   UNL A   1      37.816  23.157  25.722  1.00  0.00     0.116 C 
BRANCH  21  22
ATOM     22  N   UNL A   1      38.930  22.721  26.547  1.00  0.00    -0.352 N 
ATOM     23  C   UNL A   1      39.863  23.493  27.242  1.00  0.00     0.251 C 
ATOM     24  H   UNL A   1      39.042  21.746  26.627  1.00  0.00     0.163 HD
ATOM     25  O   UNL A   1      40.823  22.939  27.757  1.00  0.00    -0.269 OA
BRANCH  23  26
ATOM     26  C   UNL A   1      39.681  24.969  27.436  1.00  0.00     0.039 A 
ATOM     27  C   UNL A   1      40.304  25.872  26.548  1.00  0.00     0.014 A 
ATOM     28  C   UNL A   1      39.005  25.490  28.529  1.00  0.00     0.014 A 
ATOM     29  C   UNL A   1      40.393  27.234  26.866  1.00  0.00     0.010 A 
ATOM     30  C   UNL A   1      39.204  26.785  28.917  1.00  0.00     0.010 A 
ATOM     31  C   UNL A   1      39.917  27.653  28.101  1.00  0.00    -0.014 A 
BRANCH  31  32
ATOM     32  C   UNL A   1      40.119  28.940  28.737  1.00  0.00     0.031 A 
ATOM     33  C   UNL A   1      39.038  29.939  28.733  1.00  0.00     0.074 A 
ATOM     34  C   UNL A   1      41.110  28.986  29.656  1.00  0.00     0.049 A 
ATOM     35  N   UNL A   1      39.181  31.162  29.101  1.00  0.00    -0.248 NA
ATOM     36  C   UNL A   1      37.675  29.627  28.309  1.00  0.00     0.031 C 
ATOM     37  C   UNL A   1      41.253  29.884  30.795  1.00  0.00     0.029 A 
ATOM     38  N   UNL A   1      42.313  28.287  29.629  1.00  0.00    -0.354 N 
ATOM     39  C   UNL A   1      37.922  31.689  29.286  1.00  0.00     0.074 A 
ATOM     40  C   UNL A   1      37.023  30.730  28.691  1.00  0.00     0.031 C 
ATOM     41  C   UNL A   1      42.550  29.906  31.154  1.00  0.00     0.029 A 
ATOM     42  C   UNL A   1      43.280  29.159  30.142  1.00  0.00     0.049 A 
ATOM     43  H   UNL A   1      42.455  27.365  29.314  1.00  0.00     0.167 HD
ATOM     44  C   UNL A   1      37.781  32.799  30.063  1.00  0.00     0.034 A 
ATOM     45  C   UNL A   1      44.276  29.665  29.357  1.00  0.00     0.034 A 
ATOM     46  C   UNL A   1      39.082  33.243  30.566  1.00  0.00     0.049 A 
ATOM     47  C   UNL A   1      44.199  31.177  29.248  1.00  0.00     0.074 A 
ATOM     48  C   UNL A   1      39.713  33.118  31.793  1.00  0.00     0.029 A 
ATOM     49  N   UNL A   1      40.057  33.650  29.666  1.00  0.00    -0.354 N 
ATOM     50  N   UNL A   1      43.140  31.892  29.517  1.00  0.00    -0.248 NA
ATOM     51  C   UNL A   1      45.324  31.994  28.819  1.00  0.00     0.031 C 
ATOM     52  C   UNL A   1      41.091  33.415  31.609  1.00  0.00     0.029 A 
ATOM     53  C   UNL A   1      41.289  33.749  30.280  1.00  0.00     0.049 A 
ATOM     54  H   UNL A   1      39.893  33.840  28.715  1.00  0.00     0.167 HD
ATOM     55  C   UNL A   1      43.409  33.227  29.319  1.00  0.00     0.074 A 
ATOM     56  C   UNL A   1      44.798  33.228  28.887  1.00  0.00     0.031 C 
ATOM     57  C   UNL A   1      42.456  34.193  29.523  1.00  0.00     0.034 A 
BRANCH  44  58
ATOM     58  C   UNL A   1      36.473  33.334  30.608  1.00  0.00     0.023 A 
ATOM     59  C   UNL A   1      35.598  34.011  29.729  1.00  0.00     0.031 A 
ATOM     60  C   UNL A   1      36.023  33.238  31.939  1.00  0.00     0.131 A 
ATOM     61  C   UNL A   1      34.416  34.622  30.182  1.00  0.00     0.055 A 
ATOM     62  C   UNL A   1      34.866  33.884  32.403  1.00  0.00     0.041 A 
ATOM     63  F   UNL A   1      36.643  32.469  32.843  1.00  0.00    -0.206 F 
ATOM     64  C   UNL A   1      34.059  34.590  31.525  1.00  0.00     0.022 A 
BRANCH  61  65
ATOM     65  S   UNL A   1      33.345  35.455  28.978  1.00  0.00     0.124 S 
ATOM     66  O   UNL A   1      32.499  36.277  29.836  1.00  0.00    -0.237 OA
ATOM     67  O   UNL A   1      34.310  36.166  28.147  1.00  0.00    -0.237 OA
ATOM     68  O   UNL A   1      32.659  34.348  28.312  1.00  0.00    -0.744 OA
ENDBRANCH  61  65
ENDBRANCH  44  58
BRANCH  45  69
ATOM     69  C   UNL A   1      44.698  28.751  28.252  1.00  0.00     0.023 A 
ATOM     70  C   UNL A   1      45.503  27.637  28.575  1.00  0.00     0.031 A 
ATOM     71  C   UNL A   1      43.984  28.717  27.041  1.00  0.00     0.131 A 
ATOM     72  C   UNL A   1      45.494  26.498  27.754  1.00  0.00     0.055 A 
ATOM     73  C   UNL A   1      43.968  27.572  26.236  1.00  0.00     0.041 A 
ATOM     74  F   UNL A   1      43.157  29.720  26.709  1.00  0.00    -0.206 F 
ATOM     75  C   UNL A   1      44.693  26.444  26.611  1.00  0.00     0.022 A 
BRANCH  72  76
ATOM     76  S   UNL A   1      46.399  25.001  28.251  1.00  0.00     0.124 S 
ATOM     77  O   UNL A   1      47.082  25.451  29.458  1.00  0.00    -0.237 OA
ATOM     78  O   UNL A   1      45.340  24.018  28.458  1.00  0.00    -0.237 OA
ATOM     79  O   UNL A   1      47.264  24.753  27.100  1.00  0.00    -0.744 OA
ENDBRANCH  72  76
ENDBRANCH  45  69
BRANCH  57  80
ATOM     80  C   UNL A   1      42.524  35.659  29.105  1.00  0.00     0.023 A 
ATOM     81  C   UNL A   1      43.239  36.636  29.804  1.00  0.00     0.031 A 
ATOM     82  C   UNL A   1      41.885  36.129  27.924  1.00  0.00     0.131 A 
ATOM     83  C   UNL A   1      43.275  37.979  29.382  1.00  0.00     0.055 A 
ATOM     84  C   UNL A   1      41.966  37.451  27.471  1.00  0.00     0.041 A 
ATOM     85  F   UNL A   1      41.161  35.327  27.130  1.00  0.00    -0.206 F 
ATOM     86  C   UNL A   1      42.656  38.393  28.209  1.00  0.00     0.022 A 
BRANCH  83  87
ATOM     87  S   UNL A   1      44.115  39.177  30.449  1.00  0.00     0.124 S 
ATOM     88  O   UNL A   1      45.478  39.141  29.926  1.00  0.00    -0.237 OA
ATOM     89  O   UNL A   1      43.369  40.402  30.183  1.00  0.00    -0.237 OA
ATOM     90  O   UNL A   1      43.947  38.623  31.790  1.00  0.00    -0.744 OA
ENDBRANCH  83  87
ENDBRANCH  57  80
ENDBRANCH  31  32
ENDBRANCH  23  26
ENDBRANCH  21  22
ENDBRANCH   1  21
TORSDOF 15
ENDMDL
