MODEL 1
REMARK VINA RESULT:     -10.8      0.000      0.000
REMARK SMILES CCC(CC)(NC(=O)CS[C@H]1CCS(=O)(=O)C1)C(=O)NCCCCNC(=O)c1ccc(-c2c3nc(c(-c4cc(S(=O)(=O)[O-])ccc4F)c4ccc([nH]4)c(-c4cc(S(=O)(=O)[O-])ccc4F)c4nc(c(-c5cc(S(=O)(=O)[O-])ccc5F)c5ccc2[nH]5)C=C4)C=C3)cc1
REMARK SMILES IDX 22 1 21 2 20 3 18 4 19 5 3 7 2 8 1 9 4 10 5 11 6 12 7 13
REMARK SMILES IDX 8 15 9 16 10 17 11 18 12 19 17 20 13 21 14 22 15 23 16 24
REMARK SMILES IDX 23 25 24 26 25 27 26 28 27 30 28 31 29 32 90 33 30 34 89 35
REMARK SMILES IDX 31 36 32 37 33 38 83 39 34 40 88 41 82 42 84 43 35 44 87 45
REMARK SMILES IDX 81 46 80 47 36 49 68 50 48 51 67 52 49 53 52 54 66 55 85 56
REMARK SMILES IDX 50 57 51 58 65 60 86 61 53 62 37 63 38 64 46 65 39 66 45 67
REMARK SMILES IDX 47 68 44 69 40 70 41 71 42 72 43 73 69 74 70 75 78 76 71 77
REMARK SMILES IDX 77 78 79 79 76 80 72 81 73 82 74 83 75 84 54 85 55 86 63 87
REMARK SMILES IDX 56 88 62 89 64 90 61 91 57 92 58 93 59 94 60 95
REMARK H PARENT 20 6 6 14 25 29 84 48 52 59
REMARK Flexibility Score: inf
ROOT
ATOM      1  C   UNL A   1      31.739  30.536  26.651  1.00  0.00     0.023 C 
ENDROOT
BRANCH   1   2
ATOM      2  C   UNL A   1      31.315  29.998  25.290  1.00  0.00     0.116 C 
BRANCH   2   3
ATOM      3  N   UNL A   1      32.414  29.769  24.365  1.00  0.00    -0.354 N 
ATOM      4  C   UNL A   1      32.868  28.615  23.788  1.00  0.00     0.245 C 
ATOM      5  O   UNL A   1      33.835  28.706  23.028  1.00  0.00    -0.272 OA
ATOM      6  H   UNL A   1      32.915  30.578  24.115  1.00  0.00     0.163 HD
BRANCH   4   7
ATOM      7  C   UNL A   1      32.214  27.249  24.125  1.00  0.00     0.118 C 
BRANCH   7   8
ATOM      8  C   UNL A   1      30.660  27.273  24.080  1.00  0.00     0.035 C 
ATOM      9  C   UNL A   1      29.976  27.531  22.739  1.00  0.00     0.007 C 
ENDBRANCH   7   8
BRANCH   7  10
ATOM     10  C   UNL A   1      32.615  26.876  25.596  1.00  0.00     0.035 C 
ATOM     11  C   UNL A   1      34.061  26.435  25.801  1.00  0.00     0.007 C 
ENDBRANCH   7  10
BRANCH   7  12
ATOM     12  N   UNL A   1      32.743  26.232  23.144  1.00  0.00    -0.341 N 
ATOM     13  C   UNL A   1      32.724  24.867  23.023  1.00  0.00     0.230 C 
ATOM     14  H   UNL A   1      33.226  26.659  22.399  1.00  0.00     0.164 HD
ATOM     15  O   UNL A   1      33.572  24.398  22.254  1.00  0.00    -0.274 OA
BRANCH  13  16
ATOM     16  C   UNL A   1      31.705  23.931  23.690  1.00  0.00     0.169 C 
BRANCH  16  17
ATOM     17  S   UNL A   1      32.334  23.097  25.199  1.00  0.00    -0.148 SA
BRANCH  17  18
ATOM     18  C   UNL A   1      32.099  21.395  24.657  1.00  0.00     0.063 C 
ATOM     19  C   UNL A   1      32.420  21.063  23.203  1.00  0.00     0.031 C 
ATOM     20  C   UNL A   1      32.877  20.427  25.544  1.00  0.00     0.151 C 
ATOM     21  C   UNL A   1      32.238  19.546  23.114  1.00  0.00     0.138 C 
ATOM     22  S   UNL A   1      32.948  18.905  24.622  1.00  0.00     0.151 S 
ATOM     23  O   UNL A   1      32.024  17.954  25.212  1.00  0.00    -0.229 OA
ATOM     24  O   UNL A   1      34.333  18.572  24.378  1.00  0.00    -0.229 OA
ENDBRANCH  17  18
ENDBRANCH  16  17
ENDBRANCH  13  16
ENDBRANCH   7  12
ENDBRANCH   4   7
ENDBRANCH   2   3
ENDBRANCH   1   2
BRANCH   1  25
ATOM     25  C   UNL A   1      31.502  32.022  26.869  1.00  0.00     0.023 C 
BRANCH  25  26
ATOM     26  C   UNL A   1      32.771  32.838  27.056  1.00  0.00     0.116 C 
BRANCH  26  27
ATOM     27  N   UNL A   1      32.530  34.111  27.720  1.00  0.00    -0.352 N 
ATOM     28  C   UNL A   1      33.172  34.645  28.807  1.00  0.00     0.251 C 
ATOM     29  H   UNL A   1      31.811  34.662  27.335  1.00  0.00     0.163 HD
ATOM     30  O   UNL A   1      32.758  35.678  29.322  1.00  0.00    -0.269 OA
BRANCH  28  31
ATOM     31  C   UNL A   1      34.333  33.926  29.361  1.00  0.00     0.039 A 
ATOM     32  C   UNL A   1      35.613  34.367  29.032  1.00  0.00     0.014 A 
ATOM     33  C   UNL A   1      34.142  32.879  30.266  1.00  0.00     0.014 A 
ATOM     34  C   UNL A   1      36.713  33.792  29.667  1.00  0.00     0.010 A 
ATOM     35  C   UNL A   1      35.230  32.379  30.968  1.00  0.00     0.010 A 
ATOM     36  C   UNL A   1      36.527  32.822  30.667  1.00  0.00    -0.014 A 
BRANCH  36  37
ATOM     37  C   UNL A   1      37.683  32.241  31.392  1.00  0.00     0.031 A 
ATOM     38  C   UNL A   1      38.451  31.105  30.774  1.00  0.00     0.074 A 
ATOM     39  C   UNL A   1      38.004  32.703  32.616  1.00  0.00     0.049 A 
ATOM     40  N   UNL A   1      39.449  30.420  31.266  1.00  0.00    -0.248 NA
ATOM     41  C   UNL A   1      38.013  30.661  29.443  1.00  0.00     0.031 C 
ATOM     42  C   UNL A   1      37.299  33.772  33.329  1.00  0.00     0.029 A 
ATOM     43  N   UNL A   1      39.001  32.333  33.481  1.00  0.00    -0.354 N 
ATOM     44  C   UNL A   1      39.753  29.459  30.307  1.00  0.00     0.074 A 
ATOM     45  C   UNL A   1      38.780  29.600  29.247  1.00  0.00     0.031 C 
ATOM     46  C   UNL A   1      37.909  33.993  34.503  1.00  0.00     0.029 A 
ATOM     47  C   UNL A   1      39.011  33.050  34.655  1.00  0.00     0.049 A 
ATOM     48  H   UNL A   1      39.651  31.620  33.280  1.00  0.00     0.167 HD
ATOM     49  C   UNL A   1      40.771  28.564  30.299  1.00  0.00     0.034 A 
ATOM     50  C   UNL A   1      39.812  32.949  35.735  1.00  0.00     0.034 A 
ATOM     51  C   UNL A   1      41.733  28.447  31.365  1.00  0.00     0.049 A 
ATOM     52  C   UNL A   1      40.915  31.920  35.720  1.00  0.00     0.074 A 
ATOM     53  C   UNL A   1      42.830  27.607  31.448  1.00  0.00     0.029 A 
ATOM     54  N   UNL A   1      41.708  29.184  32.544  1.00  0.00    -0.354 N 
ATOM     55  N   UNL A   1      41.223  31.052  34.783  1.00  0.00    -0.248 NA
ATOM     56  C   UNL A   1      41.784  31.866  36.901  1.00  0.00     0.031 C 
ATOM     57  C   UNL A   1      43.418  27.780  32.705  1.00  0.00     0.029 A 
ATOM     58  C   UNL A   1      42.748  28.794  33.373  1.00  0.00     0.049 A 
ATOM     59  H   UNL A   1      41.047  29.881  32.759  1.00  0.00     0.167 HD
ATOM     60  C   UNL A   1      42.342  30.369  35.252  1.00  0.00     0.074 A 
ATOM     61  C   UNL A   1      42.662  30.941  36.544  1.00  0.00     0.031 C 
ATOM     62  C   UNL A   1      43.046  29.367  34.666  1.00  0.00     0.034 A 
BRANCH  49  63
ATOM     63  C   UNL A   1      40.869  27.636  29.110  1.00  0.00     0.023 A 
ATOM     64  C   UNL A   1      41.797  27.854  28.077  1.00  0.00     0.031 A 
ATOM     65  C   UNL A   1      39.997  26.540  28.987  1.00  0.00     0.131 A 
ATOM     66  C   UNL A   1      41.774  27.046  26.930  1.00  0.00     0.055 A 
ATOM     67  C   UNL A   1      40.043  25.682  27.886  1.00  0.00     0.041 A 
ATOM     68  F   UNL A   1      39.071  26.293  29.927  1.00  0.00    -0.206 F 
ATOM     69  C   UNL A   1      40.924  25.943  26.840  1.00  0.00     0.022 A 
BRANCH  66  70
ATOM     70  S   UNL A   1      42.755  27.559  25.492  1.00  0.00     0.124 S 
ATOM     71  O   UNL A   1      42.131  28.835  25.151  1.00  0.00    -0.237 OA
ATOM     72  O   UNL A   1      44.104  27.634  26.041  1.00  0.00    -0.237 OA
ATOM     73  O   UNL A   1      42.531  26.486  24.525  1.00  0.00    -0.744 OA
ENDBRANCH  66  70
ENDBRANCH  49  63
BRANCH  50  74
ATOM     74  C   UNL A   1      39.598  33.830  36.919  1.00  0.00     0.023 A 
ATOM     75  C   UNL A   1      39.003  33.339  38.092  1.00  0.00     0.031 A 
ATOM     76  C   UNL A   1      39.952  35.191  36.883  1.00  0.00     0.131 A 
ATOM     77  C   UNL A   1      38.736  34.210  39.159  1.00  0.00     0.055 A 
ATOM     78  C   UNL A   1      39.738  36.040  37.969  1.00  0.00     0.041 A 
ATOM     79  F   UNL A   1      40.527  35.714  35.787  1.00  0.00    -0.206 F 
ATOM     80  C   UNL A   1      39.113  35.553  39.112  1.00  0.00     0.022 A 
BRANCH  77  81
ATOM     81  S   UNL A   1      37.797  33.581  40.580  1.00  0.00     0.124 S 
ATOM     82  O   UNL A   1      36.609  33.037  39.932  1.00  0.00    -0.237 OA
ATOM     83  O   UNL A   1      38.723  32.606  41.146  1.00  0.00    -0.237 OA
ATOM     84  O   UNL A   1      37.575  34.774  41.394  1.00  0.00    -0.744 OA
ENDBRANCH  77  81
ENDBRANCH  50  74
BRANCH  62  85
ATOM     85  C   UNL A   1      44.261  28.858  35.403  1.00  0.00     0.023 A 
ATOM     86  C   UNL A   1      44.185  27.787  36.310  1.00  0.00     0.031 A 
ATOM     87  C   UNL A   1      45.516  29.461  35.197  1.00  0.00     0.131 A 
ATOM     88  C   UNL A   1      45.327  27.391  37.020  1.00  0.00     0.055 A 
ATOM     89  C   UNL A   1      46.663  29.016  35.853  1.00  0.00     0.041 A 
ATOM     90  F   UNL A   1      45.647  30.491  34.345  1.00  0.00    -0.206 F 
ATOM     91  C   UNL A   1      46.570  27.984  36.782  1.00  0.00     0.022 A 
BRANCH  88  92
ATOM     92  S   UNL A   1      45.148  26.158  38.339  1.00  0.00     0.124 S 
ATOM     93  O   UNL A   1      44.231  26.828  39.256  1.00  0.00    -0.237 OA
ATOM     94  O   UNL A   1      44.606  25.010  37.620  1.00  0.00    -0.237 OA
ATOM     95  O   UNL A   1      46.512  25.990  38.838  1.00  0.00    -0.744 OA
ENDBRANCH  88  92
ENDBRANCH  62  85
ENDBRANCH  36  37
ENDBRANCH  28  31
ENDBRANCH  26  27
ENDBRANCH  25  26
ENDBRANCH   1  25
TORSDOF 20
ENDMDL
MODEL 2
REMARK VINA RESULT:     -10.7      1.761      1.998
REMARK SMILES CCC(CC)(NC(=O)CS[C@H]1CCS(=O)(=O)C1)C(=O)NCCCCNC(=O)c1ccc(-c2c3nc(c(-c4cc(S(=O)(=O)[O-])ccc4F)c4ccc([nH]4)c(-c4cc(S(=O)(=O)[O-])ccc4F)c4nc(c(-c5cc(S(=O)(=O)[O-])ccc5F)c5ccc2[nH]5)C=C4)C=C3)cc1
REMARK SMILES IDX 22 1 21 2 20 3 18 4 19 5 3 7 2 8 1 9 4 10 5 11 6 12 7 13
REMARK SMILES IDX 8 15 9 16 10 17 11 18 12 19 17 20 13 21 14 22 15 23 16 24
REMARK SMILES IDX 23 25 24 26 25 27 26 28 27 30 28 31 29 32 90 33 30 34 89 35
REMARK SMILES IDX 31 36 32 37 33 38 83 39 34 40 88 41 82 42 84 43 35 44 87 45
REMARK SMILES IDX 81 46 80 47 36 49 68 50 48 51 67 52 49 53 52 54 66 55 85 56
REMARK SMILES IDX 50 57 51 58 65 60 86 61 53 62 37 63 38 64 46 65 39 66 45 67
REMARK SMILES IDX 47 68 44 69 40 70 41 71 42 72 43 73 69 74 70 75 78 76 71 77
REMARK SMILES IDX 77 78 79 79 76 80 72 81 73 82 74 83 75 84 54 85 55 86 63 87
REMARK SMILES IDX 56 88 62 89 64 90 61 91 57 92 58 93 59 94 60 95
REMARK H PARENT 20 6 6 14 25 29 84 48 52 59
REMARK Flexibility Score: inf
ROOT
ATOM      1  C   UNL A   1      31.848  30.436  27.084  1.00  0.00     0.023 C 
ENDROOT
BRANCH   1   2
ATOM      2  C   UNL A   1      31.520  29.521  25.911  1.00  0.00     0.116 C 
BRANCH   2   3
ATOM      3  N   UNL A   1      32.343  29.738  24.730  1.00  0.00    -0.354 N 
ATOM      4  C   UNL A   1      32.769  28.865  23.767  1.00  0.00     0.245 C 
ATOM      5  O   UNL A   1      33.468  29.323  22.860  1.00  0.00    -0.272 OA
ATOM      6  H   UNL A   1      32.644  30.667  24.605  1.00  0.00     0.163 HD
BRANCH   4   7
ATOM      7  C   UNL A   1      32.420  27.356  23.854  1.00  0.00     0.118 C 
BRANCH   7   8
ATOM      8  C   UNL A   1      30.956  27.079  24.301  1.00  0.00     0.035 C 
ATOM      9  C   UNL A   1      29.821  27.503  23.373  1.00  0.00     0.007 C 
ENDBRANCH   7   8
BRANCH   7  10
ATOM     10  C   UNL A   1      33.352  26.711  24.940  1.00  0.00     0.035 C 
ATOM     11  C   UNL A   1      32.662  25.813  25.962  1.00  0.00     0.007 C 
ENDBRANCH   7  10
BRANCH   7  12
ATOM     12  N   UNL A   1      32.668  26.748  22.495  1.00  0.00    -0.341 N 
ATOM     13  C   UNL A   1      32.694  25.486  21.963  1.00  0.00     0.230 C 
ATOM     14  H   UNL A   1      32.861  27.436  21.816  1.00  0.00     0.164 HD
ATOM     15  O   UNL A   1      33.278  25.388  20.877  1.00  0.00    -0.274 OA
BRANCH  13  16
ATOM     16  C   UNL A   1      31.999  24.255  22.564  1.00  0.00     0.169 C 
BRANCH  16  17
ATOM     17  S   UNL A   1      32.903  22.681  22.290  1.00  0.00    -0.148 SA
BRANCH  17  18
ATOM     18  C   UNL A   1      33.226  22.278  24.015  1.00  0.00     0.063 C 
ATOM     19  C   UNL A   1      33.276  20.803  24.401  1.00  0.00     0.031 C 
ATOM     20  C   UNL A   1      34.518  22.933  24.496  1.00  0.00     0.151 C 
ATOM     21  C   UNL A   1      33.687  20.812  25.875  1.00  0.00     0.138 C 
ATOM     22  S   UNL A   1      34.946  22.073  25.996  1.00  0.00     0.151 S 
ATOM     23  O   UNL A   1      34.650  22.928  27.130  1.00  0.00    -0.229 OA
ATOM     24  O   UNL A   1      36.242  21.455  25.824  1.00  0.00    -0.229 OA
ENDBRANCH  17  18
ENDBRANCH  16  17
ENDBRANCH  13  16
ENDBRANCH   7  12
ENDBRANCH   4   7
ENDBRANCH   2   3
ENDBRANCH   1   2
BRANCH   1  25
ATOM     25  C   UNL A   1      31.538  31.909  26.870  1.00  0.00     0.023 C 
BRANCH  25  26
ATOM     26  C   UNL A   1      32.761  32.811  26.858  1.00  0.00     0.116 C 
BRANCH  26  27
ATOM     27  N   UNL A   1      32.569  34.033  27.626  1.00  0.00    -0.352 N 
ATOM     28  C   UNL A   1      33.264  34.474  28.723  1.00  0.00     0.251 C 
ATOM     29  H   UNL A   1      31.842  34.621  27.315  1.00  0.00     0.163 HD
ATOM     30  O   UNL A   1      32.888  35.470  29.332  1.00  0.00    -0.269 OA
BRANCH  28  31
ATOM     31  C   UNL A   1      34.435  33.701  29.169  1.00  0.00     0.039 A 
ATOM     32  C   UNL A   1      35.708  34.215  28.931  1.00  0.00     0.014 A 
ATOM     33  C   UNL A   1      34.260  32.519  29.895  1.00  0.00     0.014 A 
ATOM     34  C   UNL A   1      36.814  33.570  29.481  1.00  0.00     0.010 A 
ATOM     35  C   UNL A   1      35.353  31.937  30.522  1.00  0.00     0.010 A 
ATOM     36  C   UNL A   1      36.642  32.450  30.312  1.00  0.00    -0.014 A 
BRANCH  36  37
ATOM     37  C   UNL A   1      37.803  31.785  30.950  1.00  0.00     0.031 A 
ATOM     38  C   UNL A   1      38.555  30.721  30.197  1.00  0.00     0.074 A 
ATOM     39  C   UNL A   1      38.145  32.105  32.213  1.00  0.00     0.049 A 
ATOM     40  N   UNL A   1      39.556  29.980  30.594  1.00  0.00    -0.248 NA
ATOM     41  C   UNL A   1      38.096  30.431  28.831  1.00  0.00     0.031 C 
ATOM     42  C   UNL A   1      37.457  33.091  33.052  1.00  0.00     0.029 A 
ATOM     43  N   UNL A   1      39.152  31.635  33.016  1.00  0.00    -0.354 N 
ATOM     44  C   UNL A   1      39.840  29.131  29.529  1.00  0.00     0.074 A 
ATOM     45  C   UNL A   1      38.853  29.396  28.506  1.00  0.00     0.031 C 
ATOM     46  C   UNL A   1      38.085  33.175  34.234  1.00  0.00     0.029 A 
ATOM     47  C   UNL A   1      39.184  32.215  34.263  1.00  0.00     0.049 A 
ATOM     48  H   UNL A   1      39.794  30.945  32.727  1.00  0.00     0.167 HD
ATOM     49  C   UNL A   1      40.852  28.238  29.405  1.00  0.00     0.034 A 
ATOM     50  C   UNL A   1      39.999  31.990  35.313  1.00  0.00     0.034 A 
ATOM     51  C   UNL A   1      41.827  27.997  30.438  1.00  0.00     0.049 A 
ATOM     52  C   UNL A   1      41.094  30.963  35.166  1.00  0.00     0.074 A 
ATOM     53  C   UNL A   1      42.920  27.148  30.410  1.00  0.00     0.029 A 
ATOM     54  N   UNL A   1      41.824  28.597  31.692  1.00  0.00    -0.354 N 
ATOM     55  N   UNL A   1      41.383  30.204  34.134  1.00  0.00    -0.248 NA
ATOM     56  C   UNL A   1      41.979  30.773  36.321  1.00  0.00     0.031 C 
ATOM     57  C   UNL A   1      43.527  27.176  31.670  1.00  0.00     0.029 A 
ATOM     58  C   UNL A   1      42.873  28.111  32.456  1.00  0.00     0.049 A 
ATOM     59  H   UNL A   1      41.171  29.269  31.993  1.00  0.00     0.167 HD
ATOM     60  C   UNL A   1      42.505  29.468  34.506  1.00  0.00     0.074 A 
ATOM     61  C   UNL A   1      42.846  29.889  35.850  1.00  0.00     0.031 C 
ATOM     62  C   UNL A   1      43.193  28.534  33.801  1.00  0.00     0.034 A 
BRANCH  49  63
ATOM     63  C   UNL A   1      40.926  27.449  28.119  1.00  0.00     0.023 A 
ATOM     64  C   UNL A   1      40.549  26.095  28.061  1.00  0.00     0.031 A 
ATOM     65  C   UNL A   1      41.418  28.044  26.944  1.00  0.00     0.131 A 
ATOM     66  C   UNL A   1      40.750  25.361  26.882  1.00  0.00     0.055 A 
ATOM     67  C   UNL A   1      41.526  27.332  25.747  1.00  0.00     0.041 A 
ATOM     68  F   UNL A   1      41.819  29.325  26.941  1.00  0.00    -0.206 F 
ATOM     69  C   UNL A   1      41.208  25.977  25.716  1.00  0.00     0.022 A 
BRANCH  66  70
ATOM     70  S   UNL A   1      40.562  23.558  26.945  1.00  0.00     0.124 S 
ATOM     71  O   UNL A   1      39.192  23.389  26.466  1.00  0.00    -0.237 OA
ATOM     72  O   UNL A   1      41.614  23.098  26.046  1.00  0.00    -0.237 OA
ATOM     73  O   UNL A   1      40.763  23.241  28.358  1.00  0.00    -0.744 OA
ENDBRANCH  66  70
ENDBRANCH  49  63
BRANCH  50  74
ATOM     74  C   UNL A   1      39.807  32.734  36.592  1.00  0.00     0.023 A 
ATOM     75  C   UNL A   1      38.876  32.304  37.549  1.00  0.00     0.031 A 
ATOM     76  C   UNL A   1      40.529  33.912  36.859  1.00  0.00     0.131 A 
ATOM     77  C   UNL A   1      38.655  33.069  38.705  1.00  0.00     0.055 A 
ATOM     78  C   UNL A   1      40.348  34.638  38.037  1.00  0.00     0.041 A 
ATOM     79  F   UNL A   1      41.435  34.368  35.978  1.00  0.00    -0.206 F 
ATOM     80  C   UNL A   1      39.395  34.225  38.962  1.00  0.00     0.022 A 
BRANCH  77  81
ATOM     81  S   UNL A   1      37.312  32.585  39.825  1.00  0.00     0.124 S 
ATOM     82  O   UNL A   1      36.162  32.593  38.929  1.00  0.00    -0.237 OA
ATOM     83  O   UNL A   1      37.760  31.273  40.283  1.00  0.00    -0.237 OA
ATOM     84  O   UNL A   1      37.322  33.635  40.841  1.00  0.00    -0.744 OA
ENDBRANCH  77  81
ENDBRANCH  50  74
BRANCH  62  85
ATOM     85  C   UNL A   1      44.415  27.940  34.459  1.00  0.00     0.023 A 
ATOM     86  C   UNL A   1      44.344  26.777  35.245  1.00  0.00     0.031 A 
ATOM     87  C   UNL A   1      45.672  28.552  34.298  1.00  0.00     0.131 A 
ATOM     88  C   UNL A   1      45.494  26.298  35.890  1.00  0.00     0.055 A 
ATOM     89  C   UNL A   1      46.825  28.030  34.883  1.00  0.00     0.041 A 
ATOM     90  F   UNL A   1      45.799  29.667  33.561  1.00  0.00    -0.206 F 
ATOM     91  C   UNL A   1      46.738  26.905  35.696  1.00  0.00     0.022 A 
BRANCH  88  92
ATOM     92  S   UNL A   1      45.324  24.931  37.070  1.00  0.00     0.124 S 
ATOM     93  O   UNL A   1      44.845  25.620  38.264  1.00  0.00    -0.237 OA
ATOM     94  O   UNL A   1      44.358  24.063  36.405  1.00  0.00    -0.237 OA
ATOM     95  O   UNL A   1      46.680  24.392  37.166  1.00  0.00    -0.744 OA
ENDBRANCH  88  92
ENDBRANCH  62  85
ENDBRANCH  36  37
ENDBRANCH  28  31
ENDBRANCH  26  27
ENDBRANCH  25  26
ENDBRANCH   1  25
TORSDOF 20
ENDMDL
MODEL 3
REMARK VINA RESULT:     -10.5      3.517      8.319
REMARK SMILES CCC(CC)(NC(=O)CS[C@H]1CCS(=O)(=O)C1)C(=O)NCCCCNC(=O)c1ccc(-c2c3nc(c(-c4cc(S(=O)(=O)[O-])ccc4F)c4ccc([nH]4)c(-c4cc(S(=O)(=O)[O-])ccc4F)c4nc(c(-c5cc(S(=O)(=O)[O-])ccc5F)c5ccc2[nH]5)C=C4)C=C3)cc1
REMARK SMILES IDX 22 1 21 2 20 3 18 4 19 5 3 7 2 8 1 9 4 10 5 11 6 12 7 13
REMARK SMILES IDX 8 15 9 16 10 17 11 18 12 19 17 20 13 21 14 22 15 23 16 24
REMARK SMILES IDX 23 25 24 26 25 27 26 28 27 30 28 31 29 32 90 33 30 34 89 35
REMARK SMILES IDX 31 36 32 37 33 38 83 39 34 40 88 41 82 42 84 43 35 44 87 45
REMARK SMILES IDX 81 46 80 47 36 49 68 50 48 51 67 52 49 53 52 54 66 55 85 56
REMARK SMILES IDX 50 57 51 58 65 60 86 61 53 62 37 63 38 64 46 65 39 66 45 67
REMARK SMILES IDX 47 68 44 69 40 70 41 71 42 72 43 73 69 74 70 75 78 76 71 77
REMARK SMILES IDX 77 78 79 79 76 80 72 81 73 82 74 83 75 84 54 85 55 86 63 87
REMARK SMILES IDX 56 88 62 89 64 90 61 91 57 92 58 93 59 94 60 95
REMARK H PARENT 20 6 6 14 25 29 84 48 52 59
REMARK Flexibility Score: inf
ROOT
ATOM      1  C   UNL A   1      31.886  30.551  26.532  1.00  0.00     0.023 C 
ENDROOT
BRANCH   1   2
ATOM      2  C   UNL A   1      31.435  29.785  25.294  1.00  0.00     0.116 C 
BRANCH   2   3
ATOM      3  N   UNL A   1      32.464  29.627  24.278  1.00  0.00    -0.354 N 
ATOM      4  C   UNL A   1      32.520  28.804  23.186  1.00  0.00     0.245 C 
ATOM      5  O   UNL A   1      33.526  28.875  22.477  1.00  0.00    -0.272 OA
ATOM      6  H   UNL A   1      33.250  30.207  24.396  1.00  0.00     0.163 HD
BRANCH   4   7
ATOM      7  C   UNL A   1      31.378  27.795  22.894  1.00  0.00     0.118 C 
BRANCH   7   8
ATOM      8  C   UNL A   1      30.024  28.471  22.536  1.00  0.00     0.035 C 
ATOM      9  C   UNL A   1      30.052  29.832  21.846  1.00  0.00     0.007 C 
ENDBRANCH   7   8
BRANCH   7  10
ATOM     10  C   UNL A   1      31.132  26.959  24.200  1.00  0.00     0.035 C 
ATOM     11  C   UNL A   1      29.727  26.394  24.374  1.00  0.00     0.007 C 
ENDBRANCH   7  10
BRANCH   7  12
ATOM     12  N   UNL A   1      31.828  26.908  21.759  1.00  0.00    -0.341 N 
ATOM     13  C   UNL A   1      32.742  25.901  21.589  1.00  0.00     0.230 C 
ATOM     14  H   UNL A   1      31.341  27.105  20.926  1.00  0.00     0.164 HD
ATOM     15  O   UNL A   1      33.051  25.668  20.414  1.00  0.00    -0.274 OA
BRANCH  13  16
ATOM     16  C   UNL A   1      33.317  25.026  22.713  1.00  0.00     0.169 C 
BRANCH  16  17
ATOM     17  S   UNL A   1      33.242  23.225  22.368  1.00  0.00    -0.148 SA
BRANCH  17  18
ATOM     18  C   UNL A   1      32.854  22.670  24.037  1.00  0.00     0.063 C 
ATOM     19  C   UNL A   1      33.533  21.398  24.537  1.00  0.00     0.031 C 
ATOM     20  C   UNL A   1      33.118  23.775  25.056  1.00  0.00     0.151 C 
ATOM     21  C   UNL A   1      33.093  21.285  25.998  1.00  0.00     0.138 C 
ATOM     22  S   UNL A   1      33.167  22.952  26.634  1.00  0.00     0.151 S 
ATOM     23  O   UNL A   1      31.940  23.238  27.353  1.00  0.00    -0.229 OA
ATOM     24  O   UNL A   1      34.467  23.164  27.230  1.00  0.00    -0.229 OA
ENDBRANCH  17  18
ENDBRANCH  16  17
ENDBRANCH  13  16
ENDBRANCH   7  12
ENDBRANCH   4   7
ENDBRANCH   2   3
ENDBRANCH   1   2
BRANCH   1  25
ATOM     25  C   UNL A   1      33.079  29.962  27.267  1.00  0.00     0.023 C 
BRANCH  25  26
ATOM     26  C   UNL A   1      34.248  30.919  27.430  1.00  0.00     0.116 C 
BRANCH  26  27
ATOM     27  N   UNL A   1      34.043  31.882  28.502  1.00  0.00    -0.352 N 
ATOM     28  C   UNL A   1      34.802  32.087  29.626  1.00  0.00     0.251 C 
ATOM     29  H   UNL A   1      33.255  32.464  28.407  1.00  0.00     0.163 HD
ATOM     30  O   UNL A   1      34.416  32.857  30.499  1.00  0.00    -0.269 OA
BRANCH  28  31
ATOM     31  C   UNL A   1      36.058  31.331  29.774  1.00  0.00     0.039 A 
ATOM     32  C   UNL A   1      37.232  31.873  29.254  1.00  0.00     0.014 A 
ATOM     33  C   UNL A   1      36.076  30.136  30.499  1.00  0.00     0.014 A 
ATOM     34  C   UNL A   1      38.445  31.241  29.518  1.00  0.00     0.010 A 
ATOM     35  C   UNL A   1      37.293  29.567  30.844  1.00  0.00     0.010 A 
ATOM     36  C   UNL A   1      38.490  30.108  30.347  1.00  0.00    -0.014 A 
BRANCH  36  37
ATOM     37  C   UNL A   1      39.778  29.457  30.685  1.00  0.00     0.031 A 
ATOM     38  C   UNL A   1      40.568  29.944  31.868  1.00  0.00     0.074 A 
ATOM     39  C   UNL A   1      40.252  28.467  29.903  1.00  0.00     0.049 A 
ATOM     40  N   UNL A   1      41.740  29.554  32.296  1.00  0.00    -0.248 NA
ATOM     41  C   UNL A   1      39.975  31.039  32.650  1.00  0.00     0.031 C 
ATOM     42  C   UNL A   1      39.589  27.946  28.704  1.00  0.00     0.029 A 
ATOM     43  N   UNL A   1      41.402  27.726  29.992  1.00  0.00    -0.354 N 
ATOM     44  C   UNL A   1      42.027  30.361  33.393  1.00  0.00     0.074 A 
ATOM     45  C   UNL A   1      40.945  31.313  33.508  1.00  0.00     0.031 C 
ATOM     46  C   UNL A   1      40.326  26.947  28.195  1.00  0.00     0.029 A 
ATOM     47  C   UNL A   1      41.537  26.791  28.992  1.00  0.00     0.049 A 
ATOM     48  H   UNL A   1      42.069  27.850  30.707  1.00  0.00     0.167 HD
ATOM     49  C   UNL A   1      43.080  30.291  34.243  1.00  0.00     0.034 A 
ATOM     50  C   UNL A   1      42.532  25.916  28.741  1.00  0.00     0.034 A 
ATOM     51  C   UNL A   1      44.144  29.328  34.109  1.00  0.00     0.049 A 
ATOM     52  C   UNL A   1      43.713  25.881  29.678  1.00  0.00     0.074 A 
ATOM     53  C   UNL A   1      45.239  29.135  34.932  1.00  0.00     0.029 A 
ATOM     54  N   UNL A   1      44.254  28.400  33.079  1.00  0.00    -0.354 N 
ATOM     55  N   UNL A   1      43.947  26.617  30.742  1.00  0.00    -0.248 NA
ATOM     56  C   UNL A   1      44.758  24.892  29.388  1.00  0.00     0.031 C 
ATOM     57  C   UNL A   1      46.049  28.149  34.358  1.00  0.00     0.029 A 
ATOM     58  C   UNL A   1      45.415  27.659  33.227  1.00  0.00     0.049 A 
ATOM     59  H   UNL A   1      43.602  28.288  32.350  1.00  0.00     0.167 HD
ATOM     60  C   UNL A   1      45.152  26.155  31.265  1.00  0.00     0.074 A 
ATOM     61  C   UNL A   1      45.584  25.068  30.409  1.00  0.00     0.031 C 
ATOM     62  C   UNL A   1      45.837  26.585  32.356  1.00  0.00     0.034 A 
BRANCH  49  63
ATOM     63  C   UNL A   1      43.133  31.300  35.366  1.00  0.00     0.023 A 
ATOM     64  C   UNL A   1      43.741  32.557  35.201  1.00  0.00     0.031 A 
ATOM     65  C   UNL A   1      42.605  30.988  36.631  1.00  0.00     0.131 A 
ATOM     66  C   UNL A   1      43.884  33.418  36.300  1.00  0.00     0.055 A 
ATOM     67  C   UNL A   1      42.665  31.888  37.697  1.00  0.00     0.041 A 
ATOM     68  F   UNL A   1      42.036  29.794  36.860  1.00  0.00    -0.206 F 
ATOM     69  C   UNL A   1      43.323  33.105  37.540  1.00  0.00     0.022 A 
BRANCH  66  70
ATOM     70  S   UNL A   1      44.953  34.872  36.125  1.00  0.00     0.124 S 
ATOM     71  O   UNL A   1      44.771  35.528  37.418  1.00  0.00    -0.237 OA
ATOM     72  O   UNL A   1      46.263  34.275  35.892  1.00  0.00    -0.237 OA
ATOM     73  O   UNL A   1      44.378  35.586  34.987  1.00  0.00    -0.744 OA
ENDBRANCH  66  70
ENDBRANCH  49  63
BRANCH  50  74
ATOM     74  C   UNL A   1      42.464  25.014  27.555  1.00  0.00     0.023 A 
ATOM     75  C   UNL A   1      41.664  23.862  27.563  1.00  0.00     0.031 A 
ATOM     76  C   UNL A   1      43.232  25.273  26.405  1.00  0.00     0.131 A 
ATOM     77  C   UNL A   1      41.685  22.986  26.467  1.00  0.00     0.055 A 
ATOM     78  C   UNL A   1      43.205  24.430  25.293  1.00  0.00     0.041 A 
ATOM     79  F   UNL A   1      44.014  26.364  26.341  1.00  0.00    -0.206 F 
ATOM     80  C   UNL A   1      42.439  23.270  25.325  1.00  0.00     0.022 A 
BRANCH  77  81
ATOM     81  S   UNL A   1      40.787  21.414  26.591  1.00  0.00     0.124 S 
ATOM     82  O   UNL A   1      40.796  21.181  28.030  1.00  0.00    -0.237 OA
ATOM     83  O   UNL A   1      39.495  21.759  26.004  1.00  0.00    -0.237 OA
ATOM     84  O   UNL A   1      41.602  20.494  25.802  1.00  0.00    -0.744 OA
ENDBRANCH  77  81
ENDBRANCH  50  74
BRANCH  62  85
ATOM     85  C   UNL A   1      47.103  25.843  32.709  1.00  0.00     0.023 A 
ATOM     86  C   UNL A   1      47.107  24.773  33.621  1.00  0.00     0.031 A 
ATOM     87  C   UNL A   1      48.327  26.217  32.125  1.00  0.00     0.131 A 
ATOM     88  C   UNL A   1      48.317  24.155  33.968  1.00  0.00     0.055 A 
ATOM     89  C   UNL A   1      49.517  25.552  32.419  1.00  0.00     0.041 A 
ATOM     90  F   UNL A   1      48.384  27.234  31.249  1.00  0.00    -0.206 F 
ATOM     91  C   UNL A   1      49.519  24.524  33.357  1.00  0.00     0.022 A 
BRANCH  88  92
ATOM     92  S   UNL A   1      48.318  22.933  35.307  1.00  0.00     0.124 S 
ATOM     93  O   UNL A   1      47.580  21.826  34.706  1.00  0.00    -0.237 OA
ATOM     94  O   UNL A   1      49.744  22.706  35.521  1.00  0.00    -0.237 OA
ATOM     95  O   UNL A   1      47.628  23.619  36.398  1.00  0.00    -0.744 OA
ENDBRANCH  88  92
ENDBRANCH  62  85
ENDBRANCH  36  37
ENDBRANCH  28  31
ENDBRANCH  26  27
ENDBRANCH  25  26
ENDBRANCH   1  25
TORSDOF 20
ENDMDL
