MODEL 1
REMARK VINA RESULT:     -12.6      0.000      0.000
REMARK SMILES O=C(NCCCCNC(=O)c1ccc(-c2c3nc(c(-c4cc(S(=O)(=O)[O-])ccc4F)c4ccc([nH]4)c(-c4cc(S(=O)(=O)[O-])ccc4F)c4nc(c(-c5cc(S(=O)(=O)[O-])ccc5F)c5ccc2[nH]5)C=C4)C=C3)cc1)C1=N[C@@H]2NC=NN2[C@@H]([C@H]2C=NN=C2c2ccc(F)cc2)C1
REMARK SMILES IDX 6 1 5 2 4 3 3 4 1 5 2 6 74 8 75 9 94 10 76 11 81 12 77 13
REMARK SMILES IDX 80 14 78 15 79 17 82 18 83 19 86 20 84 21 85 22 87 23 88 24
REMARK SMILES IDX 93 25 89 26 92 27 90 28 91 29 7 30 8 31 9 32 10 34 11 35
REMARK SMILES IDX 12 36 73 37 13 38 72 39 14 40 15 41 16 42 66 43 17 44 71 45
REMARK SMILES IDX 65 46 67 47 18 48 70 49 64 50 63 51 19 53 51 54 31 55 50 56
REMARK SMILES IDX 32 57 35 58 49 59 68 60 33 61 34 62 48 64 69 65 36 66 20 67
REMARK SMILES IDX 21 68 29 69 22 70 28 71 30 72 27 73 23 74 24 75 25 76 26 77
REMARK SMILES IDX 52 78 53 79 61 80 54 81 60 82 62 83 59 84 55 85 56 86 57 87
REMARK SMILES IDX 58 88 37 89 38 90 46 91 39 92 45 93 47 94 44 95 40 96 41 97
REMARK SMILES IDX 42 98 43 99
REMARK H PARENT 3 7 77 16 8 33 67 52 35 63
REMARK Flexibility Score: inf
ROOT
ATOM      1  C   UNL A   1      33.529  27.672  26.139  1.00  0.00     0.023 C 
ENDROOT
BRANCH   1   2
ATOM      2  C   UNL A   1      32.022  27.792  26.325  1.00  0.00     0.023 C 
BRANCH   2   3
ATOM      3  C   UNL A   1      31.121  27.130  25.289  1.00  0.00     0.116 C 
BRANCH   3   4
ATOM      4  N   UNL A   1      29.988  26.389  25.800  1.00  0.00    -0.351 N 
ATOM      5  O   UNL A   1      28.916  24.777  26.952  1.00  0.00    -0.268 OA
ATOM      6  C   UNL A   1      29.947  25.146  26.396  1.00  0.00     0.265 C 
ATOM      7  H   UNL A   1      29.117  26.838  25.708  1.00  0.00     0.163 HD
BRANCH   6   8
ATOM      8  C   UNL A   1      31.117  24.147  26.298  1.00  0.00     0.106 C 
ATOM      9  N   UNL A   1      31.419  23.523  27.385  1.00  0.00    -0.237 NA
ATOM     10  C   UNL A   1      31.873  24.004  25.007  1.00  0.00     0.090 C 
ATOM     11  C   UNL A   1      32.317  22.400  27.336  1.00  0.00     0.319 C 
ATOM     12  C   UNL A   1      32.988  22.965  25.100  1.00  0.00     0.127 C 
ATOM     13  N   UNL A   1      33.556  22.440  28.059  1.00  0.00    -0.335 N 
ATOM     14  N   UNL A   1      32.689  21.837  26.016  1.00  0.00    -0.249 NA
ATOM     15  C   UNL A   1      34.339  21.541  27.395  1.00  0.00     0.217 C 
ATOM     16  H   UNL A   1      33.786  22.985  28.845  1.00  0.00     0.165 HD
ATOM     17  N   UNL A   1      33.876  21.091  26.256  1.00  0.00    -0.164 NA
BRANCH  12  18
ATOM     18  C   UNL A   1      33.460  22.385  23.754  1.00  0.00     0.109 C 
ATOM     19  C   UNL A   1      32.639  22.810  22.584  1.00  0.00     0.120 C 
ATOM     20  C   UNL A   1      34.770  22.931  23.280  1.00  0.00     0.081 C 
ATOM     21  N   UNL A   1      33.327  23.417  21.673  1.00  0.00    -0.162 NA
ATOM     22  N   UNL A   1      34.682  23.507  22.119  1.00  0.00    -0.155 NA
BRANCH  20  23
ATOM     23  C   UNL A   1      35.979  22.904  24.118  1.00  0.00    -0.001 A 
ATOM     24  C   UNL A   1      36.830  21.792  24.127  1.00  0.00     0.013 A 
ATOM     25  C   UNL A   1      36.172  23.952  25.023  1.00  0.00     0.013 A 
ATOM     26  C   UNL A   1      37.836  21.703  25.090  1.00  0.00     0.040 A 
ATOM     27  C   UNL A   1      37.181  23.860  25.980  1.00  0.00     0.040 A 
ATOM     28  C   UNL A   1      37.992  22.731  26.014  1.00  0.00     0.123 A 
ATOM     29  F   UNL A   1      38.933  22.623  26.960  1.00  0.00    -0.207 F 
ENDBRANCH  20  23
ENDBRANCH  12  18
ENDBRANCH   6   8
ENDBRANCH   3   4
ENDBRANCH   2   3
ENDBRANCH   1   2
BRANCH   1  30
ATOM     30  C   UNL A   1      34.259  28.922  25.664  1.00  0.00     0.116 C 
BRANCH  30  31
ATOM     31  N   UNL A   1      33.894  30.123  26.397  1.00  0.00    -0.352 N 
ATOM     32  C   UNL A   1      34.498  30.734  27.475  1.00  0.00     0.251 C 
ATOM     33  H   UNL A   1      33.084  30.575  26.069  1.00  0.00     0.163 HD
ATOM     34  O   UNL A   1      33.939  31.684  28.010  1.00  0.00    -0.269 OA
BRANCH  32  35
ATOM     35  C   UNL A   1      35.791  30.238  28.013  1.00  0.00     0.039 A 
ATOM     36  C   UNL A   1      35.807  29.627  29.270  1.00  0.00     0.014 A 
ATOM     37  C   UNL A   1      36.986  30.393  27.309  1.00  0.00     0.014 A 
ATOM     38  C   UNL A   1      37.005  29.118  29.787  1.00  0.00     0.010 A 
ATOM     39  C   UNL A   1      38.157  29.798  27.778  1.00  0.00     0.010 A 
ATOM     40  C   UNL A   1      38.186  29.168  29.031  1.00  0.00    -0.014 A 
BRANCH  40  41
ATOM     41  C   UNL A   1      39.471  28.626  29.558  1.00  0.00     0.031 A 
ATOM     42  C   UNL A   1      40.153  29.312  30.716  1.00  0.00     0.074 A 
ATOM     43  C   UNL A   1      40.041  27.546  28.985  1.00  0.00     0.049 A 
ATOM     44  N   UNL A   1      41.309  29.052  31.271  1.00  0.00    -0.248 NA
ATOM     45  C   UNL A   1      39.454  30.464  31.308  1.00  0.00     0.031 C 
ATOM     46  C   UNL A   1      39.500  26.811  27.839  1.00  0.00     0.029 A 
ATOM     47  N   UNL A   1      41.205  26.879  29.283  1.00  0.00    -0.354 N 
ATOM     48  C   UNL A   1      41.474  30.005  32.272  1.00  0.00     0.074 A 
ATOM     49  C   UNL A   1      40.340  30.900  32.189  1.00  0.00     0.031 C 
ATOM     50  C   UNL A   1      40.316  25.783  27.550  1.00  0.00     0.029 A 
ATOM     51  C   UNL A   1      41.462  25.810  28.453  1.00  0.00     0.049 A 
ATOM     52  H   UNL A   1      41.801  27.141  30.021  1.00  0.00     0.167 HD
ATOM     53  C   UNL A   1      42.457  30.106  33.200  1.00  0.00     0.034 A 
ATOM     54  C   UNL A   1      42.508  24.958  28.416  1.00  0.00     0.034 A 
ATOM     55  C   UNL A   1      43.578  29.203  33.283  1.00  0.00     0.049 A 
ATOM     56  C   UNL A   1      43.608  25.114  29.442  1.00  0.00     0.074 A 
ATOM     57  C   UNL A   1      44.627  29.210  34.186  1.00  0.00     0.029 A 
ATOM     58  N   UNL A   1      43.793  28.124  32.435  1.00  0.00    -0.354 N 
ATOM     59  N   UNL A   1      43.733  26.009  30.395  1.00  0.00    -0.248 NA
ATOM     60  C   UNL A   1      44.696  24.128  29.402  1.00  0.00     0.031 C 
ATOM     61  C   UNL A   1      45.505  28.176  33.849  1.00  0.00     0.029 A 
ATOM     62  C   UNL A   1      44.962  27.467  32.791  1.00  0.00     0.049 A 
ATOM     63  H   UNL A   1      43.203  27.864  31.692  1.00  0.00     0.167 HD
ATOM     64  C   UNL A   1      44.884  25.658  31.097  1.00  0.00     0.074 A 
ATOM     65  C   UNL A   1      45.403  24.463  30.469  1.00  0.00     0.031 C 
ATOM     66  C   UNL A   1      45.461  26.266  32.166  1.00  0.00     0.034 A 
BRANCH  53  67
ATOM     67  C   UNL A   1      42.359  31.236  34.197  1.00  0.00     0.023 A 
ATOM     68  C   UNL A   1      41.365  31.251  35.192  1.00  0.00     0.031 A 
ATOM     69  C   UNL A   1      43.260  32.315  34.154  1.00  0.00     0.131 A 
ATOM     70  C   UNL A   1      41.254  32.349  36.058  1.00  0.00     0.055 A 
ATOM     71  C   UNL A   1      43.197  33.364  35.072  1.00  0.00     0.041 A 
ATOM     72  F   UNL A   1      44.216  32.370  33.212  1.00  0.00    -0.206 F 
ATOM     73  C   UNL A   1      42.182  33.392  36.024  1.00  0.00     0.022 A 
BRANCH  70  74
ATOM     74  S   UNL A   1      39.802  32.456  37.138  1.00  0.00     0.124 S 
ATOM     75  O   UNL A   1      39.105  33.612  36.579  1.00  0.00    -0.237 OA
ATOM     76  O   UNL A   1      39.161  31.163  36.936  1.00  0.00    -0.237 OA
ATOM     77  O   UNL A   1      40.378  32.667  38.465  1.00  0.00    -0.744 OA
ENDBRANCH  70  74
ENDBRANCH  53  67
BRANCH  54  78
ATOM     78  C   UNL A   1      42.593  23.888  27.377  1.00  0.00     0.023 A 
ATOM     79  C   UNL A   1      41.920  22.665  27.536  1.00  0.00     0.031 A 
ATOM     80  C   UNL A   1      43.428  24.033  26.254  1.00  0.00     0.131 A 
ATOM     81  C   UNL A   1      42.158  21.610  26.639  1.00  0.00     0.055 A 
ATOM     82  C   UNL A   1      43.602  23.007  25.323  1.00  0.00     0.041 A 
ATOM     83  F   UNL A   1      44.095  25.180  26.046  1.00  0.00    -0.206 F 
ATOM     84  C   UNL A   1      42.983  21.778  25.527  1.00  0.00     0.022 A 
BRANCH  81  85
ATOM     85  S   UNL A   1      41.491  19.969  27.035  1.00  0.00     0.124 S 
ATOM     86  O   UNL A   1      42.711  19.197  27.239  1.00  0.00    -0.237 OA
ATOM     87  O   UNL A   1      40.699  20.245  28.228  1.00  0.00    -0.237 OA
ATOM     88  O   UNL A   1      40.722  19.619  25.843  1.00  0.00    -0.744 OA
ENDBRANCH  81  85
ENDBRANCH  54  78
BRANCH  66  89
ATOM     89  C   UNL A   1      46.669  25.592  32.774  1.00  0.00     0.023 A 
ATOM     90  C   UNL A   1      47.973  25.829  32.305  1.00  0.00     0.031 A 
ATOM     91  C   UNL A   1      46.505  24.669  33.822  1.00  0.00     0.131 A 
ATOM     92  C   UNL A   1      49.048  25.091  32.825  1.00  0.00     0.055 A 
ATOM     93  C   UNL A   1      47.587  23.995  34.390  1.00  0.00     0.041 A 
ATOM     94  F   UNL A   1      45.283  24.400  34.312  1.00  0.00    -0.206 F 
ATOM     95  C   UNL A   1      48.865  24.189  33.876  1.00  0.00     0.022 A 
BRANCH  92  96
ATOM     96  S   UNL A   1      50.665  25.224  32.015  1.00  0.00     0.124 S 
ATOM     97  O   UNL A   1      50.954  23.833  31.681  1.00  0.00    -0.237 OA
ATOM     98  O   UNL A   1      50.376  26.103  30.886  1.00  0.00    -0.237 OA
ATOM     99  O   UNL A   1      51.520  25.804  33.049  1.00  0.00    -0.744 OA
ENDBRANCH  92  96
ENDBRANCH  66  89
ENDBRANCH  40  41
ENDBRANCH  32  35
ENDBRANCH  30  31
ENDBRANCH   1  30
TORSDOF 16
ENDMDL
MODEL 2
REMARK VINA RESULT:     -12.5      3.881      9.531
REMARK SMILES O=C(NCCCCNC(=O)c1ccc(-c2c3nc(c(-c4cc(S(=O)(=O)[O-])ccc4F)c4ccc([nH]4)c(-c4cc(S(=O)(=O)[O-])ccc4F)c4nc(c(-c5cc(S(=O)(=O)[O-])ccc5F)c5ccc2[nH]5)C=C4)C=C3)cc1)C1=N[C@@H]2NC=NN2[C@@H]([C@H]2C=NN=C2c2ccc(F)cc2)C1
REMARK SMILES IDX 6 1 5 2 4 3 3 4 1 5 2 6 74 8 75 9 94 10 76 11 81 12 77 13
REMARK SMILES IDX 80 14 78 15 79 17 82 18 83 19 86 20 84 21 85 22 87 23 88 24
REMARK SMILES IDX 93 25 89 26 92 27 90 28 91 29 7 30 8 31 9 32 10 34 11 35
REMARK SMILES IDX 12 36 73 37 13 38 72 39 14 40 15 41 16 42 66 43 17 44 71 45
REMARK SMILES IDX 65 46 67 47 18 48 70 49 64 50 63 51 19 53 51 54 31 55 50 56
REMARK SMILES IDX 32 57 35 58 49 59 68 60 33 61 34 62 48 64 69 65 36 66 20 67
REMARK SMILES IDX 21 68 29 69 22 70 28 71 30 72 27 73 23 74 24 75 25 76 26 77
REMARK SMILES IDX 52 78 53 79 61 80 54 81 60 82 62 83 59 84 55 85 56 86 57 87
REMARK SMILES IDX 58 88 37 89 38 90 46 91 39 92 45 93 47 94 44 95 40 96 41 97
REMARK SMILES IDX 42 98 43 99
REMARK H PARENT 3 7 77 16 8 33 67 52 35 63
REMARK Flexibility Score: inf
ROOT
ATOM      1  C   UNL A   1      35.743  23.345  24.693  1.00  0.00     0.023 C 
ENDROOT
BRANCH   1   2
ATOM      2  C   UNL A   1      34.884  22.140  24.331  1.00  0.00     0.023 C 
BRANCH   2   3
ATOM      3  C   UNL A   1      33.470  22.401  23.823  1.00  0.00     0.116 C 
BRANCH   3   4
ATOM      4  N   UNL A   1      33.317  22.550  22.391  1.00  0.00    -0.351 N 
ATOM      5  O   UNL A   1      33.357  23.607  20.402  1.00  0.00    -0.268 OA
ATOM      6  C   UNL A   1      33.284  23.697  21.625  1.00  0.00     0.265 C 
ATOM      7  H   UNL A   1      33.222  21.708  21.890  1.00  0.00     0.163 HD
BRANCH   6   8
ATOM      8  C   UNL A   1      33.048  25.090  22.239  1.00  0.00     0.106 C 
ATOM      9  N   UNL A   1      33.667  26.069  21.674  1.00  0.00    -0.237 NA
ATOM     10  C   UNL A   1      32.195  25.232  23.469  1.00  0.00     0.090 C 
ATOM     11  C   UNL A   1      33.318  27.423  22.009  1.00  0.00     0.319 C 
ATOM     12  C   UNL A   1      32.070  26.684  23.925  1.00  0.00     0.127 C 
ATOM     13  N   UNL A   1      34.300  28.295  22.589  1.00  0.00    -0.335 N 
ATOM     14  N   UNL A   1      32.099  27.670  22.817  1.00  0.00    -0.249 NA
ATOM     15  C   UNL A   1      33.549  29.227  23.244  1.00  0.00     0.217 C 
ATOM     16  H   UNL A   1      35.280  28.236  22.528  1.00  0.00     0.165 HD
ATOM     17  N   UNL A   1      32.267  28.978  23.348  1.00  0.00    -0.164 NA
BRANCH  12  18
ATOM     18  C   UNL A   1      30.854  26.991  24.816  1.00  0.00     0.109 C 
ATOM     19  C   UNL A   1      29.925  25.839  25.002  1.00  0.00     0.120 C 
ATOM     20  C   UNL A   1      31.191  27.200  26.258  1.00  0.00     0.081 C 
ATOM     21  N   UNL A   1      29.765  25.508  26.241  1.00  0.00    -0.162 NA
ATOM     22  N   UNL A   1      30.579  26.365  27.043  1.00  0.00    -0.155 NA
BRANCH  20  23
ATOM     23  C   UNL A   1      32.201  28.179  26.692  1.00  0.00    -0.001 A 
ATOM     24  C   UNL A   1      31.855  29.513  26.947  1.00  0.00     0.013 A 
ATOM     25  C   UNL A   1      33.541  27.782  26.691  1.00  0.00     0.013 A 
ATOM     26  C   UNL A   1      32.862  30.460  27.136  1.00  0.00     0.040 A 
ATOM     27  C   UNL A   1      34.542  28.732  26.884  1.00  0.00     0.040 A 
ATOM     28  C   UNL A   1      34.194  30.063  27.090  1.00  0.00     0.123 A 
ATOM     29  F   UNL A   1      35.156  30.982  27.233  1.00  0.00    -0.207 F 
ENDBRANCH  20  23
ENDBRANCH  12  18
ENDBRANCH   6   8
ENDBRANCH   3   4
ENDBRANCH   2   3
ENDBRANCH   1   2
BRANCH   1  30
ATOM     30  C   UNL A   1      36.475  23.282  26.027  1.00  0.00     0.116 C 
BRANCH  30  31
ATOM     31  N   UNL A   1      37.654  22.433  26.006  1.00  0.00    -0.352 N 
ATOM     32  C   UNL A   1      38.972  22.720  26.294  1.00  0.00     0.251 C 
ATOM     33  H   UNL A   1      37.485  21.500  25.744  1.00  0.00     0.163 HD
ATOM     34  O   UNL A   1      39.824  21.865  26.089  1.00  0.00    -0.269 OA
BRANCH  32  35
ATOM     35  C   UNL A   1      39.370  24.053  26.813  1.00  0.00     0.039 A 
ATOM     36  C   UNL A   1      39.053  24.383  28.134  1.00  0.00     0.014 A 
ATOM     37  C   UNL A   1      40.025  24.988  26.010  1.00  0.00     0.014 A 
ATOM     38  C   UNL A   1      39.448  25.618  28.662  1.00  0.00     0.010 A 
ATOM     39  C   UNL A   1      40.505  26.175  26.565  1.00  0.00     0.010 A 
ATOM     40  C   UNL A   1      40.207  26.513  27.893  1.00  0.00    -0.014 A 
BRANCH  40  41
ATOM     41  C   UNL A   1      40.645  27.830  28.438  1.00  0.00     0.031 A 
ATOM     42  C   UNL A   1      42.115  28.108  28.632  1.00  0.00     0.074 A 
ATOM     43  C   UNL A   1      39.732  28.761  28.788  1.00  0.00     0.049 A 
ATOM     44  N   UNL A   1      42.700  29.151  29.164  1.00  0.00    -0.248 NA
ATOM     45  C   UNL A   1      43.050  27.057  28.198  1.00  0.00     0.031 C 
ATOM     46  C   UNL A   1      38.280  28.603  28.681  1.00  0.00     0.029 A 
ATOM     47  N   UNL A   1      39.888  30.022  29.310  1.00  0.00    -0.354 N 
ATOM     48  C   UNL A   1      44.065  28.881  29.129  1.00  0.00     0.074 A 
ATOM     49  C   UNL A   1      44.213  27.541  28.603  1.00  0.00     0.031 C 
ATOM     50  C   UNL A   1      37.683  29.733  29.098  1.00  0.00     0.029 A 
ATOM     51  C   UNL A   1      38.700  30.676  29.548  1.00  0.00     0.049 A 
ATOM     52  H   UNL A   1      40.768  30.421  29.497  1.00  0.00     0.167 HD
ATOM     53  C   UNL A   1      45.103  29.686  29.465  1.00  0.00     0.034 A 
ATOM     54  C   UNL A   1      38.459  31.893  30.081  1.00  0.00     0.034 A 
ATOM     55  C   UNL A   1      44.946  31.024  29.978  1.00  0.00     0.049 A 
ATOM     56  C   UNL A   1      39.633  32.757  30.480  1.00  0.00     0.074 A 
ATOM     57  C   UNL A   1      45.928  31.928  30.345  1.00  0.00     0.029 A 
ATOM     58  N   UNL A   1      43.728  31.657  30.189  1.00  0.00    -0.354 N 
ATOM     59  N   UNL A   1      40.919  32.491  30.416  1.00  0.00    -0.248 NA
ATOM     60  C   UNL A   1      39.325  34.096  30.999  1.00  0.00     0.031 C 
ATOM     61  C   UNL A   1      45.305  33.081  30.833  1.00  0.00     0.029 A 
ATOM     62  C   UNL A   1      43.936  32.934  30.688  1.00  0.00     0.049 A 
ATOM     63  H   UNL A   1      42.847  31.258  30.009  1.00  0.00     0.167 HD
ATOM     64  C   UNL A   1      41.567  33.650  30.837  1.00  0.00     0.074 A 
ATOM     65  C   UNL A   1      40.533  34.619  31.133  1.00  0.00     0.031 C 
ATOM     66  C   UNL A   1      42.897  33.896  30.966  1.00  0.00     0.034 A 
BRANCH  53  67
ATOM     67  C   UNL A   1      46.497  29.133  29.289  1.00  0.00     0.023 A 
ATOM     68  C   UNL A   1      47.187  29.260  28.069  1.00  0.00     0.031 A 
ATOM     69  C   UNL A   1      47.147  28.468  30.344  1.00  0.00     0.131 A 
ATOM     70  C   UNL A   1      48.451  28.674  27.913  1.00  0.00     0.055 A 
ATOM     71  C   UNL A   1      48.440  27.960  30.208  1.00  0.00     0.041 A 
ATOM     72  F   UNL A   1      46.531  28.294  31.525  1.00  0.00    -0.206 F 
ATOM     73  C   UNL A   1      49.095  28.050  28.984  1.00  0.00     0.022 A 
BRANCH  70  74
ATOM     74  S   UNL A   1      49.183  28.623  26.255  1.00  0.00     0.124 S 
ATOM     75  O   UNL A   1      47.993  28.532  25.412  1.00  0.00    -0.237 OA
ATOM     76  O   UNL A   1      49.915  29.882  26.194  1.00  0.00    -0.237 OA
ATOM     77  O   UNL A   1      50.011  27.419  26.284  1.00  0.00    -0.744 OA
ENDBRANCH  70  74
ENDBRANCH  53  67
BRANCH  54  78
ATOM     78  C   UNL A   1      37.061  32.378  30.290  1.00  0.00     0.023 A 
ATOM     79  C   UNL A   1      36.321  32.939  29.235  1.00  0.00     0.031 A 
ATOM     80  C   UNL A   1      36.477  32.378  31.570  1.00  0.00     0.131 A 
ATOM     81  C   UNL A   1      35.083  33.552  29.494  1.00  0.00     0.055 A 
ATOM     82  C   UNL A   1      35.213  32.921  31.807  1.00  0.00     0.041 A 
ATOM     83  F   UNL A   1      37.135  31.853  32.617  1.00  0.00    -0.206 F 
ATOM     84  C   UNL A   1      34.518  33.533  30.769  1.00  0.00     0.022 A 
BRANCH  81  85
ATOM     85  S   UNL A   1      34.294  34.505  28.166  1.00  0.00     0.124 S 
ATOM     86  O   UNL A   1      34.206  35.830  28.767  1.00  0.00    -0.237 OA
ATOM     87  O   UNL A   1      35.253  34.356  27.077  1.00  0.00    -0.237 OA
ATOM     88  O   UNL A   1      33.018  33.821  27.969  1.00  0.00    -0.744 OA
ENDBRANCH  81  85
ENDBRANCH  54  78
BRANCH  66  89
ATOM     89  C   UNL A   1      43.305  35.296  31.363  1.00  0.00     0.023 A 
ATOM     90  C   UNL A   1      43.351  35.709  32.706  1.00  0.00     0.031 A 
ATOM     91  C   UNL A   1      43.621  36.243  30.372  1.00  0.00     0.131 A 
ATOM     92  C   UNL A   1      43.622  37.051  33.015  1.00  0.00     0.055 A 
ATOM     93  C   UNL A   1      43.967  37.556  30.690  1.00  0.00     0.041 A 
ATOM     94  F   UNL A   1      43.594  35.908  29.071  1.00  0.00    -0.206 F 
ATOM     95  C   UNL A   1      43.948  37.972  32.017  1.00  0.00     0.022 A 
BRANCH  92  96
ATOM     96  S   UNL A   1      43.408  37.607  34.728  1.00  0.00     0.124 S 
ATOM     97  O   UNL A   1      43.528  39.055  34.595  1.00  0.00    -0.237 OA
ATOM     98  O   UNL A   1      42.077  37.105  35.054  1.00  0.00    -0.237 OA
ATOM     99  O   UNL A   1      44.507  36.957  35.440  1.00  0.00    -0.744 OA
ENDBRANCH  92  96
ENDBRANCH  66  89
ENDBRANCH  40  41
ENDBRANCH  32  35
ENDBRANCH  30  31
ENDBRANCH   1  30
TORSDOF 16
ENDMDL
MODEL 3
REMARK VINA RESULT:     -12.4      4.296      9.482
REMARK SMILES O=C(NCCCCNC(=O)c1ccc(-c2c3nc(c(-c4cc(S(=O)(=O)[O-])ccc4F)c4ccc([nH]4)c(-c4cc(S(=O)(=O)[O-])ccc4F)c4nc(c(-c5cc(S(=O)(=O)[O-])ccc5F)c5ccc2[nH]5)C=C4)C=C3)cc1)C1=N[C@@H]2NC=NN2[C@@H]([C@H]2C=NN=C2c2ccc(F)cc2)C1
REMARK SMILES IDX 6 1 5 2 4 3 3 4 1 5 2 6 74 8 75 9 94 10 76 11 81 12 77 13
REMARK SMILES IDX 80 14 78 15 79 17 82 18 83 19 86 20 84 21 85 22 87 23 88 24
REMARK SMILES IDX 93 25 89 26 92 27 90 28 91 29 7 30 8 31 9 32 10 34 11 35
REMARK SMILES IDX 12 36 73 37 13 38 72 39 14 40 15 41 16 42 66 43 17 44 71 45
REMARK SMILES IDX 65 46 67 47 18 48 70 49 64 50 63 51 19 53 51 54 31 55 50 56
REMARK SMILES IDX 32 57 35 58 49 59 68 60 33 61 34 62 48 64 69 65 36 66 20 67
REMARK SMILES IDX 21 68 29 69 22 70 28 71 30 72 27 73 23 74 24 75 25 76 26 77
REMARK SMILES IDX 52 78 53 79 61 80 54 81 60 82 62 83 59 84 55 85 56 86 57 87
REMARK SMILES IDX 58 88 37 89 38 90 46 91 39 92 45 93 47 94 44 95 40 96 41 97
REMARK SMILES IDX 42 98 43 99
REMARK H PARENT 3 7 77 16 8 33 67 52 35 63
REMARK Flexibility Score: inf
ROOT
ATOM      1  C   UNL A   1      35.620  23.440  25.169  1.00  0.00     0.023 C 
ENDROOT
BRANCH   1   2
ATOM      2  C   UNL A   1      34.773  22.203  24.900  1.00  0.00     0.023 C 
BRANCH   2   3
ATOM      3  C   UNL A   1      33.403  22.403  24.261  1.00  0.00     0.116 C 
BRANCH   3   4
ATOM      4  N   UNL A   1      33.367  22.456  22.815  1.00  0.00    -0.351 N 
ATOM      5  O   UNL A   1      33.574  23.377  20.770  1.00  0.00    -0.268 OA
ATOM      6  C   UNL A   1      33.403  23.548  21.974  1.00  0.00     0.265 C 
ATOM      7  H   UNL A   1      33.309  21.582  22.365  1.00  0.00     0.163 HD
BRANCH   6   8
ATOM      8  C   UNL A   1      33.125  24.980  22.473  1.00  0.00     0.106 C 
ATOM      9  N   UNL A   1      33.716  25.927  21.829  1.00  0.00    -0.237 NA
ATOM     10  C   UNL A   1      32.266  25.196  23.687  1.00  0.00     0.090 C 
ATOM     11  C   UNL A   1      33.326  27.293  22.052  1.00  0.00     0.319 C 
ATOM     12  C   UNL A   1      32.098  26.676  24.023  1.00  0.00     0.127 C 
ATOM     13  N   UNL A   1      34.281  28.238  22.557  1.00  0.00    -0.335 N 
ATOM     14  N   UNL A   1      32.099  27.569  22.838  1.00  0.00    -0.249 NA
ATOM     15  C   UNL A   1      33.502  29.198  23.135  1.00  0.00     0.217 C 
ATOM     16  H   UNL A   1      35.263  28.203  22.501  1.00  0.00     0.165 HD
ATOM     17  N   UNL A   1      32.228  28.920  23.260  1.00  0.00    -0.164 NA
BRANCH  12  18
ATOM     18  C   UNL A   1      30.871  27.019  24.887  1.00  0.00     0.109 C 
ATOM     19  C   UNL A   1      29.939  25.876  25.106  1.00  0.00     0.120 C 
ATOM     20  C   UNL A   1      31.192  27.284  26.324  1.00  0.00     0.081 C 
ATOM     21  N   UNL A   1      29.763  25.594  26.356  1.00  0.00    -0.162 NA
ATOM     22  N   UNL A   1      30.570  26.481  27.133  1.00  0.00    -0.155 NA
BRANCH  20  23
ATOM     23  C   UNL A   1      32.198  28.278  26.731  1.00  0.00    -0.001 A 
ATOM     24  C   UNL A   1      31.862  29.629  26.886  1.00  0.00     0.013 A 
ATOM     25  C   UNL A   1      33.532  27.867  26.807  1.00  0.00     0.013 A 
ATOM     26  C   UNL A   1      32.873  30.576  27.051  1.00  0.00     0.040 A 
ATOM     27  C   UNL A   1      34.538  28.816  26.976  1.00  0.00     0.040 A 
ATOM     28  C   UNL A   1      34.201  30.161  27.081  1.00  0.00     0.123 A 
ATOM     29  F   UNL A   1      35.169  31.077  27.201  1.00  0.00    -0.207 F 
ENDBRANCH  20  23
ENDBRANCH  12  18
ENDBRANCH   6   8
ENDBRANCH   3   4
ENDBRANCH   2   3
ENDBRANCH   1   2
BRANCH   1  30
ATOM     30  C   UNL A   1      37.049  23.415  24.642  1.00  0.00     0.116 C 
BRANCH  30  31
ATOM     31  N   UNL A   1      37.897  22.438  25.304  1.00  0.00    -0.352 N 
ATOM     32  C   UNL A   1      38.966  22.611  26.157  1.00  0.00     0.251 C 
ATOM     33  H   UNL A   1      37.671  21.500  25.113  1.00  0.00     0.163 HD
ATOM     34  O   UNL A   1      39.615  21.631  26.502  1.00  0.00    -0.269 OA
BRANCH  32  35
ATOM     35  C   UNL A   1      39.358  23.962  26.632  1.00  0.00     0.039 A 
ATOM     36  C   UNL A   1      39.015  24.345  27.933  1.00  0.00     0.014 A 
ATOM     37  C   UNL A   1      40.031  24.865  25.807  1.00  0.00     0.014 A 
ATOM     38  C   UNL A   1      39.402  25.598  28.421  1.00  0.00     0.010 A 
ATOM     39  C   UNL A   1      40.503  26.071  26.325  1.00  0.00     0.010 A 
ATOM     40  C   UNL A   1      40.180  26.461  27.632  1.00  0.00    -0.014 A 
BRANCH  40  41
ATOM     41  C   UNL A   1      40.609  27.798  28.134  1.00  0.00     0.031 A 
ATOM     42  C   UNL A   1      42.078  28.142  28.179  1.00  0.00     0.074 A 
ATOM     43  C   UNL A   1      39.696  28.686  28.578  1.00  0.00     0.049 A 
ATOM     44  N   UNL A   1      42.666  29.212  28.653  1.00  0.00    -0.248 NA
ATOM     45  C   UNL A   1      43.011  27.135  27.650  1.00  0.00     0.031 C 
ATOM     46  C   UNL A   1      38.249  28.462  28.618  1.00  0.00     0.029 A 
ATOM     47  N   UNL A   1      39.846  29.954  29.085  1.00  0.00    -0.354 N 
ATOM     48  C   UNL A   1      44.030  29.004  28.478  1.00  0.00     0.074 A 
ATOM     49  C   UNL A   1      44.186  27.672  27.936  1.00  0.00     0.031 C 
ATOM     50  C   UNL A   1      37.646  29.564  29.097  1.00  0.00     0.029 A 
ATOM     51  C   UNL A   1      38.660  30.554  29.445  1.00  0.00     0.049 A 
ATOM     52  H   UNL A   1      40.722  30.392  29.183  1.00  0.00     0.167 HD
ATOM     53  C   UNL A   1      45.060  29.856  28.711  1.00  0.00     0.034 A 
ATOM     54  C   UNL A   1      38.419  31.758  30.003  1.00  0.00     0.034 A 
ATOM     55  C   UNL A   1      44.895  31.187  29.241  1.00  0.00     0.049 A 
ATOM     56  C   UNL A   1      39.587  32.676  30.283  1.00  0.00     0.074 A 
ATOM     57  C   UNL A   1      45.867  32.135  29.510  1.00  0.00     0.029 A 
ATOM     58  N   UNL A   1      43.677  31.764  29.576  1.00  0.00    -0.354 N 
ATOM     59  N   UNL A   1      40.870  32.469  30.089  1.00  0.00    -0.248 NA
ATOM     60  C   UNL A   1      39.272  34.000  30.835  1.00  0.00     0.031 C 
ATOM     61  C   UNL A   1      45.245  33.259  30.062  1.00  0.00     0.029 A 
ATOM     62  C   UNL A   1      43.876  33.050  30.056  1.00  0.00     0.049 A 
ATOM     63  H   UNL A   1      42.801  31.325  29.485  1.00  0.00     0.167 HD
ATOM     64  C   UNL A   1      41.504  33.657  30.445  1.00  0.00     0.074 A 
ATOM     65  C   UNL A   1      40.463  34.578  30.848  1.00  0.00     0.031 C 
ATOM     66  C   UNL A   1      42.827  33.963  30.440  1.00  0.00     0.034 A 
BRANCH  53  67
ATOM     67  C   UNL A   1      46.452  29.368  28.392  1.00  0.00     0.023 A 
ATOM     68  C   UNL A   1      47.222  28.675  29.345  1.00  0.00     0.031 A 
ATOM     69  C   UNL A   1      47.025  29.598  27.129  1.00  0.00     0.131 A 
ATOM     70  C   UNL A   1      48.539  28.298  29.044  1.00  0.00     0.055 A 
ATOM     71  C   UNL A   1      48.306  29.146  26.807  1.00  0.00     0.041 A 
ATOM     72  F   UNL A   1      46.350  30.275  26.185  1.00  0.00    -0.206 F 
ATOM     73  C   UNL A   1      49.076  28.502  27.771  1.00  0.00     0.022 A 
BRANCH  70  74
ATOM     74  S   UNL A   1      49.582  27.657  30.381  1.00  0.00     0.124 S 
ATOM     75  O   UNL A   1      49.064  28.389  31.534  1.00  0.00    -0.237 OA
ATOM     76  O   UNL A   1      49.296  26.228  30.349  1.00  0.00    -0.237 OA
ATOM     77  O   UNL A   1      50.934  28.032  29.970  1.00  0.00    -0.744 OA
ENDBRANCH  70  74
ENDBRANCH  53  67
BRANCH  54  78
ATOM     78  C   UNL A   1      37.028  32.180  30.354  1.00  0.00     0.023 A 
ATOM     79  C   UNL A   1      36.210  32.836  29.419  1.00  0.00     0.031 A 
ATOM     80  C   UNL A   1      36.530  32.021  31.660  1.00  0.00     0.131 A 
ATOM     81  C   UNL A   1      34.980  33.383  29.823  1.00  0.00     0.055 A 
ATOM     82  C   UNL A   1      35.275  32.499  32.037  1.00  0.00     0.041 A 
ATOM     83  F   UNL A   1      37.266  31.399  32.596  1.00  0.00    -0.206 F 
ATOM     84  C   UNL A   1      34.501  33.205  31.121  1.00  0.00     0.022 A 
BRANCH  81  85
ATOM     85  S   UNL A   1      34.087  34.458  28.665  1.00  0.00     0.124 S 
ATOM     86  O   UNL A   1      34.822  34.231  27.427  1.00  0.00    -0.237 OA
ATOM     87  O   UNL A   1      32.738  33.906  28.722  1.00  0.00    -0.237 OA
ATOM     88  O   UNL A   1      34.240  35.788  29.250  1.00  0.00    -0.744 OA
ENDBRANCH  81  85
ENDBRANCH  54  78
BRANCH  66  89
ATOM     89  C   UNL A   1      43.209  35.381  30.798  1.00  0.00     0.023 A 
ATOM     90  C   UNL A   1      43.356  36.385  29.824  1.00  0.00     0.031 A 
ATOM     91  C   UNL A   1      43.464  35.723  32.138  1.00  0.00     0.131 A 
ATOM     92  C   UNL A   1      43.826  37.654  30.195  1.00  0.00     0.055 A 
ATOM     93  C   UNL A   1      43.854  37.010  32.511  1.00  0.00     0.041 A 
ATOM     94  F   UNL A   1      43.341  34.807  33.113  1.00  0.00    -0.206 F 
ATOM     95  C   UNL A   1      44.058  37.978  31.534  1.00  0.00     0.022 A 
BRANCH  92  96
ATOM     96  S   UNL A   1      44.260  38.835  28.888  1.00  0.00     0.124 S 
ATOM     97  O   UNL A   1      43.882  40.109  29.490  1.00  0.00    -0.237 OA
ATOM     98  O   UNL A   1      45.693  38.606  28.726  1.00  0.00    -0.237 OA
ATOM     99  O   UNL A   1      43.435  38.414  27.757  1.00  0.00    -0.744 OA
ENDBRANCH  92  96
ENDBRANCH  66  89
ENDBRANCH  40  41
ENDBRANCH  32  35
ENDBRANCH  30  31
ENDBRANCH   1  30
TORSDOF 16
ENDMDL
