MODEL 1
REMARK VINA RESULT:     -12.2      0.000      0.000
REMARK SMILES CC1(C)CC[N@H+](CCC(=O)NCCCCNC(=O)c2ccc(-c3c4nc(c(-c5cc(S(=O)(=O)[O-])ccc5F)c5ccc([nH]5)c(-c5cc(S(=O)(=O)[O-])ccc5F)c5nc(c(-c6cc(S(=O)(=O)[O-])ccc6F)c6ccc3[nH]6)C=C5)C=C4)cc2)C1
REMARK SMILES IDX 14 1 13 2 12 3 11 4 9 5 10 6 8 8 7 9 6 10 1 11 2 12 3 13
REMARK SMILES IDX 4 14 82 15 5 16 15 18 16 19 17 20 18 22 19 23 20 24 81 25
REMARK SMILES IDX 21 26 80 27 22 28 23 29 24 30 74 31 25 32 79 33 73 34 75 35
REMARK SMILES IDX 26 36 78 37 72 38 71 39 27 41 59 42 39 43 58 44 40 45 43 46
REMARK SMILES IDX 57 47 76 48 41 49 42 50 56 52 77 53 44 54 28 55 29 56 37 57
REMARK SMILES IDX 30 58 36 59 38 60 35 61 31 62 32 63 33 64 34 65 60 66 61 67
REMARK SMILES IDX 69 68 62 69 68 70 70 71 67 72 63 73 64 74 65 75 66 76 45 77
REMARK SMILES IDX 46 78 54 79 47 80 53 81 55 82 52 83 48 84 49 85 50 86 51 87
REMARK H PARENT 11 7 6 17 16 21 75 40 43 51
REMARK Flexibility Score: inf
ROOT
ATOM      1  C   UNL A   1      36.042  22.246  24.407  1.00  0.00     0.023 C 
ENDROOT
BRANCH   1   2
ATOM      2  C   UNL A   1      34.323  21.790  24.148  1.00  0.00     0.023 C 
BRANCH   2   3
ATOM      3  C   UNL A   1      32.662  21.043  25.371  1.00  0.00     0.116 C 
BRANCH   3   4
ATOM      4  N   UNL A   1      31.464  21.736  26.101  1.00  0.00    -0.356 N 
ATOM      5  C   UNL A   1      31.522  22.870  26.862  1.00  0.00     0.225 C 
ATOM      6  O   UNL A   1      30.511  23.335  27.379  1.00  0.00    -0.275 OA
ATOM      7  H   UNL A   1      30.580  21.315  26.001  1.00  0.00     0.163 HD
BRANCH   5   8
ATOM      8  C   UNL A   1      32.870  23.516  26.968  1.00  0.00     0.161 C 
BRANCH   8   9
ATOM      9  C   UNL A   1      32.980  24.771  26.117  1.00  0.00     0.272 C 
BRANCH   9  10
ATOM     10  N   UNL A   1      31.851  25.690  26.028  1.00  0.00    -0.334 N 
ATOM     11  C   UNL A   1      28.892  27.573  23.445  1.00  0.00     0.017 C 
ATOM     12  C   UNL A   1      30.444  27.509  23.786  1.00  0.00     0.019 C 
ATOM     13  C   UNL A   1      30.964  27.846  22.312  1.00  0.00     0.017 C 
ATOM     14  C   UNL A   1      31.302  28.736  25.178  1.00  0.00     0.073 C 
ATOM     15  C   UNL A   1      30.818  25.646  24.430  1.00  0.00     0.268 C 
ATOM     16  C   UNL A   1      32.114  27.510  26.608  1.00  0.00     0.263 C 
ATOM     17  H   UNL A   1      31.291  25.247  26.757  1.00  0.00     0.348 HD
ENDBRANCH   9  10
ENDBRANCH   8   9
ENDBRANCH   5   8
ENDBRANCH   3   4
ENDBRANCH   2   3
ENDBRANCH   1   2
BRANCH   1  18
ATOM     18  C   UNL A   1      36.901  22.276  25.699  1.00  0.00     0.116 C 
BRANCH  18  19
ATOM     19  N   UNL A   1      37.994  21.339  25.755  1.00  0.00    -0.352 N 
ATOM     20  C   UNL A   1      39.275  21.542  26.204  1.00  0.00     0.251 C 
ATOM     21  H   UNL A   1      37.795  20.432  25.429  1.00  0.00     0.163 HD
ATOM     22  O   UNL A   1      40.122  20.662  26.091  1.00  0.00    -0.269 OA
BRANCH  20  23
ATOM     23  C   UNL A   1      39.638  22.870  26.718  1.00  0.00     0.039 A 
ATOM     24  C   UNL A   1      40.550  22.937  27.773  1.00  0.00     0.014 A 
ATOM     25  C   UNL A   1      39.143  24.027  26.116  1.00  0.00     0.014 A 
ATOM     26  C   UNL A   1      41.014  24.180  28.196  1.00  0.00     0.010 A 
ATOM     27  C   UNL A   1      39.649  25.264  26.508  1.00  0.00     0.010 A 
ATOM     28  C   UNL A   1      40.595  25.350  27.543  1.00  0.00    -0.014 A 
BRANCH  28  29
ATOM     29  C   UNL A   1      41.160  26.667  27.929  1.00  0.00     0.031 A 
ATOM     30  C   UNL A   1      42.591  26.996  27.611  1.00  0.00     0.074 A 
ATOM     31  C   UNL A   1      40.387  27.546  28.598  1.00  0.00     0.049 A 
ATOM     32  N   UNL A   1      43.271  28.079  27.884  1.00  0.00    -0.248 NA
ATOM     33  C   UNL A   1      43.366  25.956  26.918  1.00  0.00     0.031 C 
ATOM     34  C   UNL A   1      38.995  27.313  28.991  1.00  0.00     0.029 A 
ATOM     35  N   UNL A   1      40.655  28.807  29.068  1.00  0.00    -0.354 N 
ATOM     36  C   UNL A   1      44.554  27.852  27.400  1.00  0.00     0.074 A 
ATOM     37  C   UNL A   1      44.572  26.502  26.878  1.00  0.00     0.031 C 
ATOM     38  C   UNL A   1      38.525  28.405  29.613  1.00  0.00     0.029 A 
ATOM     39  C   UNL A   1      39.590  29.399  29.707  1.00  0.00     0.049 A 
ATOM     40  H   UNL A   1      41.529  29.247  28.959  1.00  0.00     0.167 HD
ATOM     41  C   UNL A   1      45.609  28.703  27.372  1.00  0.00     0.034 A 
ATOM     42  C   UNL A   1      39.487  30.602  30.305  1.00  0.00     0.034 A 
ATOM     43  C   UNL A   1      45.564  30.043  27.902  1.00  0.00     0.049 A 
ATOM     44  C   UNL A   1      40.685  31.517  30.295  1.00  0.00     0.074 A 
ATOM     45  C   UNL A   1      46.556  31.010  27.889  1.00  0.00     0.029 A 
ATOM     46  N   UNL A   1      44.473  30.607  28.554  1.00  0.00    -0.354 N 
ATOM     47  N   UNL A   1      41.877  31.311  29.780  1.00  0.00    -0.248 NA
ATOM     48  C   UNL A   1      40.526  32.829  30.935  1.00  0.00     0.031 C 
ATOM     49  C   UNL A   1      46.094  32.121  28.599  1.00  0.00     0.029 A 
ATOM     50  C   UNL A   1      44.780  31.890  28.977  1.00  0.00     0.049 A 
ATOM     51  H   UNL A   1      43.607  30.158  28.694  1.00  0.00     0.167 HD
ATOM     52  C   UNL A   1      42.595  32.483  30.003  1.00  0.00     0.074 A 
ATOM     53  C   UNL A   1      41.700  33.392  30.688  1.00  0.00     0.031 C 
ATOM     54  C   UNL A   1      43.875  32.782  29.665  1.00  0.00     0.034 A 
BRANCH  41  55
ATOM     55  C   UNL A   1      46.900  28.192  26.777  1.00  0.00     0.023 A 
ATOM     56  C   UNL A   1      47.138  28.221  25.391  1.00  0.00     0.031 A 
ATOM     57  C   UNL A   1      47.898  27.641  27.601  1.00  0.00     0.131 A 
ATOM     58  C   UNL A   1      48.301  27.640  24.866  1.00  0.00     0.055 A 
ATOM     59  C   UNL A   1      49.095  27.146  27.079  1.00  0.00     0.041 A 
ATOM     60  F   UNL A   1      47.722  27.563  28.930  1.00  0.00    -0.206 F 
ATOM     61  C   UNL A   1      49.295  27.127  25.702  1.00  0.00     0.022 A 
BRANCH  58  62
ATOM     62  S   UNL A   1      48.426  27.427  23.070  1.00  0.00     0.124 S 
ATOM     63  O   UNL A   1      48.327  25.975  22.937  1.00  0.00    -0.237 OA
ATOM     64  O   UNL A   1      47.285  28.192  22.580  1.00  0.00    -0.237 OA
ATOM     65  O   UNL A   1      49.737  27.986  22.748  1.00  0.00    -0.744 OA
ENDBRANCH  58  62
ENDBRANCH  41  55
BRANCH  42  66
ATOM     66  C   UNL A   1      38.213  31.013  30.966  1.00  0.00     0.023 A 
ATOM     67  C   UNL A   1      37.201  31.670  30.247  1.00  0.00     0.031 A 
ATOM     68  C   UNL A   1      38.003  30.789  32.338  1.00  0.00     0.131 A 
ATOM     69  C   UNL A   1      36.052  32.124  30.911  1.00  0.00     0.055 A 
ATOM     70  C   UNL A   1      36.832  31.190  32.983  1.00  0.00     0.041 A 
ATOM     71  F   UNL A   1      38.934  30.162  33.075  1.00  0.00    -0.206 F 
ATOM     72  C   UNL A   1      35.852  31.876  32.271  1.00  0.00     0.022 A 
BRANCH  69  73
ATOM     73  S   UNL A   1      34.857  33.133  29.990  1.00  0.00     0.124 S 
ATOM     74  O   UNL A   1      34.026  33.663  31.065  1.00  0.00    -0.237 OA
ATOM     75  O   UNL A   1      35.728  34.092  29.318  1.00  0.00    -0.237 OA
ATOM     76  O   UNL A   1      34.202  32.166  29.112  1.00  0.00    -0.744 OA
ENDBRANCH  69  73
ENDBRANCH  42  66
BRANCH  54  77
ATOM     77  C   UNL A   1      44.365  34.175  29.984  1.00  0.00     0.023 A 
ATOM     78  C   UNL A   1      44.163  35.253  29.106  1.00  0.00     0.031 A 
ATOM     79  C   UNL A   1      45.033  34.422  31.196  1.00  0.00     0.131 A 
ATOM     80  C   UNL A   1      44.668  36.521  29.432  1.00  0.00     0.055 A 
ATOM     81  C   UNL A   1      45.476  35.699  31.545  1.00  0.00     0.041 A 
ATOM     82  F   UNL A   1      45.256  33.428  32.071  1.00  0.00    -0.206 F 
ATOM     83  C   UNL A   1      45.305  36.755  30.654  1.00  0.00     0.022 A 
BRANCH  80  84
ATOM     84  S   UNL A   1      44.558  37.847  28.200  1.00  0.00     0.124 S 
ATOM     85  O   UNL A   1      44.668  37.107  26.948  1.00  0.00    -0.237 OA
ATOM     86  O   UNL A   1      43.250  38.430  28.483  1.00  0.00    -0.237 OA
ATOM     87  O   UNL A   1      45.699  38.705  28.515  1.00  0.00    -0.744 OA
ENDBRANCH  80  84
ENDBRANCH  54  77
ENDBRANCH  28  29
ENDBRANCH  20  23
ENDBRANCH  18  19
ENDBRANCH   1  18
TORSDOF 16
ENDMDL
MODEL 2
REMARK VINA RESULT:     -12.2      1.574      2.059
REMARK SMILES CC1(C)CC[N@H+](CCC(=O)NCCCCNC(=O)c2ccc(-c3c4nc(c(-c5cc(S(=O)(=O)[O-])ccc5F)c5ccc([nH]5)c(-c5cc(S(=O)(=O)[O-])ccc5F)c5nc(c(-c6cc(S(=O)(=O)[O-])ccc6F)c6ccc3[nH]6)C=C5)C=C4)cc2)C1
REMARK SMILES IDX 14 1 13 2 12 3 11 4 9 5 10 6 8 8 7 9 6 10 1 11 2 12 3 13
REMARK SMILES IDX 4 14 82 15 5 16 15 18 16 19 17 20 18 22 19 23 20 24 81 25
REMARK SMILES IDX 21 26 80 27 22 28 23 29 24 30 74 31 25 32 79 33 73 34 75 35
REMARK SMILES IDX 26 36 78 37 72 38 71 39 27 41 59 42 39 43 58 44 40 45 43 46
REMARK SMILES IDX 57 47 76 48 41 49 42 50 56 52 77 53 44 54 28 55 29 56 37 57
REMARK SMILES IDX 30 58 36 59 38 60 35 61 31 62 32 63 33 64 34 65 60 66 61 67
REMARK SMILES IDX 69 68 62 69 68 70 70 71 67 72 63 73 64 74 65 75 66 76 45 77
REMARK SMILES IDX 46 78 54 79 47 80 53 81 55 82 52 83 48 84 49 85 50 86 51 87
REMARK H PARENT 11 7 6 17 16 21 75 40 43 51
REMARK Flexibility Score: inf
ROOT
ATOM      1  C   UNL A   1      36.341  22.074  24.231  1.00  0.00     0.023 C 
ENDROOT
BRANCH   1   2
ATOM      2  C   UNL A   1      35.342  23.366  23.480  1.00  0.00     0.023 C 
BRANCH   2   3
ATOM      3  C   UNL A   1      33.347  23.531  22.583  1.00  0.00     0.116 C 
BRANCH   3   4
ATOM      4  N   UNL A   1      32.722  24.486  21.512  1.00  0.00    -0.356 N 
ATOM      5  C   UNL A   1      31.954  25.589  21.756  1.00  0.00     0.225 C 
ATOM      6  O   UNL A   1      31.526  26.277  20.834  1.00  0.00    -0.275 OA
ATOM      7  H   UNL A   1      32.901  24.272  20.568  1.00  0.00     0.163 HD
BRANCH   5   8
ATOM      8  C   UNL A   1      31.726  25.920  23.200  1.00  0.00     0.161 C 
BRANCH   8   9
ATOM      9  C   UNL A   1      31.243  27.348  23.399  1.00  0.00     0.272 C 
BRANCH   9  10
ATOM     10  N   UNL A   1      30.089  27.836  22.653  1.00  0.00    -0.334 N 
ATOM     11  C   UNL A   1      28.030  31.299  20.997  1.00  0.00     0.017 C 
ATOM     12  C   UNL A   1      28.444  30.577  22.353  1.00  0.00     0.019 C 
ATOM     13  C   UNL A   1      28.563  31.907  23.233  1.00  0.00     0.017 C 
ATOM     14  C   UNL A   1      27.244  29.191  23.256  1.00  0.00     0.073 C 
ATOM     15  C   UNL A   1      30.170  29.620  21.994  1.00  0.00     0.268 C 
ATOM     16  C   UNL A   1      28.331  27.455  23.347  1.00  0.00     0.263 C 
ATOM     17  H   UNL A   1      30.208  27.217  21.850  1.00  0.00     0.348 HD
ENDBRANCH   9  10
ENDBRANCH   8   9
ENDBRANCH   5   8
ENDBRANCH   3   4
ENDBRANCH   2   3
ENDBRANCH   1   2
BRANCH   1  18
ATOM     18  C   UNL A   1      37.060  22.016  25.603  1.00  0.00     0.116 C 
BRANCH  18  19
ATOM     19  N   UNL A   1      38.138  21.066  25.715  1.00  0.00    -0.352 N 
ATOM     20  C   UNL A   1      39.407  21.262  26.200  1.00  0.00     0.251 C 
ATOM     21  H   UNL A   1      37.937  20.155  25.403  1.00  0.00     0.163 HD
ATOM     22  O   UNL A   1      40.244  20.368  26.134  1.00  0.00    -0.269 OA
BRANCH  20  23
ATOM     23  C   UNL A   1      39.771  22.596  26.697  1.00  0.00     0.039 A 
ATOM     24  C   UNL A   1      40.710  22.677  27.728  1.00  0.00     0.014 A 
ATOM     25  C   UNL A   1      39.251  23.745  26.102  1.00  0.00     0.014 A 
ATOM     26  C   UNL A   1      41.175  23.926  28.131  1.00  0.00     0.010 A 
ATOM     27  C   UNL A   1      39.756  24.989  26.473  1.00  0.00     0.010 A 
ATOM     28  C   UNL A   1      40.729  25.089  27.483  1.00  0.00    -0.014 A 
BRANCH  28  29
ATOM     29  C   UNL A   1      41.292  26.413  27.846  1.00  0.00     0.031 A 
ATOM     30  C   UNL A   1      42.713  26.750  27.491  1.00  0.00     0.074 A 
ATOM     31  C   UNL A   1      40.530  27.290  28.529  1.00  0.00     0.049 A 
ATOM     32  N   UNL A   1      43.390  27.841  27.740  1.00  0.00    -0.248 NA
ATOM     33  C   UNL A   1      43.479  25.713  26.785  1.00  0.00     0.031 C 
ATOM     34  C   UNL A   1      39.149  27.048  28.958  1.00  0.00     0.029 A 
ATOM     35  N   UNL A   1      40.799  28.556  28.984  1.00  0.00    -0.354 N 
ATOM     36  C   UNL A   1      44.662  27.621  27.225  1.00  0.00     0.074 A 
ATOM     37  C   UNL A   1      44.679  26.268  26.712  1.00  0.00     0.031 C 
ATOM     38  C   UNL A   1      38.686  28.141  29.584  1.00  0.00     0.029 A 
ATOM     39  C   UNL A   1      39.745  29.143  29.645  1.00  0.00     0.049 A 
ATOM     40  H   UNL A   1      41.666  29.002  28.850  1.00  0.00     0.167 HD
ATOM     41  C   UNL A   1      45.710  28.480  27.166  1.00  0.00     0.034 A 
ATOM     42  C   UNL A   1      39.647  30.350  30.238  1.00  0.00     0.034 A 
ATOM     43  C   UNL A   1      45.667  29.824  27.688  1.00  0.00     0.049 A 
ATOM     44  C   UNL A   1      40.837  31.274  30.193  1.00  0.00     0.074 A 
ATOM     45  C   UNL A   1      46.650  30.798  27.644  1.00  0.00     0.029 A 
ATOM     46  N   UNL A   1      44.588  30.383  28.364  1.00  0.00    -0.354 N 
ATOM     47  N   UNL A   1      42.018  31.074  29.649  1.00  0.00    -0.248 NA
ATOM     48  C   UNL A   1      40.683  32.589  30.827  1.00  0.00     0.031 C 
ATOM     49  C   UNL A   1      46.197  31.910  28.359  1.00  0.00     0.029 A 
ATOM     50  C   UNL A   1      44.895  31.671  28.771  1.00  0.00     0.049 A 
ATOM     51  H   UNL A   1      43.729  29.928  28.527  1.00  0.00     0.167 HD
ATOM     52  C   UNL A   1      42.732  32.253  29.847  1.00  0.00     0.074 A 
ATOM     53  C   UNL A   1      41.846  33.160  30.548  1.00  0.00     0.031 C 
ATOM     54  C   UNL A   1      44.000  32.560  29.475  1.00  0.00     0.034 A 
BRANCH  41  55
ATOM     55  C   UNL A   1      46.990  27.975  26.542  1.00  0.00     0.023 A 
ATOM     56  C   UNL A   1      47.240  28.102  25.164  1.00  0.00     0.031 A 
ATOM     57  C   UNL A   1      47.963  27.334  27.329  1.00  0.00     0.131 A 
ATOM     58  C   UNL A   1      48.390  27.527  24.604  1.00  0.00     0.055 A 
ATOM     59  C   UNL A   1      49.149  26.842  26.778  1.00  0.00     0.041 A 
ATOM     60  F   UNL A   1      47.773  27.161  28.647  1.00  0.00    -0.206 F 
ATOM     61  C   UNL A   1      49.361  26.921  25.406  1.00  0.00     0.022 A 
BRANCH  58  62
ATOM     62  S   UNL A   1      48.524  27.445  22.797  1.00  0.00     0.124 S 
ATOM     63  O   UNL A   1      49.796  28.127  22.565  1.00  0.00    -0.237 OA
ATOM     64  O   UNL A   1      48.514  26.009  22.544  1.00  0.00    -0.237 OA
ATOM     65  O   UNL A   1      47.344  28.169  22.333  1.00  0.00    -0.744 OA
ENDBRANCH  58  62
ENDBRANCH  41  55
BRANCH  42  66
ATOM     66  C   UNL A   1      38.387  30.754  30.928  1.00  0.00     0.023 A 
ATOM     67  C   UNL A   1      37.360  31.415  30.234  1.00  0.00     0.031 A 
ATOM     68  C   UNL A   1      38.205  30.522  32.302  1.00  0.00     0.131 A 
ATOM     69  C   UNL A   1      36.224  31.863  30.925  1.00  0.00     0.055 A 
ATOM     70  C   UNL A   1      37.047  30.917  32.974  1.00  0.00     0.041 A 
ATOM     71  F   UNL A   1      39.152  29.890  33.016  1.00  0.00    -0.206 F 
ATOM     72  C   UNL A   1      36.052  31.606  32.287  1.00  0.00     0.022 A 
BRANCH  69  73
ATOM     73  S   UNL A   1      35.010  32.878  30.036  1.00  0.00     0.124 S 
ATOM     74  O   UNL A   1      34.133  33.309  31.119  1.00  0.00    -0.237 OA
ATOM     75  O   UNL A   1      35.855  33.910  29.444  1.00  0.00    -0.237 OA
ATOM     76  O   UNL A   1      34.415  31.940  29.085  1.00  0.00    -0.744 OA
ENDBRANCH  69  73
ENDBRANCH  42  66
BRANCH  54  77
ATOM     77  C   UNL A   1      44.486  33.959  29.773  1.00  0.00     0.023 A 
ATOM     78  C   UNL A   1      44.273  35.026  28.884  1.00  0.00     0.031 A 
ATOM     79  C   UNL A   1      45.163  34.224  30.977  1.00  0.00     0.131 A 
ATOM     80  C   UNL A   1      44.775  36.300  29.190  1.00  0.00     0.055 A 
ATOM     81  C   UNL A   1      45.603  35.507  31.306  1.00  0.00     0.041 A 
ATOM     82  F   UNL A   1      45.398  33.242  31.861  1.00  0.00    -0.206 F 
ATOM     83  C   UNL A   1      45.420  36.551  30.404  1.00  0.00     0.022 A 
BRANCH  80  84
ATOM     84  S   UNL A   1      44.649  37.610  27.943  1.00  0.00     0.124 S 
ATOM     85  O   UNL A   1      43.865  36.959  26.898  1.00  0.00    -0.237 OA
ATOM     86  O   UNL A   1      43.973  38.676  28.675  1.00  0.00    -0.237 OA
ATOM     87  O   UNL A   1      46.041  37.886  27.592  1.00  0.00    -0.744 OA
ENDBRANCH  80  84
ENDBRANCH  54  77
ENDBRANCH  28  29
ENDBRANCH  20  23
ENDBRANCH  18  19
ENDBRANCH   1  18
TORSDOF 16
ENDMDL
MODEL 3
REMARK VINA RESULT:     -12.0      4.967     10.325
REMARK SMILES CC1(C)CC[N@H+](CCC(=O)NCCCCNC(=O)c2ccc(-c3c4nc(c(-c5cc(S(=O)(=O)[O-])ccc5F)c5ccc([nH]5)c(-c5cc(S(=O)(=O)[O-])ccc5F)c5nc(c(-c6cc(S(=O)(=O)[O-])ccc6F)c6ccc3[nH]6)C=C5)C=C4)cc2)C1
REMARK SMILES IDX 14 1 13 2 12 3 11 4 9 5 10 6 8 8 7 9 6 10 1 11 2 12 3 13
REMARK SMILES IDX 4 14 82 15 5 16 15 18 16 19 17 20 18 22 19 23 20 24 81 25
REMARK SMILES IDX 21 26 80 27 22 28 23 29 24 30 74 31 25 32 79 33 73 34 75 35
REMARK SMILES IDX 26 36 78 37 72 38 71 39 27 41 59 42 39 43 58 44 40 45 43 46
REMARK SMILES IDX 57 47 76 48 41 49 42 50 56 52 77 53 44 54 28 55 29 56 37 57
REMARK SMILES IDX 30 58 36 59 38 60 35 61 31 62 32 63 33 64 34 65 60 66 61 67
REMARK SMILES IDX 69 68 62 69 68 70 70 71 67 72 63 73 64 74 65 75 66 76 45 77
REMARK SMILES IDX 46 78 54 79 47 80 53 81 55 82 52 83 48 84 49 85 50 86 51 87
REMARK H PARENT 11 7 6 17 16 21 75 40 43 51
REMARK Flexibility Score: inf
ROOT
ATOM      1  C   UNL A   1      31.421  29.950  25.524  1.00  0.00     0.023 C 
ENDROOT
BRANCH   1   2
ATOM      2  C   UNL A   1      31.372  28.321  24.768  1.00  0.00     0.023 C 
BRANCH   2   3
ATOM      3  C   UNL A   1      30.801  26.290  25.372  1.00  0.00     0.116 C 
BRANCH   3   4
ATOM      4  N   UNL A   1      31.189  25.377  26.582  1.00  0.00    -0.356 N 
ATOM      5  C   UNL A   1      31.150  24.011  26.613  1.00  0.00     0.225 C 
ATOM      6  O   UNL A   1      31.491  23.393  27.617  1.00  0.00    -0.275 OA
ATOM      7  H   UNL A   1      31.491  25.829  27.401  1.00  0.00     0.163 HD
BRANCH   5   8
ATOM      8  C   UNL A   1      30.723  23.340  25.343  1.00  0.00     0.161 C 
BRANCH   8   9
ATOM      9  C   UNL A   1      31.768  22.366  24.822  1.00  0.00     0.272 C 
BRANCH   9  10
ATOM     10  N   UNL A   1      33.082  22.304  25.452  1.00  0.00    -0.334 N 
ATOM     11  C   UNL A   1      37.234  23.617  25.338  1.00  0.00     0.017 C 
ATOM     12  C   UNL A   1      36.147  22.725  24.593  1.00  0.00     0.019 C 
ATOM     13  C   UNL A   1      36.750  22.903  23.122  1.00  0.00     0.017 C 
ATOM     14  C   UNL A   1      35.862  20.753  25.049  1.00  0.00     0.073 C 
ATOM     15  C   UNL A   1      34.369  23.598  24.910  1.00  0.00     0.268 C 
ATOM     16  C   UNL A   1      33.911  20.575  25.655  1.00  0.00     0.263 C 
ATOM     17  H   UNL A   1      32.769  22.571  26.386  1.00  0.00     0.348 HD
ENDBRANCH   9  10
ENDBRANCH   8   9
ENDBRANCH   5   8
ENDBRANCH   3   4
ENDBRANCH   2   3
ENDBRANCH   1   2
BRANCH   1  18
ATOM     18  C   UNL A   1      32.296  30.508  26.678  1.00  0.00     0.116 C 
BRANCH  18  19
ATOM     19  N   UNL A   1      32.263  31.936  26.866  1.00  0.00    -0.352 N 
ATOM     20  C   UNL A   1      33.200  32.745  27.458  1.00  0.00     0.251 C 
ATOM     21  H   UNL A   1      31.461  32.393  26.523  1.00  0.00     0.163 HD
ATOM     22  O   UNL A   1      32.974  33.938  27.630  1.00  0.00    -0.269 OA
BRANCH  20  23
ATOM     23  C   UNL A   1      34.429  32.131  27.980  1.00  0.00     0.039 A 
ATOM     24  C   UNL A   1      35.556  32.943  28.122  1.00  0.00     0.014 A 
ATOM     25  C   UNL A   1      34.441  30.798  28.392  1.00  0.00     0.014 A 
ATOM     26  C   UNL A   1      36.695  32.427  28.736  1.00  0.00     0.010 A 
ATOM     27  C   UNL A   1      35.564  30.303  29.050  1.00  0.00     0.010 A 
ATOM     28  C   UNL A   1      36.695  31.115  29.236  1.00  0.00    -0.014 A 
BRANCH  28  29
ATOM     29  C   UNL A   1      37.873  30.594  29.974  1.00  0.00     0.031 A 
ATOM     30  C   UNL A   1      38.151  31.060  31.375  1.00  0.00     0.074 A 
ATOM     31  C   UNL A   1      38.707  29.730  29.360  1.00  0.00     0.049 A 
ATOM     32  N   UNL A   1      39.137  30.739  32.172  1.00  0.00    -0.248 NA
ATOM     33  C   UNL A   1      37.210  32.035  31.943  1.00  0.00     0.031 C 
ATOM     34  C   UNL A   1      38.551  29.243  27.987  1.00  0.00     0.029 A 
ATOM     35  N   UNL A   1      39.848  29.110  29.802  1.00  0.00    -0.354 N 
ATOM     36  C   UNL A   1      38.938  31.474  33.334  1.00  0.00     0.074 A 
ATOM     37  C   UNL A   1      37.775  32.307  33.109  1.00  0.00     0.031 C 
ATOM     38  C   UNL A   1      39.540  28.378  27.713  1.00  0.00     0.029 A 
ATOM     39  C   UNL A   1      40.427  28.282  28.868  1.00  0.00     0.049 A 
ATOM     40  H   UNL A   1      40.219  29.246  30.704  1.00  0.00     0.167 HD
ATOM     41  C   UNL A   1      39.647  31.437  34.490  1.00  0.00     0.034 A 
ATOM     42  C   UNL A   1      41.548  27.536  28.934  1.00  0.00     0.034 A 
ATOM     43  C   UNL A   1      40.804  30.600  34.686  1.00  0.00     0.049 A 
ATOM     44  C   UNL A   1      42.341  27.540  30.216  1.00  0.00     0.074 A 
ATOM     45  C   UNL A   1      41.573  30.445  35.827  1.00  0.00     0.029 A 
ATOM     46  N   UNL A   1      41.371  29.782  33.715  1.00  0.00    -0.354 N 
ATOM     47  N   UNL A   1      42.107  28.197  31.331  1.00  0.00    -0.248 NA
ATOM     48  C   UNL A   1      43.542  26.696  30.258  1.00  0.00     0.031 C 
ATOM     49  C   UNL A   1      42.645  29.601  35.522  1.00  0.00     0.029 A 
ATOM     50  C   UNL A   1      42.497  29.152  34.219  1.00  0.00     0.049 A 
ATOM     51  H   UNL A   1      41.021  29.667  32.801  1.00  0.00     0.167 HD
ATOM     52  C   UNL A   1      43.111  27.816  32.216  1.00  0.00     0.074 A 
ATOM     53  C   UNL A   1      43.945  26.865  31.509  1.00  0.00     0.031 C 
ATOM     54  C   UNL A   1      43.320  28.209  33.497  1.00  0.00     0.034 A 
BRANCH  41  55
ATOM     55  C   UNL A   1      39.203  32.350  35.609  1.00  0.00     0.023 A 
ATOM     56  C   UNL A   1      39.639  33.685  35.690  1.00  0.00     0.031 A 
ATOM     57  C   UNL A   1      38.353  31.875  36.624  1.00  0.00     0.131 A 
ATOM     58  C   UNL A   1      39.292  34.470  36.799  1.00  0.00     0.055 A 
ATOM     59  C   UNL A   1      37.939  32.690  37.679  1.00  0.00     0.041 A 
ATOM     60  F   UNL A   1      37.921  30.604  36.615  1.00  0.00    -0.206 F 
ATOM     61  C   UNL A   1      38.422  33.991  37.782  1.00  0.00     0.022 A 
BRANCH  58  62
ATOM     62  S   UNL A   1      40.117  36.070  37.018  1.00  0.00     0.124 S 
ATOM     63  O   UNL A   1      41.493  35.658  37.286  1.00  0.00    -0.237 OA
ATOM     64  O   UNL A   1      39.883  36.724  35.735  1.00  0.00    -0.237 OA
ATOM     65  O   UNL A   1      39.420  36.663  38.157  1.00  0.00    -0.744 OA
ENDBRANCH  58  62
ENDBRANCH  41  55
BRANCH  42  66
ATOM     66  C   UNL A   1      41.992  26.731  27.758  1.00  0.00     0.023 A 
ATOM     67  C   UNL A   1      41.847  25.335  27.740  1.00  0.00     0.031 A 
ATOM     68  C   UNL A   1      42.606  27.342  26.651  1.00  0.00     0.131 A 
ATOM     69  C   UNL A   1      42.353  24.593  26.661  1.00  0.00     0.055 A 
ATOM     70  C   UNL A   1      43.054  26.606  25.553  1.00  0.00     0.041 A 
ATOM     71  F   UNL A   1      42.767  28.675  26.613  1.00  0.00    -0.206 F 
ATOM     72  C   UNL A   1      42.942  25.219  25.560  1.00  0.00     0.022 A 
BRANCH  69  73
ATOM     73  S   UNL A   1      42.318  22.781  26.760  1.00  0.00     0.124 S 
ATOM     74  O   UNL A   1      43.651  22.432  26.282  1.00  0.00    -0.237 OA
ATOM     75  O   UNL A   1      42.066  22.561  28.180  1.00  0.00    -0.237 OA
ATOM     76  O   UNL A   1      41.219  22.414  25.870  1.00  0.00    -0.744 OA
ENDBRANCH  69  73
ENDBRANCH  42  66
BRANCH  54  77
ATOM     77  C   UNL A   1      44.469  27.566  34.237  1.00  0.00     0.023 A 
ATOM     78  C   UNL A   1      44.346  26.309  34.854  1.00  0.00     0.031 A 
ATOM     79  C   UNL A   1      45.711  28.222  34.312  1.00  0.00     0.131 A 
ATOM     80  C   UNL A   1      45.432  25.769  35.560  1.00  0.00     0.055 A 
ATOM     81  C   UNL A   1      46.807  27.651  34.959  1.00  0.00     0.041 A 
ATOM     82  F   UNL A   1      45.884  29.426  33.743  1.00  0.00    -0.206 F 
ATOM     83  C   UNL A   1      46.667  26.423  35.598  1.00  0.00     0.022 A 
BRANCH  80  84
ATOM     84  S   UNL A   1      45.187  24.239  36.500  1.00  0.00     0.124 S 
ATOM     85  O   UNL A   1      43.954  23.720  35.918  1.00  0.00    -0.237 OA
ATOM     86  O   UNL A   1      46.401  23.486  36.196  1.00  0.00    -0.237 OA
ATOM     87  O   UNL A   1      45.075  24.699  37.883  1.00  0.00    -0.744 OA
ENDBRANCH  80  84
ENDBRANCH  54  77
ENDBRANCH  28  29
ENDBRANCH  20  23
ENDBRANCH  18  19
ENDBRANCH   1  18
TORSDOF 16
ENDMDL
