MODEL 1
REMARK VINA RESULT:     -13.2      0.000      0.000
REMARK SMILES Cc1ccc(F)cc1-c1ccc(F)cc1C(=O)NCCCCNC(=O)c1ccc(-c2c3nc(c(-c4cc(S(=O)(=O)[O-])ccc4F)c4ccc([nH]4)c(-c4cc(S(=O)(=O)[O-])ccc4F)c4nc(c(-c5cc(S(=O)(=O)[O-])ccc5F)c5ccc2[nH]5)C=C4)C=C3)cc1
REMARK SMILES IDX 21 1 20 2 19 3 18 4 16 5 17 6 15 8 9 9 10 10 11 11 14 12
REMARK SMILES IDX 12 13 13 14 8 15 1 16 2 17 3 18 4 19 7 20 5 21 6 22 22 23
REMARK SMILES IDX 23 24 24 25 25 27 26 28 27 29 88 30 28 31 87 32 29 33 30 34
REMARK SMILES IDX 31 35 81 36 32 37 86 38 80 39 82 40 33 41 85 42 79 43 78 44
REMARK SMILES IDX 34 46 66 47 46 48 65 49 47 50 50 51 64 52 83 53 48 54 49 55
REMARK SMILES IDX 63 57 84 58 51 59 35 60 36 61 44 62 37 63 43 64 45 65 42 66
REMARK SMILES IDX 38 67 39 68 40 69 41 70 67 71 68 72 76 73 69 74 75 75 77 76
REMARK SMILES IDX 74 77 70 78 71 79 72 80 73 81 52 82 53 83 61 84 54 85 60 86
REMARK SMILES IDX 62 87 59 88 55 89 56 90 57 91 58 92
REMARK H PARENT 18 7 23 26 82 45 50 56
REMARK Flexibility Score: inf
ROOT
ATOM      1  C   UNL A   1      35.580  21.406  25.517  1.00  0.00     0.023 C 
ENDROOT
BRANCH   1   2
ATOM      2  C   UNL A   1      35.112  22.302  26.663  1.00  0.00     0.023 C 
BRANCH   2   3
ATOM      3  C   UNL A   1      34.020  21.753  27.569  1.00  0.00     0.116 C 
BRANCH   3   4
ATOM      4  N   UNL A   1      32.852  22.575  27.741  1.00  0.00    -0.352 N 
ATOM      5  C   UNL A   1      31.852  22.867  26.846  1.00  0.00     0.252 C 
ATOM      6  O   UNL A   1      30.886  23.512  27.258  1.00  0.00    -0.269 OA
ATOM      7  H   UNL A   1      32.756  22.988  28.629  1.00  0.00     0.163 HD
BRANCH   5   8
ATOM      8  C   UNL A   1      31.895  22.545  25.385  1.00  0.00     0.050 A 
ATOM      9  C   UNL A   1      31.942  23.452  24.297  1.00  0.00    -0.005 A 
ATOM     10  C   UNL A   1      32.141  22.925  22.995  1.00  0.00     0.012 A 
ATOM     11  C   UNL A   1      32.267  21.557  22.764  1.00  0.00     0.040 A 
ATOM     12  C   UNL A   1      32.033  21.163  25.129  1.00  0.00     0.053 A 
ATOM     13  C   UNL A   1      32.208  20.687  23.837  1.00  0.00     0.124 A 
ATOM     14  F   UNL A   1      32.342  19.372  23.624  1.00  0.00    -0.207 F 
BRANCH   9  15
ATOM     15  C   UNL A   1      31.849  24.920  24.397  1.00  0.00    -0.012 A 
ATOM     16  C   UNL A   1      34.349  25.183  25.006  1.00  0.00     0.045 C 
ATOM     17  C   UNL A   1      32.961  25.730  24.764  1.00  0.00    -0.043 A 
ATOM     18  C   UNL A   1      32.816  27.130  24.815  1.00  0.00     0.007 A 
ATOM     19  C   UNL A   1      31.591  27.728  24.533  1.00  0.00     0.039 A 
ATOM     20  C   UNL A   1      30.617  25.548  24.140  1.00  0.00     0.048 A 
ATOM     21  C   UNL A   1      30.502  26.933  24.208  1.00  0.00     0.123 A 
ATOM     22  F   UNL A   1      29.321  27.506  23.943  1.00  0.00    -0.207 F 
ENDBRANCH   9  15
ENDBRANCH   5   8
ENDBRANCH   3   4
ENDBRANCH   2   3
ENDBRANCH   1   2
BRANCH   1  23
ATOM     23  C   UNL A   1      36.908  21.739  24.838  1.00  0.00     0.116 C 
BRANCH  23  24
ATOM     24  N   UNL A   1      37.968  20.760  25.030  1.00  0.00    -0.352 N 
ATOM     25  C   UNL A   1      39.120  20.821  25.787  1.00  0.00     0.251 C 
ATOM     26  H   UNL A   1      37.841  19.916  24.540  1.00  0.00     0.163 HD
ATOM     27  O   UNL A   1      39.865  19.849  25.828  1.00  0.00    -0.269 OA
BRANCH  25  28
ATOM     28  C   UNL A   1      39.493  22.077  26.484  1.00  0.00     0.039 A 
ATOM     29  C   UNL A   1      40.534  22.034  27.417  1.00  0.00     0.014 A 
ATOM     30  C   UNL A   1      38.883  23.295  26.181  1.00  0.00     0.014 A 
ATOM     31  C   UNL A   1      41.060  23.226  27.926  1.00  0.00     0.010 A 
ATOM     32  C   UNL A   1      39.458  24.486  26.626  1.00  0.00     0.010 A 
ATOM     33  C   UNL A   1      40.582  24.464  27.467  1.00  0.00    -0.014 A 
BRANCH  33  34
ATOM     34  C   UNL A   1      41.298  25.733  27.774  1.00  0.00     0.031 A 
ATOM     35  C   UNL A   1      40.636  26.817  28.576  1.00  0.00     0.074 A 
ATOM     36  C   UNL A   1      42.523  25.944  27.246  1.00  0.00     0.049 A 
ATOM     37  N   UNL A   1      41.051  28.034  28.820  1.00  0.00    -0.248 NA
ATOM     38  C   UNL A   1      39.322  26.501  29.157  1.00  0.00     0.031 C 
ATOM     39  C   UNL A   1      43.263  24.990  26.416  1.00  0.00     0.029 A 
ATOM     40  N   UNL A   1      43.360  27.030  27.322  1.00  0.00    -0.354 N 
ATOM     41  C   UNL A   1      40.044  28.637  29.565  1.00  0.00     0.074 A 
ATOM     42  C   UNL A   1      38.982  27.661  29.701  1.00  0.00     0.031 C 
ATOM     43  C   UNL A   1      44.453  25.519  26.089  1.00  0.00     0.029 A 
ATOM     44  C   UNL A   1      44.544  26.866  26.639  1.00  0.00     0.049 A 
ATOM     45  H   UNL A   1      43.134  27.850  27.818  1.00  0.00     0.167 HD
ATOM     46  C   UNL A   1      40.014  29.884  30.098  1.00  0.00     0.034 A 
ATOM     47  C   UNL A   1      45.581  27.707  26.460  1.00  0.00     0.034 A 
ATOM     48  C   UNL A   1      41.083  30.844  29.979  1.00  0.00     0.049 A 
ATOM     49  C   UNL A   1      45.524  29.085  27.059  1.00  0.00     0.074 A 
ATOM     50  C   UNL A   1      41.160  32.119  30.515  1.00  0.00     0.029 A 
ATOM     51  N   UNL A   1      42.265  30.636  29.282  1.00  0.00    -0.354 N 
ATOM     52  N   UNL A   1      44.557  29.641  27.749  1.00  0.00    -0.248 NA
ATOM     53  C   UNL A   1      46.694  29.950  26.851  1.00  0.00     0.031 C 
ATOM     54  C   UNL A   1      42.367  32.696  30.108  1.00  0.00     0.029 A 
ATOM     55  C   UNL A   1      43.069  31.762  29.365  1.00  0.00     0.049 A 
ATOM     56  H   UNL A   1      42.499  29.809  28.801  1.00  0.00     0.167 HD
ATOM     57  C   UNL A   1      45.010  30.915  28.073  1.00  0.00     0.074 A 
ATOM     58  C   UNL A   1      46.337  31.046  27.506  1.00  0.00     0.031 C 
ATOM     59  C   UNL A   1      44.383  31.885  28.783  1.00  0.00     0.034 A 
BRANCH  46  60
ATOM     60  C   UNL A   1      38.771  30.285  30.846  1.00  0.00     0.023 A 
ATOM     61  C   UNL A   1      37.729  30.982  30.214  1.00  0.00     0.031 A 
ATOM     62  C   UNL A   1      38.626  29.965  32.207  1.00  0.00     0.131 A 
ATOM     63  C   UNL A   1      36.609  31.386  30.955  1.00  0.00     0.055 A 
ATOM     64  C   UNL A   1      37.479  30.313  32.925  1.00  0.00     0.041 A 
ATOM     65  F   UNL A   1      39.598  29.313  32.864  1.00  0.00    -0.206 F 
ATOM     66  C   UNL A   1      36.467  31.036  32.301  1.00  0.00     0.022 A 
BRANCH  63  67
ATOM     67  S   UNL A   1      35.376  32.450  30.158  1.00  0.00     0.124 S 
ATOM     68  O   UNL A   1      34.371  32.572  31.212  1.00  0.00    -0.237 OA
ATOM     69  O   UNL A   1      36.139  33.657  29.861  1.00  0.00    -0.237 OA
ATOM     70  O   UNL A   1      34.958  31.674  28.992  1.00  0.00    -0.744 OA
ENDBRANCH  63  67
ENDBRANCH  46  60
BRANCH  47  71
ATOM     71  C   UNL A   1      46.762  27.273  25.666  1.00  0.00     0.023 A 
ATOM     72  C   UNL A   1      46.933  27.703  24.340  1.00  0.00     0.031 A 
ATOM     73  C   UNL A   1      47.735  26.425  26.220  1.00  0.00     0.131 A 
ATOM     74  C   UNL A   1      48.042  27.262  23.602  1.00  0.00     0.055 A 
ATOM     75  C   UNL A   1      48.854  26.015  25.493  1.00  0.00     0.041 A 
ATOM     76  F   UNL A   1      47.621  25.999  27.488  1.00  0.00    -0.206 F 
ATOM     77  C   UNL A   1      49.009  26.431  24.174  1.00  0.00     0.022 A 
BRANCH  74  78
ATOM     78  S   UNL A   1      48.197  27.779  21.871  1.00  0.00     0.124 S 
ATOM     79  O   UNL A   1      48.470  26.509  21.206  1.00  0.00    -0.237 OA
ATOM     80  O   UNL A   1      46.890  28.374  21.609  1.00  0.00    -0.237 OA
ATOM     81  O   UNL A   1      49.312  28.723  21.897  1.00  0.00    -0.744 OA
ENDBRANCH  74  78
ENDBRANCH  47  71
BRANCH  59  82
ATOM     82  C   UNL A   1      45.140  33.164  29.018  1.00  0.00     0.023 A 
ATOM     83  C   UNL A   1      45.048  34.247  28.128  1.00  0.00     0.031 A 
ATOM     84  C   UNL A   1      45.941  33.305  30.164  1.00  0.00     0.131 A 
ATOM     85  C   UNL A   1      45.770  35.422  28.388  1.00  0.00     0.055 A 
ATOM     86  C   UNL A   1      46.625  34.490  30.437  1.00  0.00     0.041 A 
ATOM     87  F   UNL A   1      46.058  32.297  31.043  1.00  0.00    -0.206 F 
ATOM     88  C   UNL A   1      46.545  35.555  29.544  1.00  0.00     0.022 A 
BRANCH  85  89
ATOM     89  S   UNL A   1      45.705  36.774  27.180  1.00  0.00     0.124 S 
ATOM     90  O   UNL A   1      44.267  36.980  27.036  1.00  0.00    -0.237 OA
ATOM     91  O   UNL A   1      46.436  37.840  27.859  1.00  0.00    -0.237 OA
ATOM     92  O   UNL A   1      46.374  36.217  26.006  1.00  0.00    -0.744 OA
ENDBRANCH  85  89
ENDBRANCH  59  82
ENDBRANCH  33  34
ENDBRANCH  25  28
ENDBRANCH  23  24
ENDBRANCH   1  23
TORSDOF 15
ENDMDL
MODEL 2
REMARK VINA RESULT:     -13.1      0.859      7.581
REMARK SMILES Cc1ccc(F)cc1-c1ccc(F)cc1C(=O)NCCCCNC(=O)c1ccc(-c2c3nc(c(-c4cc(S(=O)(=O)[O-])ccc4F)c4ccc([nH]4)c(-c4cc(S(=O)(=O)[O-])ccc4F)c4nc(c(-c5cc(S(=O)(=O)[O-])ccc5F)c5ccc2[nH]5)C=C4)C=C3)cc1
REMARK SMILES IDX 21 1 20 2 19 3 18 4 16 5 17 6 15 8 9 9 10 10 11 11 14 12
REMARK SMILES IDX 12 13 13 14 8 15 1 16 2 17 3 18 4 19 7 20 5 21 6 22 22 23
REMARK SMILES IDX 23 24 24 25 25 27 26 28 27 29 88 30 28 31 87 32 29 33 30 34
REMARK SMILES IDX 31 35 81 36 32 37 86 38 80 39 82 40 33 41 85 42 79 43 78 44
REMARK SMILES IDX 34 46 66 47 46 48 65 49 47 50 50 51 64 52 83 53 48 54 49 55
REMARK SMILES IDX 63 57 84 58 51 59 35 60 36 61 44 62 37 63 43 64 45 65 42 66
REMARK SMILES IDX 38 67 39 68 40 69 41 70 67 71 68 72 76 73 69 74 75 75 77 76
REMARK SMILES IDX 74 77 70 78 71 79 72 80 73 81 52 82 53 83 61 84 54 85 60 86
REMARK SMILES IDX 62 87 59 88 55 89 56 90 57 91 58 92
REMARK H PARENT 18 7 23 26 82 45 50 56
REMARK Flexibility Score: inf
ROOT
ATOM      1  C   UNL A   1      35.632  21.337  25.486  1.00  0.00     0.023 C 
ENDROOT
BRANCH   1   2
ATOM      2  C   UNL A   1      34.947  22.232  26.518  1.00  0.00     0.023 C 
BRANCH   2   3
ATOM      3  C   UNL A   1      33.943  21.571  27.451  1.00  0.00     0.116 C 
BRANCH   3   4
ATOM      4  N   UNL A   1      32.746  22.316  27.741  1.00  0.00    -0.352 N 
ATOM      5  C   UNL A   1      31.808  22.828  26.880  1.00  0.00     0.252 C 
ATOM      6  O   UNL A   1      30.800  23.340  27.371  1.00  0.00    -0.269 OA
ATOM      7  H   UNL A   1      32.577  22.483  28.696  1.00  0.00     0.163 HD
BRANCH   5   8
ATOM      8  C   UNL A   1      31.963  22.899  25.393  1.00  0.00     0.050 A 
ATOM      9  C   UNL A   1      32.215  24.046  24.600  1.00  0.00    -0.005 A 
ATOM     10  C   UNL A   1      32.488  23.858  23.220  1.00  0.00     0.012 A 
ATOM     11  C   UNL A   1      32.491  22.595  22.633  1.00  0.00     0.040 A 
ATOM     12  C   UNL A   1      31.980  21.626  24.780  1.00  0.00     0.053 A 
ATOM     13  C   UNL A   1      32.233  21.489  23.421  1.00  0.00     0.124 A 
ATOM     14  F   UNL A   1      32.248  20.270  22.868  1.00  0.00    -0.207 F 
BRANCH   9  15
ATOM     15  C   UNL A   1      32.268  25.435  25.089  1.00  0.00    -0.012 A 
ATOM     16  C   UNL A   1      29.772  25.869  24.566  1.00  0.00     0.045 C 
ATOM     17  C   UNL A   1      31.139  26.303  25.042  1.00  0.00    -0.043 A 
ATOM     18  C   UNL A   1      31.245  27.612  25.550  1.00  0.00     0.007 A 
ATOM     19  C   UNL A   1      32.447  28.074  26.078  1.00  0.00     0.039 A 
ATOM     20  C   UNL A   1      33.476  25.935  25.606  1.00  0.00     0.048 A 
ATOM     21  C   UNL A   1      33.553  27.237  26.092  1.00  0.00     0.123 A 
ATOM     22  F   UNL A   1      34.712  27.682  26.594  1.00  0.00    -0.207 F 
ENDBRANCH   9  15
ENDBRANCH   5   8
ENDBRANCH   3   4
ENDBRANCH   2   3
ENDBRANCH   1   2
BRANCH   1  23
ATOM     23  C   UNL A   1      36.992  21.772  24.943  1.00  0.00     0.116 C 
BRANCH  23  24
ATOM     24  N   UNL A   1      38.088  20.849  25.200  1.00  0.00    -0.352 N 
ATOM     25  C   UNL A   1      39.233  21.003  25.956  1.00  0.00     0.251 C 
ATOM     26  H   UNL A   1      37.998  19.972  24.763  1.00  0.00     0.163 HD
ATOM     27  O   UNL A   1      40.016  20.066  26.059  1.00  0.00    -0.269 OA
BRANCH  25  28
ATOM     28  C   UNL A   1      39.552  22.314  26.573  1.00  0.00     0.039 A 
ATOM     29  C   UNL A   1      40.649  22.390  27.438  1.00  0.00     0.014 A 
ATOM     30  C   UNL A   1      38.835  23.469  26.259  1.00  0.00     0.014 A 
ATOM     31  C   UNL A   1      41.114  23.639  27.861  1.00  0.00     0.010 A 
ATOM     32  C   UNL A   1      39.345  24.718  26.616  1.00  0.00     0.010 A 
ATOM     33  C   UNL A   1      40.517  24.816  27.382  1.00  0.00    -0.014 A 
BRANCH  33  34
ATOM     34  C   UNL A   1      41.153  26.147  27.590  1.00  0.00     0.031 A 
ATOM     35  C   UNL A   1      42.527  26.436  27.054  1.00  0.00     0.074 A 
ATOM     36  C   UNL A   1      40.523  27.069  28.348  1.00  0.00     0.049 A 
ATOM     37  N   UNL A   1      43.289  27.481  27.257  1.00  0.00    -0.248 NA
ATOM     38  C   UNL A   1      43.134  25.405  26.200  1.00  0.00     0.031 C 
ATOM     39  C   UNL A   1      39.203  26.902  28.963  1.00  0.00     0.029 A 
ATOM     40  N   UNL A   1      40.907  28.328  28.739  1.00  0.00    -0.354 N 
ATOM     41  C   UNL A   1      44.473  27.226  26.574  1.00  0.00     0.074 A 
ATOM     42  C   UNL A   1      44.339  25.911  25.981  1.00  0.00     0.031 C 
ATOM     43  C   UNL A   1      38.876  28.025  29.621  1.00  0.00     0.029 A 
ATOM     44  C   UNL A   1      39.979  28.974  29.523  1.00  0.00     0.049 A 
ATOM     45  H   UNL A   1      41.769  28.732  28.482  1.00  0.00     0.167 HD
ATOM     46  C   UNL A   1      45.564  28.021  26.443  1.00  0.00     0.034 A 
ATOM     47  C   UNL A   1      40.012  30.185  30.112  1.00  0.00     0.034 A 
ATOM     48  C   UNL A   1      45.682  29.339  27.015  1.00  0.00     0.049 A 
ATOM     49  C   UNL A   1      41.234  31.048  29.953  1.00  0.00     0.074 A 
ATOM     50  C   UNL A   1      46.734  30.234  26.907  1.00  0.00     0.029 A 
ATOM     51  N   UNL A   1      44.717  29.955  27.800  1.00  0.00    -0.354 N 
ATOM     52  N   UNL A   1      42.348  30.783  29.314  1.00  0.00    -0.248 NA
ATOM     53  C   UNL A   1      41.204  32.368  30.597  1.00  0.00     0.031 C 
ATOM     54  C   UNL A   1      46.423  31.372  27.658  1.00  0.00     0.029 A 
ATOM     55  C   UNL A   1      45.155  31.211  28.190  1.00  0.00     0.049 A 
ATOM     56  H   UNL A   1      43.850  29.559  28.042  1.00  0.00     0.167 HD
ATOM     57  C   UNL A   1      43.146  31.912  29.465  1.00  0.00     0.074 A 
ATOM     58  C   UNL A   1      42.385  32.861  30.252  1.00  0.00     0.031 C 
ATOM     59  C   UNL A   1      44.394  32.142  28.987  1.00  0.00     0.034 A 
BRANCH  46  60
ATOM     60  C   UNL A   1      46.726  27.474  25.658  1.00  0.00     0.023 A 
ATOM     61  C   UNL A   1      46.985  27.893  24.343  1.00  0.00     0.031 A 
ATOM     62  C   UNL A   1      47.587  26.522  26.233  1.00  0.00     0.131 A 
ATOM     63  C   UNL A   1      48.044  27.322  23.624  1.00  0.00     0.055 A 
ATOM     64  C   UNL A   1      48.680  26.005  25.535  1.00  0.00     0.041 A 
ATOM     65  F   UNL A   1      47.376  26.076  27.481  1.00  0.00    -0.206 F 
ATOM     66  C   UNL A   1      48.908  26.397  24.219  1.00  0.00     0.022 A 
BRANCH  63  67
ATOM     67  S   UNL A   1      48.231  27.740  21.870  1.00  0.00     0.124 S 
ATOM     68  O   UNL A   1      49.378  28.645  21.906  1.00  0.00    -0.237 OA
ATOM     69  O   UNL A   1      48.463  26.439  21.254  1.00  0.00    -0.237 OA
ATOM     70  O   UNL A   1      46.957  28.371  21.532  1.00  0.00    -0.744 OA
ENDBRANCH  63  67
ENDBRANCH  46  60
BRANCH  47  71
ATOM     71  C   UNL A   1      38.853  30.652  30.920  1.00  0.00     0.023 A 
ATOM     72  C   UNL A   1      37.769  31.302  30.310  1.00  0.00     0.031 A 
ATOM     73  C   UNL A   1      38.815  30.456  32.311  1.00  0.00     0.131 A 
ATOM     74  C   UNL A   1      36.697  31.756  31.094  1.00  0.00     0.055 A 
ATOM     75  C   UNL A   1      37.732  30.880  33.083  1.00  0.00     0.041 A 
ATOM     76  F   UNL A   1      39.823  29.828  32.935  1.00  0.00    -0.206 F 
ATOM     77  C   UNL A   1      36.667  31.539  32.475  1.00  0.00     0.022 A 
BRANCH  74  78
ATOM     78  S   UNL A   1      35.344  32.653  30.287  1.00  0.00     0.124 S 
ATOM     79  O   UNL A   1      35.053  31.789  29.149  1.00  0.00    -0.237 OA
ATOM     80  O   UNL A   1      34.333  32.695  31.339  1.00  0.00    -0.237 OA
ATOM     81  O   UNL A   1      35.944  33.944  29.955  1.00  0.00    -0.744 OA
ENDBRANCH  74  78
ENDBRANCH  47  71
BRANCH  59  82
ATOM     82  C   UNL A   1      45.003  33.487  29.273  1.00  0.00     0.023 A 
ATOM     83  C   UNL A   1      44.735  34.602  28.462  1.00  0.00     0.031 A 
ATOM     84  C   UNL A   1      45.838  33.656  30.390  1.00  0.00     0.131 A 
ATOM     85  C   UNL A   1      45.323  35.840  28.768  1.00  0.00     0.055 A 
ATOM     86  C   UNL A   1      46.388  34.897  30.711  1.00  0.00     0.041 A 
ATOM     87  F   UNL A   1      46.121  32.619  31.194  1.00  0.00    -0.206 F 
ATOM     88  C   UNL A   1      46.135  35.997  29.895  1.00  0.00     0.022 A 
BRANCH  85  89
ATOM     89  S   UNL A   1      45.034  37.245  27.657  1.00  0.00     0.124 S 
ATOM     90  O   UNL A   1      43.781  36.866  27.011  1.00  0.00    -0.237 OA
ATOM     91  O   UNL A   1      44.958  38.370  28.583  1.00  0.00    -0.237 OA
ATOM     92  O   UNL A   1      46.208  37.240  26.786  1.00  0.00    -0.744 OA
ENDBRANCH  85  89
ENDBRANCH  59  82
ENDBRANCH  33  34
ENDBRANCH  25  28
ENDBRANCH  23  24
ENDBRANCH   1  23
TORSDOF 15
ENDMDL
MODEL 3
REMARK VINA RESULT:     -12.9      5.243     10.327
REMARK SMILES Cc1ccc(F)cc1-c1ccc(F)cc1C(=O)NCCCCNC(=O)c1ccc(-c2c3nc(c(-c4cc(S(=O)(=O)[O-])ccc4F)c4ccc([nH]4)c(-c4cc(S(=O)(=O)[O-])ccc4F)c4nc(c(-c5cc(S(=O)(=O)[O-])ccc5F)c5ccc2[nH]5)C=C4)C=C3)cc1
REMARK SMILES IDX 21 1 20 2 19 3 18 4 16 5 17 6 15 8 9 9 10 10 11 11 14 12
REMARK SMILES IDX 12 13 13 14 8 15 1 16 2 17 3 18 4 19 7 20 5 21 6 22 22 23
REMARK SMILES IDX 23 24 24 25 25 27 26 28 27 29 88 30 28 31 87 32 29 33 30 34
REMARK SMILES IDX 31 35 81 36 32 37 86 38 80 39 82 40 33 41 85 42 79 43 78 44
REMARK SMILES IDX 34 46 66 47 46 48 65 49 47 50 50 51 64 52 83 53 48 54 49 55
REMARK SMILES IDX 63 57 84 58 51 59 35 60 36 61 44 62 37 63 43 64 45 65 42 66
REMARK SMILES IDX 38 67 39 68 40 69 41 70 67 71 68 72 76 73 69 74 75 75 77 76
REMARK SMILES IDX 74 77 70 78 71 79 72 80 73 81 52 82 53 83 61 84 54 85 60 86
REMARK SMILES IDX 62 87 59 88 55 89 56 90 57 91 58 92
REMARK H PARENT 18 7 23 26 82 45 50 56
REMARK Flexibility Score: inf
ROOT
ATOM      1  C   UNL A   1      32.224  29.026  25.255  1.00  0.00     0.023 C 
ENDROOT
BRANCH   1   2
ATOM      2  C   UNL A   1      33.453  28.830  24.368  1.00  0.00     0.023 C 
BRANCH   2   3
ATOM      3  C   UNL A   1      33.249  28.956  22.866  1.00  0.00     0.116 C 
BRANCH   3   4
ATOM      4  N   UNL A   1      33.587  27.805  22.072  1.00  0.00    -0.352 N 
ATOM      5  C   UNL A   1      32.993  26.567  22.034  1.00  0.00     0.252 C 
ATOM      6  O   UNL A   1      33.391  25.767  21.186  1.00  0.00    -0.269 OA
ATOM      7  H   UNL A   1      34.356  27.921  21.469  1.00  0.00     0.163 HD
BRANCH   5   8
ATOM      8  C   UNL A   1      31.965  26.085  23.008  1.00  0.00     0.050 A 
ATOM      9  C   UNL A   1      32.124  25.115  24.030  1.00  0.00    -0.005 A 
ATOM     10  C   UNL A   1      31.058  24.928  24.946  1.00  0.00     0.012 A 
ATOM     11  C   UNL A   1      29.868  25.647  24.853  1.00  0.00     0.040 A 
ATOM     12  C   UNL A   1      30.754  26.810  22.937  1.00  0.00     0.053 A 
ATOM     13  C   UNL A   1      29.728  26.582  23.844  1.00  0.00     0.124 A 
ATOM     14  F   UNL A   1      28.594  27.288  23.757  1.00  0.00    -0.207 F 
BRANCH   9  15
ATOM     15  C   UNL A   1      33.331  24.301  24.262  1.00  0.00    -0.012 A 
ATOM     16  C   UNL A   1      32.527  22.399  22.703  1.00  0.00     0.045 C 
ATOM     17  C   UNL A   1      33.508  23.016  23.674  1.00  0.00    -0.043 A 
ATOM     18  C   UNL A   1      34.695  22.298  23.913  1.00  0.00     0.007 A 
ATOM     19  C   UNL A   1      35.689  22.822  24.736  1.00  0.00     0.039 A 
ATOM     20  C   UNL A   1      34.340  24.796  25.108  1.00  0.00     0.048 A 
ATOM     21  C   UNL A   1      35.499  24.060  25.333  1.00  0.00     0.123 A 
ATOM     22  F   UNL A   1      36.450  24.562  26.129  1.00  0.00    -0.207 F 
ENDBRANCH   9  15
ENDBRANCH   5   8
ENDBRANCH   3   4
ENDBRANCH   2   3
ENDBRANCH   1   2
BRANCH   1  23
ATOM     23  C   UNL A   1      32.443  29.418  26.716  1.00  0.00     0.116 C 
BRANCH  23  24
ATOM     24  N   UNL A   1      32.318  30.840  27.003  1.00  0.00    -0.352 N 
ATOM     25  C   UNL A   1      33.258  31.755  27.434  1.00  0.00     0.251 C 
ATOM     26  H   UNL A   1      31.416  31.209  26.867  1.00  0.00     0.163 HD
ATOM     27  O   UNL A   1      32.932  32.927  27.582  1.00  0.00    -0.269 OA
BRANCH  25  28
ATOM     28  C   UNL A   1      34.628  31.311  27.790  1.00  0.00     0.039 A 
ATOM     29  C   UNL A   1      35.608  32.286  28.002  1.00  0.00     0.014 A 
ATOM     30  C   UNL A   1      34.937  29.964  27.984  1.00  0.00     0.014 A 
ATOM     31  C   UNL A   1      36.842  31.924  28.552  1.00  0.00     0.010 A 
ATOM     32  C   UNL A   1      36.136  29.612  28.605  1.00  0.00     0.010 A 
ATOM     33  C   UNL A   1      37.081  30.595  28.937  1.00  0.00    -0.014 A 
BRANCH  33  34
ATOM     34  C   UNL A   1      38.262  30.232  29.769  1.00  0.00     0.031 A 
ATOM     35  C   UNL A   1      39.292  29.261  29.264  1.00  0.00     0.074 A 
ATOM     36  C   UNL A   1      38.355  30.712  31.028  1.00  0.00     0.049 A 
ATOM     37  N   UNL A   1      40.302  28.724  29.900  1.00  0.00    -0.248 NA
ATOM     38  C   UNL A   1      39.152  28.814  27.870  1.00  0.00     0.031 C 
ATOM     39  C   UNL A   1      37.402  31.630  31.657  1.00  0.00     0.029 A 
ATOM     40  N   UNL A   1      39.291  30.490  32.008  1.00  0.00    -0.354 N 
ATOM     41  C   UNL A   1      40.908  27.862  28.993  1.00  0.00     0.074 A 
ATOM     42  C   UNL A   1      40.127  27.922  27.774  1.00  0.00     0.031 C 
ATOM     43  C   UNL A   1      37.820  31.919  32.899  1.00  0.00     0.029 A 
ATOM     44  C   UNL A   1      39.039  31.169  33.179  1.00  0.00     0.049 A 
ATOM     45  H   UNL A   1      40.070  29.900  31.885  1.00  0.00     0.167 HD
ATOM     46  C   UNL A   1      42.019  27.103  29.158  1.00  0.00     0.034 A 
ATOM     47  C   UNL A   1      39.701  31.178  34.352  1.00  0.00     0.034 A 
ATOM     48  C   UNL A   1      42.806  27.065  30.365  1.00  0.00     0.049 A 
ATOM     49  C   UNL A   1      40.931  30.326  34.511  1.00  0.00     0.074 A 
ATOM     50  C   UNL A   1      43.968  26.353  30.614  1.00  0.00     0.029 A 
ATOM     51  N   UNL A   1      42.517  27.770  31.525  1.00  0.00    -0.354 N 
ATOM     52  N   UNL A   1      41.479  29.508  33.645  1.00  0.00    -0.248 NA
ATOM     53  C   UNL A   1      41.625  30.395  35.804  1.00  0.00     0.031 C 
ATOM     54  C   UNL A   1      44.358  26.595  31.935  1.00  0.00     0.029 A 
ATOM     55  C   UNL A   1      43.471  27.500  32.494  1.00  0.00     0.049 A 
ATOM     56  H   UNL A   1      41.748  28.373  31.642  1.00  0.00     0.167 HD
ATOM     57  C   UNL A   1      42.595  28.977  34.283  1.00  0.00     0.074 A 
ATOM     58  C   UNL A   1      42.643  29.569  35.604  1.00  0.00     0.031 C 
ATOM     59  C   UNL A   1      43.501  28.085  33.812  1.00  0.00     0.034 A 
BRANCH  46  60
ATOM     60  C   UNL A   1      42.439  26.235  28.001  1.00  0.00     0.023 A 
ATOM     61  C   UNL A   1      41.937  24.933  27.842  1.00  0.00     0.031 A 
ATOM     62  C   UNL A   1      43.351  26.716  27.045  1.00  0.00     0.131 A 
ATOM     63  C   UNL A   1      42.391  24.135  26.783  1.00  0.00     0.055 A 
ATOM     64  C   UNL A   1      43.750  25.939  25.955  1.00  0.00     0.041 A 
ATOM     65  F   UNL A   1      43.873  27.948  27.158  1.00  0.00    -0.206 F 
ATOM     66  C   UNL A   1      43.277  24.637  25.825  1.00  0.00     0.022 A 
BRANCH  63  67
ATOM     67  S   UNL A   1      41.873  22.398  26.719  1.00  0.00     0.124 S 
ATOM     68  O   UNL A   1      42.665  21.818  27.800  1.00  0.00    -0.237 OA
ATOM     69  O   UNL A   1      40.436  22.484  26.955  1.00  0.00    -0.237 OA
ATOM     70  O   UNL A   1      42.260  21.976  25.374  1.00  0.00    -0.744 OA
ENDBRANCH  63  67
ENDBRANCH  46  60
BRANCH  47  71
ATOM     71  C   UNL A   1      39.209  32.017  35.479  1.00  0.00     0.023 A 
ATOM     72  C   UNL A   1      38.486  31.444  36.536  1.00  0.00     0.031 A 
ATOM     73  C   UNL A   1      39.454  33.400  35.512  1.00  0.00     0.131 A 
ATOM     74  C   UNL A   1      38.011  32.257  37.577  1.00  0.00     0.055 A 
ATOM     75  C   UNL A   1      39.008  34.200  36.565  1.00  0.00     0.041 A 
ATOM     76  F   UNL A   1      40.153  33.989  34.529  1.00  0.00    -0.206 F 
ATOM     77  C   UNL A   1      38.277  33.629  37.603  1.00  0.00     0.022 A 
BRANCH  74  78
ATOM     78  S   UNL A   1      37.020  31.499  38.893  1.00  0.00     0.124 S 
ATOM     79  O   UNL A   1      37.900  31.645  40.047  1.00  0.00    -0.237 OA
ATOM     80  O   UNL A   1      35.819  32.328  38.889  1.00  0.00    -0.237 OA
ATOM     81  O   UNL A   1      36.826  30.128  38.424  1.00  0.00    -0.744 OA
ENDBRANCH  74  78
ENDBRANCH  47  71
BRANCH  59  82
ATOM     82  C   UNL A   1      44.644  27.720  34.719  1.00  0.00     0.023 A 
ATOM     83  C   UNL A   1      44.542  26.666  35.642  1.00  0.00     0.031 A 
ATOM     84  C   UNL A   1      45.859  28.422  34.635  1.00  0.00     0.131 A 
ATOM     85  C   UNL A   1      45.635  26.359  36.467  1.00  0.00     0.055 A 
ATOM     86  C   UNL A   1      46.954  28.086  35.430  1.00  0.00     0.041 A 
ATOM     87  F   UNL A   1      46.002  29.436  33.767  1.00  0.00    -0.206 F 
ATOM     88  C   UNL A   1      46.844  27.052  36.356  1.00  0.00     0.022 A 
BRANCH  85  89
ATOM     89  S   UNL A   1      45.451  25.051  37.711  1.00  0.00     0.124 S 
ATOM     90  O   UNL A   1      46.711  25.150  38.441  1.00  0.00    -0.237 OA
ATOM     91  O   UNL A   1      44.258  25.472  38.439  1.00  0.00    -0.237 OA
ATOM     92  O   UNL A   1      45.290  23.838  36.912  1.00  0.00    -0.744 OA
ENDBRANCH  85  89
ENDBRANCH  59  82
ENDBRANCH  33  34
ENDBRANCH  25  28
ENDBRANCH  23  24
ENDBRANCH   1  23
TORSDOF 15
ENDMDL
