MODEL 1
REMARK VINA RESULT:     -12.7      0.000      0.000
REMARK SMILES O=C(NCCCCNC(=O)c1ccc(S(=O)(=O)Nc2ccccc2I)cc1)c1ccc(-c2c3nc(c(-c4cc(S(=O)(=O)[O-])ccc4F)c4ccc([nH]4)c(-c4cc(S(=O)(=O)[O-])ccc4F)c4nc(c(-c5cc(S(=O)(=O)[O-])ccc5F)c5ccc2[nH]5)C=C4)C=C3)cc1
REMARK SMILES IDX 5 1 4 2 3 3 1 4 2 5 28 7 29 8 90 9 30 10 89 11 31 12 32 13
REMARK SMILES IDX 33 14 83 15 34 16 88 17 82 18 84 19 35 20 87 21 81 22 80 23
REMARK SMILES IDX 36 25 68 26 48 27 67 28 49 29 52 30 66 31 85 32 50 33 51 34
REMARK SMILES IDX 65 36 86 37 53 38 37 39 38 40 46 41 39 42 45 43 47 44 44 45
REMARK SMILES IDX 40 46 41 47 42 48 43 49 69 50 70 51 78 52 71 53 77 54 79 55
REMARK SMILES IDX 76 56 72 57 73 58 74 59 75 60 54 61 55 62 63 63 56 64 62 65
REMARK SMILES IDX 64 66 61 67 57 68 58 69 59 70 60 71 6 72 7 73 8 74 9 75
REMARK SMILES IDX 10 77 11 78 12 79 27 80 13 81 26 82 14 83 15 84 16 85 17 86
REMARK SMILES IDX 18 87 19 89 20 90 24 91 21 92 23 93 25 94 22 95
REMARK H PARENT 3 6 84 24 52 35 8 76 18 88
REMARK Flexibility Score: inf
ROOT
ATOM      1  C   UNL A   1      36.036  21.204  25.606  1.00  0.00     0.023 C 
ENDROOT
BRANCH   1   2
ATOM      2  C   UNL A   1      37.374  21.338  24.893  1.00  0.00     0.116 C 
BRANCH   2   3
ATOM      3  N   UNL A   1      38.318  20.270  25.206  1.00  0.00    -0.352 N 
ATOM      4  O   UNL A   1      40.231  19.344  25.980  1.00  0.00    -0.269 OA
ATOM      5  C   UNL A   1      39.509  20.334  25.899  1.00  0.00     0.251 C 
ATOM      6  H   UNL A   1      38.070  19.377  24.875  1.00  0.00     0.163 HD
BRANCH   5   7
ATOM      7  C   UNL A   1      39.919  21.616  26.509  1.00  0.00     0.039 A 
ATOM      8  C   UNL A   1      39.344  22.808  26.074  1.00  0.00     0.014 A 
ATOM      9  C   UNL A   1      40.945  21.634  27.458  1.00  0.00     0.014 A 
ATOM     10  C   UNL A   1      39.945  24.015  26.406  1.00  0.00     0.010 A 
ATOM     11  C   UNL A   1      41.463  22.860  27.890  1.00  0.00     0.010 A 
ATOM     12  C   UNL A   1      41.010  24.060  27.321  1.00  0.00    -0.014 A 
BRANCH  12  13
ATOM     13  C   UNL A   1      41.609  25.379  27.664  1.00  0.00     0.031 A 
ATOM     14  C   UNL A   1      42.987  25.761  27.186  1.00  0.00     0.074 A 
ATOM     15  C   UNL A   1      40.869  26.264  28.362  1.00  0.00     0.049 A 
ATOM     16  N   UNL A   1      43.641  26.883  27.365  1.00  0.00    -0.248 NA
ATOM     17  C   UNL A   1      43.735  24.751  26.422  1.00  0.00     0.031 C 
ATOM     18  C   UNL A   1      39.519  26.009  28.873  1.00  0.00     0.029 A 
ATOM     19  N   UNL A   1      41.124  27.557  28.737  1.00  0.00    -0.354 N 
ATOM     20  C   UNL A   1      44.882  26.707  26.760  1.00  0.00     0.074 A 
ATOM     21  C   UNL A   1      44.902  25.355  26.242  1.00  0.00     0.031 C 
ATOM     22  C   UNL A   1      39.040  27.129  29.431  1.00  0.00     0.029 A 
ATOM     23  C   UNL A   1      40.076  28.154  29.399  1.00  0.00     0.049 A 
ATOM     24  H   UNL A   1      41.975  28.016  28.550  1.00  0.00     0.167 HD
ATOM     25  C   UNL A   1      45.905  27.592  26.644  1.00  0.00     0.034 A 
ATOM     26  C   UNL A   1      39.963  29.381  29.942  1.00  0.00     0.034 A 
ATOM     27  C   UNL A   1      45.862  28.942  27.160  1.00  0.00     0.049 A 
ATOM     28  C   UNL A   1      41.126  30.327  29.835  1.00  0.00     0.074 A 
ATOM     29  C   UNL A   1      46.827  29.932  27.067  1.00  0.00     0.029 A 
ATOM     30  N   UNL A   1      44.804  29.493  27.873  1.00  0.00    -0.354 N 
ATOM     31  N   UNL A   1      42.288  30.148  29.247  1.00  0.00    -0.248 NA
ATOM     32  C   UNL A   1      40.961  31.645  30.458  1.00  0.00     0.031 C 
ATOM     33  C   UNL A   1      46.388  31.046  27.791  1.00  0.00     0.029 A 
ATOM     34  C   UNL A   1      45.108  30.792  28.255  1.00  0.00     0.049 A 
ATOM     35  H   UNL A   1      43.959  29.029  28.077  1.00  0.00     0.167 HD
ATOM     36  C   UNL A   1      42.976  31.347  29.401  1.00  0.00     0.074 A 
ATOM     37  C   UNL A   1      42.093  32.242  30.118  1.00  0.00     0.031 C 
ATOM     38  C   UNL A   1      44.225  31.677  28.981  1.00  0.00     0.034 A 
BRANCH  25  39
ATOM     39  C   UNL A   1      47.179  27.112  25.981  1.00  0.00     0.023 A 
ATOM     40  C   UNL A   1      48.159  26.385  26.681  1.00  0.00     0.031 A 
ATOM     41  C   UNL A   1      47.424  27.403  24.627  1.00  0.00     0.131 A 
ATOM     42  C   UNL A   1      49.365  26.044  26.048  1.00  0.00     0.055 A 
ATOM     43  C   UNL A   1      48.588  26.985  23.978  1.00  0.00     0.041 A 
ATOM     44  F   UNL A   1      46.539  28.111  23.909  1.00  0.00    -0.206 F 
ATOM     45  C   UNL A   1      49.575  26.314  24.694  1.00  0.00     0.022 A 
BRANCH  42  46
ATOM     46  S   UNL A   1      50.717  25.380  27.060  1.00  0.00     0.124 S 
ATOM     47  O   UNL A   1      51.176  26.577  27.761  1.00  0.00    -0.237 OA
ATOM     48  O   UNL A   1      50.039  24.382  27.877  1.00  0.00    -0.237 OA
ATOM     49  O   UNL A   1      51.656  24.849  26.072  1.00  0.00    -0.744 OA
ENDBRANCH  42  46
ENDBRANCH  25  39
BRANCH  26  50
ATOM     50  C   UNL A   1      38.715  29.775  30.657  1.00  0.00     0.023 A 
ATOM     51  C   UNL A   1      37.739  30.562  30.028  1.00  0.00     0.031 A 
ATOM     52  C   UNL A   1      38.498  29.399  31.996  1.00  0.00     0.131 A 
ATOM     53  C   UNL A   1      36.615  30.990  30.751  1.00  0.00     0.055 A 
ATOM     54  C   UNL A   1      37.347  29.773  32.691  1.00  0.00     0.041 A 
ATOM     55  F   UNL A   1      39.398  28.643  32.644  1.00  0.00    -0.206 F 
ATOM     56  C   UNL A   1      36.405  30.587  32.072  1.00  0.00     0.022 A 
BRANCH  53  57
ATOM     57  S   UNL A   1      35.477  32.164  29.968  1.00  0.00     0.124 S 
ATOM     58  O   UNL A   1      34.485  32.359  31.018  1.00  0.00    -0.237 OA
ATOM     59  O   UNL A   1      36.354  33.298  29.694  1.00  0.00    -0.237 OA
ATOM     60  O   UNL A   1      35.006  31.445  28.787  1.00  0.00    -0.744 OA
ENDBRANCH  53  57
ENDBRANCH  26  50
BRANCH  38  61
ATOM     61  C   UNL A   1      44.677  33.097  29.238  1.00  0.00     0.023 A 
ATOM     62  C   UNL A   1      44.355  34.152  28.367  1.00  0.00     0.031 A 
ATOM     63  C   UNL A   1      45.479  33.387  30.357  1.00  0.00     0.131 A 
ATOM     64  C   UNL A   1      44.896  35.429  28.586  1.00  0.00     0.055 A 
ATOM     65  C   UNL A   1      45.950  34.675  30.611  1.00  0.00     0.041 A 
ATOM     66  F   UNL A   1      45.823  32.418  31.222  1.00  0.00    -0.206 F 
ATOM     67  C   UNL A   1      45.675  35.701  29.713  1.00  0.00     0.022 A 
BRANCH  64  68
ATOM     68  S   UNL A   1      44.672  36.699  27.310  1.00  0.00     0.124 S 
ATOM     69  O   UNL A   1      45.928  36.610  26.571  1.00  0.00    -0.237 OA
ATOM     70  O   UNL A   1      43.484  36.228  26.606  1.00  0.00    -0.237 OA
ATOM     71  O   UNL A   1      44.490  37.929  28.079  1.00  0.00    -0.744 OA
ENDBRANCH  64  68
ENDBRANCH  38  61
ENDBRANCH  12  13
ENDBRANCH   5   7
ENDBRANCH   2   3
ENDBRANCH   1   2
BRANCH   1  72
ATOM     72  C   UNL A   1      35.404  22.515  26.037  1.00  0.00     0.023 C 
BRANCH  72  73
ATOM     73  C   UNL A   1      34.032  22.388  26.672  1.00  0.00     0.116 C 
BRANCH  73  74
ATOM     74  N   UNL A   1      33.284  21.198  26.279  1.00  0.00    -0.352 N 
ATOM     75  C   UNL A   1      32.446  21.025  25.193  1.00  0.00     0.251 C 
ATOM     76  H   UNL A   1      33.390  20.415  26.865  1.00  0.00     0.163 HD
ATOM     77  O   UNL A   1      31.813  19.988  25.038  1.00  0.00    -0.269 OA
BRANCH  75  78
ATOM     78  C   UNL A   1      32.299  22.129  24.217  1.00  0.00     0.039 A 
ATOM     79  C   UNL A   1      31.310  23.104  24.381  1.00  0.00     0.015 A 
ATOM     80  C   UNL A   1      33.225  22.250  23.188  1.00  0.00     0.015 A 
ATOM     81  C   UNL A   1      31.299  24.227  23.541  1.00  0.00     0.023 A 
ATOM     82  C   UNL A   1      33.318  23.444  22.494  1.00  0.00     0.023 A 
ATOM     83  C   UNL A   1      32.322  24.405  22.596  1.00  0.00     0.087 A 
BRANCH  83  84
ATOM     84  S   UNL A   1      32.367  25.886  21.615  1.00  0.00     0.261 S 
ATOM     85  O   UNL A   1      33.322  25.662  20.543  1.00  0.00    -0.201 OA
ATOM     86  O   UNL A   1      30.995  26.214  21.304  1.00  0.00    -0.201 OA
BRANCH  84  87
ATOM     87  N   UNL A   1      32.973  27.238  22.475  1.00  0.00    -0.279 N 
ATOM     88  H   UNL A   1      33.454  27.944  21.986  1.00  0.00     0.180 HD
BRANCH  87  89
ATOM     89  C   UNL A   1      32.793  27.365  23.897  1.00  0.00     0.062 A 
ATOM     90  C   UNL A   1      33.726  26.769  24.762  1.00  0.00     0.028 A 
ATOM     91  C   UNL A   1      31.771  28.168  24.438  1.00  0.00     0.037 A 
ATOM     92  C   UNL A   1      33.664  27.008  26.141  1.00  0.00     0.002 A 
ATOM     93  C   UNL A   1      31.727  28.416  25.817  1.00  0.00     0.017 A 
ATOM     94  I   UNL A   1      30.297  29.066  23.246  1.00  0.00    -0.042 I 
ATOM     95  C   UNL A   1      32.678  27.844  26.663  1.00  0.00     0.001 A 
ENDBRANCH  87  89
ENDBRANCH  84  87
ENDBRANCH  83  84
ENDBRANCH  75  78
ENDBRANCH  73  74
ENDBRANCH  72  73
ENDBRANCH   1  72
TORSDOF 17
ENDMDL
MODEL 2
REMARK VINA RESULT:     -12.3      4.820     10.075
REMARK SMILES O=C(NCCCCNC(=O)c1ccc(S(=O)(=O)Nc2ccccc2I)cc1)c1ccc(-c2c3nc(c(-c4cc(S(=O)(=O)[O-])ccc4F)c4ccc([nH]4)c(-c4cc(S(=O)(=O)[O-])ccc4F)c4nc(c(-c5cc(S(=O)(=O)[O-])ccc5F)c5ccc2[nH]5)C=C4)C=C3)cc1
REMARK SMILES IDX 5 1 4 2 3 3 1 4 2 5 28 7 29 8 90 9 30 10 89 11 31 12 32 13
REMARK SMILES IDX 33 14 83 15 34 16 88 17 82 18 84 19 35 20 87 21 81 22 80 23
REMARK SMILES IDX 36 25 68 26 48 27 67 28 49 29 52 30 66 31 85 32 50 33 51 34
REMARK SMILES IDX 65 36 86 37 53 38 37 39 38 40 46 41 39 42 45 43 47 44 44 45
REMARK SMILES IDX 40 46 41 47 42 48 43 49 69 50 70 51 78 52 71 53 77 54 79 55
REMARK SMILES IDX 76 56 72 57 73 58 74 59 75 60 54 61 55 62 63 63 56 64 62 65
REMARK SMILES IDX 64 66 61 67 57 68 58 69 59 70 60 71 6 72 7 73 8 74 9 75
REMARK SMILES IDX 10 77 11 78 12 79 27 80 13 81 26 82 14 83 15 84 16 85 17 86
REMARK SMILES IDX 18 87 19 89 20 90 24 91 21 92 23 93 25 94 22 95
REMARK H PARENT 3 6 84 24 52 35 8 76 18 88
REMARK Flexibility Score: inf
ROOT
ATOM      1  C   UNL A   1      33.448  29.350  24.246  1.00  0.00     0.023 C 
ENDROOT
BRANCH   1   2
ATOM      2  C   UNL A   1      33.113  29.315  25.731  1.00  0.00     0.116 C 
BRANCH   2   3
ATOM      3  N   UNL A   1      32.700  30.607  26.272  1.00  0.00    -0.352 N 
ATOM      4  O   UNL A   1      32.786  32.424  27.615  1.00  0.00    -0.269 OA
ATOM      5  C   UNL A   1      33.334  31.408  27.197  1.00  0.00     0.251 C 
ATOM      6  H   UNL A   1      31.846  30.954  25.927  1.00  0.00     0.163 HD
BRANCH   5   7
ATOM      7  C   UNL A   1      34.664  31.009  27.704  1.00  0.00     0.039 A 
ATOM      8  C   UNL A   1      34.858  29.725  28.211  1.00  0.00     0.014 A 
ATOM      9  C   UNL A   1      35.696  31.949  27.753  1.00  0.00     0.014 A 
ATOM     10  C   UNL A   1      35.989  29.457  28.969  1.00  0.00     0.010 A 
ATOM     11  C   UNL A   1      36.891  31.628  28.408  1.00  0.00     0.010 A 
ATOM     12  C   UNL A   1      37.024  30.401  29.076  1.00  0.00    -0.014 A 
BRANCH  12  13
ATOM     13  C   UNL A   1      38.229  30.060  29.882  1.00  0.00     0.031 A 
ATOM     14  C   UNL A   1      38.412  30.595  31.280  1.00  0.00     0.074 A 
ATOM     15  C   UNL A   1      39.134  29.207  29.363  1.00  0.00     0.049 A 
ATOM     16  N   UNL A   1      39.383  30.367  32.130  1.00  0.00    -0.248 NA
ATOM     17  C   UNL A   1      37.381  31.514  31.786  1.00  0.00     0.031 C 
ATOM     18  C   UNL A   1      39.061  28.621  28.022  1.00  0.00     0.029 A 
ATOM     19  N   UNL A   1      40.270  28.660  29.900  1.00  0.00    -0.354 N 
ATOM     20  C   UNL A   1      39.097  31.130  33.258  1.00  0.00     0.074 A 
ATOM     21  C   UNL A   1      37.878  31.856  32.967  1.00  0.00     0.031 C 
ATOM     22  C   UNL A   1      40.064  27.746  27.868  1.00  0.00     0.029 A 
ATOM     23  C   UNL A   1      40.903  27.772  29.060  1.00  0.00     0.049 A 
ATOM     24  H   UNL A   1      40.602  28.880  30.801  1.00  0.00     0.167 HD
ATOM     25  C   UNL A   1      39.783  31.211  34.427  1.00  0.00     0.034 A 
ATOM     26  C   UNL A   1      42.042  27.072  29.216  1.00  0.00     0.034 A 
ATOM     27  C   UNL A   1      40.993  30.470  34.702  1.00  0.00     0.049 A 
ATOM     28  C   UNL A   1      42.803  27.212  30.505  1.00  0.00     0.074 A 
ATOM     29  C   UNL A   1      41.748  30.451  35.863  1.00  0.00     0.029 A 
ATOM     30  N   UNL A   1      41.634  29.622  33.805  1.00  0.00    -0.354 N 
ATOM     31  N   UNL A   1      42.510  27.929  31.566  1.00  0.00    -0.248 NA
ATOM     32  C   UNL A   1      44.047  26.444  30.620  1.00  0.00     0.031 C 
ATOM     33  C   UNL A   1      42.882  29.662  35.640  1.00  0.00     0.029 A 
ATOM     34  C   UNL A   1      42.789  29.106  34.375  1.00  0.00     0.049 A 
ATOM     35  H   UNL A   1      41.313  29.416  32.897  1.00  0.00     0.167 HD
ATOM     36  C   UNL A   1      43.517  27.666  32.489  1.00  0.00     0.074 A 
ATOM     37  C   UNL A   1      44.412  26.714  31.863  1.00  0.00     0.031 C 
ATOM     38  C   UNL A   1      43.683  28.164  33.741  1.00  0.00     0.034 A 
BRANCH  25  39
ATOM     39  C   UNL A   1      39.272  32.176  35.476  1.00  0.00     0.023 A 
ATOM     40  C   UNL A   1      39.690  33.519  35.526  1.00  0.00     0.031 A 
ATOM     41  C   UNL A   1      38.364  31.739  36.457  1.00  0.00     0.131 A 
ATOM     42  C   UNL A   1      39.262  34.349  36.573  1.00  0.00     0.055 A 
ATOM     43  C   UNL A   1      37.873  32.594  37.446  1.00  0.00     0.041 A 
ATOM     44  F   UNL A   1      37.943  30.464  36.479  1.00  0.00    -0.206 F 
ATOM     45  C   UNL A   1      38.334  33.905  37.518  1.00  0.00     0.022 A 
BRANCH  42  46
ATOM     46  S   UNL A   1      40.052  35.970  36.773  1.00  0.00     0.124 S 
ATOM     47  O   UNL A   1      41.454  35.595  36.943  1.00  0.00    -0.237 OA
ATOM     48  O   UNL A   1      39.717  36.640  35.523  1.00  0.00    -0.237 OA
ATOM     49  O   UNL A   1      39.413  36.518  37.968  1.00  0.00    -0.744 OA
ENDBRANCH  42  46
ENDBRANCH  25  39
BRANCH  26  50
ATOM     50  C   UNL A   1      42.544  26.199  28.117  1.00  0.00     0.023 A 
ATOM     51  C   UNL A   1      42.077  24.884  27.968  1.00  0.00     0.031 A 
ATOM     52  C   UNL A   1      43.528  26.656  27.220  1.00  0.00     0.131 A 
ATOM     53  C   UNL A   1      42.630  24.055  26.980  1.00  0.00     0.055 A 
ATOM     54  C   UNL A   1      44.027  25.849  26.198  1.00  0.00     0.041 A 
ATOM     55  F   UNL A   1      44.006  27.906  27.316  1.00  0.00    -0.206 F 
ATOM     56  C   UNL A   1      43.588  24.534  26.083  1.00  0.00     0.022 A 
BRANCH  53  57
ATOM     57  S   UNL A   1      42.145  22.309  26.943  1.00  0.00     0.124 S 
ATOM     58  O   UNL A   1      43.399  21.662  26.577  1.00  0.00    -0.237 OA
ATOM     59  O   UNL A   1      41.687  22.094  28.312  1.00  0.00    -0.237 OA
ATOM     60  O   UNL A   1      41.098  22.268  25.925  1.00  0.00    -0.744 OA
ENDBRANCH  53  57
ENDBRANCH  26  50
BRANCH  38  61
ATOM     61  C   UNL A   1      44.852  27.630  34.538  1.00  0.00     0.023 A 
ATOM     62  C   UNL A   1      44.759  26.454  35.301  1.00  0.00     0.031 A 
ATOM     63  C   UNL A   1      46.068  28.337  34.561  1.00  0.00     0.131 A 
ATOM     64  C   UNL A   1      45.833  26.062  36.116  1.00  0.00     0.055 A 
ATOM     65  C   UNL A   1      47.159  27.901  35.314  1.00  0.00     0.041 A 
ATOM     66  F   UNL A   1      46.215  29.470  33.856  1.00  0.00    -0.206 F 
ATOM     67  C   UNL A   1      47.039  26.767  36.111  1.00  0.00     0.022 A 
BRANCH  64  68
ATOM     68  S   UNL A   1      45.590  24.690  37.278  1.00  0.00     0.124 S 
ATOM     69  O   UNL A   1      46.962  24.265  37.536  1.00  0.00    -0.237 OA
ATOM     70  O   UNL A   1      44.905  25.342  38.390  1.00  0.00    -0.237 OA
ATOM     71  O   UNL A   1      44.778  23.740  36.521  1.00  0.00    -0.744 OA
ENDBRANCH  64  68
ENDBRANCH  38  61
ENDBRANCH  12  13
ENDBRANCH   5   7
ENDBRANCH   2   3
ENDBRANCH   1   2
BRANCH   1  72
ATOM     72  C   UNL A   1      33.883  28.021  23.656  1.00  0.00     0.023 C 
BRANCH  72  73
ATOM     73  C   UNL A   1      33.387  27.752  22.246  1.00  0.00     0.116 C 
BRANCH  73  74
ATOM     74  N   UNL A   1      31.987  28.094  22.015  1.00  0.00    -0.352 N 
ATOM     75  C   UNL A   1      30.856  27.502  22.543  1.00  0.00     0.251 C 
ATOM     76  H   UNL A   1      31.828  28.847  21.402  1.00  0.00     0.163 HD
ATOM     77  O   UNL A   1      29.735  27.844  22.186  1.00  0.00    -0.269 OA
BRANCH  75  78
ATOM     78  C   UNL A   1      31.012  26.417  23.539  1.00  0.00     0.039 A 
ATOM     79  C   UNL A   1      30.696  26.630  24.885  1.00  0.00     0.015 A 
ATOM     80  C   UNL A   1      31.375  25.148  23.107  1.00  0.00     0.015 A 
ATOM     81  C   UNL A   1      30.691  25.545  25.775  1.00  0.00     0.023 A 
ATOM     82  C   UNL A   1      31.184  24.064  23.946  1.00  0.00     0.023 A 
ATOM     83  C   UNL A   1      30.925  24.247  25.297  1.00  0.00     0.087 A 
BRANCH  83  84
ATOM     84  S   UNL A   1      30.803  22.864  26.406  1.00  0.00     0.261 S 
ATOM     85  O   UNL A   1      30.168  23.343  27.622  1.00  0.00    -0.201 OA
ATOM     86  O   UNL A   1      30.204  21.786  25.653  1.00  0.00    -0.201 OA
BRANCH  84  87
ATOM     87  N   UNL A   1      32.332  22.273  26.905  1.00  0.00    -0.279 N 
ATOM     88  H   UNL A   1      32.399  21.762  27.744  1.00  0.00     0.180 HD
BRANCH  87  89
ATOM     89  C   UNL A   1      33.518  22.507  26.125  1.00  0.00     0.062 A 
ATOM     90  C   UNL A   1      34.220  23.712  26.291  1.00  0.00     0.028 A 
ATOM     91  C   UNL A   1      34.054  21.509  25.289  1.00  0.00     0.037 A 
ATOM     92  C   UNL A   1      35.459  23.901  25.665  1.00  0.00     0.002 A 
ATOM     93  C   UNL A   1      35.302  21.699  24.680  1.00  0.00     0.017 A 
ATOM     94  I   UNL A   1      33.069  19.692  24.932  1.00  0.00    -0.042 I 
ATOM     95  C   UNL A   1      36.005  22.889  24.877  1.00  0.00     0.001 A 
ENDBRANCH  87  89
ENDBRANCH  84  87
ENDBRANCH  83  84
ENDBRANCH  75  78
ENDBRANCH  73  74
ENDBRANCH  72  73
ENDBRANCH   1  72
TORSDOF 17
ENDMDL
MODEL 3
REMARK VINA RESULT:     -12.2      4.412      9.451
REMARK SMILES O=C(NCCCCNC(=O)c1ccc(S(=O)(=O)Nc2ccccc2I)cc1)c1ccc(-c2c3nc(c(-c4cc(S(=O)(=O)[O-])ccc4F)c4ccc([nH]4)c(-c4cc(S(=O)(=O)[O-])ccc4F)c4nc(c(-c5cc(S(=O)(=O)[O-])ccc5F)c5ccc2[nH]5)C=C4)C=C3)cc1
REMARK SMILES IDX 5 1 4 2 3 3 1 4 2 5 28 7 29 8 90 9 30 10 89 11 31 12 32 13
REMARK SMILES IDX 33 14 83 15 34 16 88 17 82 18 84 19 35 20 87 21 81 22 80 23
REMARK SMILES IDX 36 25 68 26 48 27 67 28 49 29 52 30 66 31 85 32 50 33 51 34
REMARK SMILES IDX 65 36 86 37 53 38 37 39 38 40 46 41 39 42 45 43 47 44 44 45
REMARK SMILES IDX 40 46 41 47 42 48 43 49 69 50 70 51 78 52 71 53 77 54 79 55
REMARK SMILES IDX 76 56 72 57 73 58 74 59 75 60 54 61 55 62 63 63 56 64 62 65
REMARK SMILES IDX 64 66 61 67 57 68 58 69 59 70 60 71 6 72 7 73 8 74 9 75
REMARK SMILES IDX 10 77 11 78 12 79 27 80 13 81 26 82 14 83 15 84 16 85 17 86
REMARK SMILES IDX 18 87 19 89 20 90 24 91 21 92 23 93 25 94 22 95
REMARK H PARENT 3 6 84 24 52 35 8 76 18 88
REMARK Flexibility Score: inf
ROOT
ATOM      1  C   UNL A   1      33.820  28.084  25.341  1.00  0.00     0.023 C 
ENDROOT
BRANCH   1   2
ATOM      2  C   UNL A   1      34.090  28.666  26.722  1.00  0.00     0.116 C 
BRANCH   2   3
ATOM      3  N   UNL A   1      33.738  30.077  26.846  1.00  0.00    -0.352 N 
ATOM      4  O   UNL A   1      33.851  32.187  27.651  1.00  0.00    -0.269 OA
ATOM      5  C   UNL A   1      34.349  31.067  27.585  1.00  0.00     0.251 C 
ATOM      6  H   UNL A   1      32.950  30.361  26.328  1.00  0.00     0.163 HD
BRANCH   5   7
ATOM      7  C   UNL A   1      35.590  30.752  28.324  1.00  0.00     0.039 A 
ATOM      8  C   UNL A   1      36.781  31.392  27.988  1.00  0.00     0.014 A 
ATOM      9  C   UNL A   1      35.579  29.750  29.298  1.00  0.00     0.014 A 
ATOM     10  C   UNL A   1      37.984  30.876  28.447  1.00  0.00     0.010 A 
ATOM     11  C   UNL A   1      36.787  29.320  29.858  1.00  0.00     0.010 A 
ATOM     12  C   UNL A   1      38.007  29.836  29.392  1.00  0.00    -0.014 A 
BRANCH  12  13
ATOM     13  C   UNL A   1      39.322  29.329  29.873  1.00  0.00     0.031 A 
ATOM     14  C   UNL A   1      39.977  29.901  31.105  1.00  0.00     0.074 A 
ATOM     15  C   UNL A   1      39.896  28.298  29.222  1.00  0.00     0.049 A 
ATOM     16  N   UNL A   1      41.101  29.550  31.679  1.00  0.00    -0.248 NA
ATOM     17  C   UNL A   1      39.292  31.019  31.771  1.00  0.00     0.031 C 
ATOM     18  C   UNL A   1      39.352  27.658  28.020  1.00  0.00     0.029 A 
ATOM     19  N   UNL A   1      41.036  27.585  29.486  1.00  0.00    -0.354 N 
ATOM     20  C   UNL A   1      41.272  30.416  32.756  1.00  0.00     0.074 A 
ATOM     21  C   UNL A   1      40.152  31.333  32.730  1.00  0.00     0.031 C 
ATOM     22  C   UNL A   1      40.118  26.609  27.695  1.00  0.00     0.029 A 
ATOM     23  C   UNL A   1      41.255  26.551  28.606  1.00  0.00     0.049 A 
ATOM     24  H   UNL A   1      41.640  27.793  30.236  1.00  0.00     0.167 HD
ATOM     25  C   UNL A   1      42.266  30.438  33.680  1.00  0.00     0.034 A 
ATOM     26  C   UNL A   1      42.266  25.666  28.521  1.00  0.00     0.034 A 
ATOM     27  C   UNL A   1      43.372  29.507  33.695  1.00  0.00     0.049 A 
ATOM     28  C   UNL A   1      43.375  25.740  29.534  1.00  0.00     0.074 A 
ATOM     29  C   UNL A   1      44.413  29.418  34.604  1.00  0.00     0.029 A 
ATOM     30  N   UNL A   1      43.588  28.507  32.753  1.00  0.00    -0.354 N 
ATOM     31  N   UNL A   1      43.512  26.558  30.553  1.00  0.00    -0.248 NA
ATOM     32  C   UNL A   1      44.462  24.766  29.389  1.00  0.00     0.031 C 
ATOM     33  C   UNL A   1      45.297  28.425  34.168  1.00  0.00     0.029 A 
ATOM     34  C   UNL A   1      44.762  27.824  33.041  1.00  0.00     0.049 A 
ATOM     35  H   UNL A   1      42.994  28.311  31.992  1.00  0.00     0.167 HD
ATOM     36  C   UNL A   1      44.686  26.170  31.191  1.00  0.00     0.074 A 
ATOM     37  C   UNL A   1      45.204  25.037  30.452  1.00  0.00     0.031 C 
ATOM     38  C   UNL A   1      45.278  26.700  32.292  1.00  0.00     0.034 A 
BRANCH  25  39
ATOM     39  C   UNL A   1      42.234  31.538  34.720  1.00  0.00     0.023 A 
ATOM     40  C   UNL A   1      41.321  31.532  35.790  1.00  0.00     0.031 A 
ATOM     41  C   UNL A   1      43.124  32.624  34.629  1.00  0.00     0.131 A 
ATOM     42  C   UNL A   1      41.267  32.620  36.674  1.00  0.00     0.055 A 
ATOM     43  C   UNL A   1      43.124  33.663  35.562  1.00  0.00     0.041 A 
ATOM     44  F   UNL A   1      44.006  32.701  33.619  1.00  0.00    -0.206 F 
ATOM     45  C   UNL A   1      42.181  33.673  36.585  1.00  0.00     0.022 A 
BRANCH  42  46
ATOM     46  S   UNL A   1      39.886  32.717  37.847  1.00  0.00     0.124 S 
ATOM     47  O   UNL A   1      39.474  34.111  37.703  1.00  0.00    -0.237 OA
ATOM     48  O   UNL A   1      38.960  31.720  37.326  1.00  0.00    -0.237 OA
ATOM     49  O   UNL A   1      40.503  32.388  39.131  1.00  0.00    -0.744 OA
ENDBRANCH  42  46
ENDBRANCH  25  39
BRANCH  26  50
ATOM     50  C   UNL A   1      42.290  24.654  27.426  1.00  0.00     0.023 A 
ATOM     51  C   UNL A   1      41.538  23.473  27.517  1.00  0.00     0.031 A 
ATOM     52  C   UNL A   1      43.096  24.838  26.288  1.00  0.00     0.131 A 
ATOM     53  C   UNL A   1      41.646  22.499  26.513  1.00  0.00     0.055 A 
ATOM     54  C   UNL A   1      43.150  23.895  25.261  1.00  0.00     0.041 A 
ATOM     55  F   UNL A   1      43.834  25.951  26.149  1.00  0.00    -0.206 F 
ATOM     56  C   UNL A   1      42.433  22.709  25.378  1.00  0.00     0.022 A 
BRANCH  53  57
ATOM     57  S   UNL A   1      40.815  20.907  26.758  1.00  0.00     0.124 S 
ATOM     58  O   UNL A   1      39.538  21.135  26.093  1.00  0.00    -0.237 OA
ATOM     59  O   UNL A   1      41.729  19.984  26.093  1.00  0.00    -0.237 OA
ATOM     60  O   UNL A   1      40.750  20.777  28.211  1.00  0.00    -0.744 OA
ENDBRANCH  53  57
ENDBRANCH  26  50
BRANCH  38  61
ATOM     61  C   UNL A   1      46.525  26.010  32.795  1.00  0.00     0.023 A 
ATOM     62  C   UNL A   1      47.779  26.199  32.187  1.00  0.00     0.031 A 
ATOM     63  C   UNL A   1      46.446  25.117  33.879  1.00  0.00     0.131 A 
ATOM     64  C   UNL A   1      48.884  25.447  32.616  1.00  0.00     0.055 A 
ATOM     65  C   UNL A   1      47.565  24.429  34.350  1.00  0.00     0.041 A 
ATOM     66  F   UNL A   1      45.275  24.892  34.496  1.00  0.00    -0.206 F 
ATOM     67  C   UNL A   1      48.789  24.579  33.706  1.00  0.00     0.022 A 
BRANCH  64  68
ATOM     68  S   UNL A   1      50.418  25.524  31.650  1.00  0.00     0.124 S 
ATOM     69  O   UNL A   1      50.749  24.111  31.494  1.00  0.00    -0.237 OA
ATOM     70  O   UNL A   1      49.988  26.214  30.438  1.00  0.00    -0.237 OA
ATOM     71  O   UNL A   1      51.325  26.284  32.507  1.00  0.00    -0.744 OA
ENDBRANCH  64  68
ENDBRANCH  38  61
ENDBRANCH  12  13
ENDBRANCH   5   7
ENDBRANCH   2   3
ENDBRANCH   1   2
BRANCH   1  72
ATOM     72  C   UNL A   1      33.449  29.102  24.278  1.00  0.00     0.023 C 
BRANCH  72  73
ATOM     73  C   UNL A   1      33.109  28.515  22.919  1.00  0.00     0.116 C 
BRANCH  73  74
ATOM     74  N   UNL A   1      31.711  28.657  22.525  1.00  0.00    -0.352 N 
ATOM     75  C   UNL A   1      30.641  27.839  22.831  1.00  0.00     0.251 C 
ATOM     76  H   UNL A   1      31.504  29.440  21.965  1.00  0.00     0.163 HD
ATOM     77  O   UNL A   1      29.531  28.039  22.352  1.00  0.00    -0.269 OA
BRANCH  75  78
ATOM     78  C   UNL A   1      30.854  26.687  23.737  1.00  0.00     0.039 A 
ATOM     79  C   UNL A   1      30.602  26.798  25.108  1.00  0.00     0.015 A 
ATOM     80  C   UNL A   1      31.206  25.457  23.196  1.00  0.00     0.015 A 
ATOM     81  C   UNL A   1      30.649  25.652  25.916  1.00  0.00     0.023 A 
ATOM     82  C   UNL A   1      31.065  24.313  23.962  1.00  0.00     0.023 A 
ATOM     83  C   UNL A   1      30.870  24.394  25.333  1.00  0.00     0.087 A 
BRANCH  83  84
ATOM     84  S   UNL A   1      30.814  22.933  26.344  1.00  0.00     0.261 S 
ATOM     85  O   UNL A   1      30.122  23.286  27.571  1.00  0.00    -0.201 OA
ATOM     86  O   UNL A   1      30.304  21.874  25.504  1.00  0.00    -0.201 OA
BRANCH  84  87
ATOM     87  N   UNL A   1      32.366  22.408  26.843  1.00  0.00    -0.279 N 
ATOM     88  H   UNL A   1      32.456  21.902  27.682  1.00  0.00     0.180 HD
BRANCH  87  89
ATOM     89  C   UNL A   1      33.542  22.689  26.062  1.00  0.00     0.062 A 
ATOM     90  C   UNL A   1      34.173  23.936  26.199  1.00  0.00     0.028 A 
ATOM     91  C   UNL A   1      34.137  21.703  25.252  1.00  0.00     0.037 A 
ATOM     92  C   UNL A   1      35.403  24.179  25.574  1.00  0.00     0.002 A 
ATOM     93  C   UNL A   1      35.375  21.949  24.643  1.00  0.00     0.017 A 
ATOM     94  I   UNL A   1      33.258  19.825  24.937  1.00  0.00    -0.042 I 
ATOM     95  C   UNL A   1      36.010  23.181  24.813  1.00  0.00     0.001 A 
ENDBRANCH  87  89
ENDBRANCH  84  87
ENDBRANCH  83  84
ENDBRANCH  75  78
ENDBRANCH  73  74
ENDBRANCH  72  73
ENDBRANCH   1  72
TORSDOF 17
ENDMDL
