MODEL 1
REMARK VINA RESULT:     -11.5      0.000      0.000
REMARK SMILES CC[C@@H](O)C[NH+]1CC(n2cc(C(=O)NCCCCNC(=O)c3ccc(-c4c5nc(c(-c6cc(S(=O)(=O)[O-])ccc6F)c6ccc([nH]6)c(-c6cc(S(=O)(=O)[O-])ccc6F)c6nc(c(-c7cc(S(=O)(=O)[O-])ccc7F)c7ccc4[nH]7)C=C6)C=C5)cc3)nn2)C1
REMARK SMILES IDX 16 1 15 2 14 3 12 4 13 5 11 7 9 8 10 9 86 10 85 11 8 12 6 13
REMARK SMILES IDX 7 14 87 15 5 17 3 18 2 19 1 20 4 21 17 23 18 24 19 25 20 26
REMARK SMILES IDX 21 28 22 29 23 30 84 31 24 32 83 33 25 34 26 35 27 36 77 37
REMARK SMILES IDX 28 38 82 39 76 40 78 41 29 42 81 43 75 44 74 45 30 47 62 48
REMARK SMILES IDX 42 49 61 50 43 51 46 52 60 53 79 54 44 55 45 56 59 58 80 59
REMARK SMILES IDX 47 60 31 61 32 62 40 63 33 64 39 65 41 66 38 67 34 68 35 69
REMARK SMILES IDX 36 70 37 71 63 72 64 73 72 74 65 75 71 76 73 77 70 78 66 79
REMARK SMILES IDX 67 80 68 81 69 82 48 83 49 84 57 85 50 86 56 87 58 88 55 89
REMARK SMILES IDX 51 90 52 91 53 92 54 93
REMARK H PARENT 14 6 6 16 4 22 19 27 78 46 46 57
REMARK Flexibility Score: inf
ROOT
ATOM      1  C   UNL A   1      31.739  29.932  26.242  1.00  0.00     0.023 C 
ENDROOT
BRANCH   1   2
ATOM      2  C   UNL A   1      32.342  29.516  24.892  1.00  0.00     0.116 C 
BRANCH   2   3
ATOM      3  N   UNL A   1      31.321  29.231  23.897  1.00  0.00    -0.351 N 
ATOM      4  C   UNL A   1      31.169  28.197  22.996  1.00  0.00     0.273 C 
ATOM      5  O   UNL A   1      30.125  28.185  22.342  1.00  0.00    -0.267 OA
ATOM      6  H   UNL A   1      30.603  29.902  23.859  1.00  0.00     0.163 HD
BRANCH   4   7
ATOM      7  C   UNL A   1      32.193  27.169  22.818  1.00  0.00     0.170 A 
ATOM      8  N   UNL A   1      33.439  25.388  22.828  1.00  0.00    -0.237 N 
ATOM      9  C   UNL A   1      32.332  25.933  23.414  1.00  0.00     0.145 A 
ATOM     10  N   UNL A   1      34.019  26.244  21.982  1.00  0.00    -0.066 NA
ATOM     11  N   UNL A   1      33.282  27.352  21.982  1.00  0.00    -0.125 NA
BRANCH   8  12
ATOM     12  C   UNL A   1      33.898  24.081  23.148  1.00  0.00     0.218 C 
ATOM     13  N   UNL A   1      33.540  22.304  24.145  1.00  0.00    -0.329 N 
ATOM     14  C   UNL A   1      33.019  22.852  22.835  1.00  0.00     0.296 C 
ATOM     15  C   UNL A   1      33.560  23.723  24.614  1.00  0.00     0.296 C 
ATOM     16  H   UNL A   1      34.355  21.693  24.205  1.00  0.00     0.348 HD
BRANCH  13  17
ATOM     17  C   UNL A   1      32.529  21.502  24.844  1.00  0.00     0.294 C 
BRANCH  17  18
ATOM     18  C   UNL A   1      33.112  20.203  25.467  1.00  0.00     0.169 C 
BRANCH  18  19
ATOM     19  C   UNL A   1      32.731  18.932  24.691  1.00  0.00     0.034 C 
ATOM     20  C   UNL A   1      32.579  17.701  25.576  1.00  0.00     0.007 C 
ENDBRANCH  18  19
BRANCH  18  21
ATOM     21  O   UNL A   1      34.539  20.330  25.498  1.00  0.00    -0.387 OA
ATOM     22  H   UNL A   1      34.906  20.060  24.642  1.00  0.00     0.211 HD
ENDBRANCH  18  21
ENDBRANCH  17  18
ENDBRANCH  13  17
ENDBRANCH   8  12
ENDBRANCH   4   7
ENDBRANCH   2   3
ENDBRANCH   1   2
BRANCH   1  23
ATOM     23  C   UNL A   1      31.519  31.443  26.439  1.00  0.00     0.023 C 
BRANCH  23  24
ATOM     24  C   UNL A   1      32.588  32.158  27.263  1.00  0.00     0.116 C 
BRANCH  24  25
ATOM     25  N   UNL A   1      32.354  33.598  27.418  1.00  0.00    -0.352 N 
ATOM     26  C   UNL A   1      32.932  34.455  28.353  1.00  0.00     0.251 C 
ATOM     27  H   UNL A   1      31.716  34.005  26.788  1.00  0.00     0.163 HD
ATOM     28  O   UNL A   1      32.398  35.499  28.670  1.00  0.00    -0.269 OA
BRANCH  26  29
ATOM     29  C   UNL A   1      34.236  34.054  28.915  1.00  0.00     0.039 A 
ATOM     30  C   UNL A   1      34.392  33.524  30.199  1.00  0.00     0.014 A 
ATOM     31  C   UNL A   1      35.306  34.133  28.036  1.00  0.00     0.014 A 
ATOM     32  C   UNL A   1      35.633  32.985  30.551  1.00  0.00     0.010 A 
ATOM     33  C   UNL A   1      36.431  33.410  28.301  1.00  0.00     0.010 A 
ATOM     34  C   UNL A   1      36.646  32.917  29.583  1.00  0.00    -0.014 A 
BRANCH  34  35
ATOM     35  C   UNL A   1      37.935  32.273  29.820  1.00  0.00     0.031 A 
ATOM     36  C   UNL A   1      38.010  30.831  29.461  1.00  0.00     0.074 A 
ATOM     37  C   UNL A   1      39.050  33.007  30.054  1.00  0.00     0.049 A 
ATOM     38  N   UNL A   1      38.185  29.824  30.251  1.00  0.00    -0.248 NA
ATOM     39  C   UNL A   1      37.729  30.439  28.069  1.00  0.00     0.031 C 
ATOM     40  C   UNL A   1      39.184  34.472  30.111  1.00  0.00     0.029 A 
ATOM     41  N   UNL A   1      40.342  32.600  30.147  1.00  0.00    -0.354 N 
ATOM     42  C   UNL A   1      38.293  28.703  29.432  1.00  0.00     0.074 A 
ATOM     43  C   UNL A   1      37.791  29.108  28.148  1.00  0.00     0.031 C 
ATOM     44  C   UNL A   1      40.480  34.822  29.961  1.00  0.00     0.029 A 
ATOM     45  C   UNL A   1      41.284  33.618  30.012  1.00  0.00     0.049 A 
ATOM     46  H   UNL A   1      40.594  31.660  30.297  1.00  0.00     0.167 HD
ATOM     47  C   UNL A   1      39.021  27.614  29.816  1.00  0.00     0.034 A 
ATOM     48  C   UNL A   1      42.636  33.491  29.943  1.00  0.00     0.034 A 
ATOM     49  C   UNL A   1      39.317  27.665  31.232  1.00  0.00     0.049 A 
ATOM     50  C   UNL A   1      42.957  32.175  30.548  1.00  0.00     0.074 A 
ATOM     51  C   UNL A   1      38.551  27.735  32.380  1.00  0.00     0.029 A 
ATOM     52  N   UNL A   1      40.577  28.073  31.612  1.00  0.00    -0.354 N 
ATOM     53  N   UNL A   1      42.718  31.892  31.801  1.00  0.00    -0.248 NA
ATOM     54  C   UNL A   1      43.054  31.024  29.663  1.00  0.00     0.031 C 
ATOM     55  C   UNL A   1      39.232  28.676  33.212  1.00  0.00     0.029 A 
ATOM     56  C   UNL A   1      40.417  29.047  32.570  1.00  0.00     0.049 A 
ATOM     57  H   UNL A   1      41.432  27.732  31.265  1.00  0.00     0.167 HD
ATOM     58  C   UNL A   1      42.196  30.607  31.786  1.00  0.00     0.074 A 
ATOM     59  C   UNL A   1      42.525  30.087  30.457  1.00  0.00     0.031 C 
ATOM     60  C   UNL A   1      41.301  30.190  32.732  1.00  0.00     0.034 A 
BRANCH  47  61
ATOM     61  C   UNL A   1      39.775  26.689  28.881  1.00  0.00     0.023 A 
ATOM     62  C   UNL A   1      40.879  27.226  28.189  1.00  0.00     0.031 A 
ATOM     63  C   UNL A   1      39.320  25.432  28.422  1.00  0.00     0.131 A 
ATOM     64  C   UNL A   1      41.409  26.583  27.055  1.00  0.00     0.055 A 
ATOM     65  C   UNL A   1      39.895  24.763  27.337  1.00  0.00     0.041 A 
ATOM     66  F   UNL A   1      38.241  24.823  28.926  1.00  0.00    -0.206 F 
ATOM     67  C   UNL A   1      40.923  25.352  26.624  1.00  0.00     0.022 A 
BRANCH  64  68
ATOM     68  S   UNL A   1      42.618  27.476  26.042  1.00  0.00     0.124 S 
ATOM     69  O   UNL A   1      42.363  28.860  26.426  1.00  0.00    -0.237 OA
ATOM     70  O   UNL A   1      43.876  26.900  26.501  1.00  0.00    -0.237 OA
ATOM     71  O   UNL A   1      42.235  27.129  24.675  1.00  0.00    -0.744 OA
ENDBRANCH  64  68
ENDBRANCH  47  61
BRANCH  48  72
ATOM     72  C   UNL A   1      43.557  34.255  29.057  1.00  0.00     0.023 A 
ATOM     73  C   UNL A   1      43.995  33.783  27.801  1.00  0.00     0.031 A 
ATOM     74  C   UNL A   1      43.834  35.608  29.358  1.00  0.00     0.131 A 
ATOM     75  C   UNL A   1      44.673  34.652  26.910  1.00  0.00     0.055 A 
ATOM     76  C   UNL A   1      44.499  36.462  28.473  1.00  0.00     0.041 A 
ATOM     77  F   UNL A   1      43.390  36.169  30.494  1.00  0.00    -0.206 F 
ATOM     78  C   UNL A   1      44.915  35.988  27.240  1.00  0.00     0.022 A 
BRANCH  75  79
ATOM     79  S   UNL A   1      45.191  34.070  25.261  1.00  0.00     0.124 S 
ATOM     80  O   UNL A   1      44.100  34.531  24.411  1.00  0.00    -0.237 OA
ATOM     81  O   UNL A   1      46.478  34.736  25.085  1.00  0.00    -0.237 OA
ATOM     82  O   UNL A   1      45.271  32.617  25.420  1.00  0.00    -0.744 OA
ENDBRANCH  75  79
ENDBRANCH  48  72
BRANCH  60  83
ATOM     83  C   UNL A   1      41.065  31.078  33.943  1.00  0.00     0.023 A 
ATOM     84  C   UNL A   1      40.051  32.062  34.047  1.00  0.00     0.031 A 
ATOM     85  C   UNL A   1      41.835  30.822  35.090  1.00  0.00     0.131 A 
ATOM     86  C   UNL A   1      39.853  32.752  35.262  1.00  0.00     0.055 A 
ATOM     87  C   UNL A   1      41.624  31.492  36.294  1.00  0.00     0.041 A 
ATOM     88  F   UNL A   1      42.794  29.881  35.068  1.00  0.00    -0.206 F 
ATOM     89  C   UNL A   1      40.636  32.464  36.384  1.00  0.00     0.022 A 
BRANCH  86  90
ATOM     90  S   UNL A   1      38.582  34.054  35.405  1.00  0.00     0.124 S 
ATOM     91  O   UNL A   1      39.228  35.231  34.838  1.00  0.00    -0.237 OA
ATOM     92  O   UNL A   1      37.471  33.502  34.634  1.00  0.00    -0.237 OA
ATOM     93  O   UNL A   1      38.336  34.131  36.848  1.00  0.00    -0.744 OA
ENDBRANCH  86  90
ENDBRANCH  60  83
ENDBRANCH  34  35
ENDBRANCH  26  29
ENDBRANCH  24  25
ENDBRANCH  23  24
ENDBRANCH   1  23
TORSDOF 19
ENDMDL
MODEL 2
REMARK VINA RESULT:     -11.5      1.349      1.706
REMARK SMILES CC[C@@H](O)C[NH+]1CC(n2cc(C(=O)NCCCCNC(=O)c3ccc(-c4c5nc(c(-c6cc(S(=O)(=O)[O-])ccc6F)c6ccc([nH]6)c(-c6cc(S(=O)(=O)[O-])ccc6F)c6nc(c(-c7cc(S(=O)(=O)[O-])ccc7F)c7ccc4[nH]7)C=C6)C=C5)cc3)nn2)C1
REMARK SMILES IDX 16 1 15 2 14 3 12 4 13 5 11 7 9 8 10 9 86 10 85 11 8 12 6 13
REMARK SMILES IDX 7 14 87 15 5 17 3 18 2 19 1 20 4 21 17 23 18 24 19 25 20 26
REMARK SMILES IDX 21 28 22 29 23 30 84 31 24 32 83 33 25 34 26 35 27 36 77 37
REMARK SMILES IDX 28 38 82 39 76 40 78 41 29 42 81 43 75 44 74 45 30 47 62 48
REMARK SMILES IDX 42 49 61 50 43 51 46 52 60 53 79 54 44 55 45 56 59 58 80 59
REMARK SMILES IDX 47 60 31 61 32 62 40 63 33 64 39 65 41 66 38 67 34 68 35 69
REMARK SMILES IDX 36 70 37 71 63 72 64 73 72 74 65 75 71 76 73 77 70 78 66 79
REMARK SMILES IDX 67 80 68 81 69 82 48 83 49 84 57 85 50 86 56 87 58 88 55 89
REMARK SMILES IDX 51 90 52 91 53 92 54 93
REMARK H PARENT 14 6 6 16 4 22 19 27 78 46 46 57
REMARK Flexibility Score: inf
ROOT
ATOM      1  C   UNL A   1      34.319  30.132  27.293  1.00  0.00     0.023 C 
ENDROOT
BRANCH   1   2
ATOM      2  C   UNL A   1      33.917  28.675  27.024  1.00  0.00     0.116 C 
BRANCH   2   3
ATOM      3  N   UNL A   1      34.021  28.326  25.617  1.00  0.00    -0.351 N 
ATOM      4  C   UNL A   1      33.479  27.296  24.875  1.00  0.00     0.273 C 
ATOM      5  O   UNL A   1      33.676  27.328  23.659  1.00  0.00    -0.267 OA
ATOM      6  H   UNL A   1      34.585  28.939  25.094  1.00  0.00     0.163 HD
BRANCH   4   7
ATOM      7  C   UNL A   1      32.712  26.216  25.495  1.00  0.00     0.170 A 
ATOM      8  N   UNL A   1      31.939  24.351  26.300  1.00  0.00    -0.237 N 
ATOM      9  C   UNL A   1      32.960  24.861  25.549  1.00  0.00     0.145 A 
ATOM     10  N   UNL A   1      31.054  25.295  26.631  1.00  0.00    -0.066 NA
ATOM     11  N   UNL A   1      31.499  26.442  26.124  1.00  0.00    -0.125 NA
BRANCH   8  12
ATOM     12  C   UNL A   1      31.855  22.969  26.624  1.00  0.00     0.218 C 
ATOM     13  N   UNL A   1      32.313  21.024  26.090  1.00  0.00    -0.329 N 
ATOM     14  C   UNL A   1      33.139  22.118  26.728  1.00  0.00     0.296 C 
ATOM     15  C   UNL A   1      31.613  22.120  25.355  1.00  0.00     0.296 C 
ATOM     16  H   UNL A   1      31.814  20.319  26.632  1.00  0.00     0.348 HD
BRANCH  13  17
ATOM     17  C   UNL A   1      33.117  20.181  25.197  1.00  0.00     0.294 C 
BRANCH  17  18
ATOM     18  C   UNL A   1      32.689  18.687  25.228  1.00  0.00     0.169 C 
BRANCH  18  19
ATOM     19  C   UNL A   1      33.501  17.802  24.268  1.00  0.00     0.034 C 
ATOM     20  C   UNL A   1      33.842  16.434  24.843  1.00  0.00     0.007 C 
ENDBRANCH  18  19
BRANCH  18  21
ATOM     21  O   UNL A   1      32.854  18.208  26.568  1.00  0.00    -0.387 OA
ATOM     22  H   UNL A   1      32.165  18.587  27.134  1.00  0.00     0.211 HD
ENDBRANCH  18  21
ENDBRANCH  17  18
ENDBRANCH  13  17
ENDBRANCH   8  12
ENDBRANCH   4   7
ENDBRANCH   2   3
ENDBRANCH   1   2
BRANCH   1  23
ATOM     23  C   UNL A   1      33.417  31.205  26.657  1.00  0.00     0.023 C 
BRANCH  23  24
ATOM     24  C   UNL A   1      32.359  31.803  27.582  1.00  0.00     0.116 C 
BRANCH  24  25
ATOM     25  N   UNL A   1      32.231  33.261  27.472  1.00  0.00    -0.352 N 
ATOM     26  C   UNL A   1      32.903  34.230  28.215  1.00  0.00     0.251 C 
ATOM     27  H   UNL A   1      31.596  33.592  26.796  1.00  0.00     0.163 HD
ATOM     28  O   UNL A   1      32.456  35.351  28.347  1.00  0.00    -0.269 OA
BRANCH  26  29
ATOM     29  C   UNL A   1      34.199  33.843  28.805  1.00  0.00     0.039 A 
ATOM     30  C   UNL A   1      34.327  33.246  30.062  1.00  0.00     0.014 A 
ATOM     31  C   UNL A   1      35.298  34.010  27.975  1.00  0.00     0.014 A 
ATOM     32  C   UNL A   1      35.573  32.731  30.432  1.00  0.00     0.010 A 
ATOM     33  C   UNL A   1      36.439  33.313  28.243  1.00  0.00     0.010 A 
ATOM     34  C   UNL A   1      36.623  32.755  29.503  1.00  0.00    -0.014 A 
BRANCH  34  35
ATOM     35  C   UNL A   1      37.926  32.144  29.754  1.00  0.00     0.031 A 
ATOM     36  C   UNL A   1      38.069  30.730  29.312  1.00  0.00     0.074 A 
ATOM     37  C   UNL A   1      39.002  32.901  30.078  1.00  0.00     0.049 A 
ATOM     38  N   UNL A   1      38.252  29.683  30.047  1.00  0.00    -0.248 NA
ATOM     39  C   UNL A   1      37.858  30.414  27.889  1.00  0.00     0.031 C 
ATOM     40  C   UNL A   1      39.077  34.363  30.228  1.00  0.00     0.029 A 
ATOM     41  N   UNL A   1      40.304  32.535  30.200  1.00  0.00    -0.354 N 
ATOM     42  C   UNL A   1      38.434  28.619  29.168  1.00  0.00     0.074 A 
ATOM     43  C   UNL A   1      37.968  29.084  27.891  1.00  0.00     0.031 C 
ATOM     44  C   UNL A   1      40.364  34.768  30.153  1.00  0.00     0.029 A 
ATOM     45  C   UNL A   1      41.211  33.592  30.166  1.00  0.00     0.049 A 
ATOM     46  H   UNL A   1      40.585  31.597  30.304  1.00  0.00     0.167 HD
ATOM     47  C   UNL A   1      39.188  27.535  29.516  1.00  0.00     0.034 A 
ATOM     48  C   UNL A   1      42.568  33.518  30.145  1.00  0.00     0.034 A 
ATOM     49  C   UNL A   1      39.425  27.510  30.943  1.00  0.00     0.049 A 
ATOM     50  C   UNL A   1      42.916  32.180  30.683  1.00  0.00     0.074 A 
ATOM     51  C   UNL A   1      38.613  27.481  32.060  1.00  0.00     0.029 A 
ATOM     52  N   UNL A   1      40.653  27.938  31.400  1.00  0.00    -0.354 N 
ATOM     53  N   UNL A   1      42.638  31.812  31.906  1.00  0.00    -0.248 NA
ATOM     54  C   UNL A   1      43.091  31.090  29.736  1.00  0.00     0.031 C 
ATOM     55  C   UNL A   1      39.224  28.393  32.975  1.00  0.00     0.029 A 
ATOM     56  C   UNL A   1      40.419  28.845  32.406  1.00  0.00     0.049 A 
ATOM     57  H   UNL A   1      41.533  27.649  31.068  1.00  0.00     0.167 HD
ATOM     58  C   UNL A   1      42.167  30.513  31.792  1.00  0.00     0.074 A 
ATOM     59  C   UNL A   1      42.567  30.087  30.449  1.00  0.00     0.031 C 
ATOM     60  C   UNL A   1      41.252  30.006  32.673  1.00  0.00     0.034 A 
BRANCH  47  61
ATOM     61  C   UNL A   1      40.013  26.697  28.560  1.00  0.00     0.023 A 
ATOM     62  C   UNL A   1      41.127  27.312  27.954  1.00  0.00     0.031 A 
ATOM     63  C   UNL A   1      39.621  25.459  28.001  1.00  0.00     0.131 A 
ATOM     64  C   UNL A   1      41.727  26.761  26.807  1.00  0.00     0.055 A 
ATOM     65  C   UNL A   1      40.265  24.880  26.903  1.00  0.00     0.041 A 
ATOM     66  F   UNL A   1      38.542  24.786  28.415  1.00  0.00    -0.206 F 
ATOM     67  C   UNL A   1      41.303  25.546  26.276  1.00  0.00     0.022 A 
BRANCH  64  68
ATOM     68  S   UNL A   1      42.948  27.754  25.909  1.00  0.00     0.124 S 
ATOM     69  O   UNL A   1      44.024  26.789  25.706  1.00  0.00    -0.237 OA
ATOM     70  O   UNL A   1      42.200  28.145  24.720  1.00  0.00    -0.237 OA
ATOM     71  O   UNL A   1      43.252  28.839  26.839  1.00  0.00    -0.744 OA
ENDBRANCH  64  68
ENDBRANCH  47  61
BRANCH  48  72
ATOM     72  C   UNL A   1      43.494  34.367  29.346  1.00  0.00     0.023 A 
ATOM     73  C   UNL A   1      44.013  33.982  28.092  1.00  0.00     0.031 A 
ATOM     74  C   UNL A   1      43.692  35.714  29.727  1.00  0.00     0.131 A 
ATOM     75  C   UNL A   1      44.690  34.925  27.280  1.00  0.00     0.055 A 
ATOM     76  C   UNL A   1      44.357  36.642  28.921  1.00  0.00     0.041 A 
ATOM     77  F   UNL A   1      43.168  36.195  30.866  1.00  0.00    -0.206 F 
ATOM     78  C   UNL A   1      44.854  36.252  27.688  1.00  0.00     0.022 A 
BRANCH  75  79
ATOM     79  S   UNL A   1      45.314  34.453  25.632  1.00  0.00     0.124 S 
ATOM     80  O   UNL A   1      46.325  35.472  25.378  1.00  0.00    -0.237 OA
ATOM     81  O   UNL A   1      45.802  33.097  25.860  1.00  0.00    -0.237 OA
ATOM     82  O   UNL A   1      44.128  34.540  24.779  1.00  0.00    -0.744 OA
ENDBRANCH  75  79
ENDBRANCH  48  72
BRANCH  60  83
ATOM     83  C   UNL A   1      40.934  30.810  33.925  1.00  0.00     0.023 A 
ATOM     84  C   UNL A   1      39.823  31.676  34.078  1.00  0.00     0.031 A 
ATOM     85  C   UNL A   1      41.737  30.585  35.055  1.00  0.00     0.131 A 
ATOM     86  C   UNL A   1      39.565  32.286  35.324  1.00  0.00     0.055 A 
ATOM     87  C   UNL A   1      41.468  31.174  36.290  1.00  0.00     0.041 A 
ATOM     88  F   UNL A   1      42.789  29.752  34.987  1.00  0.00    -0.206 F 
ATOM     89  C   UNL A   1      40.384  32.032  36.428  1.00  0.00     0.022 A 
BRANCH  86  90
ATOM     90  S   UNL A   1      38.166  33.440  35.531  1.00  0.00     0.124 S 
ATOM     91  O   UNL A   1      38.432  34.486  34.551  1.00  0.00    -0.237 OA
ATOM     92  O   UNL A   1      37.009  32.591  35.260  1.00  0.00    -0.237 OA
ATOM     93  O   UNL A   1      38.285  33.870  36.927  1.00  0.00    -0.744 OA
ENDBRANCH  86  90
ENDBRANCH  60  83
ENDBRANCH  34  35
ENDBRANCH  26  29
ENDBRANCH  24  25
ENDBRANCH  23  24
ENDBRANCH   1  23
TORSDOF 19
ENDMDL
MODEL 3
REMARK VINA RESULT:     -11.4      4.525     10.143
REMARK SMILES CC[C@@H](O)C[NH+]1CC(n2cc(C(=O)NCCCCNC(=O)c3ccc(-c4c5nc(c(-c6cc(S(=O)(=O)[O-])ccc6F)c6ccc([nH]6)c(-c6cc(S(=O)(=O)[O-])ccc6F)c6nc(c(-c7cc(S(=O)(=O)[O-])ccc7F)c7ccc4[nH]7)C=C6)C=C5)cc3)nn2)C1
REMARK SMILES IDX 16 1 15 2 14 3 12 4 13 5 11 7 9 8 10 9 86 10 85 11 8 12 6 13
REMARK SMILES IDX 7 14 87 15 5 17 3 18 2 19 1 20 4 21 17 23 18 24 19 25 20 26
REMARK SMILES IDX 21 28 22 29 23 30 84 31 24 32 83 33 25 34 26 35 27 36 77 37
REMARK SMILES IDX 28 38 82 39 76 40 78 41 29 42 81 43 75 44 74 45 30 47 62 48
REMARK SMILES IDX 42 49 61 50 43 51 46 52 60 53 79 54 44 55 45 56 59 58 80 59
REMARK SMILES IDX 47 60 31 61 32 62 40 63 33 64 39 65 41 66 38 67 34 68 35 69
REMARK SMILES IDX 36 70 37 71 63 72 64 73 72 74 65 75 71 76 73 77 70 78 66 79
REMARK SMILES IDX 67 80 68 81 69 82 48 83 49 84 57 85 50 86 56 87 58 88 55 89
REMARK SMILES IDX 51 90 52 91 53 92 54 93
REMARK H PARENT 14 6 6 16 4 22 19 27 78 46 46 57
REMARK Flexibility Score: inf
ROOT
ATOM      1  C   UNL A   1      36.627  21.080  24.699  1.00  0.00     0.023 C 
ENDROOT
BRANCH   1   2
ATOM      2  C   UNL A   1      35.133  20.768  24.875  1.00  0.00     0.116 C 
BRANCH   2   3
ATOM      3  N   UNL A   1      34.589  21.349  26.091  1.00  0.00    -0.351 N 
ATOM      4  C   UNL A   1      33.594  22.281  26.308  1.00  0.00     0.273 C 
ATOM      5  O   UNL A   1      33.288  22.498  27.482  1.00  0.00    -0.267 OA
ATOM      6  H   UNL A   1      35.008  21.014  26.915  1.00  0.00     0.163 HD
BRANCH   4   7
ATOM      7  C   UNL A   1      32.938  22.983  25.206  1.00  0.00     0.170 A 
ATOM      8  N   UNL A   1      32.331  24.307  23.593  1.00  0.00    -0.237 N 
ATOM      9  C   UNL A   1      33.260  24.171  24.585  1.00  0.00     0.145 A 
ATOM     10  N   UNL A   1      31.427  23.323  23.628  1.00  0.00    -0.066 NA
ATOM     11  N   UNL A   1      31.770  22.515  24.628  1.00  0.00    -0.125 NA
BRANCH   8  12
ATOM     12  C   UNL A   1      32.345  25.403  22.688  1.00  0.00     0.218 C 
ATOM     13  N   UNL A   1      31.905  27.398  22.359  1.00  0.00    -0.329 N 
ATOM     14  C   UNL A   1      33.051  26.719  23.076  1.00  0.00     0.296 C 
ATOM     15  C   UNL A   1      31.066  26.257  22.837  1.00  0.00     0.296 C 
ATOM     16  H   UNL A   1      31.951  27.674  21.379  1.00  0.00     0.348 HD
BRANCH  13  17
ATOM     17  C   UNL A   1      31.534  28.667  22.997  1.00  0.00     0.294 C 
BRANCH  17  18
ATOM     18  C   UNL A   1      30.239  29.286  22.402  1.00  0.00     0.169 C 
BRANCH  18  19
ATOM     19  C   UNL A   1      29.473  30.171  23.399  1.00  0.00     0.034 C 
ATOM     20  C   UNL A   1      28.060  30.514  22.948  1.00  0.00     0.007 C 
ENDBRANCH  18  19
BRANCH  18  21
ATOM     21  O   UNL A   1      30.609  30.070  21.260  1.00  0.00    -0.387 OA
ATOM     22  H   UNL A   1      30.674  29.496  20.482  1.00  0.00     0.211 HD
ENDBRANCH  18  21
ENDBRANCH  17  18
ENDBRANCH  13  17
ENDBRANCH   8  12
ENDBRANCH   4   7
ENDBRANCH   2   3
ENDBRANCH   1   2
BRANCH   1  23
ATOM     23  C   UNL A   1      37.594  19.925  25.013  1.00  0.00     0.023 C 
BRANCH  23  24
ATOM     24  C   UNL A   1      38.967  20.344  25.533  1.00  0.00     0.116 C 
BRANCH  24  25
ATOM     25  N   UNL A   1      39.882  19.220  25.765  1.00  0.00    -0.352 N 
ATOM     26  C   UNL A   1      41.259  19.278  25.976  1.00  0.00     0.251 C 
ATOM     27  H   UNL A   1      39.477  18.324  25.772  1.00  0.00     0.163 HD
ATOM     28  O   UNL A   1      41.975  18.322  25.754  1.00  0.00    -0.269 OA
BRANCH  26  29
ATOM     29  C   UNL A   1      41.804  20.540  26.512  1.00  0.00     0.039 A 
ATOM     30  C   UNL A   1      42.448  21.498  25.724  1.00  0.00     0.014 A 
ATOM     31  C   UNL A   1      41.535  20.776  27.852  1.00  0.00     0.014 A 
ATOM     32  C   UNL A   1      42.735  22.743  26.292  1.00  0.00     0.010 A 
ATOM     33  C   UNL A   1      41.611  22.052  28.326  1.00  0.00     0.010 A 
ATOM     34  C   UNL A   1      42.294  23.017  27.595  1.00  0.00    -0.014 A 
BRANCH  34  35
ATOM     35  C   UNL A   1      42.447  24.322  28.232  1.00  0.00     0.031 A 
ATOM     36  C   UNL A   1      41.352  25.296  27.976  1.00  0.00     0.074 A 
ATOM     37  C   UNL A   1      43.354  24.515  29.220  1.00  0.00     0.049 A 
ATOM     38  N   UNL A   1      41.418  26.415  27.334  1.00  0.00    -0.248 NA
ATOM     39  C   UNL A   1      39.980  24.929  28.368  1.00  0.00     0.031 C 
ATOM     40  C   UNL A   1      44.287  23.538  29.806  1.00  0.00     0.029 A 
ATOM     41  N   UNL A   1      43.536  25.597  30.021  1.00  0.00    -0.354 N 
ATOM     42  C   UNL A   1      40.166  27.011  27.462  1.00  0.00     0.074 A 
ATOM     43  C   UNL A   1      39.282  25.968  27.906  1.00  0.00     0.031 C 
ATOM     44  C   UNL A   1      44.725  23.981  31.005  1.00  0.00     0.029 A 
ATOM     45  C   UNL A   1      44.279  25.350  31.173  1.00  0.00     0.049 A 
ATOM     46  H   UNL A   1      43.171  26.486  29.804  1.00  0.00     0.167 HD
ATOM     47  C   UNL A   1      40.022  28.368  27.434  1.00  0.00     0.034 A 
ATOM     48  C   UNL A   1      44.515  26.204  32.204  1.00  0.00     0.034 A 
ATOM     49  C   UNL A   1      41.217  29.002  26.921  1.00  0.00     0.049 A 
ATOM     50  C   UNL A   1      44.299  27.569  31.665  1.00  0.00     0.074 A 
ATOM     51  C   UNL A   1      41.932  28.911  25.742  1.00  0.00     0.029 A 
ATOM     52  N   UNL A   1      42.086  29.570  27.828  1.00  0.00    -0.354 N 
ATOM     53  N   UNL A   1      45.031  28.081  30.711  1.00  0.00    -0.248 NA
ATOM     54  C   UNL A   1      42.976  28.157  31.810  1.00  0.00     0.031 C 
ATOM     55  C   UNL A   1      43.302  28.911  26.149  1.00  0.00     0.029 A 
ATOM     56  C   UNL A   1      43.344  29.101  27.534  1.00  0.00     0.049 A 
ATOM     57  H   UNL A   1      41.850  30.194  28.551  1.00  0.00     0.167 HD
ATOM     58  C   UNL A   1      44.130  28.714  29.868  1.00  0.00     0.074 A 
ATOM     59  C   UNL A   1      42.897  28.817  30.650  1.00  0.00     0.031 C 
ATOM     60  C   UNL A   1      44.372  28.834  28.527  1.00  0.00     0.034 A 
BRANCH  47  61
ATOM     61  C   UNL A   1      38.969  29.154  28.190  1.00  0.00     0.023 A 
ATOM     62  C   UNL A   1      39.028  29.130  29.598  1.00  0.00     0.031 A 
ATOM     63  C   UNL A   1      37.776  29.675  27.638  1.00  0.00     0.131 A 
ATOM     64  C   UNL A   1      37.920  29.509  30.379  1.00  0.00     0.055 A 
ATOM     65  C   UNL A   1      36.704  30.116  28.420  1.00  0.00     0.041 A 
ATOM     66  F   UNL A   1      37.536  29.700  26.323  1.00  0.00    -0.206 F 
ATOM     67  C   UNL A   1      36.756  30.004  29.798  1.00  0.00     0.022 A 
BRANCH  64  68
ATOM     68  S   UNL A   1      37.959  29.166  32.157  1.00  0.00     0.124 S 
ATOM     69  O   UNL A   1      39.161  29.882  32.571  1.00  0.00    -0.237 OA
ATOM     70  O   UNL A   1      36.689  29.729  32.599  1.00  0.00    -0.237 OA
ATOM     71  O   UNL A   1      38.050  27.709  32.219  1.00  0.00    -0.744 OA
ENDBRANCH  64  68
ENDBRANCH  47  61
BRANCH  48  72
ATOM     72  C   UNL A   1      44.529  25.867  33.654  1.00  0.00     0.023 A 
ATOM     73  C   UNL A   1      43.456  26.149  34.526  1.00  0.00     0.031 A 
ATOM     74  C   UNL A   1      45.547  25.022  34.153  1.00  0.00     0.131 A 
ATOM     75  C   UNL A   1      43.433  25.593  35.830  1.00  0.00     0.055 A 
ATOM     76  C   UNL A   1      45.516  24.473  35.438  1.00  0.00     0.041 A 
ATOM     77  F   UNL A   1      46.568  24.634  33.372  1.00  0.00    -0.206 F 
ATOM     78  C   UNL A   1      44.452  24.751  36.281  1.00  0.00     0.022 A 
BRANCH  75  79
ATOM     79  S   UNL A   1      42.022  25.903  36.945  1.00  0.00     0.124 S 
ATOM     80  O   UNL A   1      42.684  26.314  38.178  1.00  0.00    -0.237 OA
ATOM     81  O   UNL A   1      41.282  26.938  36.230  1.00  0.00    -0.237 OA
ATOM     82  O   UNL A   1      41.348  24.606  37.014  1.00  0.00    -0.744 OA
ENDBRANCH  75  79
ENDBRANCH  48  72
BRANCH  60  83
ATOM     83  C   UNL A   1      45.755  28.473  28.008  1.00  0.00     0.023 A 
ATOM     84  C   UNL A   1      46.166  27.175  27.615  1.00  0.00     0.031 A 
ATOM     85  C   UNL A   1      46.657  29.528  27.790  1.00  0.00     0.131 A 
ATOM     86  C   UNL A   1      47.440  26.976  27.043  1.00  0.00     0.055 A 
ATOM     87  C   UNL A   1      47.908  29.331  27.207  1.00  0.00     0.041 A 
ATOM     88  F   UNL A   1      46.319  30.788  28.113  1.00  0.00    -0.206 F 
ATOM     89  C   UNL A   1      48.308  28.053  26.837  1.00  0.00     0.022 A 
BRANCH  86  90
ATOM     90  S   UNL A   1      48.006  25.306  26.571  1.00  0.00     0.124 S 
ATOM     91  O   UNL A   1      49.460  25.408  26.618  1.00  0.00    -0.237 OA
ATOM     92  O   UNL A   1      47.392  24.461  27.591  1.00  0.00    -0.237 OA
ATOM     93  O   UNL A   1      47.453  25.128  25.225  1.00  0.00    -0.744 OA
ENDBRANCH  86  90
ENDBRANCH  60  83
ENDBRANCH  34  35
ENDBRANCH  26  29
ENDBRANCH  24  25
ENDBRANCH  23  24
ENDBRANCH   1  23
TORSDOF 19
ENDMDL
