MODEL 1
REMARK VINA RESULT:     -12.0      0.000      0.000
REMARK SMILES C[C@@H](C(=O)NCCCCNC(=O)c1ccc(-c2c3nc(c(-c4cc(S(=O)(=O)[O-])ccc4F)c4ccc([nH]4)c(-c4cc(S(=O)(=O)[O-])ccc4F)c4nc(c(-c5cc(S(=O)(=O)[O-])ccc5F)c5ccc2[nH]5)C=C4)C=C3)cc1)c1ccc(C[C@@H]2CCC[C@@H]2O)cc1F
REMARK SMILES IDX 7 1 6 2 5 3 3 4 4 5 2 7 1 8 76 9 77 10 88 11 78 12 87 13
REMARK SMILES IDX 89 14 79 15 80 16 81 17 82 18 85 19 83 20 84 21 86 22 8 24
REMARK SMILES IDX 9 25 10 26 11 27 12 29 13 30 14 31 75 32 15 33 74 34 16 35
REMARK SMILES IDX 17 36 18 37 68 38 19 39 73 40 67 41 69 42 20 43 72 44 66 45
REMARK SMILES IDX 65 46 21 48 53 49 33 50 52 51 34 52 37 53 51 54 70 55 35 56
REMARK SMILES IDX 36 57 50 59 71 60 38 61 22 62 23 63 31 64 24 65 30 66 32 67
REMARK SMILES IDX 29 68 25 69 26 70 27 71 28 72 54 73 55 74 63 75 56 76 62 77
REMARK SMILES IDX 64 78 61 79 57 80 58 81 59 82 60 83 39 84 40 85 48 86 41 87
REMARK SMILES IDX 47 88 49 89 46 90 42 91 43 92 44 93 45 94
REMARK H PARENT 5 6 86 23 10 28 69 47 37 58
REMARK Flexibility Score: inf
ROOT
ATOM      1  C   UNL A   1      31.574  27.927  27.105  1.00  0.00     0.023 C 
ENDROOT
BRANCH   1   2
ATOM      2  C   UNL A   1      31.047  26.514  26.853  1.00  0.00     0.116 C 
BRANCH   2   3
ATOM      3  N   UNL A   1      32.099  25.630  26.395  1.00  0.00    -0.356 N 
ATOM      4  C   UNL A   1      32.103  24.716  25.381  1.00  0.00     0.227 C 
ATOM      5  O   UNL A   1      33.136  24.063  25.222  1.00  0.00    -0.274 OA
ATOM      6  H   UNL A   1      32.944  25.698  26.895  1.00  0.00     0.163 HD
BRANCH   4   7
ATOM      7  C   UNL A   1      30.883  24.591  24.459  1.00  0.00     0.108 C 
ATOM      8  C   UNL A   1      31.001  23.429  23.465  1.00  0.00     0.023 C 
BRANCH   7   9
ATOM      9  C   UNL A   1      30.586  25.898  23.735  1.00  0.00    -0.000 A 
ATOM     10  C   UNL A   1      31.556  26.479  22.906  1.00  0.00     0.008 A 
ATOM     11  C   UNL A   1      29.357  26.552  23.868  1.00  0.00     0.127 A 
ATOM     12  C   UNL A   1      31.324  27.718  22.299  1.00  0.00     0.004 A 
ATOM     13  C   UNL A   1      29.130  27.792  23.282  1.00  0.00     0.043 A 
ATOM     14  F   UNL A   1      28.377  26.013  24.606  1.00  0.00    -0.207 F 
ATOM     15  C   UNL A   1      30.129  28.410  22.523  1.00  0.00    -0.045 A 
BRANCH  15  16
ATOM     16  C   UNL A   1      29.916  29.806  21.996  1.00  0.00     0.041 C 
BRANCH  16  17
ATOM     17  C   UNL A   1      28.562  30.489  22.298  1.00  0.00     0.022 C 
ATOM     18  C   UNL A   1      27.838  31.050  21.068  1.00  0.00     0.007 C 
ATOM     19  C   UNL A   1      28.561  31.685  23.257  1.00  0.00     0.117 C 
ATOM     20  C   UNL A   1      28.097  32.558  21.050  1.00  0.00     0.003 C 
ATOM     21  C   UNL A   1      28.781  32.902  22.370  1.00  0.00     0.032 C 
BRANCH  19  22
ATOM     22  O   UNL A   1      29.518  31.607  24.291  1.00  0.00    -0.393 OA
ATOM     23  H   UNL A   1      29.067  31.495  25.142  1.00  0.00     0.210 HD
ENDBRANCH  19  22
ENDBRANCH  16  17
ENDBRANCH  15  16
ENDBRANCH   7   9
ENDBRANCH   4   7
ENDBRANCH   2   3
ENDBRANCH   1   2
BRANCH   1  24
ATOM     24  C   UNL A   1      31.526  28.854  25.887  1.00  0.00     0.023 C 
BRANCH  24  25
ATOM     25  C   UNL A   1      32.719  29.790  25.728  1.00  0.00     0.116 C 
BRANCH  25  26
ATOM     26  N   UNL A   1      32.462  31.126  26.244  1.00  0.00    -0.352 N 
ATOM     27  C   UNL A   1      33.169  31.832  27.190  1.00  0.00     0.251 C 
ATOM     28  H   UNL A   1      31.679  31.587  25.865  1.00  0.00     0.163 HD
ATOM     29  O   UNL A   1      32.739  32.906  27.602  1.00  0.00    -0.269 OA
BRANCH  27  30
ATOM     30  C   UNL A   1      34.422  31.266  27.732  1.00  0.00     0.039 A 
ATOM     31  C   UNL A   1      35.482  32.128  28.024  1.00  0.00     0.014 A 
ATOM     32  C   UNL A   1      34.528  29.898  27.996  1.00  0.00     0.014 A 
ATOM     33  C   UNL A   1      36.620  31.630  28.664  1.00  0.00     0.010 A 
ATOM     34  C   UNL A   1      35.639  29.415  28.684  1.00  0.00     0.010 A 
ATOM     35  C   UNL A   1      36.686  30.279  29.041  1.00  0.00    -0.014 A 
BRANCH  35  36
ATOM     36  C   UNL A   1      37.816  29.751  29.849  1.00  0.00     0.031 A 
ATOM     37  C   UNL A   1      38.002  30.204  31.270  1.00  0.00     0.074 A 
ATOM     38  C   UNL A   1      38.732  28.953  29.264  1.00  0.00     0.049 A 
ATOM     39  N   UNL A   1      38.999  29.977  32.086  1.00  0.00    -0.248 NA
ATOM     40  C   UNL A   1      36.939  31.048  31.836  1.00  0.00     0.031 C 
ATOM     41  C   UNL A   1      38.678  28.479  27.877  1.00  0.00     0.029 A 
ATOM     42  N   UNL A   1      39.903  28.423  29.747  1.00  0.00    -0.354 N 
ATOM     43  C   UNL A   1      38.699  30.670  33.253  1.00  0.00     0.074 A 
ATOM     44  C   UNL A   1      37.441  31.352  33.025  1.00  0.00     0.031 C 
ATOM     45  C   UNL A   1      39.767  27.736  27.622  1.00  0.00     0.029 A 
ATOM     46  C   UNL A   1      40.621  27.719  28.806  1.00  0.00     0.049 A 
ATOM     47  H   UNL A   1      40.201  28.535  30.678  1.00  0.00     0.167 HD
ATOM     48  C   UNL A   1      39.405  30.724  34.408  1.00  0.00     0.034 A 
ATOM     49  C   UNL A   1      41.843  27.154  28.876  1.00  0.00     0.034 A 
ATOM     50  C   UNL A   1      40.641  30.015  34.627  1.00  0.00     0.049 A 
ATOM     51  C   UNL A   1      42.616  27.246  30.167  1.00  0.00     0.074 A 
ATOM     52  C   UNL A   1      41.377  29.910  35.795  1.00  0.00     0.029 A 
ATOM     53  N   UNL A   1      41.334  29.304  33.656  1.00  0.00    -0.354 N 
ATOM     54  N   UNL A   1      42.279  27.839  31.289  1.00  0.00    -0.248 NA
ATOM     55  C   UNL A   1      43.932  26.594  30.203  1.00  0.00     0.031 C 
ATOM     56  C   UNL A   1      42.547  29.196  35.513  1.00  0.00     0.029 A 
ATOM     57  C   UNL A   1      42.510  28.798  34.186  1.00  0.00     0.049 A 
ATOM     58  H   UNL A   1      41.033  29.178  32.728  1.00  0.00     0.167 HD
ATOM     59  C   UNL A   1      43.332  27.609  32.169  1.00  0.00     0.074 A 
ATOM     60  C   UNL A   1      44.308  26.813  31.456  1.00  0.00     0.031 C 
ATOM     61  C   UNL A   1      43.479  28.017  33.456  1.00  0.00     0.034 A 
BRANCH  48  62
ATOM     62  C   UNL A   1      38.876  31.602  35.514  1.00  0.00     0.023 A 
ATOM     63  C   UNL A   1      38.287  31.066  36.671  1.00  0.00     0.031 A 
ATOM     64  C   UNL A   1      38.971  33.001  35.409  1.00  0.00     0.131 A 
ATOM     65  C   UNL A   1      37.764  31.923  37.651  1.00  0.00     0.055 A 
ATOM     66  C   UNL A   1      38.511  33.849  36.418  1.00  0.00     0.041 A 
ATOM     67  F   UNL A   1      39.509  33.568  34.317  1.00  0.00    -0.206 F 
ATOM     68  C   UNL A   1      37.893  33.310  37.543  1.00  0.00     0.022 A 
BRANCH  65  69
ATOM     69  S   UNL A   1      36.814  31.203  39.017  1.00  0.00     0.124 S 
ATOM     70  O   UNL A   1      35.712  32.153  39.144  1.00  0.00    -0.237 OA
ATOM     71  O   UNL A   1      36.465  29.885  38.499  1.00  0.00    -0.237 OA
ATOM     72  O   UNL A   1      37.760  31.204  40.131  1.00  0.00    -0.744 OA
ENDBRANCH  65  69
ENDBRANCH  48  62
BRANCH  49  73
ATOM     73  C   UNL A   1      42.442  26.490  27.682  1.00  0.00     0.023 A 
ATOM     74  C   UNL A   1      42.118  25.165  27.352  1.00  0.00     0.031 A 
ATOM     75  C   UNL A   1      43.393  27.155  26.888  1.00  0.00     0.131 A 
ATOM     76  C   UNL A   1      42.777  24.528  26.287  1.00  0.00     0.055 A 
ATOM     77  C   UNL A   1      44.007  26.535  25.797  1.00  0.00     0.041 A 
ATOM     78  F   UNL A   1      43.737  28.424  27.158  1.00  0.00    -0.206 F 
ATOM     79  C   UNL A   1      43.710  25.208  25.501  1.00  0.00     0.022 A 
BRANCH  76  80
ATOM     80  S   UNL A   1      42.469  22.763  26.008  1.00  0.00     0.124 S 
ATOM     81  O   UNL A   1      43.199  22.153  27.114  1.00  0.00    -0.237 OA
ATOM     82  O   UNL A   1      41.012  22.696  26.085  1.00  0.00    -0.237 OA
ATOM     83  O   UNL A   1      43.033  22.524  24.682  1.00  0.00    -0.744 OA
ENDBRANCH  76  80
ENDBRANCH  49  73
BRANCH  61  84
ATOM     84  C   UNL A   1      44.727  27.576  34.175  1.00  0.00     0.023 A 
ATOM     85  C   UNL A   1      44.779  26.363  34.883  1.00  0.00     0.031 A 
ATOM     86  C   UNL A   1      45.880  28.381  34.150  1.00  0.00     0.131 A 
ATOM     87  C   UNL A   1      45.948  26.008  35.572  1.00  0.00     0.055 A 
ATOM     88  C   UNL A   1      47.057  27.997  34.794  1.00  0.00     0.041 A 
ATOM     89  F   UNL A   1      45.882  29.550  33.489  1.00  0.00    -0.206 F 
ATOM     90  C   UNL A   1      47.093  26.809  35.518  1.00  0.00     0.022 A 
BRANCH  87  91
ATOM     91  S   UNL A   1      45.939  24.508  36.592  1.00  0.00     0.124 S 
ATOM     92  O   UNL A   1      44.564  24.484  37.082  1.00  0.00    -0.237 OA
ATOM     93  O   UNL A   1      46.291  23.469  35.628  1.00  0.00    -0.237 OA
ATOM     94  O   UNL A   1      46.955  24.778  37.607  1.00  0.00    -0.744 OA
ENDBRANCH  87  91
ENDBRANCH  61  84
ENDBRANCH  35  36
ENDBRANCH  27  30
ENDBRANCH  25  26
ENDBRANCH  24  25
ENDBRANCH   1  24
TORSDOF 18
ENDMDL
MODEL 2
REMARK VINA RESULT:     -11.9      4.785      6.963
REMARK SMILES C[C@@H](C(=O)NCCCCNC(=O)c1ccc(-c2c3nc(c(-c4cc(S(=O)(=O)[O-])ccc4F)c4ccc([nH]4)c(-c4cc(S(=O)(=O)[O-])ccc4F)c4nc(c(-c5cc(S(=O)(=O)[O-])ccc5F)c5ccc2[nH]5)C=C4)C=C3)cc1)c1ccc(C[C@@H]2CCC[C@@H]2O)cc1F
REMARK SMILES IDX 7 1 6 2 5 3 3 4 4 5 2 7 1 8 76 9 77 10 88 11 78 12 87 13
REMARK SMILES IDX 89 14 79 15 80 16 81 17 82 18 85 19 83 20 84 21 86 22 8 24
REMARK SMILES IDX 9 25 10 26 11 27 12 29 13 30 14 31 75 32 15 33 74 34 16 35
REMARK SMILES IDX 17 36 18 37 68 38 19 39 73 40 67 41 69 42 20 43 72 44 66 45
REMARK SMILES IDX 65 46 21 48 53 49 33 50 52 51 34 52 37 53 51 54 70 55 35 56
REMARK SMILES IDX 36 57 50 59 71 60 38 61 22 62 23 63 31 64 24 65 30 66 32 67
REMARK SMILES IDX 29 68 25 69 26 70 27 71 28 72 54 73 55 74 63 75 56 76 62 77
REMARK SMILES IDX 64 78 61 79 57 80 58 81 59 82 60 83 39 84 40 85 48 86 41 87
REMARK SMILES IDX 47 88 49 89 46 90 42 91 43 92 44 93 45 94
REMARK H PARENT 5 6 86 23 10 28 69 47 37 58
REMARK Flexibility Score: inf
ROOT
ATOM      1  C   UNL A   1      34.153  21.130  25.913  1.00  0.00     0.023 C 
ENDROOT
BRANCH   1   2
ATOM      2  C   UNL A   1      32.710  21.347  25.457  1.00  0.00     0.116 C 
BRANCH   2   3
ATOM      3  N   UNL A   1      31.999  22.235  26.352  1.00  0.00    -0.356 N 
ATOM      4  C   UNL A   1      31.954  23.599  26.390  1.00  0.00     0.227 C 
ATOM      5  O   UNL A   1      31.285  24.111  27.290  1.00  0.00    -0.274 OA
ATOM      6  H   UNL A   1      31.463  21.784  27.044  1.00  0.00     0.163 HD
BRANCH   4   7
ATOM      7  C   UNL A   1      32.658  24.418  25.299  1.00  0.00     0.108 C 
ATOM      8  C   UNL A   1      33.964  25.061  25.784  1.00  0.00     0.023 C 
BRANCH   7   9
ATOM      9  C   UNL A   1      31.732  25.461  24.689  1.00  0.00    -0.000 A 
ATOM     10  C   UNL A   1      31.848  26.808  25.061  1.00  0.00     0.008 A 
ATOM     11  C   UNL A   1      30.751  25.119  23.752  1.00  0.00     0.127 A 
ATOM     12  C   UNL A   1      30.951  27.762  24.568  1.00  0.00     0.004 A 
ATOM     13  C   UNL A   1      29.847  26.061  23.274  1.00  0.00     0.043 A 
ATOM     14  F   UNL A   1      30.633  23.855  23.323  1.00  0.00    -0.207 F 
ATOM     15  C   UNL A   1      29.911  27.389  23.710  1.00  0.00    -0.045 A 
BRANCH  15  16
ATOM     16  C   UNL A   1      28.852  28.371  23.281  1.00  0.00     0.041 C 
BRANCH  16  17
ATOM     17  C   UNL A   1      29.207  29.876  23.328  1.00  0.00     0.022 C 
ATOM     18  C   UNL A   1      28.031  30.802  23.660  1.00  0.00     0.007 C 
ATOM     19  C   UNL A   1      29.786  30.516  22.061  1.00  0.00     0.117 C 
ATOM     20  C   UNL A   1      27.554  31.405  22.336  1.00  0.00     0.003 C 
ATOM     21  C   UNL A   1      28.576  31.002  21.277  1.00  0.00     0.032 C 
BRANCH  19  22
ATOM     22  O   UNL A   1      30.601  29.659  21.293  1.00  0.00    -0.393 OA
ATOM     23  H   UNL A   1      31.140  30.185  20.683  1.00  0.00     0.210 HD
ENDBRANCH  19  22
ENDBRANCH  16  17
ENDBRANCH  15  16
ENDBRANCH   7   9
ENDBRANCH   4   7
ENDBRANCH   2   3
ENDBRANCH   1   2
BRANCH   1  24
ATOM     24  C   UNL A   1      35.216  21.624  24.927  1.00  0.00     0.023 C 
BRANCH  24  25
ATOM     25  C   UNL A   1      36.546  22.035  25.551  1.00  0.00     0.116 C 
BRANCH  25  26
ATOM     26  N   UNL A   1      37.540  20.972  25.515  1.00  0.00    -0.352 N 
ATOM     27  C   UNL A   1      38.867  21.026  25.871  1.00  0.00     0.251 C 
ATOM     28  H   UNL A   1      37.219  20.098  25.193  1.00  0.00     0.163 HD
ATOM     29  O   UNL A   1      39.599  20.063  25.660  1.00  0.00    -0.269 OA
BRANCH  27  30
ATOM     30  C   UNL A   1      39.409  22.264  26.469  1.00  0.00     0.039 A 
ATOM     31  C   UNL A   1      40.405  22.165  27.445  1.00  0.00     0.014 A 
ATOM     32  C   UNL A   1      38.969  23.517  26.033  1.00  0.00     0.014 A 
ATOM     33  C   UNL A   1      41.024  23.324  27.919  1.00  0.00     0.010 A 
ATOM     34  C   UNL A   1      39.625  24.666  26.466  1.00  0.00     0.010 A 
ATOM     35  C   UNL A   1      40.671  24.579  27.398  1.00  0.00    -0.014 A 
BRANCH  35  36
ATOM     36  C   UNL A   1      41.408  25.813  27.775  1.00  0.00     0.031 A 
ATOM     37  C   UNL A   1      40.705  26.910  28.525  1.00  0.00     0.074 A 
ATOM     38  C   UNL A   1      42.673  25.988  27.342  1.00  0.00     0.049 A 
ATOM     39  N   UNL A   1      41.126  28.115  28.814  1.00  0.00    -0.248 NA
ATOM     40  C   UNL A   1      39.338  26.622  28.985  1.00  0.00     0.031 C 
ATOM     41  C   UNL A   1      43.445  25.008  26.571  1.00  0.00     0.029 A 
ATOM     42  N   UNL A   1      43.525  27.058  27.460  1.00  0.00    -0.354 N 
ATOM     43  C   UNL A   1      40.069  28.740  29.465  1.00  0.00     0.074 A 
ATOM     44  C   UNL A   1      38.975  27.789  29.499  1.00  0.00     0.031 C 
ATOM     45  C   UNL A   1      44.650  25.525  26.282  1.00  0.00     0.029 A 
ATOM     46  C   UNL A   1      44.721  26.887  26.801  1.00  0.00     0.049 A 
ATOM     47  H   UNL A   1      43.302  27.871  27.968  1.00  0.00     0.167 HD
ATOM     48  C   UNL A   1      40.021  29.987  29.992  1.00  0.00     0.034 A 
ATOM     49  C   UNL A   1      45.746  27.742  26.606  1.00  0.00     0.034 A 
ATOM     50  C   UNL A   1      41.129  30.909  29.975  1.00  0.00     0.049 A 
ATOM     51  C   UNL A   1      45.658  29.131  27.185  1.00  0.00     0.074 A 
ATOM     52  C   UNL A   1      41.223  32.152  30.578  1.00  0.00     0.029 A 
ATOM     53  N   UNL A   1      42.329  30.700  29.307  1.00  0.00    -0.354 N 
ATOM     54  N   UNL A   1      44.680  29.677  27.870  1.00  0.00    -0.248 NA
ATOM     55  C   UNL A   1      46.810  30.017  26.968  1.00  0.00     0.031 C 
ATOM     56  C   UNL A   1      42.450  32.722  30.218  1.00  0.00     0.029 A 
ATOM     57  C   UNL A   1      43.149  31.808  29.446  1.00  0.00     0.049 A 
ATOM     58  H   UNL A   1      42.562  29.883  28.809  1.00  0.00     0.167 HD
ATOM     59  C   UNL A   1      45.111  30.963  28.183  1.00  0.00     0.074 A 
ATOM     60  C   UNL A   1      46.440  31.106  27.628  1.00  0.00     0.031 C 
ATOM     61  C   UNL A   1      44.467  31.939  28.873  1.00  0.00     0.034 A 
BRANCH  48  62
ATOM     62  C   UNL A   1      38.720  30.441  30.604  1.00  0.00     0.023 A 
ATOM     63  C   UNL A   1      37.754  31.141  29.863  1.00  0.00     0.031 A 
ATOM     64  C   UNL A   1      38.441  30.161  31.954  1.00  0.00     0.131 A 
ATOM     65  C   UNL A   1      36.580  31.587  30.489  1.00  0.00     0.055 A 
ATOM     66  C   UNL A   1      37.242  30.547  32.554  1.00  0.00     0.041 A 
ATOM     67  F   UNL A   1      39.336  29.510  32.715  1.00  0.00    -0.206 F 
ATOM     68  C   UNL A   1      36.307  31.275  31.823  1.00  0.00     0.022 A 
BRANCH  65  69
ATOM     69  S   UNL A   1      35.463  32.677  29.565  1.00  0.00     0.124 S 
ATOM     70  O   UNL A   1      36.314  33.840  29.328  1.00  0.00    -0.237 OA
ATOM     71  O   UNL A   1      35.137  31.874  28.392  1.00  0.00    -0.237 OA
ATOM     72  O   UNL A   1      34.357  32.902  30.493  1.00  0.00    -0.744 OA
ENDBRANCH  65  69
ENDBRANCH  48  62
BRANCH  49  73
ATOM     73  C   UNL A   1      46.928  27.336  25.789  1.00  0.00     0.023 A 
ATOM     74  C   UNL A   1      47.082  27.784  24.468  1.00  0.00     0.031 A 
ATOM     75  C   UNL A   1      47.888  26.446  26.302  1.00  0.00     0.131 A 
ATOM     76  C   UNL A   1      48.145  27.301  23.686  1.00  0.00     0.055 A 
ATOM     77  C   UNL A   1      48.973  26.011  25.538  1.00  0.00     0.041 A 
ATOM     78  F   UNL A   1      47.789  25.990  27.560  1.00  0.00    -0.206 F 
ATOM     79  C   UNL A   1      49.097  26.428  24.216  1.00  0.00     0.022 A 
BRANCH  76  80
ATOM     80  S   UNL A   1      48.206  27.757  21.932  1.00  0.00     0.124 S 
ATOM     81  O   UNL A   1      46.914  28.409  21.747  1.00  0.00    -0.237 OA
ATOM     82  O   UNL A   1      49.376  28.628  21.887  1.00  0.00    -0.237 OA
ATOM     83  O   UNL A   1      48.360  26.473  21.253  1.00  0.00    -0.744 OA
ENDBRANCH  76  80
ENDBRANCH  49  73
BRANCH  61  84
ATOM     84  C   UNL A   1      45.212  33.231  29.088  1.00  0.00     0.023 A 
ATOM     85  C   UNL A   1      46.050  33.421  30.200  1.00  0.00     0.031 A 
ATOM     86  C   UNL A   1      45.082  34.285  28.166  1.00  0.00     0.131 A 
ATOM     87  C   UNL A   1      46.696  34.652  30.384  1.00  0.00     0.055 A 
ATOM     88  C   UNL A   1      45.767  35.489  28.327  1.00  0.00     0.041 A 
ATOM     89  F   UNL A   1      44.292  34.155  27.088  1.00  0.00    -0.206 F 
ATOM     90  C   UNL A   1      46.573  35.681  29.446  1.00  0.00     0.022 A 
BRANCH  87  91
ATOM     91  S   UNL A   1      47.657  34.916  31.900  1.00  0.00     0.124 S 
ATOM     92  O   UNL A   1      47.867  36.360  31.877  1.00  0.00    -0.237 OA
ATOM     93  O   UNL A   1      46.755  34.419  32.935  1.00  0.00    -0.237 OA
ATOM     94  O   UNL A   1      48.858  34.111  31.689  1.00  0.00    -0.744 OA
ENDBRANCH  87  91
ENDBRANCH  61  84
ENDBRANCH  35  36
ENDBRANCH  27  30
ENDBRANCH  25  26
ENDBRANCH  24  25
ENDBRANCH   1  24
TORSDOF 18
ENDMDL
MODEL 3
REMARK VINA RESULT:     -11.7      3.032      9.010
REMARK SMILES C[C@@H](C(=O)NCCCCNC(=O)c1ccc(-c2c3nc(c(-c4cc(S(=O)(=O)[O-])ccc4F)c4ccc([nH]4)c(-c4cc(S(=O)(=O)[O-])ccc4F)c4nc(c(-c5cc(S(=O)(=O)[O-])ccc5F)c5ccc2[nH]5)C=C4)C=C3)cc1)c1ccc(C[C@@H]2CCC[C@@H]2O)cc1F
REMARK SMILES IDX 7 1 6 2 5 3 3 4 4 5 2 7 1 8 76 9 77 10 88 11 78 12 87 13
REMARK SMILES IDX 89 14 79 15 80 16 81 17 82 18 85 19 83 20 84 21 86 22 8 24
REMARK SMILES IDX 9 25 10 26 11 27 12 29 13 30 14 31 75 32 15 33 74 34 16 35
REMARK SMILES IDX 17 36 18 37 68 38 19 39 73 40 67 41 69 42 20 43 72 44 66 45
REMARK SMILES IDX 65 46 21 48 53 49 33 50 52 51 34 52 37 53 51 54 70 55 35 56
REMARK SMILES IDX 36 57 50 59 71 60 38 61 22 62 23 63 31 64 24 65 30 66 32 67
REMARK SMILES IDX 29 68 25 69 26 70 27 71 28 72 54 73 55 74 63 75 56 76 62 77
REMARK SMILES IDX 64 78 61 79 57 80 58 81 59 82 60 83 39 84 40 85 48 86 41 87
REMARK SMILES IDX 47 88 49 89 46 90 42 91 43 92 44 93 45 94
REMARK H PARENT 5 6 86 23 10 28 69 47 37 58
REMARK Flexibility Score: inf
ROOT
ATOM      1  C   UNL A   1      32.340  29.204  27.249  1.00  0.00     0.023 C 
ENDROOT
BRANCH   1   2
ATOM      2  C   UNL A   1      31.924  28.229  26.147  1.00  0.00     0.116 C 
BRANCH   2   3
ATOM      3  N   UNL A   1      31.125  27.143  26.675  1.00  0.00    -0.356 N 
ATOM      4  C   UNL A   1      30.588  26.056  26.046  1.00  0.00     0.227 C 
ATOM      5  O   UNL A   1      29.914  25.289  26.735  1.00  0.00    -0.274 OA
ATOM      6  H   UNL A   1      30.939  27.196  27.640  1.00  0.00     0.163 HD
BRANCH   4   7
ATOM      7  C   UNL A   1      30.897  25.800  24.564  1.00  0.00     0.108 C 
ATOM      8  C   UNL A   1      29.651  25.880  23.672  1.00  0.00     0.023 C 
BRANCH   7   9
ATOM      9  C   UNL A   1      31.629  24.481  24.359  1.00  0.00    -0.000 A 
ATOM     10  C   UNL A   1      31.140  23.541  23.440  1.00  0.00     0.008 A 
ATOM     11  C   UNL A   1      32.793  24.167  25.066  1.00  0.00     0.127 A 
ATOM     12  C   UNL A   1      31.760  22.294  23.301  1.00  0.00     0.004 A 
ATOM     13  C   UNL A   1      33.400  22.921  24.945  1.00  0.00     0.043 A 
ATOM     14  F   UNL A   1      33.331  25.051  25.917  1.00  0.00    -0.207 F 
ATOM     15  C   UNL A   1      32.864  21.953  24.089  1.00  0.00    -0.045 A 
BRANCH  15  16
ATOM     16  C   UNL A   1      33.457  20.568  24.058  1.00  0.00     0.041 C 
BRANCH  16  17
ATOM     17  C   UNL A   1      32.511  19.375  24.331  1.00  0.00     0.022 C 
ATOM     18  C   UNL A   1      32.996  18.407  25.417  1.00  0.00     0.007 C 
ATOM     19  C   UNL A   1      32.192  18.432  23.165  1.00  0.00     0.117 C 
ATOM     20  C   UNL A   1      33.599  17.199  24.697  1.00  0.00     0.003 C 
ATOM     21  C   UNL A   1      33.274  17.363  23.215  1.00  0.00     0.032 C 
BRANCH  19  22
ATOM     22  O   UNL A   1      32.131  19.061  21.904  1.00  0.00    -0.393 OA
ATOM     23  H   UNL A   1      31.488  19.787  21.935  1.00  0.00     0.210 HD
ENDBRANCH  19  22
ENDBRANCH  16  17
ENDBRANCH  15  16
ENDBRANCH   7   9
ENDBRANCH   4   7
ENDBRANCH   2   3
ENDBRANCH   1   2
BRANCH   1  24
ATOM     24  C   UNL A   1      32.054  30.677  26.941  1.00  0.00     0.023 C 
BRANCH  24  25
ATOM     25  C   UNL A   1      33.189  31.644  27.257  1.00  0.00     0.116 C 
BRANCH  25  26
ATOM     26  N   UNL A   1      32.730  33.011  27.454  1.00  0.00    -0.352 N 
ATOM     27  C   UNL A   1      33.197  33.954  28.340  1.00  0.00     0.251 C 
ATOM     28  H   UNL A   1      31.986  33.299  26.876  1.00  0.00     0.163 HD
ATOM     29  O   UNL A   1      32.609  35.025  28.462  1.00  0.00    -0.269 OA
BRANCH  27  30
ATOM     30  C   UNL A   1      34.382  33.649  29.168  1.00  0.00     0.039 A 
ATOM     31  C   UNL A   1      34.227  32.839  30.297  1.00  0.00     0.014 A 
ATOM     32  C   UNL A   1      35.646  34.119  28.803  1.00  0.00     0.014 A 
ATOM     33  C   UNL A   1      35.356  32.427  31.010  1.00  0.00     0.010 A 
ATOM     34  C   UNL A   1      36.772  33.662  29.482  1.00  0.00     0.010 A 
ATOM     35  C   UNL A   1      36.640  32.798  30.580  1.00  0.00    -0.014 A 
BRANCH  35  36
ATOM     36  C   UNL A   1      37.864  32.260  31.229  1.00  0.00     0.031 A 
ATOM     37  C   UNL A   1      38.615  31.123  30.594  1.00  0.00     0.074 A 
ATOM     38  C   UNL A   1      38.228  32.723  32.442  1.00  0.00     0.049 A 
ATOM     39  N   UNL A   1      39.610  30.422  31.072  1.00  0.00    -0.248 NA
ATOM     40  C   UNL A   1      38.167  30.703  29.258  1.00  0.00     0.031 C 
ATOM     41  C   UNL A   1      37.550  33.797  33.175  1.00  0.00     0.029 A 
ATOM     42  N   UNL A   1      39.236  32.333  33.288  1.00  0.00    -0.354 N 
ATOM     43  C   UNL A   1      39.892  29.460  30.109  1.00  0.00     0.074 A 
ATOM     44  C   UNL A   1      38.940  29.649  29.034  1.00  0.00     0.031 C 
ATOM     45  C   UNL A   1      38.158  33.975  34.359  1.00  0.00     0.029 A 
ATOM     46  C   UNL A   1      39.234  32.998  34.494  1.00  0.00     0.049 A 
ATOM     47  H   UNL A   1      39.898  31.643  33.056  1.00  0.00     0.167 HD
ATOM     48  C   UNL A   1      40.862  28.513  30.121  1.00  0.00     0.034 A 
ATOM     49  C   UNL A   1      39.989  32.819  35.597  1.00  0.00     0.034 A 
ATOM     50  C   UNL A   1      41.821  28.358  31.187  1.00  0.00     0.049 A 
ATOM     51  C   UNL A   1      41.047  31.745  35.590  1.00  0.00     0.074 A 
ATOM     52  C   UNL A   1      42.911  27.508  31.245  1.00  0.00     0.029 A 
ATOM     53  N   UNL A   1      41.795  29.055  32.388  1.00  0.00    -0.354 N 
ATOM     54  N   UNL A   1      41.353  30.896  34.636  1.00  0.00    -0.248 NA
ATOM     55  C   UNL A   1      41.861  31.605  36.805  1.00  0.00     0.031 C 
ATOM     56  C   UNL A   1      43.503  27.640  32.507  1.00  0.00     0.029 A 
ATOM     57  C   UNL A   1      42.822  28.621  33.211  1.00  0.00     0.049 A 
ATOM     58  H   UNL A   1      41.143  29.755  32.620  1.00  0.00     0.167 HD
ATOM     59  C   UNL A   1      42.411  30.138  35.130  1.00  0.00     0.074 A 
ATOM     60  C   UNL A   1      42.700  30.639  36.458  1.00  0.00     0.031 C 
ATOM     61  C   UNL A   1      43.086  29.121  34.538  1.00  0.00     0.034 A 
BRANCH  48  62
ATOM     62  C   UNL A   1      40.918  27.551  28.961  1.00  0.00     0.023 A 
ATOM     63  C   UNL A   1      41.848  27.696  27.919  1.00  0.00     0.031 A 
ATOM     64  C   UNL A   1      40.025  26.465  28.904  1.00  0.00     0.131 A 
ATOM     65  C   UNL A   1      41.829  26.805  26.835  1.00  0.00     0.055 A 
ATOM     66  C   UNL A   1      40.056  25.542  27.858  1.00  0.00     0.041 A 
ATOM     67  F   UNL A   1      39.103  26.288  29.864  1.00  0.00    -0.206 F 
ATOM     68  C   UNL A   1      40.955  25.715  26.809  1.00  0.00     0.022 A 
BRANCH  65  69
ATOM     69  S   UNL A   1      42.889  27.153  25.406  1.00  0.00     0.124 S 
ATOM     70  O   UNL A   1      42.207  28.295  24.803  1.00  0.00    -0.237 OA
ATOM     71  O   UNL A   1      44.177  27.433  26.029  1.00  0.00    -0.237 OA
ATOM     72  O   UNL A   1      42.829  25.918  24.626  1.00  0.00    -0.744 OA
ENDBRANCH  65  69
ENDBRANCH  48  62
BRANCH  49  73
ATOM     73  C   UNL A   1      39.750  33.638  36.821  1.00  0.00     0.023 A 
ATOM     74  C   UNL A   1      40.558  34.746  37.120  1.00  0.00     0.031 A 
ATOM     75  C   UNL A   1      38.746  33.285  37.741  1.00  0.00     0.131 A 
ATOM     76  C   UNL A   1      40.381  35.434  38.332  1.00  0.00     0.055 A 
ATOM     77  C   UNL A   1      38.539  34.005  38.919  1.00  0.00     0.041 A 
ATOM     78  F   UNL A   1      37.944  32.236  37.502  1.00  0.00    -0.206 F 
ATOM     79  C   UNL A   1      39.370  35.078  39.228  1.00  0.00     0.022 A 
BRANCH  76  80
ATOM     80  S   UNL A   1      41.561  36.741  38.767  1.00  0.00     0.124 S 
ATOM     81  O   UNL A   1      42.356  36.093  39.805  1.00  0.00    -0.237 OA
ATOM     82  O   UNL A   1      42.235  36.973  37.493  1.00  0.00    -0.237 OA
ATOM     83  O   UNL A   1      40.705  37.832  39.226  1.00  0.00    -0.744 OA
ENDBRANCH  76  80
ENDBRANCH  49  73
BRANCH  61  84
ATOM     84  C   UNL A   1      44.224  28.511  35.316  1.00  0.00     0.023 A 
ATOM     85  C   UNL A   1      44.030  27.403  36.158  1.00  0.00     0.031 A 
ATOM     86  C   UNL A   1      45.520  29.047  35.211  1.00  0.00     0.131 A 
ATOM     87  C   UNL A   1      45.108  26.889  36.894  1.00  0.00     0.055 A 
ATOM     88  C   UNL A   1      46.599  28.500  35.906  1.00  0.00     0.041 A 
ATOM     89  F   UNL A   1      45.758  30.107  34.422  1.00  0.00    -0.206 F 
ATOM     90  C   UNL A   1      46.394  27.421  36.761  1.00  0.00     0.022 A 
BRANCH  87  91
ATOM     91  S   UNL A   1      44.798  25.551  38.078  1.00  0.00     0.124 S 
ATOM     92  O   UNL A   1      43.696  24.834  37.443  1.00  0.00    -0.237 OA
ATOM     93  O   UNL A   1      46.080  24.853  38.108  1.00  0.00    -0.237 OA
ATOM     94  O   UNL A   1      44.450  26.257  39.310  1.00  0.00    -0.744 OA
ENDBRANCH  87  91
ENDBRANCH  61  84
ENDBRANCH  35  36
ENDBRANCH  27  30
ENDBRANCH  25  26
ENDBRANCH  24  25
ENDBRANCH   1  24
TORSDOF 18
ENDMDL
