MODEL 1
REMARK VINA RESULT:     -11.2      0.000      0.000
REMARK SMILES Cc1nnc(SCC[C@H]2CCC[C@]2([NH3+])C(=O)NCCCCNC(=O)c2ccc(-c3c4nc(c(-c5cc(S(=O)(=O)[O-])ccc5F)c5ccc([nH]5)c(-c5cc(S(=O)(=O)[O-])ccc5F)c5nc(c(-c6cc(S(=O)(=O)[O-])ccc6F)c6ccc3[nH]6)C=C5)C=C4)cc2)o1
REMARK SMILES IDX 19 1 18 2 17 3 15 4 16 5 13 7 9 8 10 9 11 10 12 11 8 12 7 13
REMARK SMILES IDX 6 14 5 15 1 16 2 17 3 18 88 19 4 20 14 21 20 25 21 26 22 27
REMARK SMILES IDX 23 28 24 30 25 31 26 32 87 33 27 34 86 35 28 36 29 37 30 38
REMARK SMILES IDX 80 39 31 40 85 41 79 42 81 43 32 44 84 45 78 46 77 47 33 49
REMARK SMILES IDX 65 50 45 51 64 52 46 53 49 54 63 55 82 56 47 57 48 58 62 60
REMARK SMILES IDX 83 61 50 62 34 63 35 64 43 65 36 66 42 67 44 68 41 69 37 70
REMARK SMILES IDX 38 71 39 72 40 73 66 74 67 75 75 76 68 77 74 78 76 79 73 80
REMARK SMILES IDX 69 81 70 82 71 83 72 84 51 85 52 86 60 87 53 88 59 89 61 90
REMARK SMILES IDX 58 91 54 92 55 93 56 94 57 95
REMARK H PARENT 17 6 14 22 14 23 14 24 22 29 81 48 49 59
REMARK Flexibility Score: inf
ROOT
ATOM      1  C   UNL A   1      31.737  30.093  26.455  1.00  0.00     0.023 C 
ENDROOT
BRANCH   1   2
ATOM      2  C   UNL A   1      31.642  29.666  24.992  1.00  0.00     0.116 C 
BRANCH   2   3
ATOM      3  N   UNL A   1      32.918  29.442  24.340  1.00  0.00    -0.351 N 
ATOM      4  C   UNL A   1      33.438  28.359  23.688  1.00  0.00     0.281 C 
ATOM      5  O   UNL A   1      34.422  28.592  22.970  1.00  0.00    -0.268 OA
ATOM      6  H   UNL A   1      33.524  30.217  24.373  1.00  0.00     0.163 HD
BRANCH   4   7
ATOM      7  C   UNL A   1      32.812  26.910  23.714  1.00  0.00     0.176 C 
ATOM      8  C   UNL A   1      33.565  25.859  22.871  1.00  0.00     0.061 C 
ATOM      9  C   UNL A   1      32.708  25.713  21.579  1.00  0.00     0.011 C 
ATOM     10  C   UNL A   1      31.574  26.727  21.662  1.00  0.00     0.008 C 
ATOM     11  C   UNL A   1      31.379  26.916  23.142  1.00  0.00     0.079 C 
BRANCH   8  12
ATOM     12  C   UNL A   1      33.868  24.487  23.559  1.00  0.00     0.022 C 
BRANCH  12  13
ATOM     13  C   UNL A   1      32.854  23.298  23.450  1.00  0.00     0.080 C 
BRANCH  13  14
ATOM     14  S   UNL A   1      32.170  22.467  24.943  1.00  0.00    -0.065 SA
BRANCH  14  15
ATOM     15  C   UNL A   1      32.362  20.748  24.668  1.00  0.00     0.276 A 
ATOM     16  C   UNL A   1      32.368  18.064  22.388  1.00  0.00     0.113 C 
ATOM     17  C   UNL A   1      32.490  18.893  23.608  1.00  0.00     0.214 A 
ATOM     18  N   UNL A   1      32.300  18.581  24.872  1.00  0.00    -0.112 NA
ATOM     19  O   UNL A   1      32.689  20.233  23.431  1.00  0.00    -0.416 OA
ATOM     20  N   UNL A   1      32.224  19.791  25.564  1.00  0.00    -0.101 NA
ENDBRANCH  14  15
ENDBRANCH  13  14
ENDBRANCH  12  13
ENDBRANCH   8  12
BRANCH   7  21
ATOM     21  N   UNL A   1      32.597  26.541  25.104  1.00  0.00    -0.345 N 
ATOM     22  H   UNL A   1      33.315  25.879  25.395  1.00  0.00     0.345 HD
ATOM     23  H   UNL A   1      31.678  26.111  25.204  1.00  0.00     0.345 HD
ATOM     24  H   UNL A   1      32.647  27.376  25.689  1.00  0.00     0.345 HD
ENDBRANCH   7  21
ENDBRANCH   4   7
ENDBRANCH   2   3
ENDBRANCH   1   2
BRANCH   1  25
ATOM     25  C   UNL A   1      31.590  31.603  26.657  1.00  0.00     0.023 C 
BRANCH  25  26
ATOM     26  C   UNL A   1      32.849  32.336  27.126  1.00  0.00     0.116 C 
BRANCH  26  27
ATOM     27  N   UNL A   1      32.603  33.709  27.541  1.00  0.00    -0.352 N 
ATOM     28  C   UNL A   1      33.233  34.444  28.518  1.00  0.00     0.251 C 
ATOM     29  H   UNL A   1      31.886  34.178  27.054  1.00  0.00     0.163 HD
ATOM     30  O   UNL A   1      32.806  35.560  28.819  1.00  0.00    -0.269 OA
BRANCH  28  31
ATOM     31  C   UNL A   1      34.394  33.873  29.239  1.00  0.00     0.039 A 
ATOM     32  C   UNL A   1      34.170  32.966  30.277  1.00  0.00     0.014 A 
ATOM     33  C   UNL A   1      35.702  34.201  28.868  1.00  0.00     0.014 A 
ATOM     34  C   UNL A   1      35.253  32.320  30.879  1.00  0.00     0.010 A 
ATOM     35  C   UNL A   1      36.775  33.497  29.414  1.00  0.00     0.010 A 
ATOM     36  C   UNL A   1      36.563  32.540  30.419  1.00  0.00    -0.014 A 
BRANCH  36  37
ATOM     37  C   UNL A   1      37.716  31.777  30.972  1.00  0.00     0.031 A 
ATOM     38  C   UNL A   1      38.221  32.067  32.361  1.00  0.00     0.074 A 
ATOM     39  C   UNL A   1      38.342  30.856  30.209  1.00  0.00     0.049 A 
ATOM     40  N   UNL A   1      39.256  31.568  32.988  1.00  0.00    -0.248 NA
ATOM     41  C   UNL A   1      37.473  33.068  33.138  1.00  0.00     0.031 C 
ATOM     42  C   UNL A   1      37.969  30.497  28.839  1.00  0.00     0.029 A 
ATOM     43  N   UNL A   1      39.426  30.054  30.472  1.00  0.00    -0.354 N 
ATOM     44  C   UNL A   1      39.281  32.188  34.232  1.00  0.00     0.074 A 
ATOM     45  C   UNL A   1      38.203  33.153  34.240  1.00  0.00     0.031 C 
ATOM     46  C   UNL A   1      38.787  29.530  28.397  1.00  0.00     0.029 A 
ATOM     47  C   UNL A   1      39.780  29.234  29.424  1.00  0.00     0.049 A 
ATOM     48  H   UNL A   1      39.906  30.064  31.333  1.00  0.00     0.167 HD
ATOM     49  C   UNL A   1      40.105  31.952  35.284  1.00  0.00     0.034 A 
ATOM     50  C   UNL A   1      40.797  28.356  29.298  1.00  0.00     0.034 A 
ATOM     51  C   UNL A   1      41.180  30.990  35.267  1.00  0.00     0.049 A 
ATOM     52  C   UNL A   1      41.746  28.168  30.459  1.00  0.00     0.074 A 
ATOM     53  C   UNL A   1      42.065  30.668  36.282  1.00  0.00     0.029 A 
ATOM     54  N   UNL A   1      41.519  30.194  34.181  1.00  0.00    -0.354 N 
ATOM     55  N   UNL A   1      41.735  28.744  31.639  1.00  0.00    -0.248 NA
ATOM     56  C   UNL A   1      42.840  27.206  30.273  1.00  0.00     0.031 C 
ATOM     57  C   UNL A   1      42.977  29.730  35.790  1.00  0.00     0.029 A 
ATOM     58  C   UNL A   1      42.614  29.402  34.495  1.00  0.00     0.049 A 
ATOM     59  H   UNL A   1      41.051  30.194  33.315  1.00  0.00     0.167 HD
ATOM     60  C   UNL A   1      42.791  28.175  32.348  1.00  0.00     0.074 A 
ATOM     61  C   UNL A   1      43.405  27.203  31.470  1.00  0.00     0.031 C 
ATOM     62  C   UNL A   1      43.214  28.430  33.613  1.00  0.00     0.034 A 
BRANCH  49  63
ATOM     63  C   UNL A   1      39.875  32.760  36.540  1.00  0.00     0.023 A 
ATOM     64  C   UNL A   1      38.986  32.322  37.537  1.00  0.00     0.031 A 
ATOM     65  C   UNL A   1      40.542  33.980  36.744  1.00  0.00     0.131 A 
ATOM     66  C   UNL A   1      38.736  33.128  38.657  1.00  0.00     0.055 A 
ATOM     67  C   UNL A   1      40.351  34.739  37.901  1.00  0.00     0.041 A 
ATOM     68  F   UNL A   1      41.388  34.460  35.818  1.00  0.00    -0.206 F 
ATOM     69  C   UNL A   1      39.433  34.321  38.860  1.00  0.00     0.022 A 
BRANCH  66  70
ATOM     70  S   UNL A   1      37.392  32.658  39.780  1.00  0.00     0.124 S 
ATOM     71  O   UNL A   1      36.250  32.612  38.868  1.00  0.00    -0.237 OA
ATOM     72  O   UNL A   1      37.846  31.373  40.298  1.00  0.00    -0.237 OA
ATOM     73  O   UNL A   1      37.359  33.748  40.752  1.00  0.00    -0.744 OA
ENDBRANCH  66  70
ENDBRANCH  49  63
BRANCH  50  74
ATOM     74  C   UNL A   1      41.002  27.591  28.032  1.00  0.00     0.023 A 
ATOM     75  C   UNL A   1      40.705  26.220  27.963  1.00  0.00     0.031 A 
ATOM     76  C   UNL A   1      41.584  28.192  26.901  1.00  0.00     0.131 A 
ATOM     77  C   UNL A   1      41.061  25.480  26.824  1.00  0.00     0.055 A 
ATOM     78  C   UNL A   1      41.870  27.467  25.743  1.00  0.00     0.041 A 
ATOM     79  F   UNL A   1      41.892  29.499  26.909  1.00  0.00    -0.206 F 
ATOM     80  C   UNL A   1      41.627  26.098  25.708  1.00  0.00     0.022 A 
BRANCH  77  81
ATOM     81  S   UNL A   1      40.903  23.674  26.881  1.00  0.00     0.124 S 
ATOM     82  O   UNL A   1      41.289  23.388  28.259  1.00  0.00    -0.237 OA
ATOM     83  O   UNL A   1      39.494  23.483  26.555  1.00  0.00    -0.237 OA
ATOM     84  O   UNL A   1      41.845  23.218  25.862  1.00  0.00    -0.744 OA
ENDBRANCH  77  81
ENDBRANCH  50  74
BRANCH  62  85
ATOM     85  C   UNL A   1      44.357  27.595  34.139  1.00  0.00     0.023 A 
ATOM     86  C   UNL A   1      44.144  26.370  34.796  1.00  0.00     0.031 A 
ATOM     87  C   UNL A   1      45.683  28.043  33.993  1.00  0.00     0.131 A 
ATOM     88  C   UNL A   1      45.233  25.667  35.335  1.00  0.00     0.055 A 
ATOM     89  C   UNL A   1      46.766  27.307  34.473  1.00  0.00     0.041 A 
ATOM     90  F   UNL A   1      45.946  29.206  33.377  1.00  0.00    -0.206 F 
ATOM     91  C   UNL A   1      46.543  26.118  35.162  1.00  0.00     0.022 A 
BRANCH  88  92
ATOM     92  S   UNL A   1      44.905  24.202  36.355  1.00  0.00     0.124 S 
ATOM     93  O   UNL A   1      46.232  23.605  36.464  1.00  0.00    -0.237 OA
ATOM     94  O   UNL A   1      44.367  24.789  37.579  1.00  0.00    -0.237 OA
ATOM     95  O   UNL A   1      43.944  23.439  35.560  1.00  0.00    -0.744 OA
ENDBRANCH  88  92
ENDBRANCH  62  85
ENDBRANCH  36  37
ENDBRANCH  28  31
ENDBRANCH  26  27
ENDBRANCH  25  26
ENDBRANCH   1  25
TORSDOF 19
ENDMDL
MODEL 2
REMARK VINA RESULT:     -11.0      2.376      8.490
REMARK SMILES Cc1nnc(SCC[C@H]2CCC[C@]2([NH3+])C(=O)NCCCCNC(=O)c2ccc(-c3c4nc(c(-c5cc(S(=O)(=O)[O-])ccc5F)c5ccc([nH]5)c(-c5cc(S(=O)(=O)[O-])ccc5F)c5nc(c(-c6cc(S(=O)(=O)[O-])ccc6F)c6ccc3[nH]6)C=C5)C=C4)cc2)o1
REMARK SMILES IDX 19 1 18 2 17 3 15 4 16 5 13 7 9 8 10 9 11 10 12 11 8 12 7 13
REMARK SMILES IDX 6 14 5 15 1 16 2 17 3 18 88 19 4 20 14 21 20 25 21 26 22 27
REMARK SMILES IDX 23 28 24 30 25 31 26 32 87 33 27 34 86 35 28 36 29 37 30 38
REMARK SMILES IDX 80 39 31 40 85 41 79 42 81 43 32 44 84 45 78 46 77 47 33 49
REMARK SMILES IDX 65 50 45 51 64 52 46 53 49 54 63 55 82 56 47 57 48 58 62 60
REMARK SMILES IDX 83 61 50 62 34 63 35 64 43 65 36 66 42 67 44 68 41 69 37 70
REMARK SMILES IDX 38 71 39 72 40 73 66 74 67 75 75 76 68 77 74 78 76 79 73 80
REMARK SMILES IDX 69 81 70 82 71 83 72 84 51 85 52 86 60 87 53 88 59 89 61 90
REMARK SMILES IDX 58 91 54 92 55 93 56 94 57 95
REMARK H PARENT 17 6 14 22 14 23 14 24 22 29 81 48 49 59
REMARK Flexibility Score: inf
ROOT
ATOM      1  C   UNL A   1      31.963  27.312  26.461  1.00  0.00     0.023 C 
ENDROOT
BRANCH   1   2
ATOM      2  C   UNL A   1      33.129  27.125  25.493  1.00  0.00     0.116 C 
BRANCH   2   3
ATOM      3  N   UNL A   1      34.003  26.010  25.800  1.00  0.00    -0.351 N 
ATOM      4  C   UNL A   1      34.170  24.786  25.215  1.00  0.00     0.281 C 
ATOM      5  O   UNL A   1      35.215  24.190  25.518  1.00  0.00    -0.268 OA
ATOM      6  H   UNL A   1      34.586  26.163  26.579  1.00  0.00     0.163 HD
BRANCH   4   7
ATOM      7  C   UNL A   1      33.199  24.166  24.136  1.00  0.00     0.176 C 
ATOM      8  C   UNL A   1      31.704  24.184  24.517  1.00  0.00     0.061 C 
ATOM      9  C   UNL A   1      31.402  22.724  24.967  1.00  0.00     0.011 C 
ATOM     10  C   UNL A   1      32.714  21.950  24.932  1.00  0.00     0.008 C 
ATOM     11  C   UNL A   1      33.523  22.677  23.892  1.00  0.00     0.079 C 
BRANCH   8  12
ATOM     12  C   UNL A   1      30.705  24.706  23.432  1.00  0.00     0.022 C 
BRANCH  12  13
ATOM     13  C   UNL A   1      30.216  26.195  23.449  1.00  0.00     0.080 C 
BRANCH  13  14
ATOM     14  S   UNL A   1      30.987  27.480  22.381  1.00  0.00    -0.065 SA
BRANCH  14  15
ATOM     15  C   UNL A   1      30.011  28.921  22.579  1.00  0.00     0.276 A 
ATOM     16  C   UNL A   1      28.270  31.588  21.078  1.00  0.00     0.113 C 
ATOM     17  C   UNL A   1      28.831  30.627  22.054  1.00  0.00     0.214 A 
ATOM     18  N   UNL A   1      29.183  30.797  23.310  1.00  0.00    -0.112 NA
ATOM     19  O   UNL A   1      29.192  29.398  21.578  1.00  0.00    -0.416 OA
ATOM     20  N   UNL A   1      29.946  29.681  23.655  1.00  0.00    -0.101 NA
ENDBRANCH  14  15
ENDBRANCH  13  14
ENDBRANCH  12  13
ENDBRANCH   8  12
BRANCH   7  21
ATOM     21  N   UNL A   1      33.512  24.773  22.852  1.00  0.00    -0.345 N 
ATOM     22  H   UNL A   1      34.523  24.785  22.719  1.00  0.00     0.345 HD
ATOM     23  H   UNL A   1      33.155  25.728  22.831  1.00  0.00     0.345 HD
ATOM     24  H   UNL A   1      33.077  24.231  22.105  1.00  0.00     0.345 HD
ENDBRANCH   7  21
ENDBRANCH   4   7
ENDBRANCH   2   3
ENDBRANCH   1   2
BRANCH   1  25
ATOM     25  C   UNL A   1      31.746  28.770  26.875  1.00  0.00     0.023 C 
BRANCH  25  26
ATOM     26  C   UNL A   1      32.423  29.819  25.989  1.00  0.00     0.116 C 
BRANCH  26  27
ATOM     27  N   UNL A   1      32.116  31.189  26.371  1.00  0.00    -0.352 N 
ATOM     28  C   UNL A   1      32.826  32.041  27.186  1.00  0.00     0.251 C 
ATOM     29  H   UNL A   1      31.285  31.559  25.994  1.00  0.00     0.163 HD
ATOM     30  O   UNL A   1      32.347  33.131  27.501  1.00  0.00    -0.269 OA
BRANCH  28  31
ATOM     31  C   UNL A   1      34.142  31.624  27.721  1.00  0.00     0.039 A 
ATOM     32  C   UNL A   1      35.147  32.582  27.877  1.00  0.00     0.014 A 
ATOM     33  C   UNL A   1      34.376  30.299  28.103  1.00  0.00     0.014 A 
ATOM     34  C   UNL A   1      36.348  32.232  28.500  1.00  0.00     0.010 A 
ATOM     35  C   UNL A   1      35.541  29.972  28.796  1.00  0.00     0.010 A 
ATOM     36  C   UNL A   1      36.538  30.936  29.012  1.00  0.00    -0.014 A 
BRANCH  36  37
ATOM     37  C   UNL A   1      37.764  30.579  29.778  1.00  0.00     0.031 A 
ATOM     38  C   UNL A   1      38.765  29.614  29.198  1.00  0.00     0.074 A 
ATOM     39  C   UNL A   1      37.955  31.082  31.015  1.00  0.00     0.049 A 
ATOM     40  N   UNL A   1      39.849  29.119  29.739  1.00  0.00    -0.248 NA
ATOM     41  C   UNL A   1      38.497  29.127  27.836  1.00  0.00     0.031 C 
ATOM     42  C   UNL A   1      37.050  32.006  31.702  1.00  0.00     0.029 A 
ATOM     43  N   UNL A   1      38.971  30.887  31.920  1.00  0.00    -0.354 N 
ATOM     44  C   UNL A   1      40.395  28.268  28.785  1.00  0.00     0.074 A 
ATOM     45  C   UNL A   1      39.482  28.258  27.662  1.00  0.00     0.031 C 
ATOM     46  C   UNL A   1      37.566  32.319  32.902  1.00  0.00     0.029 A 
ATOM     47  C   UNL A   1      38.807  31.579  33.099  1.00  0.00     0.049 A 
ATOM     48  H   UNL A   1      39.745  30.304  31.741  1.00  0.00     0.167 HD
ATOM     49  C   UNL A   1      41.566  27.584  28.825  1.00  0.00     0.034 A 
ATOM     50  C   UNL A   1      39.563  31.604  34.217  1.00  0.00     0.034 A 
ATOM     51  C   UNL A   1      42.470  27.597  29.950  1.00  0.00     0.049 A 
ATOM     52  C   UNL A   1      40.823  30.772  34.264  1.00  0.00     0.074 A 
ATOM     53  C   UNL A   1      43.684  26.947  30.088  1.00  0.00     0.029 A 
ATOM     54  N   UNL A   1      42.259  28.294  31.132  1.00  0.00    -0.354 N 
ATOM     55  N   UNL A   1      41.338  29.995  33.338  1.00  0.00    -0.248 NA
ATOM     56  C   UNL A   1      41.609  30.827  35.503  1.00  0.00     0.031 C 
ATOM     57  C   UNL A   1      44.175  27.197  31.373  1.00  0.00     0.029 A 
ATOM     58  C   UNL A   1      43.310  28.069  32.011  1.00  0.00     0.049 A 
ATOM     59  H   UNL A   1      41.479  28.863  31.320  1.00  0.00     0.167 HD
ATOM     60  C   UNL A   1      42.531  29.511  33.871  1.00  0.00     0.074 A 
ATOM     61  C   UNL A   1      42.665  30.094  35.188  1.00  0.00     0.031 C 
ATOM     62  C   UNL A   1      43.436  28.662  33.320  1.00  0.00     0.034 A 
BRANCH  49  63
ATOM     63  C   UNL A   1      41.928  26.756  27.615  1.00  0.00     0.023 A 
ATOM     64  C   UNL A   1      41.561  25.401  27.521  1.00  0.00     0.031 A 
ATOM     65  C   UNL A   1      42.649  27.317  26.547  1.00  0.00     0.131 A 
ATOM     66  C   UNL A   1      41.974  24.638  26.420  1.00  0.00     0.055 A 
ATOM     67  C   UNL A   1      42.986  26.572  25.415  1.00  0.00     0.041 A 
ATOM     68  F   UNL A   1      43.044  28.599  26.588  1.00  0.00    -0.206 F 
ATOM     69  C   UNL A   1      42.660  25.220  25.352  1.00  0.00     0.022 A 
BRANCH  66  70
ATOM     70  S   UNL A   1      41.714  22.844  26.464  1.00  0.00     0.124 S 
ATOM     71  O   UNL A   1      40.254  22.759  26.488  1.00  0.00    -0.237 OA
ATOM     72  O   UNL A   1      42.359  22.399  25.234  1.00  0.00    -0.237 OA
ATOM     73  O   UNL A   1      42.374  22.431  27.700  1.00  0.00    -0.744 OA
ENDBRANCH  66  70
ENDBRANCH  49  63
BRANCH  50  74
ATOM     74  C   UNL A   1      39.159  32.420  35.401  1.00  0.00     0.023 A 
ATOM     75  C   UNL A   1      39.577  33.755  35.530  1.00  0.00     0.031 A 
ATOM     76  C   UNL A   1      38.432  31.856  36.464  1.00  0.00     0.131 A 
ATOM     77  C   UNL A   1      39.335  34.454  36.724  1.00  0.00     0.055 A 
ATOM     78  C   UNL A   1      38.130  32.580  37.620  1.00  0.00     0.041 A 
ATOM     79  F   UNL A   1      38.008  30.584  36.398  1.00  0.00    -0.206 F 
ATOM     80  C   UNL A   1      38.601  33.881  37.763  1.00  0.00     0.022 A 
BRANCH  77  81
ATOM     81  S   UNL A   1      40.118  36.075  36.951  1.00  0.00     0.124 S 
ATOM     82  O   UNL A   1      41.523  35.707  37.089  1.00  0.00    -0.237 OA
ATOM     83  O   UNL A   1      39.752  36.764  35.718  1.00  0.00    -0.237 OA
ATOM     84  O   UNL A   1      39.486  36.591  38.163  1.00  0.00    -0.744 OA
ENDBRANCH  77  81
ENDBRANCH  50  74
BRANCH  62  85
ATOM     85  C   UNL A   1      44.683  28.370  34.121  1.00  0.00     0.023 A 
ATOM     86  C   UNL A   1      44.743  27.315  35.050  1.00  0.00     0.031 A 
ATOM     87  C   UNL A   1      45.828  29.172  33.960  1.00  0.00     0.131 A 
ATOM     88  C   UNL A   1      45.897  27.130  35.824  1.00  0.00     0.055 A 
ATOM     89  C   UNL A   1      46.997  28.941  34.687  1.00  0.00     0.041 A 
ATOM     90  F   UNL A   1      45.829  30.194  33.090  1.00  0.00    -0.206 F 
ATOM     91  C   UNL A   1      47.031  27.924  35.636  1.00  0.00     0.022 A 
BRANCH  88  92
ATOM     92  S   UNL A   1      45.865  25.897  37.155  1.00  0.00     0.124 S 
ATOM     93  O   UNL A   1      47.111  25.172  36.929  1.00  0.00    -0.237 OA
ATOM     94  O   UNL A   1      45.821  26.732  38.352  1.00  0.00    -0.237 OA
ATOM     95  O   UNL A   1      44.647  25.135  36.888  1.00  0.00    -0.744 OA
ENDBRANCH  88  92
ENDBRANCH  62  85
ENDBRANCH  36  37
ENDBRANCH  28  31
ENDBRANCH  26  27
ENDBRANCH  25  26
ENDBRANCH   1  25
TORSDOF 19
ENDMDL
MODEL 3
REMARK VINA RESULT:     -10.9      3.321      4.073
REMARK SMILES Cc1nnc(SCC[C@H]2CCC[C@]2([NH3+])C(=O)NCCCCNC(=O)c2ccc(-c3c4nc(c(-c5cc(S(=O)(=O)[O-])ccc5F)c5ccc([nH]5)c(-c5cc(S(=O)(=O)[O-])ccc5F)c5nc(c(-c6cc(S(=O)(=O)[O-])ccc6F)c6ccc3[nH]6)C=C5)C=C4)cc2)o1
REMARK SMILES IDX 19 1 18 2 17 3 15 4 16 5 13 7 9 8 10 9 11 10 12 11 8 12 7 13
REMARK SMILES IDX 6 14 5 15 1 16 2 17 3 18 88 19 4 20 14 21 20 25 21 26 22 27
REMARK SMILES IDX 23 28 24 30 25 31 26 32 87 33 27 34 86 35 28 36 29 37 30 38
REMARK SMILES IDX 80 39 31 40 85 41 79 42 81 43 32 44 84 45 78 46 77 47 33 49
REMARK SMILES IDX 65 50 45 51 64 52 46 53 49 54 63 55 82 56 47 57 48 58 62 60
REMARK SMILES IDX 83 61 50 62 34 63 35 64 43 65 36 66 42 67 44 68 41 69 37 70
REMARK SMILES IDX 38 71 39 72 40 73 66 74 67 75 75 76 68 77 74 78 76 79 73 80
REMARK SMILES IDX 69 81 70 82 71 83 72 84 51 85 52 86 60 87 53 88 59 89 61 90
REMARK SMILES IDX 58 91 54 92 55 93 56 94 57 95
REMARK H PARENT 17 6 14 22 14 23 14 24 22 29 81 48 49 59
REMARK Flexibility Score: inf
ROOT
ATOM      1  C   UNL A   1      32.371  27.330  26.794  1.00  0.00     0.023 C 
ENDROOT
BRANCH   1   2
ATOM      2  C   UNL A   1      31.157  26.595  26.232  1.00  0.00     0.116 C 
BRANCH   2   3
ATOM      3  N   UNL A   1      30.654  27.119  24.977  1.00  0.00    -0.351 N 
ATOM      4  C   UNL A   1      30.581  26.585  23.722  1.00  0.00     0.281 C 
ATOM      5  O   UNL A   1      29.811  27.164  22.941  1.00  0.00    -0.268 OA
ATOM      6  H   UNL A   1      30.298  28.035  25.043  1.00  0.00     0.163 HD
BRANCH   4   7
ATOM      7  C   UNL A   1      31.311  25.262  23.265  1.00  0.00     0.176 C 
ATOM      8  C   UNL A   1      32.513  24.845  24.139  1.00  0.00     0.061 C 
ATOM      9  C   UNL A   1      33.761  25.279  23.313  1.00  0.00     0.011 C 
ATOM     10  C   UNL A   1      33.261  26.004  22.070  1.00  0.00     0.008 C 
ATOM     11  C   UNL A   1      31.895  25.414  21.844  1.00  0.00     0.079 C 
BRANCH   8  12
ATOM     12  C   UNL A   1      32.572  23.349  24.591  1.00  0.00     0.022 C 
BRANCH  12  13
ATOM     13  C   UNL A   1      33.914  22.543  24.514  1.00  0.00     0.080 C 
BRANCH  13  14
ATOM     14  S   UNL A   1      34.349  21.262  25.762  1.00  0.00    -0.065 SA
BRANCH  14  15
ATOM     15  C   UNL A   1      33.611  19.775  25.203  1.00  0.00     0.276 A 
ATOM     16  C   UNL A   1      33.759  16.978  23.069  1.00  0.00     0.113 C 
ATOM     17  C   UNL A   1      33.364  17.950  24.113  1.00  0.00     0.214 A 
ATOM     18  N   UNL A   1      32.174  18.263  24.578  1.00  0.00    -0.112 NA
ATOM     19  O   UNL A   1      34.341  18.776  24.594  1.00  0.00    -0.416 OA
ATOM     20  N   UNL A   1      32.337  19.450  25.295  1.00  0.00    -0.101 NA
ENDBRANCH  14  15
ENDBRANCH  13  14
ENDBRANCH  12  13
ENDBRANCH   8  12
BRANCH   7  21
ATOM     21  N   UNL A   1      30.300  24.233  23.084  1.00  0.00    -0.345 N 
ATOM     22  H   UNL A   1      29.985  23.901  23.994  1.00  0.00     0.345 HD
ATOM     23  H   UNL A   1      30.696  23.455  22.556  1.00  0.00     0.345 HD
ATOM     24  H   UNL A   1      29.508  24.623  22.571  1.00  0.00     0.345 HD
ENDBRANCH   7  21
ENDBRANCH   4   7
ENDBRANCH   2   3
ENDBRANCH   1   2
BRANCH   1  25
ATOM     25  C   UNL A   1      33.129  28.142  25.742  1.00  0.00     0.023 C 
BRANCH  25  26
ATOM     26  C   UNL A   1      34.281  29.001  26.270  1.00  0.00     0.116 C 
BRANCH  26  27
ATOM     27  N   UNL A   1      33.864  30.322  26.717  1.00  0.00    -0.352 N 
ATOM     28  C   UNL A   1      34.426  31.128  27.680  1.00  0.00     0.251 C 
ATOM     29  H   UNL A   1      33.069  30.692  26.267  1.00  0.00     0.163 HD
ATOM     30  O   UNL A   1      33.861  32.169  28.017  1.00  0.00    -0.269 OA
BRANCH  28  31
ATOM     31  C   UNL A   1      35.684  30.717  28.344  1.00  0.00     0.039 A 
ATOM     32  C   UNL A   1      35.628  29.813  29.407  1.00  0.00     0.014 A 
ATOM     33  C   UNL A   1      36.921  31.191  27.896  1.00  0.00     0.014 A 
ATOM     34  C   UNL A   1      36.812  29.315  29.958  1.00  0.00     0.010 A 
ATOM     35  C   UNL A   1      38.099  30.633  28.391  1.00  0.00     0.010 A 
ATOM     36  C   UNL A   1      38.059  29.681  29.422  1.00  0.00    -0.014 A 
BRANCH  36  37
ATOM     37  C   UNL A   1      39.324  29.074  29.922  1.00  0.00     0.031 A 
ATOM     38  C   UNL A   1      40.030  29.667  31.113  1.00  0.00     0.074 A 
ATOM     39  C   UNL A   1      39.866  28.020  29.277  1.00  0.00     0.049 A 
ATOM     40  N   UNL A   1      41.177  29.332  31.648  1.00  0.00    -0.248 NA
ATOM     41  C   UNL A   1      39.366  30.800  31.776  1.00  0.00     0.031 C 
ATOM     42  C   UNL A   1      39.296  27.366  28.096  1.00  0.00     0.029 A 
ATOM     43  N   UNL A   1      41.019  27.311  29.518  1.00  0.00    -0.354 N 
ATOM     44  C   UNL A   1      41.370  30.208  32.711  1.00  0.00     0.074 A 
ATOM     45  C   UNL A   1      40.258  31.135  32.696  1.00  0.00     0.031 C 
ATOM     46  C   UNL A   1      40.082  26.340  27.737  1.00  0.00     0.029 A 
ATOM     47  C   UNL A   1      41.242  26.289  28.621  1.00  0.00     0.049 A 
ATOM     48  H   UNL A   1      41.629  27.516  30.263  1.00  0.00     0.167 HD
ATOM     49  C   UNL A   1      42.363  30.219  33.635  1.00  0.00     0.034 A 
ATOM     50  C   UNL A   1      42.269  25.422  28.515  1.00  0.00     0.034 A 
ATOM     51  C   UNL A   1      43.470  29.294  33.641  1.00  0.00     0.049 A 
ATOM     52  C   UNL A   1      43.401  25.505  29.512  1.00  0.00     0.074 A 
ATOM     53  C   UNL A   1      44.522  29.214  34.537  1.00  0.00     0.029 A 
ATOM     54  N   UNL A   1      43.670  28.287  32.706  1.00  0.00    -0.354 N 
ATOM     55  N   UNL A   1      43.550  26.323  30.530  1.00  0.00    -0.248 NA
ATOM     56  C   UNL A   1      44.499  24.543  29.353  1.00  0.00     0.031 C 
ATOM     57  C   UNL A   1      45.391  28.206  34.109  1.00  0.00     0.029 A 
ATOM     58  C   UNL A   1      44.841  27.599  32.992  1.00  0.00     0.049 A 
ATOM     59  H   UNL A   1      43.070  28.091  31.951  1.00  0.00     0.167 HD
ATOM     60  C   UNL A   1      44.734  25.939  31.155  1.00  0.00     0.074 A 
ATOM     61  C   UNL A   1      45.249  24.809  30.411  1.00  0.00     0.031 C 
ATOM     62  C   UNL A   1      45.341  26.469  32.247  1.00  0.00     0.034 A 
BRANCH  49  63
ATOM     63  C   UNL A   1      42.296  31.276  34.712  1.00  0.00     0.023 A 
ATOM     64  C   UNL A   1      42.806  32.570  34.498  1.00  0.00     0.031 A 
ATOM     65  C   UNL A   1      41.726  30.994  35.965  1.00  0.00     0.131 A 
ATOM     66  C   UNL A   1      42.798  33.508  35.540  1.00  0.00     0.055 A 
ATOM     67  C   UNL A   1      41.647  31.959  36.972  1.00  0.00     0.041 A 
ATOM     68  F   UNL A   1      41.241  29.772  36.236  1.00  0.00    -0.206 F 
ATOM     69  C   UNL A   1      42.197  33.221  36.767  1.00  0.00     0.022 A 
BRANCH  66  70
ATOM     70  S   UNL A   1      43.701  35.064  35.311  1.00  0.00     0.124 S 
ATOM     71  O   UNL A   1      44.893  34.834  36.124  1.00  0.00    -0.237 OA
ATOM     72  O   UNL A   1      43.909  35.100  33.868  1.00  0.00    -0.237 OA
ATOM     73  O   UNL A   1      42.784  36.073  35.835  1.00  0.00    -0.744 OA
ENDBRANCH  66  70
ENDBRANCH  49  63
BRANCH  50  74
ATOM     74  C   UNL A   1      42.307  24.404  27.423  1.00  0.00     0.023 A 
ATOM     75  C   UNL A   1      41.692  23.151  27.585  1.00  0.00     0.031 A 
ATOM     76  C   UNL A   1      43.036  24.627  26.241  1.00  0.00     0.131 A 
ATOM     77  C   UNL A   1      41.881  22.146  26.622  1.00  0.00     0.055 A 
ATOM     78  C   UNL A   1      43.159  23.648  25.252  1.00  0.00     0.041 A 
ATOM     79  F   UNL A   1      43.647  25.804  26.031  1.00  0.00    -0.206 F 
ATOM     80  C   UNL A   1      42.597  22.392  25.450  1.00  0.00     0.022 A 
BRANCH  77  81
ATOM     81  S   UNL A   1      41.294  20.471  26.995  1.00  0.00     0.124 S 
ATOM     82  O   UNL A   1      40.777  20.633  28.350  1.00  0.00    -0.237 OA
ATOM     83  O   UNL A   1      40.300  20.258  25.949  1.00  0.00    -0.237 OA
ATOM     84  O   UNL A   1      42.501  19.655  26.882  1.00  0.00    -0.744 OA
ENDBRANCH  77  81
ENDBRANCH  50  74
BRANCH  62  85
ATOM     85  C   UNL A   1      46.596  25.786  32.738  1.00  0.00     0.023 A 
ATOM     86  C   UNL A   1      47.861  26.067  32.190  1.00  0.00     0.031 A 
ATOM     87  C   UNL A   1      46.520  24.827  33.764  1.00  0.00     0.131 A 
ATOM     88  C   UNL A   1      48.986  25.353  32.627  1.00  0.00     0.055 A 
ATOM     89  C   UNL A   1      47.654  24.167  34.240  1.00  0.00     0.041 A 
ATOM     90  F   UNL A   1      45.340  24.516  34.323  1.00  0.00    -0.206 F 
ATOM     91  C   UNL A   1      48.894  24.418  33.661  1.00  0.00     0.022 A 
BRANCH  88  92
ATOM     92  S   UNL A   1      50.560  25.589  31.756  1.00  0.00     0.124 S 
ATOM     93  O   UNL A   1      51.507  25.697  32.861  1.00  0.00    -0.237 OA
ATOM     94  O   UNL A   1      50.656  24.376  30.950  1.00  0.00    -0.237 OA
ATOM     95  O   UNL A   1      50.350  26.821  30.997  1.00  0.00    -0.744 OA
ENDBRANCH  88  92
ENDBRANCH  62  85
ENDBRANCH  36  37
ENDBRANCH  28  31
ENDBRANCH  26  27
ENDBRANCH  25  26
ENDBRANCH   1  25
TORSDOF 19
ENDMDL
