MODEL 1
REMARK VINA RESULT:     -10.7      0.000      0.000
REMARK SMILES C[C@@H](C(=O)NCCCCNC(=O)c1ccc(-c2c3nc(c(-c4cc(S(=O)(=O)[O-])ccc4F)c4ccc([nH]4)c(-c4cc(S(=O)(=O)[O-])ccc4F)c4nc(c(-c5cc(S(=O)(=O)[O-])ccc5F)c5ccc2[nH]5)C=C4)C=C3)cc1)c1ccc(-c2ccc3[nH]ccc3c2)cc1
REMARK SMILES IDX 8 1 7 2 6 3 5 4 3 5 4 6 2 8 1 9 76 10 77 11 90 12 78 13
REMARK SMILES IDX 89 14 79 15 80 16 81 17 88 18 82 19 87 20 83 21 86 22 84 23
REMARK SMILES IDX 85 24 9 26 10 27 11 28 12 30 13 31 14 32 75 33 15 34 74 35
REMARK SMILES IDX 16 36 17 37 18 38 68 39 19 40 73 41 67 42 69 43 20 44 72 45
REMARK SMILES IDX 66 46 65 47 21 49 53 50 33 51 52 52 34 53 37 54 51 55 70 56
REMARK SMILES IDX 35 57 36 58 50 60 71 61 38 62 22 63 23 64 31 65 24 66 30 67
REMARK SMILES IDX 32 68 29 69 25 70 26 71 27 72 28 73 54 74 55 75 63 76 56 77
REMARK SMILES IDX 62 78 64 79 61 80 57 81 58 82 59 83 60 84 39 85 40 86 48 87
REMARK SMILES IDX 41 88 47 89 49 90 46 91 42 92 43 93 44 94 45 95
REMARK H PARENT 5 7 84 25 10 29 69 48 37 59
REMARK Flexibility Score: inf
ROOT
ATOM      1  C   UNL A   1      34.230  34.318  28.088  1.00  0.00     0.023 C 
ENDROOT
BRANCH   1   2
ATOM      2  C   UNL A   1      33.811  35.510  28.952  1.00  0.00     0.023 C 
BRANCH   2   3
ATOM      3  C   UNL A   1      33.276  35.138  30.339  1.00  0.00     0.116 C 
BRANCH   3   4
ATOM      4  N   UNL A   1      34.057  35.786  31.373  1.00  0.00    -0.356 N 
ATOM      5  C   UNL A   1      34.940  35.233  32.258  1.00  0.00     0.227 C 
ATOM      6  O   UNL A   1      35.134  35.870  33.295  1.00  0.00    -0.274 OA
ATOM      7  H   UNL A   1      33.935  36.759  31.447  1.00  0.00     0.163 HD
BRANCH   5   8
ATOM      8  C   UNL A   1      35.610  33.887  31.924  1.00  0.00     0.105 C 
ATOM      9  C   UNL A   1      35.643  33.025  33.196  1.00  0.00     0.023 C 
BRANCH   8  10
ATOM     10  C   UNL A   1      37.010  33.948  31.297  1.00  0.00    -0.036 A 
ATOM     11  C   UNL A   1      38.084  34.434  32.067  1.00  0.00     0.005 A 
ATOM     12  C   UNL A   1      37.299  33.538  29.988  1.00  0.00     0.005 A 
ATOM     13  C   UNL A   1      39.358  34.599  31.522  1.00  0.00     0.009 A 
ATOM     14  C   UNL A   1      38.575  33.706  29.438  1.00  0.00     0.009 A 
ATOM     15  C   UNL A   1      39.613  34.254  30.194  1.00  0.00    -0.018 A 
BRANCH  15  16
ATOM     16  C   UNL A   1      40.947  34.438  29.626  1.00  0.00    -0.018 A 
ATOM     17  C   UNL A   1      41.992  33.590  30.013  1.00  0.00     0.011 A 
ATOM     18  C   UNL A   1      41.199  35.477  28.712  1.00  0.00     0.019 A 
ATOM     19  C   UNL A   1      43.280  33.726  29.493  1.00  0.00     0.027 A 
ATOM     20  C   UNL A   1      42.501  35.663  28.209  1.00  0.00    -0.000 A 
ATOM     21  C   UNL A   1      43.501  34.771  28.593  1.00  0.00     0.045 A 
ATOM     22  C   UNL A   1      43.105  36.627  27.355  1.00  0.00     0.028 A 
ATOM     23  N   UNL A   1      44.647  35.140  27.927  1.00  0.00    -0.361 N 
ATOM     24  C   UNL A   1      44.433  36.292  27.218  1.00  0.00     0.083 A 
ATOM     25  H   UNL A   1      45.500  34.647  27.956  1.00  0.00     0.166 HD
ENDBRANCH  15  16
ENDBRANCH   8  10
ENDBRANCH   5   8
ENDBRANCH   3   4
ENDBRANCH   2   3
ENDBRANCH   1   2
BRANCH   1  26
ATOM     26  C   UNL A   1      34.172  32.971  28.791  1.00  0.00     0.116 C 
BRANCH  26  27
ATOM     27  N   UNL A   1      33.688  31.915  27.916  1.00  0.00    -0.352 N 
ATOM     28  C   UNL A   1      34.330  30.774  27.500  1.00  0.00     0.251 C 
ATOM     29  H   UNL A   1      32.772  32.035  27.574  1.00  0.00     0.163 HD
ATOM     30  O   UNL A   1      33.832  30.085  26.618  1.00  0.00    -0.269 OA
BRANCH  28  31
ATOM     31  C   UNL A   1      35.633  30.412  28.100  1.00  0.00     0.039 A 
ATOM     32  C   UNL A   1      35.644  29.730  29.318  1.00  0.00     0.014 A 
ATOM     33  C   UNL A   1      36.833  30.720  27.453  1.00  0.00     0.014 A 
ATOM     34  C   UNL A   1      36.859  29.300  29.853  1.00  0.00     0.010 A 
ATOM     35  C   UNL A   1      38.034  30.220  27.947  1.00  0.00     0.010 A 
ATOM     36  C   UNL A   1      38.061  29.504  29.153  1.00  0.00    -0.014 A 
BRANCH  36  37
ATOM     37  C   UNL A   1      39.346  28.961  29.665  1.00  0.00     0.031 A 
ATOM     38  C   UNL A   1      40.045  29.626  30.819  1.00  0.00     0.074 A 
ATOM     39  C   UNL A   1      39.901  27.892  29.060  1.00  0.00     0.049 A 
ATOM     40  N   UNL A   1      41.189  29.324  31.378  1.00  0.00    -0.248 NA
ATOM     41  C   UNL A   1      39.384  30.802  31.406  1.00  0.00     0.031 C 
ATOM     42  C   UNL A   1      39.337  27.187  27.906  1.00  0.00     0.029 A 
ATOM     43  N   UNL A   1      41.064  27.209  29.325  1.00  0.00    -0.354 N 
ATOM     44  C   UNL A   1      41.386  30.270  32.377  1.00  0.00     0.074 A 
ATOM     45  C   UNL A   1      40.275  31.195  32.303  1.00  0.00     0.031 C 
ATOM     46  C   UNL A   1      40.134  26.155  27.585  1.00  0.00     0.029 A 
ATOM     47  C   UNL A   1      41.293  26.153  28.472  1.00  0.00     0.049 A 
ATOM     48  H   UNL A   1      41.676  27.454  30.056  1.00  0.00     0.167 HD
ATOM     49  C   UNL A   1      42.388  30.344  33.289  1.00  0.00     0.034 A 
ATOM     50  C   UNL A   1      42.325  25.291  28.403  1.00  0.00     0.034 A 
ATOM     51  C   UNL A   1      43.487  29.412  33.351  1.00  0.00     0.049 A 
ATOM     52  C   UNL A   1      43.448  25.422  29.403  1.00  0.00     0.074 A 
ATOM     53  C   UNL A   1      44.529  29.369  34.260  1.00  0.00     0.029 A 
ATOM     54  N   UNL A   1      43.696  28.364  32.461  1.00  0.00    -0.354 N 
ATOM     55  N   UNL A   1      43.590  26.290  30.379  1.00  0.00    -0.248 NA
ATOM     56  C   UNL A   1      44.544  24.450  29.299  1.00  0.00     0.031 C 
ATOM     57  C   UNL A   1      45.405  28.348  33.877  1.00  0.00     0.029 A 
ATOM     58  C   UNL A   1      44.868  27.693  32.781  1.00  0.00     0.049 A 
ATOM     59  H   UNL A   1      43.099  28.132  31.714  1.00  0.00     0.167 HD
ATOM     60  C   UNL A   1      44.775  25.945  31.024  1.00  0.00     0.074 A 
ATOM     61  C   UNL A   1      45.292  24.777  30.341  1.00  0.00     0.031 C 
ATOM     62  C   UNL A   1      45.381  26.537  32.084  1.00  0.00     0.034 A 
BRANCH  49  63
ATOM     63  C   UNL A   1      42.351  31.488  34.276  1.00  0.00     0.023 A 
ATOM     64  C   UNL A   1      41.493  31.475  35.389  1.00  0.00     0.031 A 
ATOM     65  C   UNL A   1      43.181  32.609  34.101  1.00  0.00     0.131 A 
ATOM     66  C   UNL A   1      41.436  32.585  36.246  1.00  0.00     0.055 A 
ATOM     67  C   UNL A   1      43.180  33.675  35.003  1.00  0.00     0.041 A 
ATOM     68  F   UNL A   1      44.007  32.690  33.044  1.00  0.00    -0.206 F 
ATOM     69  C   UNL A   1      42.295  33.673  36.076  1.00  0.00     0.022 A 
BRANCH  66  70
ATOM     70  S   UNL A   1      40.130  32.646  37.502  1.00  0.00     0.124 S 
ATOM     71  O   UNL A   1      39.578  33.982  37.289  1.00  0.00    -0.237 OA
ATOM     72  O   UNL A   1      39.271  31.532  37.119  1.00  0.00    -0.237 OA
ATOM     73  O   UNL A   1      40.855  32.473  38.759  1.00  0.00    -0.744 OA
ENDBRANCH  66  70
ENDBRANCH  49  63
BRANCH  50  74
ATOM     74  C   UNL A   1      42.368  24.235  27.349  1.00  0.00     0.023 A 
ATOM     75  C   UNL A   1      41.713  23.007  27.525  1.00  0.00     0.031 A 
ATOM     76  C   UNL A   1      43.122  24.414  26.174  1.00  0.00     0.131 A 
ATOM     77  C   UNL A   1      41.872  21.984  26.576  1.00  0.00     0.055 A 
ATOM     78  C   UNL A   1      43.223  23.418  25.201  1.00  0.00     0.041 A 
ATOM     79  F   UNL A   1      43.770  25.568  25.951  1.00  0.00    -0.206 F 
ATOM     80  C   UNL A   1      42.610  22.187  25.409  1.00  0.00     0.022 A 
BRANCH  77  81
ATOM     81  S   UNL A   1      41.196  20.342  26.949  1.00  0.00     0.124 S 
ATOM     82  O   UNL A   1      40.883  20.467  28.368  1.00  0.00    -0.237 OA
ATOM     83  O   UNL A   1      40.054  20.273  26.043  1.00  0.00    -0.237 OA
ATOM     84  O   UNL A   1      42.300  19.440  26.629  1.00  0.00    -0.744 OA
ENDBRANCH  77  81
ENDBRANCH  50  74
BRANCH  62  85
ATOM     85  C   UNL A   1      46.650  25.896  32.596  1.00  0.00     0.023 A 
ATOM     86  C   UNL A   1      46.629  24.898  33.586  1.00  0.00     0.031 A 
ATOM     87  C   UNL A   1      47.901  26.309  32.102  1.00  0.00     0.131 A 
ATOM     88  C   UNL A   1      47.834  24.396  34.099  1.00  0.00     0.055 A 
ATOM     89  C   UNL A   1      49.094  25.753  32.564  1.00  0.00     0.041 A 
ATOM     90  F   UNL A   1      47.984  27.262  31.160  1.00  0.00    -0.206 F 
ATOM     91  C   UNL A   1      49.066  24.802  33.580  1.00  0.00     0.022 A 
BRANCH  88  92
ATOM     92  S   UNL A   1      47.775  23.288  35.534  1.00  0.00     0.124 S 
ATOM     93  O   UNL A   1      48.308  22.048  34.981  1.00  0.00    -0.237 OA
ATOM     94  O   UNL A   1      48.630  23.976  36.495  1.00  0.00    -0.237 OA
ATOM     95  O   UNL A   1      46.355  23.253  35.881  1.00  0.00    -0.744 OA
ENDBRANCH  88  92
ENDBRANCH  62  85
ENDBRANCH  36  37
ENDBRANCH  28  31
ENDBRANCH  26  27
ENDBRANCH   1  26
TORSDOF 16
ENDMDL
MODEL 2
REMARK VINA RESULT:     -10.5      4.736     11.210
REMARK SMILES C[C@@H](C(=O)NCCCCNC(=O)c1ccc(-c2c3nc(c(-c4cc(S(=O)(=O)[O-])ccc4F)c4ccc([nH]4)c(-c4cc(S(=O)(=O)[O-])ccc4F)c4nc(c(-c5cc(S(=O)(=O)[O-])ccc5F)c5ccc2[nH]5)C=C4)C=C3)cc1)c1ccc(-c2ccc3[nH]ccc3c2)cc1
REMARK SMILES IDX 8 1 7 2 6 3 5 4 3 5 4 6 2 8 1 9 76 10 77 11 90 12 78 13
REMARK SMILES IDX 89 14 79 15 80 16 81 17 88 18 82 19 87 20 83 21 86 22 84 23
REMARK SMILES IDX 85 24 9 26 10 27 11 28 12 30 13 31 14 32 75 33 15 34 74 35
REMARK SMILES IDX 16 36 17 37 18 38 68 39 19 40 73 41 67 42 69 43 20 44 72 45
REMARK SMILES IDX 66 46 65 47 21 49 53 50 33 51 52 52 34 53 37 54 51 55 70 56
REMARK SMILES IDX 35 57 36 58 50 60 71 61 38 62 22 63 23 64 31 65 24 66 30 67
REMARK SMILES IDX 32 68 29 69 25 70 26 71 27 72 28 73 54 74 55 75 63 76 56 77
REMARK SMILES IDX 62 78 64 79 61 80 57 81 58 82 59 83 60 84 39 85 40 86 48 87
REMARK SMILES IDX 41 88 47 89 49 90 46 91 42 92 43 93 44 94 45 95
REMARK H PARENT 5 7 84 25 10 29 69 48 37 59
REMARK Flexibility Score: inf
ROOT
ATOM      1  C   UNL A   1      31.697  31.647  26.776  1.00  0.00     0.023 C 
ENDROOT
BRANCH   1   2
ATOM      2  C   UNL A   1      31.919  30.146  26.576  1.00  0.00     0.023 C 
BRANCH   2   3
ATOM      3  C   UNL A   1      32.356  29.746  25.162  1.00  0.00     0.116 C 
BRANCH   3   4
ATOM      4  N   UNL A   1      31.491  28.709  24.639  1.00  0.00    -0.356 N 
ATOM      5  C   UNL A   1      31.772  27.735  23.721  1.00  0.00     0.227 C 
ATOM      6  O   UNL A   1      30.804  27.271  23.116  1.00  0.00    -0.274 OA
ATOM      7  H   UNL A   1      30.574  28.705  24.995  1.00  0.00     0.163 HD
BRANCH   5   8
ATOM      8  C   UNL A   1      33.231  27.298  23.500  1.00  0.00     0.105 C 
ATOM      9  C   UNL A   1      33.659  27.713  22.082  1.00  0.00     0.023 C 
BRANCH   8  10
ATOM     10  C   UNL A   1      33.552  25.814  23.728  1.00  0.00    -0.036 A 
ATOM     11  C   UNL A   1      33.128  24.868  22.775  1.00  0.00     0.005 A 
ATOM     12  C   UNL A   1      34.259  25.329  24.837  1.00  0.00     0.005 A 
ATOM     13  C   UNL A   1      33.309  23.499  22.975  1.00  0.00     0.009 A 
ATOM     14  C   UNL A   1      34.439  23.956  25.042  1.00  0.00     0.009 A 
ATOM     15  C   UNL A   1      33.950  23.026  24.122  1.00  0.00    -0.018 A 
BRANCH  15  16
ATOM     16  C   UNL A   1      34.129  21.591  24.330  1.00  0.00    -0.018 A 
ATOM     17  C   UNL A   1      35.361  21.100  24.779  1.00  0.00     0.011 A 
ATOM     18  C   UNL A   1      33.081  20.692  24.057  1.00  0.00     0.019 A 
ATOM     19  C   UNL A   1      35.575  19.737  24.995  1.00  0.00     0.027 A 
ATOM     20  C   UNL A   1      33.288  19.309  24.224  1.00  0.00    -0.000 A 
ATOM     21  C   UNL A   1      34.518  18.869  24.710  1.00  0.00     0.045 A 
ATOM     22  C   UNL A   1      32.498  18.153  23.979  1.00  0.00     0.028 A 
ATOM     23  N   UNL A   1      34.439  17.501  24.828  1.00  0.00    -0.361 N 
ATOM     24  C   UNL A   1      33.242  17.052  24.338  1.00  0.00     0.083 A 
ATOM     25  H   UNL A   1      35.143  16.926  25.210  1.00  0.00     0.166 HD
ENDBRANCH  15  16
ENDBRANCH   8  10
ENDBRANCH   5   8
ENDBRANCH   3   4
ENDBRANCH   2   3
ENDBRANCH   1   2
BRANCH   1  26
ATOM     26  C   UNL A   1      32.917  32.412  27.265  1.00  0.00     0.116 C 
BRANCH  26  27
ATOM     27  N   UNL A   1      32.612  33.803  27.558  1.00  0.00    -0.352 N 
ATOM     28  C   UNL A   1      33.133  34.616  28.536  1.00  0.00     0.251 C 
ATOM     29  H   UNL A   1      31.938  34.221  26.974  1.00  0.00     0.163 HD
ATOM     30  O   UNL A   1      32.627  35.710  28.749  1.00  0.00    -0.269 OA
BRANCH  28  31
ATOM     31  C   UNL A   1      34.277  34.140  29.344  1.00  0.00     0.039 A 
ATOM     32  C   UNL A   1      34.022  33.373  30.482  1.00  0.00     0.014 A 
ATOM     33  C   UNL A   1      35.593  34.429  28.968  1.00  0.00     0.014 A 
ATOM     34  C   UNL A   1      35.090  32.839  31.204  1.00  0.00     0.010 A 
ATOM     35  C   UNL A   1      36.652  33.829  29.642  1.00  0.00     0.010 A 
ATOM     36  C   UNL A   1      36.413  33.027  30.768  1.00  0.00    -0.014 A 
BRANCH  36  37
ATOM     37  C   UNL A   1      37.550  32.378  31.472  1.00  0.00     0.031 A 
ATOM     38  C   UNL A   1      38.296  31.244  30.826  1.00  0.00     0.074 A 
ATOM     39  C   UNL A   1      37.880  32.789  32.713  1.00  0.00     0.049 A 
ATOM     40  N   UNL A   1      39.285  30.529  31.299  1.00  0.00    -0.248 NA
ATOM     41  C   UNL A   1      37.856  30.841  29.481  1.00  0.00     0.031 C 
ATOM     42  C   UNL A   1      37.204  33.852  33.459  1.00  0.00     0.029 A 
ATOM     43  N   UNL A   1      38.865  32.362  33.571  1.00  0.00    -0.354 N 
ATOM     44  C   UNL A   1      39.583  29.593  30.314  1.00  0.00     0.074 A 
ATOM     45  C   UNL A   1      38.626  29.790  29.246  1.00  0.00     0.031 C 
ATOM     46  C   UNL A   1      37.812  34.018  34.644  1.00  0.00     0.029 A 
ATOM     47  C   UNL A   1      38.888  33.039  34.769  1.00  0.00     0.049 A 
ATOM     48  H   UNL A   1      39.496  31.639  33.348  1.00  0.00     0.167 HD
ATOM     49  C   UNL A   1      40.580  28.674  30.292  1.00  0.00     0.034 A 
ATOM     50  C   UNL A   1      39.675  32.881  35.851  1.00  0.00     0.034 A 
ATOM     51  C   UNL A   1      41.528  28.493  31.364  1.00  0.00     0.049 A 
ATOM     52  C   UNL A   1      40.749  31.821  35.817  1.00  0.00     0.074 A 
ATOM     53  C   UNL A   1      42.603  27.623  31.425  1.00  0.00     0.029 A 
ATOM     54  N   UNL A   1      41.511  29.185  32.570  1.00  0.00    -0.354 N 
ATOM     55  N   UNL A   1      41.054  30.982  34.853  1.00  0.00    -0.248 NA
ATOM     56  C   UNL A   1      41.593  31.695  37.012  1.00  0.00     0.031 C 
ATOM     57  C   UNL A   1      43.186  27.733  32.692  1.00  0.00     0.029 A 
ATOM     58  C   UNL A   1      42.534  28.735  33.392  1.00  0.00     0.049 A 
ATOM     59  H   UNL A   1      40.868  29.891  32.805  1.00  0.00     0.167 HD
ATOM     60  C   UNL A   1      42.146  30.252  35.316  1.00  0.00     0.074 A 
ATOM     61  C   UNL A   1      42.459  30.769  36.632  1.00  0.00     0.031 C 
ATOM     62  C   UNL A   1      42.829  29.249  34.710  1.00  0.00     0.034 A 
BRANCH  49  63
ATOM     63  C   UNL A   1      40.677  27.778  29.079  1.00  0.00     0.023 A 
ATOM     64  C   UNL A   1      41.607  28.022  28.053  1.00  0.00     0.031 A 
ATOM     65  C   UNL A   1      39.828  26.666  28.943  1.00  0.00     0.131 A 
ATOM     66  C   UNL A   1      41.621  27.209  26.910  1.00  0.00     0.055 A 
ATOM     67  C   UNL A   1      39.903  25.811  27.842  1.00  0.00     0.041 A 
ATOM     68  F   UNL A   1      38.904  26.393  29.879  1.00  0.00    -0.206 F 
ATOM     69  C   UNL A   1      40.794  26.088  26.810  1.00  0.00     0.022 A 
BRANCH  66  70
ATOM     70  S   UNL A   1      42.637  27.717  25.497  1.00  0.00     0.124 S 
ATOM     71  O   UNL A   1      43.925  27.975  26.138  1.00  0.00    -0.237 OA
ATOM     72  O   UNL A   1      42.580  26.547  24.629  1.00  0.00    -0.237 OA
ATOM     73  O   UNL A   1      41.953  28.905  24.992  1.00  0.00    -0.744 OA
ENDBRANCH  66  70
ENDBRANCH  49  63
BRANCH  50  74
ATOM     74  C   UNL A   1      39.480  33.724  37.067  1.00  0.00     0.023 A 
ATOM     75  C   UNL A   1      38.884  33.200  38.225  1.00  0.00     0.031 A 
ATOM     76  C   UNL A   1      39.827  35.088  37.067  1.00  0.00     0.131 A 
ATOM     77  C   UNL A   1      38.596  34.045  39.309  1.00  0.00     0.055 A 
ATOM     78  C   UNL A   1      39.600  35.909  38.172  1.00  0.00     0.041 A 
ATOM     79  F   UNL A   1      40.401  35.643  35.988  1.00  0.00    -0.206 F 
ATOM     80  C   UNL A   1      38.965  35.391  39.296  1.00  0.00     0.022 A 
BRANCH  77  81
ATOM     81  S   UNL A   1      37.627  33.382  40.691  1.00  0.00     0.124 S 
ATOM     82  O   UNL A   1      36.357  33.078  40.042  1.00  0.00    -0.237 OA
ATOM     83  O   UNL A   1      38.429  32.234  41.100  1.00  0.00    -0.237 OA
ATOM     84  O   UNL A   1      37.593  34.488  41.644  1.00  0.00    -0.744 OA
ENDBRANCH  77  81
ENDBRANCH  50  74
BRANCH  62  85
ATOM     85  C   UNL A   1      44.015  28.678  35.453  1.00  0.00     0.023 A 
ATOM     86  C   UNL A   1      43.885  27.583  36.325  1.00  0.00     0.031 A 
ATOM     87  C   UNL A   1      45.289  29.254  35.303  1.00  0.00     0.131 A 
ATOM     88  C   UNL A   1      44.993  27.143  37.065  1.00  0.00     0.055 A 
ATOM     89  C   UNL A   1      46.403  28.765  35.987  1.00  0.00     0.041 A 
ATOM     90  F   UNL A   1      45.473  30.305  34.488  1.00  0.00    -0.206 F 
ATOM     91  C   UNL A   1      46.255  27.714  36.886  1.00  0.00     0.022 A 
BRANCH  88  92
ATOM     92  S   UNL A   1      44.737  25.889  38.350  1.00  0.00     0.124 S 
ATOM     93  O   UNL A   1      44.256  26.693  39.467  1.00  0.00    -0.237 OA
ATOM     94  O   UNL A   1      43.755  25.004  37.732  1.00  0.00    -0.237 OA
ATOM     95  O   UNL A   1      46.066  25.307  38.531  1.00  0.00    -0.744 OA
ENDBRANCH  88  92
ENDBRANCH  62  85
ENDBRANCH  36  37
ENDBRANCH  28  31
ENDBRANCH  26  27
ENDBRANCH   1  26
TORSDOF 16
ENDMDL
MODEL 3
REMARK VINA RESULT:     -10.4      5.827     11.681
REMARK SMILES C[C@@H](C(=O)NCCCCNC(=O)c1ccc(-c2c3nc(c(-c4cc(S(=O)(=O)[O-])ccc4F)c4ccc([nH]4)c(-c4cc(S(=O)(=O)[O-])ccc4F)c4nc(c(-c5cc(S(=O)(=O)[O-])ccc5F)c5ccc2[nH]5)C=C4)C=C3)cc1)c1ccc(-c2ccc3[nH]ccc3c2)cc1
REMARK SMILES IDX 8 1 7 2 6 3 5 4 3 5 4 6 2 8 1 9 76 10 77 11 90 12 78 13
REMARK SMILES IDX 89 14 79 15 80 16 81 17 88 18 82 19 87 20 83 21 86 22 84 23
REMARK SMILES IDX 85 24 9 26 10 27 11 28 12 30 13 31 14 32 75 33 15 34 74 35
REMARK SMILES IDX 16 36 17 37 18 38 68 39 19 40 73 41 67 42 69 43 20 44 72 45
REMARK SMILES IDX 66 46 65 47 21 49 53 50 33 51 52 52 34 53 37 54 51 55 70 56
REMARK SMILES IDX 35 57 36 58 50 60 71 61 38 62 22 63 23 64 31 65 24 66 30 67
REMARK SMILES IDX 32 68 29 69 25 70 26 71 27 72 28 73 54 74 55 75 63 76 56 77
REMARK SMILES IDX 62 78 64 79 61 80 57 81 58 82 59 83 60 84 39 85 40 86 48 87
REMARK SMILES IDX 41 88 47 89 49 90 46 91 42 92 43 93 44 94 45 95
REMARK H PARENT 5 7 84 25 10 29 69 48 37 59
REMARK Flexibility Score: inf
ROOT
ATOM      1  C   UNL A   1      35.133  21.728  24.793  1.00  0.00     0.023 C 
ENDROOT
BRANCH   1   2
ATOM      2  C   UNL A   1      33.863  21.237  25.490  1.00  0.00     0.023 C 
BRANCH   2   3
ATOM      3  C   UNL A   1      32.554  21.707  24.844  1.00  0.00     0.116 C 
BRANCH   3   4
ATOM      4  N   UNL A   1      31.784  22.499  25.780  1.00  0.00    -0.356 N 
ATOM      5  C   UNL A   1      31.949  23.808  26.139  1.00  0.00     0.227 C 
ATOM      6  O   UNL A   1      31.487  24.127  27.236  1.00  0.00    -0.274 OA
ATOM      7  H   UNL A   1      31.037  22.030  26.217  1.00  0.00     0.163 HD
BRANCH   5   8
ATOM      8  C   UNL A   1      32.685  24.770  25.189  1.00  0.00     0.105 C 
ATOM      9  C   UNL A   1      34.051  25.116  25.802  1.00  0.00     0.023 C 
BRANCH   8  10
ATOM     10  C   UNL A   1      31.946  26.058  24.799  1.00  0.00    -0.036 A 
ATOM     11  C   UNL A   1      31.005  26.017  23.753  1.00  0.00     0.005 A 
ATOM     12  C   UNL A   1      32.142  27.294  25.431  1.00  0.00     0.005 A 
ATOM     13  C   UNL A   1      30.372  27.173  23.293  1.00  0.00     0.009 A 
ATOM     14  C   UNL A   1      31.511  28.456  24.971  1.00  0.00     0.009 A 
ATOM     15  C   UNL A   1      30.634  28.410  23.885  1.00  0.00    -0.018 A 
BRANCH  15  16
ATOM     16  C   UNL A   1      29.975  29.618  23.395  1.00  0.00    -0.018 A 
ATOM     17  C   UNL A   1      29.790  30.709  24.254  1.00  0.00     0.011 A 
ATOM     18  C   UNL A   1      29.499  29.687  22.073  1.00  0.00     0.019 A 
ATOM     19  C   UNL A   1      29.170  31.885  23.826  1.00  0.00     0.027 A 
ATOM     20  C   UNL A   1      28.829  30.846  21.633  1.00  0.00    -0.000 A 
ATOM     21  C   UNL A   1      28.703  31.921  22.510  1.00  0.00     0.045 A 
ATOM     22  C   UNL A   1      28.176  31.213  20.424  1.00  0.00     0.028 A 
ATOM     23  N   UNL A   1      28.066  32.929  21.824  1.00  0.00    -0.361 N 
ATOM     24  C   UNL A   1      27.696  32.493  20.580  1.00  0.00     0.083 A 
ATOM     25  H   UNL A   1      27.901  33.834  22.176  1.00  0.00     0.166 HD
ENDBRANCH  15  16
ENDBRANCH   8  10
ENDBRANCH   5   8
ENDBRANCH   3   4
ENDBRANCH   2   3
ENDBRANCH   1   2
BRANCH   1  26
ATOM     26  C   UNL A   1      36.290  22.047  25.726  1.00  0.00     0.116 C 
BRANCH  26  27
ATOM     27  N   UNL A   1      37.321  21.022  25.694  1.00  0.00    -0.352 N 
ATOM     28  C   UNL A   1      38.673  21.147  25.907  1.00  0.00     0.251 C 
ATOM     29  H   UNL A   1      37.006  20.111  25.491  1.00  0.00     0.163 HD
ATOM     30  O   UNL A   1      39.415  20.205  25.663  1.00  0.00    -0.269 OA
BRANCH  28  31
ATOM     31  C   UNL A   1      39.216  22.434  26.396  1.00  0.00     0.039 A 
ATOM     32  C   UNL A   1      40.331  22.414  27.235  1.00  0.00     0.014 A 
ATOM     33  C   UNL A   1      38.645  23.650  26.009  1.00  0.00     0.014 A 
ATOM     34  C   UNL A   1      40.913  23.619  27.633  1.00  0.00     0.010 A 
ATOM     35  C   UNL A   1      39.274  24.846  26.340  1.00  0.00     0.010 A 
ATOM     36  C   UNL A   1      40.416  24.844  27.155  1.00  0.00    -0.014 A 
BRANCH  36  37
ATOM     37  C   UNL A   1      41.090  26.126  27.491  1.00  0.00     0.031 A 
ATOM     38  C   UNL A   1      42.484  26.402  26.999  1.00  0.00     0.074 A 
ATOM     39  C   UNL A   1      40.457  27.021  28.275  1.00  0.00     0.049 A 
ATOM     40  N   UNL A   1      43.249  27.441  27.221  1.00  0.00    -0.248 NA
ATOM     41  C   UNL A   1      43.113  25.362  26.170  1.00  0.00     0.031 C 
ATOM     42  C   UNL A   1      39.119  26.847  28.846  1.00  0.00     0.029 A 
ATOM     43  N   UNL A   1      40.850  28.255  28.732  1.00  0.00    -0.354 N 
ATOM     44  C   UNL A   1      44.446  27.180  26.564  1.00  0.00     0.074 A 
ATOM     45  C   UNL A   1      44.329  25.856  25.991  1.00  0.00     0.031 C 
ATOM     46  C   UNL A   1      38.790  27.944  29.546  1.00  0.00     0.029 A 
ATOM     47  C   UNL A   1      39.911  28.879  29.521  1.00  0.00     0.049 A 
ATOM     48  H   UNL A   1      41.723  28.656  28.515  1.00  0.00     0.167 HD
ATOM     49  C   UNL A   1      45.531  27.982  26.429  1.00  0.00     0.034 A 
ATOM     50  C   UNL A   1      39.952  30.062  30.165  1.00  0.00     0.034 A 
ATOM     51  C   UNL A   1      45.630  29.301  27.004  1.00  0.00     0.049 A 
ATOM     52  C   UNL A   1      41.189  30.917  30.032  1.00  0.00     0.074 A 
ATOM     53  C   UNL A   1      46.664  30.214  26.891  1.00  0.00     0.029 A 
ATOM     54  N   UNL A   1      44.666  29.895  27.811  1.00  0.00    -0.354 N 
ATOM     55  N   UNL A   1      42.291  30.678  29.359  1.00  0.00    -0.248 NA
ATOM     56  C   UNL A   1      41.182  32.205  30.737  1.00  0.00     0.031 C 
ATOM     57  C   UNL A   1      46.362  31.322  27.689  1.00  0.00     0.029 A 
ATOM     58  C   UNL A   1      45.099  31.145  28.230  1.00  0.00     0.049 A 
ATOM     59  H   UNL A   1      43.803  29.487  28.050  1.00  0.00     0.167 HD
ATOM     60  C   UNL A   1      43.094  31.803  29.534  1.00  0.00     0.074 A 
ATOM     61  C   UNL A   1      42.337  32.726  30.355  1.00  0.00     0.031 C 
ATOM     62  C   UNL A   1      44.341  32.052  29.060  1.00  0.00     0.034 A 
BRANCH  49  63
ATOM     63  C   UNL A   1      46.706  27.441  25.648  1.00  0.00     0.023 A 
ATOM     64  C   UNL A   1      47.007  27.900  24.353  1.00  0.00     0.031 A 
ATOM     65  C   UNL A   1      47.537  26.451  26.202  1.00  0.00     0.131 A 
ATOM     66  C   UNL A   1      48.065  27.324  23.633  1.00  0.00     0.055 A 
ATOM     67  C   UNL A   1      48.638  25.942  25.512  1.00  0.00     0.041 A 
ATOM     68  F   UNL A   1      47.288  25.957  27.426  1.00  0.00    -0.206 F 
ATOM     69  C   UNL A   1      48.900  26.368  24.214  1.00  0.00     0.022 A 
BRANCH  66  70
ATOM     70  S   UNL A   1      48.248  27.745  21.878  1.00  0.00     0.124 S 
ATOM     71  O   UNL A   1      46.959  28.369  21.588  1.00  0.00    -0.237 OA
ATOM     72  O   UNL A   1      49.401  28.636  21.886  1.00  0.00    -0.237 OA
ATOM     73  O   UNL A   1      48.463  26.450  21.236  1.00  0.00    -0.744 OA
ENDBRANCH  66  70
ENDBRANCH  49  63
BRANCH  50  74
ATOM     74  C   UNL A   1      38.804  30.514  31.006  1.00  0.00     0.023 A 
ATOM     75  C   UNL A   1      37.683  31.133  30.431  1.00  0.00     0.031 A 
ATOM     76  C   UNL A   1      38.840  30.393  32.407  1.00  0.00     0.131 A 
ATOM     77  C   UNL A   1      36.676  31.663  31.253  1.00  0.00     0.055 A 
ATOM     78  C   UNL A   1      37.804  30.860  33.217  1.00  0.00     0.041 A 
ATOM     79  F   UNL A   1      39.887  29.808  33.012  1.00  0.00    -0.206 F 
ATOM     80  C   UNL A   1      36.721  31.516  32.641  1.00  0.00     0.022 A 
BRANCH  77  81
ATOM     81  S   UNL A   1      35.361  32.650  30.487  1.00  0.00     0.124 S 
ATOM     82  O   UNL A   1      36.046  33.912  30.237  1.00  0.00    -0.237 OA
ATOM     83  O   UNL A   1      35.032  31.853  29.310  1.00  0.00    -0.237 OA
ATOM     84  O   UNL A   1      34.325  32.694  31.517  1.00  0.00    -0.744 OA
ENDBRANCH  77  81
ENDBRANCH  50  74
BRANCH  62  85
ATOM     85  C   UNL A   1      44.942  33.400  29.383  1.00  0.00     0.023 A 
ATOM     86  C   UNL A   1      44.885  34.473  28.477  1.00  0.00     0.031 A 
ATOM     87  C   UNL A   1      45.603  33.605  30.608  1.00  0.00     0.131 A 
ATOM     88  C   UNL A   1      45.536  35.679  28.779  1.00  0.00     0.055 A 
ATOM     89  C   UNL A   1      46.186  34.830  30.933  1.00  0.00     0.041 A 
ATOM     90  F   UNL A   1      45.694  32.615  31.511  1.00  0.00    -0.206 F 
ATOM     91  C   UNL A   1      46.169  35.871  30.010  1.00  0.00     0.022 A 
BRANCH  88  92
ATOM     92  S   UNL A   1      45.645  36.954  27.494  1.00  0.00     0.124 S 
ATOM     93  O   UNL A   1      46.719  37.802  27.998  1.00  0.00    -0.237 OA
ATOM     94  O   UNL A   1      45.956  36.172  26.302  1.00  0.00    -0.237 OA
ATOM     95  O   UNL A   1      44.316  37.565  27.504  1.00  0.00    -0.744 OA
ENDBRANCH  88  92
ENDBRANCH  62  85
ENDBRANCH  36  37
ENDBRANCH  28  31
ENDBRANCH  26  27
ENDBRANCH   1  26
TORSDOF 16
ENDMDL
