MODEL 1
REMARK VINA RESULT:     -12.2      0.000      0.000
REMARK SMILES O=C(NCCCCNC(=O)c1[nH]ncc1C[NH+]1CCC([N@H+]2CCC[C@@H](C(=O)N3CCCC3)C2)CC1)c1ccc(-c2c3nc(c(-c4cc(S(=O)(=O)[O-])ccc4F)c4ccc([nH]4)c(-c4cc(S(=O)(=O)[O-])ccc4F)c4nc(c(-c5cc(S(=O)(=O)[O-])ccc5F)c5ccc2[nH]5)C=C4)C=C3)cc1
REMARK SMILES IDX 6 1 5 2 4 3 3 4 1 5 2 6 36 8 37 9 98 10 38 11 97 12 39 13
REMARK SMILES IDX 40 14 41 15 91 16 42 17 96 18 90 19 92 20 43 21 95 22 89 23
REMARK SMILES IDX 88 24 44 26 76 27 56 28 75 29 57 30 60 31 74 32 93 33 58 34
REMARK SMILES IDX 59 35 73 37 94 38 61 39 45 40 46 41 54 42 47 43 53 44 55 45
REMARK SMILES IDX 52 46 48 47 49 48 50 49 51 50 77 51 78 52 86 53 79 54 85 55
REMARK SMILES IDX 87 56 84 57 80 58 81 59 82 60 83 61 62 62 63 63 71 64 64 65
REMARK SMILES IDX 70 66 72 67 69 68 65 69 66 70 67 71 68 72 7 73 8 74 9 75
REMARK SMILES IDX 10 77 11 78 12 79 15 80 13 81 14 83 16 84 17 85 18 86 35 87
REMARK SMILES IDX 19 89 34 90 20 91 21 92 22 93 33 94 23 96 25 97 24 98 26 99
REMARK SMILES IDX 27 100 28 101 29 102 32 103 30 104 31 105
REMARK H PARENT 3 7 92 25 60 36 8 76 12 82 17 88 21 95
REMARK Flexibility Score: inf
ROOT
ATOM      1  C   UNL A   1      34.521  23.786  24.767  1.00  0.00     0.023 C 
ENDROOT
BRANCH   1   2
ATOM      2  C   UNL A   1      35.410  23.276  25.897  1.00  0.00     0.023 C 
BRANCH   2   3
ATOM      3  C   UNL A   1      36.906  23.462  25.683  1.00  0.00     0.116 C 
BRANCH   3   4
ATOM      4  N   UNL A   1      37.687  22.272  25.996  1.00  0.00    -0.352 N 
ATOM      5  O   UNL A   1      39.522  21.094  26.592  1.00  0.00    -0.269 OA
ATOM      6  C   UNL A   1      38.964  22.184  26.502  1.00  0.00     0.251 C 
ATOM      7  H   UNL A   1      37.238  21.412  25.822  1.00  0.00     0.163 HD
BRANCH   6   8
ATOM      8  C   UNL A   1      39.665  23.422  26.904  1.00  0.00     0.039 A 
ATOM      9  C   UNL A   1      39.490  24.591  26.165  1.00  0.00     0.014 A 
ATOM     10  C   UNL A   1      40.545  23.398  27.991  1.00  0.00     0.014 A 
ATOM     11  C   UNL A   1      40.327  25.674  26.391  1.00  0.00     0.010 A 
ATOM     12  C   UNL A   1      41.308  24.534  28.287  1.00  0.00     0.010 A 
ATOM     13  C   UNL A   1      41.232  25.669  27.466  1.00  0.00    -0.014 A 
BRANCH  13  14
ATOM     14  C   UNL A   1      42.029  26.897  27.728  1.00  0.00     0.031 A 
ATOM     15  C   UNL A   1      43.380  27.110  27.101  1.00  0.00     0.074 A 
ATOM     16  C   UNL A   1      41.475  27.857  28.496  1.00  0.00     0.049 A 
ATOM     17  N   UNL A   1      44.174  28.147  27.195  1.00  0.00    -0.248 NA
ATOM     18  C   UNL A   1      43.916  26.021  26.272  1.00  0.00     0.031 C 
ATOM     19  C   UNL A   1      40.170  27.750  29.159  1.00  0.00     0.029 A 
ATOM     20  N   UNL A   1      41.905  29.117  28.820  1.00  0.00    -0.354 N 
ATOM     21  C   UNL A   1      45.306  27.836  26.448  1.00  0.00     0.074 A 
ATOM     22  C   UNL A   1      45.108  26.497  25.933  1.00  0.00     0.031 C 
ATOM     23  C   UNL A   1      39.880  28.916  29.751  1.00  0.00     0.029 A 
ATOM     24  C   UNL A   1      41.007  29.823  29.586  1.00  0.00     0.049 A 
ATOM     25  H   UNL A   1      42.774  29.480  28.534  1.00  0.00     0.167 HD
ATOM     26  C   UNL A   1      46.401  28.601  26.210  1.00  0.00     0.034 A 
ATOM     27  C   UNL A   1      41.087  31.057  30.118  1.00  0.00     0.034 A 
ATOM     28  C   UNL A   1      46.578  29.938  26.731  1.00  0.00     0.049 A 
ATOM     29  C   UNL A   1      42.324  31.871  29.857  1.00  0.00     0.074 A 
ATOM     30  C   UNL A   1      47.644  30.802  26.546  1.00  0.00     0.029 A 
ATOM     31  N   UNL A   1      45.668  30.605  27.542  1.00  0.00    -0.354 N 
ATOM     32  N   UNL A   1      43.383  31.555  29.146  1.00  0.00    -0.248 NA
ATOM     33  C   UNL A   1      42.376  33.204  30.465  1.00  0.00     0.031 C 
ATOM     34  C   UNL A   1      47.406  31.964  27.291  1.00  0.00     0.029 A 
ATOM     35  C   UNL A   1      46.160  31.857  27.885  1.00  0.00     0.049 A 
ATOM     36  H   UNL A   1      44.800  30.242  27.833  1.00  0.00     0.167 HD
ATOM     37  C   UNL A   1      44.225  32.659  29.219  1.00  0.00     0.074 A 
ATOM     38  C   UNL A   1      43.530  33.659  30.005  1.00  0.00     0.031 C 
ATOM     39  C   UNL A   1      45.465  32.830  28.694  1.00  0.00     0.034 A 
BRANCH  26  40
ATOM     40  C   UNL A   1      47.513  28.000  25.382  1.00  0.00     0.023 A 
ATOM     41  C   UNL A   1      47.562  28.149  23.984  1.00  0.00     0.031 A 
ATOM     42  C   UNL A   1      48.549  27.279  26.003  1.00  0.00     0.131 A 
ATOM     43  C   UNL A   1      48.596  27.546  23.251  1.00  0.00     0.055 A 
ATOM     44  C   UNL A   1      49.611  26.738  25.274  1.00  0.00     0.041 A 
ATOM     45  F   UNL A   1      48.546  27.087  27.331  1.00  0.00    -0.206 F 
ATOM     46  C   UNL A   1      49.633  26.861  23.889  1.00  0.00     0.022 A 
BRANCH  43  47
ATOM     47  S   UNL A   1      48.512  27.578  21.439  1.00  0.00     0.124 S 
ATOM     48  O   UNL A   1      47.183  28.145  21.215  1.00  0.00    -0.237 OA
ATOM     49  O   UNL A   1      49.638  28.434  21.085  1.00  0.00    -0.237 OA
ATOM     50  O   UNL A   1      48.654  26.173  21.063  1.00  0.00    -0.744 OA
ENDBRANCH  43  47
ENDBRANCH  26  40
BRANCH  27  51
ATOM     51  C   UNL A   1      39.989  31.577  30.984  1.00  0.00     0.023 A 
ATOM     52  C   UNL A   1      39.959  31.309  32.361  1.00  0.00     0.031 A 
ATOM     53  C   UNL A   1      38.927  32.316  30.432  1.00  0.00     0.131 A 
ATOM     54  C   UNL A   1      38.865  31.735  33.130  1.00  0.00     0.055 A 
ATOM     55  C   UNL A   1      37.874  32.792  31.212  1.00  0.00     0.041 A 
ATOM     56  F   UNL A   1      38.906  32.601  29.120  1.00  0.00    -0.206 F 
ATOM     57  C   UNL A   1      37.830  32.487  32.569  1.00  0.00     0.022 A 
BRANCH  54  58
ATOM     58  S   UNL A   1      38.759  31.196  34.858  1.00  0.00     0.124 S 
ATOM     59  O   UNL A   1      39.842  31.954  35.474  1.00  0.00    -0.237 OA
ATOM     60  O   UNL A   1      37.405  31.604  35.217  1.00  0.00    -0.237 OA
ATOM     61  O   UNL A   1      38.974  29.752  34.777  1.00  0.00    -0.744 OA
ENDBRANCH  54  58
ENDBRANCH  27  51
BRANCH  39  62
ATOM     62  C   UNL A   1      46.122  34.163  28.953  1.00  0.00     0.023 A 
ATOM     63  C   UNL A   1      45.964  35.241  28.063  1.00  0.00     0.031 A 
ATOM     64  C   UNL A   1      46.959  34.340  30.067  1.00  0.00     0.131 A 
ATOM     65  C   UNL A   1      46.695  36.421  28.261  1.00  0.00     0.055 A 
ATOM     66  C   UNL A   1      47.633  35.541  30.295  1.00  0.00     0.041 A 
ATOM     67  F   UNL A   1      47.145  33.342  30.948  1.00  0.00    -0.206 F 
ATOM     68  C   UNL A   1      47.517  36.583  29.379  1.00  0.00     0.022 A 
BRANCH  65  69
ATOM     69  S   UNL A   1      46.649  37.696  26.971  1.00  0.00     0.124 S 
ATOM     70  O   UNL A   1      45.236  38.065  26.960  1.00  0.00    -0.237 OA
ATOM     71  O   UNL A   1      47.566  38.702  27.494  1.00  0.00    -0.237 OA
ATOM     72  O   UNL A   1      47.115  36.993  25.778  1.00  0.00    -0.744 OA
ENDBRANCH  65  69
ENDBRANCH  39  62
ENDBRANCH  13  14
ENDBRANCH   6   8
ENDBRANCH   3   4
ENDBRANCH   2   3
ENDBRANCH   1   2
BRANCH   1  73
ATOM     73  C   UNL A   1      34.188  25.272  24.825  1.00  0.00     0.116 C 
BRANCH  73  74
ATOM     74  N   UNL A   1      34.226  25.925  23.527  1.00  0.00    -0.351 N 
ATOM     75  C   UNL A   1      33.246  25.992  22.574  1.00  0.00     0.269 C 
ATOM     76  H   UNL A   1      35.070  26.382  23.304  1.00  0.00     0.163 HD
ATOM     77  O   UNL A   1      33.529  26.442  21.460  1.00  0.00    -0.268 OA
BRANCH  75  78
ATOM     78  C   UNL A   1      31.946  25.465  22.868  1.00  0.00     0.131 A 
ATOM     79  N   UNL A   1      31.652  24.146  22.667  1.00  0.00    -0.272 N 
ATOM     80  C   UNL A   1      30.766  26.047  23.320  1.00  0.00     0.057 A 
ATOM     81  N   UNL A   1      30.443  23.783  23.126  1.00  0.00    -0.183 NA
ATOM     82  H   UNL A   1      32.269  23.519  22.225  1.00  0.00     0.190 HD
ATOM     83  C   UNL A   1      29.908  24.940  23.521  1.00  0.00     0.145 A 
BRANCH  80  84
ATOM     84  C   UNL A   1      30.488  27.488  23.596  1.00  0.00     0.303 C 
BRANCH  84  85
ATOM     85  N   UNL A   1      31.358  28.102  24.596  1.00  0.00    -0.331 N 
ATOM     86  C   UNL A   1      31.153  29.541  24.750  1.00  0.00     0.268 C 
ATOM     87  C   UNL A   1      31.417  27.400  25.874  1.00  0.00     0.268 C 
ATOM     88  H   UNL A   1      32.289  27.989  24.198  1.00  0.00     0.348 HD
ATOM     89  C   UNL A   1      32.300  30.154  25.555  1.00  0.00     0.126 C 
ATOM     90  C   UNL A   1      32.592  27.924  26.701  1.00  0.00     0.126 C 
ATOM     91  C   UNL A   1      32.470  29.442  26.912  1.00  0.00     0.195 C 
BRANCH  91  92
ATOM     92  N   UNL A   1      33.547  29.970  27.788  1.00  0.00    -0.331 N 
ATOM     93  C   UNL A   1      34.865  29.349  27.581  1.00  0.00     0.262 C 
ATOM     94  C   UNL A   1      33.647  31.432  27.640  1.00  0.00     0.275 C 
ATOM     95  H   UNL A   1      33.273  29.722  28.739  1.00  0.00     0.348 HD
ATOM     96  C   UNL A   1      35.900  29.902  28.572  1.00  0.00     0.062 C 
ATOM     97  C   UNL A   1      34.627  32.046  28.649  1.00  0.00     0.134 C 
ATOM     98  C   UNL A   1      36.010  31.425  28.493  1.00  0.00     0.025 C 
BRANCH  97  99
ATOM     99  C   UNL A   1      34.612  33.544  28.385  1.00  0.00     0.231 C 
ATOM    100  O   UNL A   1      34.775  33.999  27.251  1.00  0.00    -0.274 OA
ATOM    101  N   UNL A   1      34.245  34.355  29.431  1.00  0.00    -0.342 N 
ATOM    102  C   UNL A   1      34.467  34.160  30.849  1.00  0.00     0.119 C 
ATOM    103  C   UNL A   1      33.534  35.592  29.174  1.00  0.00     0.119 C 
ATOM    104  C   UNL A   1      33.319  34.921  31.483  1.00  0.00     0.023 C 
ATOM    105  C   UNL A   1      33.132  36.114  30.549  1.00  0.00     0.023 C 
ENDBRANCH  97  99
ENDBRANCH  91  92
ENDBRANCH  84  85
ENDBRANCH  80  84
ENDBRANCH  75  78
ENDBRANCH  73  74
ENDBRANCH   1  73
TORSDOF 18
ENDMDL
MODEL 2
REMARK VINA RESULT:     -11.4      1.875      7.663
REMARK SMILES O=C(NCCCCNC(=O)c1[nH]ncc1C[NH+]1CCC([N@H+]2CCC[C@@H](C(=O)N3CCCC3)C2)CC1)c1ccc(-c2c3nc(c(-c4cc(S(=O)(=O)[O-])ccc4F)c4ccc([nH]4)c(-c4cc(S(=O)(=O)[O-])ccc4F)c4nc(c(-c5cc(S(=O)(=O)[O-])ccc5F)c5ccc2[nH]5)C=C4)C=C3)cc1
REMARK SMILES IDX 6 1 5 2 4 3 3 4 1 5 2 6 36 8 37 9 98 10 38 11 97 12 39 13
REMARK SMILES IDX 40 14 41 15 91 16 42 17 96 18 90 19 92 20 43 21 95 22 89 23
REMARK SMILES IDX 88 24 44 26 76 27 56 28 75 29 57 30 60 31 74 32 93 33 58 34
REMARK SMILES IDX 59 35 73 37 94 38 61 39 45 40 46 41 54 42 47 43 53 44 55 45
REMARK SMILES IDX 52 46 48 47 49 48 50 49 51 50 77 51 78 52 86 53 79 54 85 55
REMARK SMILES IDX 87 56 84 57 80 58 81 59 82 60 83 61 62 62 63 63 71 64 64 65
REMARK SMILES IDX 70 66 72 67 69 68 65 69 66 70 67 71 68 72 7 73 8 74 9 75
REMARK SMILES IDX 10 77 11 78 12 79 15 80 13 81 14 83 16 84 17 85 18 86 35 87
REMARK SMILES IDX 19 89 34 90 20 91 21 92 22 93 33 94 23 96 25 97 24 98 26 99
REMARK SMILES IDX 27 100 28 101 29 102 32 103 30 104 31 105
REMARK H PARENT 3 7 92 25 60 36 8 76 12 82 17 88 21 95
REMARK Flexibility Score: inf
ROOT
ATOM      1  C   UNL A   1      35.407  23.750  24.281  1.00  0.00     0.023 C 
ENDROOT
BRANCH   1   2
ATOM      2  C   UNL A   1      35.729  23.674  25.770  1.00  0.00     0.023 C 
BRANCH   2   3
ATOM      3  C   UNL A   1      37.200  23.840  26.127  1.00  0.00     0.116 C 
BRANCH   3   4
ATOM      4  N   UNL A   1      37.880  22.575  26.376  1.00  0.00    -0.352 N 
ATOM      5  O   UNL A   1      39.643  21.203  26.724  1.00  0.00    -0.269 OA
ATOM      6  C   UNL A   1      39.208  22.349  26.662  1.00  0.00     0.251 C 
ATOM      7  H   UNL A   1      37.312  21.771  26.333  1.00  0.00     0.163 HD
BRANCH   6   8
ATOM      8  C   UNL A   1      40.107  23.505  26.864  1.00  0.00     0.039 A 
ATOM      9  C   UNL A   1      41.025  23.496  27.914  1.00  0.00     0.014 A 
ATOM     10  C   UNL A   1      39.992  24.626  26.036  1.00  0.00     0.014 A 
ATOM     11  C   UNL A   1      41.690  24.666  28.251  1.00  0.00     0.010 A 
ATOM     12  C   UNL A   1      40.750  25.770  26.312  1.00  0.00     0.010 A 
ATOM     13  C   UNL A   1      41.578  25.812  27.444  1.00  0.00    -0.014 A 
BRANCH  13  14
ATOM     14  C   UNL A   1      42.395  27.006  27.790  1.00  0.00     0.031 A 
ATOM     15  C   UNL A   1      41.863  28.095  28.681  1.00  0.00     0.074 A 
ATOM     16  C   UNL A   1      43.664  27.055  27.337  1.00  0.00     0.049 A 
ATOM     17  N   UNL A   1      42.469  29.173  29.112  1.00  0.00    -0.248 NA
ATOM     18  C   UNL A   1      40.472  27.969  29.142  1.00  0.00     0.031 C 
ATOM     19  C   UNL A   1      44.279  26.053  26.460  1.00  0.00     0.029 A 
ATOM     20  N   UNL A   1      44.675  27.949  27.573  1.00  0.00    -0.354 N 
ATOM     21  C   UNL A   1      41.537  29.858  29.884  1.00  0.00     0.074 A 
ATOM     22  C   UNL A   1      40.311  29.088  29.835  1.00  0.00     0.031 C 
ATOM     23  C   UNL A   1      45.573  26.352  26.288  1.00  0.00     0.029 A 
ATOM     24  C   UNL A   1      45.862  27.607  26.968  1.00  0.00     0.049 A 
ATOM     25  H   UNL A   1      44.561  28.759  28.121  1.00  0.00     0.167 HD
ATOM     26  C   UNL A   1      41.695  31.016  30.573  1.00  0.00     0.034 A 
ATOM     27  C   UNL A   1      47.049  28.242  26.941  1.00  0.00     0.034 A 
ATOM     28  C   UNL A   1      42.929  31.769  30.612  1.00  0.00     0.049 A 
ATOM     29  C   UNL A   1      47.185  29.536  27.695  1.00  0.00     0.074 A 
ATOM     30  C   UNL A   1      43.200  32.950  31.283  1.00  0.00     0.029 A 
ATOM     31  N   UNL A   1      44.098  31.417  29.949  1.00  0.00    -0.354 N 
ATOM     32  N   UNL A   1      46.288  30.166  28.419  1.00  0.00    -0.248 NA
ATOM     33  C   UNL A   1      48.490  30.202  27.630  1.00  0.00     0.031 C 
ATOM     34  C   UNL A   1      44.509  33.341  30.980  1.00  0.00     0.029 A 
ATOM     35  C   UNL A   1      45.082  32.370  30.176  1.00  0.00     0.049 A 
ATOM     36  H   UNL A   1      44.213  30.610  29.398  1.00  0.00     0.167 HD
ATOM     37  C   UNL A   1      46.927  31.302  28.902  1.00  0.00     0.074 A 
ATOM     38  C   UNL A   1      48.294  31.244  28.422  1.00  0.00     0.031 C 
ATOM     39  C   UNL A   1      46.431  32.310  29.664  1.00  0.00     0.034 A 
BRANCH  26  40
ATOM     40  C   UNL A   1      40.496  31.565  31.311  1.00  0.00     0.023 A 
ATOM     41  C   UNL A   1      40.146  31.116  32.597  1.00  0.00     0.031 A 
ATOM     42  C   UNL A   1      39.699  32.565  30.725  1.00  0.00     0.131 A 
ATOM     43  C   UNL A   1      39.004  31.630  33.232  1.00  0.00     0.055 A 
ATOM     44  C   UNL A   1      38.603  33.121  31.390  1.00  0.00     0.041 A 
ATOM     45  F   UNL A   1      39.973  33.021  29.492  1.00  0.00    -0.206 F 
ATOM     46  C   UNL A   1      38.244  32.646  32.647  1.00  0.00     0.022 A 
BRANCH  43  47
ATOM     47  S   UNL A   1      38.462  30.879  34.791  1.00  0.00     0.124 S 
ATOM     48  O   UNL A   1      37.922  29.600  34.332  1.00  0.00    -0.237 OA
ATOM     49  O   UNL A   1      39.702  30.809  35.557  1.00  0.00    -0.237 OA
ATOM     50  O   UNL A   1      37.467  31.821  35.300  1.00  0.00    -0.744 OA
ENDBRANCH  43  47
ENDBRANCH  26  40
BRANCH  27  51
ATOM     51  C   UNL A   1      48.181  27.691  26.142  1.00  0.00     0.023 A 
ATOM     52  C   UNL A   1      48.245  27.870  24.753  1.00  0.00     0.031 A 
ATOM     53  C   UNL A   1      49.196  26.937  26.759  1.00  0.00     0.131 A 
ATOM     54  C   UNL A   1      49.275  27.260  24.019  1.00  0.00     0.055 A 
ATOM     55  C   UNL A   1      50.252  26.387  26.034  1.00  0.00     0.041 A 
ATOM     56  F   UNL A   1      49.183  26.736  28.086  1.00  0.00    -0.206 F 
ATOM     57  C   UNL A   1      50.287  26.534  24.651  1.00  0.00     0.022 A 
BRANCH  54  58
ATOM     58  S   UNL A   1      49.213  27.339  22.208  1.00  0.00     0.124 S 
ATOM     59  O   UNL A   1      50.627  27.440  21.865  1.00  0.00    -0.237 OA
ATOM     60  O   UNL A   1      48.560  26.078  21.875  1.00  0.00    -0.237 OA
ATOM     61  O   UNL A   1      48.420  28.539  21.948  1.00  0.00    -0.744 OA
ENDBRANCH  54  58
ENDBRANCH  27  51
BRANCH  39  62
ATOM     62  C   UNL A   1      47.396  33.411  30.027  1.00  0.00     0.023 A 
ATOM     63  C   UNL A   1      48.146  33.364  31.216  1.00  0.00     0.031 A 
ATOM     64  C   UNL A   1      47.524  34.544  29.206  1.00  0.00     0.131 A 
ATOM     65  C   UNL A   1      48.931  34.464  31.589  1.00  0.00     0.055 A 
ATOM     66  C   UNL A   1      48.359  35.609  29.551  1.00  0.00     0.041 A 
ATOM     67  F   UNL A   1      46.829  34.641  28.060  1.00  0.00    -0.206 F 
ATOM     68  C   UNL A   1      49.053  35.580  30.757  1.00  0.00     0.022 A 
BRANCH  65  69
ATOM     69  S   UNL A   1      49.694  34.466  33.234  1.00  0.00     0.124 S 
ATOM     70  O   UNL A   1      50.497  33.247  33.198  1.00  0.00    -0.237 OA
ATOM     71  O   UNL A   1      50.439  35.720  33.231  1.00  0.00    -0.237 OA
ATOM     72  O   UNL A   1      48.550  34.428  34.143  1.00  0.00    -0.744 OA
ENDBRANCH  65  69
ENDBRANCH  39  62
ENDBRANCH  13  14
ENDBRANCH   6   8
ENDBRANCH   3   4
ENDBRANCH   2   3
ENDBRANCH   1   2
BRANCH   1  73
ATOM     73  C   UNL A   1      34.094  24.443  23.937  1.00  0.00     0.116 C 
BRANCH  73  74
ATOM     74  N   UNL A   1      34.053  24.964  22.581  1.00  0.00    -0.351 N 
ATOM     75  C   UNL A   1      32.999  25.525  21.911  1.00  0.00     0.269 C 
ATOM     76  H   UNL A   1      34.897  24.908  22.077  1.00  0.00     0.163 HD
ATOM     77  O   UNL A   1      33.112  25.746  20.703  1.00  0.00    -0.268 OA
BRANCH  75  78
ATOM     78  C   UNL A   1      31.771  25.762  22.611  1.00  0.00     0.131 A 
ATOM     79  N   UNL A   1      30.893  24.747  22.872  1.00  0.00    -0.272 N 
ATOM     80  C   UNL A   1      31.170  26.914  23.110  1.00  0.00     0.057 A 
ATOM     81  N   UNL A   1      29.866  25.106  23.659  1.00  0.00    -0.183 NA
ATOM     82  H   UNL A   1      31.004  23.837  22.513  1.00  0.00     0.190 HD
ATOM     83  C   UNL A   1      30.037  26.422  23.801  1.00  0.00     0.145 A 
BRANCH  80  84
ATOM     84  C   UNL A   1      31.640  28.327  23.004  1.00  0.00     0.303 C 
BRANCH  84  85
ATOM     85  N   UNL A   1      32.311  28.842  24.194  1.00  0.00    -0.331 N 
ATOM     86  C   UNL A   1      31.429  29.586  25.093  1.00  0.00     0.268 C 
ATOM     87  C   UNL A   1      33.147  27.874  24.898  1.00  0.00     0.268 C 
ATOM     88  H   UNL A   1      32.970  29.522  23.817  1.00  0.00     0.348 HD
ATOM     89  C   UNL A   1      32.254  30.357  26.123  1.00  0.00     0.126 C 
ATOM     90  C   UNL A   1      34.048  28.596  25.900  1.00  0.00     0.126 C 
ATOM     91  C   UNL A   1      33.207  29.418  26.890  1.00  0.00     0.195 C 
BRANCH  91  92
ATOM     92  N   UNL A   1      34.046  30.060  27.934  1.00  0.00    -0.331 N 
ATOM     93  C   UNL A   1      35.432  29.569  27.994  1.00  0.00     0.262 C 
ATOM     94  C   UNL A   1      34.033  31.523  27.763  1.00  0.00     0.275 C 
ATOM     95  H   UNL A   1      33.623  29.798  28.825  1.00  0.00     0.348 HD
ATOM     96  C   UNL A   1      36.206  30.233  29.142  1.00  0.00     0.062 C 
ATOM     97  C   UNL A   1      34.744  32.242  28.916  1.00  0.00     0.134 C 
ATOM     98  C   UNL A   1      36.184  31.759  29.039  1.00  0.00     0.025 C 
BRANCH  97  99
ATOM     99  C   UNL A   1      34.637  33.729  28.609  1.00  0.00     0.231 C 
ATOM    100  O   UNL A   1      34.738  34.156  27.458  1.00  0.00    -0.274 OA
ATOM    101  N   UNL A   1      34.259  34.551  29.642  1.00  0.00    -0.342 N 
ATOM    102  C   UNL A   1      34.537  34.413  31.057  1.00  0.00     0.119 C 
ATOM    103  C   UNL A   1      33.472  35.739  29.373  1.00  0.00     0.119 C 
ATOM    104  C   UNL A   1      33.369  35.129  31.707  1.00  0.00     0.023 C 
ATOM    105  C   UNL A   1      33.086  36.280  30.745  1.00  0.00     0.023 C 
ENDBRANCH  97  99
ENDBRANCH  91  92
ENDBRANCH  84  85
ENDBRANCH  80  84
ENDBRANCH  75  78
ENDBRANCH  73  74
ENDBRANCH   1  73
TORSDOF 18
ENDMDL
MODEL 3
REMARK VINA RESULT:     -11.0      3.691      9.544
REMARK SMILES O=C(NCCCCNC(=O)c1[nH]ncc1C[NH+]1CCC([N@H+]2CCC[C@@H](C(=O)N3CCCC3)C2)CC1)c1ccc(-c2c3nc(c(-c4cc(S(=O)(=O)[O-])ccc4F)c4ccc([nH]4)c(-c4cc(S(=O)(=O)[O-])ccc4F)c4nc(c(-c5cc(S(=O)(=O)[O-])ccc5F)c5ccc2[nH]5)C=C4)C=C3)cc1
REMARK SMILES IDX 6 1 5 2 4 3 3 4 1 5 2 6 36 8 37 9 98 10 38 11 97 12 39 13
REMARK SMILES IDX 40 14 41 15 91 16 42 17 96 18 90 19 92 20 43 21 95 22 89 23
REMARK SMILES IDX 88 24 44 26 76 27 56 28 75 29 57 30 60 31 74 32 93 33 58 34
REMARK SMILES IDX 59 35 73 37 94 38 61 39 45 40 46 41 54 42 47 43 53 44 55 45
REMARK SMILES IDX 52 46 48 47 49 48 50 49 51 50 77 51 78 52 86 53 79 54 85 55
REMARK SMILES IDX 87 56 84 57 80 58 81 59 82 60 83 61 62 62 63 63 71 64 64 65
REMARK SMILES IDX 70 66 72 67 69 68 65 69 66 70 67 71 68 72 7 73 8 74 9 75
REMARK SMILES IDX 10 77 11 78 12 79 15 80 13 81 14 83 16 84 17 85 18 86 35 87
REMARK SMILES IDX 19 89 34 90 20 91 21 92 22 93 33 94 23 96 25 97 24 98 26 99
REMARK SMILES IDX 27 100 28 101 29 102 32 103 30 104 31 105
REMARK H PARENT 3 7 92 25 60 36 8 76 12 82 17 88 21 95
REMARK Flexibility Score: inf
ROOT
ATOM      1  C   UNL A   1      35.645  33.182  32.761  1.00  0.00     0.023 C 
ENDROOT
BRANCH   1   2
ATOM      2  C   UNL A   1      36.450  33.024  34.046  1.00  0.00     0.023 C 
BRANCH   2   3
ATOM      3  C   UNL A   1      37.597  32.025  33.977  1.00  0.00     0.116 C 
BRANCH   3   4
ATOM      4  N   UNL A   1      37.166  30.672  33.648  1.00  0.00    -0.352 N 
ATOM      5  O   UNL A   1      37.112  28.742  32.473  1.00  0.00    -0.269 OA
ATOM      6  C   UNL A   1      37.675  29.807  32.705  1.00  0.00     0.251 C 
ATOM      7  H   UNL A   1      36.405  30.329  34.173  1.00  0.00     0.163 HD
BRANCH   6   8
ATOM      8  C   UNL A   1      38.890  30.193  31.957  1.00  0.00     0.039 A 
ATOM      9  C   UNL A   1      40.097  30.366  32.633  1.00  0.00     0.014 A 
ATOM     10  C   UNL A   1      38.809  30.439  30.583  1.00  0.00     0.014 A 
ATOM     11  C   UNL A   1      41.168  30.959  31.981  1.00  0.00     0.010 A 
ATOM     12  C   UNL A   1      39.927  30.932  29.902  1.00  0.00     0.010 A 
ATOM     13  C   UNL A   1      41.105  31.233  30.603  1.00  0.00    -0.014 A 
BRANCH  13  14
ATOM     14  C   UNL A   1      42.318  31.770  29.932  1.00  0.00     0.031 A 
ATOM     15  C   UNL A   1      42.517  33.248  29.725  1.00  0.00     0.074 A 
ATOM     16  C   UNL A   1      43.279  30.896  29.569  1.00  0.00     0.049 A 
ATOM     17  N   UNL A   1      43.541  33.873  29.200  1.00  0.00    -0.248 NA
ATOM     18  C   UNL A   1      41.428  34.139  30.152  1.00  0.00     0.031 C 
ATOM     19  C   UNL A   1      43.185  29.440  29.718  1.00  0.00     0.029 A 
ATOM     20  N   UNL A   1      44.528  31.093  29.043  1.00  0.00    -0.354 N 
ATOM     21  C   UNL A   1      43.219  35.226  29.223  1.00  0.00     0.074 A 
ATOM     22  C   UNL A   1      41.889  35.328  29.785  1.00  0.00     0.031 C 
ATOM     23  C   UNL A   1      44.349  28.884  29.357  1.00  0.00     0.029 A 
ATOM     24  C   UNL A   1      45.241  29.928  28.872  1.00  0.00     0.049 A 
ATOM     25  H   UNL A   1      44.881  31.981  28.808  1.00  0.00     0.167 HD
ATOM     26  C   UNL A   1      43.970  36.282  28.818  1.00  0.00     0.034 A 
ATOM     27  C   UNL A   1      46.468  29.717  28.360  1.00  0.00     0.034 A 
ATOM     28  C   UNL A   1      45.299  36.159  28.261  1.00  0.00     0.049 A 
ATOM     29  C   UNL A   1      47.265  30.905  27.898  1.00  0.00     0.074 A 
ATOM     30  C   UNL A   1      46.149  37.162  27.826  1.00  0.00     0.029 A 
ATOM     31  N   UNL A   1      45.972  34.960  28.060  1.00  0.00    -0.354 N 
ATOM     32  N   UNL A   1      46.940  32.178  27.929  1.00  0.00    -0.248 NA
ATOM     33  C   UNL A   1      48.591  30.630  27.336  1.00  0.00     0.031 C 
ATOM     34  C   UNL A   1      47.306  36.568  27.309  1.00  0.00     0.029 A 
ATOM     35  C   UNL A   1      47.212  35.198  27.484  1.00  0.00     0.049 A 
ATOM     36  H   UNL A   1      45.619  34.070  28.290  1.00  0.00     0.167 HD
ATOM     37  C   UNL A   1      48.030  32.855  27.394  1.00  0.00     0.074 A 
ATOM     38  C   UNL A   1      49.033  31.853  27.092  1.00  0.00     0.031 C 
ATOM     39  C   UNL A   1      48.188  34.183  27.163  1.00  0.00     0.034 A 
BRANCH  26  40
ATOM     40  C   UNL A   1      43.361  37.661  28.924  1.00  0.00     0.023 A 
ATOM     41  C   UNL A   1      43.537  38.465  30.064  1.00  0.00     0.031 A 
ATOM     42  C   UNL A   1      42.603  38.184  27.861  1.00  0.00     0.131 A 
ATOM     43  C   UNL A   1      42.925  39.726  30.133  1.00  0.00     0.055 A 
ATOM     44  C   UNL A   1      42.052  39.467  27.909  1.00  0.00     0.041 A 
ATOM     45  F   UNL A   1      42.384  37.456  26.755  1.00  0.00    -0.206 F 
ATOM     46  C   UNL A   1      42.204  40.243  29.054  1.00  0.00     0.022 A 
BRANCH  43  47
ATOM     47  S   UNL A   1      42.997  40.644  31.696  1.00  0.00     0.124 S 
ATOM     48  O   UNL A   1      44.172  41.488  31.490  1.00  0.00    -0.237 OA
ATOM     49  O   UNL A   1      41.712  41.335  31.717  1.00  0.00    -0.237 OA
ATOM     50  O   UNL A   1      43.159  39.598  32.703  1.00  0.00    -0.744 OA
ENDBRANCH  43  47
ENDBRANCH  26  40
BRANCH  27  51
ATOM     51  C   UNL A   1      46.995  28.329  28.216  1.00  0.00     0.023 A 
ATOM     52  C   UNL A   1      46.608  27.511  27.145  1.00  0.00     0.031 A 
ATOM     53  C   UNL A   1      47.866  27.788  29.179  1.00  0.00     0.131 A 
ATOM     54  C   UNL A   1      47.051  26.180  27.089  1.00  0.00     0.055 A 
ATOM     55  C   UNL A   1      48.355  26.485  29.084  1.00  0.00     0.041 A 
ATOM     56  F   UNL A   1      48.270  28.528  30.224  1.00  0.00    -0.206 F 
ATOM     57  C   UNL A   1      47.933  25.666  28.042  1.00  0.00     0.022 A 
BRANCH  54  58
ATOM     58  S   UNL A   1      46.367  25.092  25.808  1.00  0.00     0.124 S 
ATOM     59  O   UNL A   1      46.902  23.794  26.203  1.00  0.00    -0.237 OA
ATOM     60  O   UNL A   1      44.932  25.278  25.991  1.00  0.00    -0.237 OA
ATOM     61  O   UNL A   1      46.915  25.642  24.569  1.00  0.00    -0.744 OA
ENDBRANCH  54  58
ENDBRANCH  27  51
BRANCH  39  62
ATOM     62  C   UNL A   1      49.507  34.606  26.568  1.00  0.00     0.023 A 
ATOM     63  C   UNL A   1      50.681  34.642  27.343  1.00  0.00     0.031 A 
ATOM     64  C   UNL A   1      49.582  35.032  25.231  1.00  0.00     0.131 A 
ATOM     65  C   UNL A   1      51.861  35.167  26.797  1.00  0.00     0.055 A 
ATOM     66  C   UNL A   1      50.777  35.492  24.674  1.00  0.00     0.041 A 
ATOM     67  F   UNL A   1      48.491  35.019  24.447  1.00  0.00    -0.206 F 
ATOM     68  C   UNL A   1      51.920  35.579  25.464  1.00  0.00     0.022 A 
BRANCH  65  69
ATOM     69  S   UNL A   1      53.286  35.416  27.891  1.00  0.00     0.124 S 
ATOM     70  O   UNL A   1      53.628  34.045  28.261  1.00  0.00    -0.237 OA
ATOM     71  O   UNL A   1      54.235  36.096  27.017  1.00  0.00    -0.237 OA
ATOM     72  O   UNL A   1      52.746  36.234  28.976  1.00  0.00    -0.744 OA
ENDBRANCH  65  69
ENDBRANCH  39  62
ENDBRANCH  13  14
ENDBRANCH   6   8
ENDBRANCH   3   4
ENDBRANCH   2   3
ENDBRANCH   1   2
BRANCH   1  73
ATOM     73  C   UNL A   1      36.016  34.389  31.908  1.00  0.00     0.116 C 
BRANCH  73  74
ATOM     74  N   UNL A   1      37.078  34.118  30.953  1.00  0.00    -0.351 N 
ATOM     75  C   UNL A   1      36.979  33.867  29.611  1.00  0.00     0.269 C 
ATOM     76  H   UNL A   1      37.992  34.118  31.320  1.00  0.00     0.163 HD
ATOM     77  O   UNL A   1      37.982  33.485  29.002  1.00  0.00    -0.268 OA
BRANCH  75  78
ATOM     78  C   UNL A   1      35.702  33.976  28.971  1.00  0.00     0.131 A 
ATOM     79  N   UNL A   1      35.169  35.193  28.650  1.00  0.00    -0.272 N 
ATOM     80  C   UNL A   1      34.745  33.038  28.593  1.00  0.00     0.057 A 
ATOM     81  N   UNL A   1      34.039  35.118  27.928  1.00  0.00    -0.183 NA
ATOM     82  H   UNL A   1      35.576  36.047  28.924  1.00  0.00     0.190 HD
ATOM     83  C   UNL A   1      33.784  33.809  27.896  1.00  0.00     0.145 A 
BRANCH  80  84
ATOM     84  C   UNL A   1      34.759  31.560  28.808  1.00  0.00     0.303 C 
BRANCH  84  85
ATOM     85  N   UNL A   1      34.262  30.771  27.684  1.00  0.00    -0.331 N 
ATOM     86  C   UNL A   1      34.821  29.422  27.620  1.00  0.00     0.268 C 
ATOM     87  C   UNL A   1      32.813  30.790  27.511  1.00  0.00     0.268 C 
ATOM     88  H   UNL A   1      34.624  31.267  26.870  1.00  0.00     0.348 HD
ATOM     89  C   UNL A   1      34.513  28.788  26.263  1.00  0.00     0.126 C 
ATOM     90  C   UNL A   1      32.445  30.229  26.138  1.00  0.00     0.126 C 
ATOM     91  C   UNL A   1      33.000  28.805  25.970  1.00  0.00     0.195 C 
BRANCH  91  92
ATOM     92  N   UNL A   1      32.584  28.194  24.682  1.00  0.00    -0.331 N 
ATOM     93  C   UNL A   1      32.947  26.776  24.529  1.00  0.00     0.262 C 
ATOM     94  C   UNL A   1      31.134  28.370  24.484  1.00  0.00     0.275 C 
ATOM     95  H   UNL A   1      33.108  28.691  23.961  1.00  0.00     0.348 HD
ATOM     96  C   UNL A   1      32.543  26.247  23.145  1.00  0.00     0.062 C 
ATOM     97  C   UNL A   1      30.684  27.909  23.092  1.00  0.00     0.134 C 
ATOM     98  C   UNL A   1      31.053  26.448  22.869  1.00  0.00     0.025 C 
BRANCH  97  99
ATOM     99  C   UNL A   1      29.185  28.163  23.034  1.00  0.00     0.231 C 
ATOM    100  O   UNL A   1      28.375  27.325  23.434  1.00  0.00    -0.274 OA
ATOM    101  N   UNL A   1      28.782  29.426  22.674  1.00  0.00    -0.342 N 
ATOM    102  C   UNL A   1      29.421  30.354  21.764  1.00  0.00     0.119 C 
ATOM    103  C   UNL A   1      27.566  29.985  23.231  1.00  0.00     0.119 C 
ATOM    104  C   UNL A   1      28.969  31.706  22.282  1.00  0.00     0.023 C 
ATOM    105  C   UNL A   1      27.546  31.437  22.766  1.00  0.00     0.023 C 
ENDBRANCH  97  99
ENDBRANCH  91  92
ENDBRANCH  84  85
ENDBRANCH  80  84
ENDBRANCH  75  78
ENDBRANCH  73  74
ENDBRANCH   1  73
TORSDOF 18
ENDMDL
