MODEL 1
REMARK VINA RESULT:     -11.8      0.000      0.000
REMARK SMILES N#Cc1ccc(C[N@H+]2CCCC[C@H]2C(=O)NCCCCNC(=O)c2ccc(-c3c4nc(c(-c5cc(S(=O)(=O)[O-])ccc5F)c5ccc([nH]5)c(-c5cc(S(=O)(=O)[O-])ccc5F)c5nc(c(-c6cc(S(=O)(=O)[O-])ccc6F)c6ccc3[nH]6)C=C5)C=C4)cc2)c(F)c1
REMARK SMILES IDX 18 1 17 2 16 3 14 4 15 5 13 7 8 8 9 9 10 11 12 12 11 13 7 14
REMARK SMILES IDX 6 15 3 16 4 17 89 18 5 19 87 20 88 21 2 22 1 23 19 24 20 25
REMARK SMILES IDX 21 26 22 27 23 29 24 30 25 31 86 32 26 33 85 34 27 35 28 36
REMARK SMILES IDX 29 37 79 38 30 39 84 40 78 41 80 42 31 43 83 44 77 45 76 46
REMARK SMILES IDX 32 48 64 49 44 50 63 51 45 52 48 53 62 54 81 55 46 56 47 57
REMARK SMILES IDX 61 59 82 60 49 61 33 62 34 63 42 64 35 65 41 66 43 67 40 68
REMARK SMILES IDX 36 69 37 70 38 71 39 72 65 73 66 74 74 75 67 76 73 77 75 78
REMARK SMILES IDX 72 79 68 80 69 81 70 82 71 83 50 84 51 85 59 86 52 87 58 88
REMARK SMILES IDX 60 89 57 90 53 91 54 92 55 93 56 94
REMARK H PARENT 16 6 8 10 21 28 80 47 48 58
REMARK Flexibility Score: inf
ROOT
ATOM      1  C   UNL A   1      36.877  21.663  24.581  1.00  0.00     0.023 C 
ENDROOT
BRANCH   1   2
ATOM      2  C   UNL A   1      36.619  22.618  25.750  1.00  0.00     0.116 C 
BRANCH   2   3
ATOM      3  N   UNL A   1      35.544  22.091  26.560  1.00  0.00    -0.351 N 
ATOM      4  C   UNL A   1      34.264  22.545  26.676  1.00  0.00     0.278 C 
ATOM      5  O   UNL A   1      33.691  22.284  27.735  1.00  0.00    -0.268 OA
ATOM      6  H   UNL A   1      35.765  21.299  27.101  1.00  0.00     0.163 HD
BRANCH   4   7
ATOM      7  C   UNL A   1      33.617  23.307  25.487  1.00  0.00     0.274 C 
ATOM      8  N   UNL A   1      32.612  22.514  24.733  1.00  0.00    -0.321 N 
ATOM      9  C   UNL A   1      31.437  22.143  25.524  1.00  0.00     0.263 C 
ATOM     10  H   UNL A   1      32.252  23.174  24.045  1.00  0.00     0.349 HD
ATOM     11  C   UNL A   1      30.784  23.359  26.201  1.00  0.00     0.062 C 
ATOM     12  C   UNL A   1      32.952  24.595  25.989  1.00  0.00     0.076 C 
ATOM     13  C   UNL A   1      31.775  24.281  26.903  1.00  0.00     0.012 C 
BRANCH   8  14
ATOM     14  C   UNL A   1      33.152  21.451  23.863  1.00  0.00     0.302 C 
BRANCH  14  15
ATOM     15  C   UNL A   1      32.865  20.019  24.244  1.00  0.00     0.042 A 
ATOM     16  C   UNL A   1      32.740  17.267  24.798  1.00  0.00     0.055 A 
ATOM     17  C   UNL A   1      33.043  18.178  25.817  1.00  0.00     0.020 A 
ATOM     18  C   UNL A   1      32.395  17.736  23.532  1.00  0.00     0.059 A 
ATOM     19  C   UNL A   1      33.112  19.547  25.540  1.00  0.00     0.014 A 
ATOM     20  C   UNL A   1      32.428  19.103  23.279  1.00  0.00     0.133 A 
ATOM     21  F   UNL A   1      32.131  19.532  22.042  1.00  0.00    -0.206 F 
BRANCH  16  22
ATOM     22  C   UNL A   1      32.826  15.856  25.043  1.00  0.00     0.099 C 
ATOM     23  N   UNL A   1      32.902  14.721  25.254  1.00  0.00    -0.192 NA
ENDBRANCH  16  22
ENDBRANCH  14  15
ENDBRANCH   8  14
ENDBRANCH   4   7
ENDBRANCH   2   3
ENDBRANCH   1   2
BRANCH   1  24
ATOM     24  C   UNL A   1      37.702  20.426  24.962  1.00  0.00     0.023 C 
BRANCH  24  25
ATOM     25  C   UNL A   1      38.887  20.715  25.876  1.00  0.00     0.116 C 
BRANCH  25  26
ATOM     26  N   UNL A   1      39.804  19.589  25.940  1.00  0.00    -0.352 N 
ATOM     27  C   UNL A   1      41.173  19.603  26.064  1.00  0.00     0.251 C 
ATOM     28  H   UNL A   1      39.390  18.697  25.888  1.00  0.00     0.163 HD
ATOM     29  O   UNL A   1      41.814  18.573  25.877  1.00  0.00    -0.269 OA
BRANCH  27  30
ATOM     30  C   UNL A   1      41.857  20.871  26.391  1.00  0.00     0.039 A 
ATOM     31  C   UNL A   1      42.125  21.780  25.366  1.00  0.00     0.014 A 
ATOM     32  C   UNL A   1      42.194  21.176  27.713  1.00  0.00     0.014 A 
ATOM     33  C   UNL A   1      42.657  23.032  25.680  1.00  0.00     0.010 A 
ATOM     34  C   UNL A   1      42.653  22.451  28.030  1.00  0.00     0.010 A 
ATOM     35  C   UNL A   1      42.877  23.397  27.019  1.00  0.00    -0.014 A 
BRANCH  35  36
ATOM     36  C   UNL A   1      43.302  24.775  27.384  1.00  0.00     0.031 A 
ATOM     37  C   UNL A   1      42.324  25.727  28.014  1.00  0.00     0.074 A 
ATOM     38  C   UNL A   1      44.549  25.186  27.080  1.00  0.00     0.049 A 
ATOM     39  N   UNL A   1      42.480  26.991  28.315  1.00  0.00    -0.248 NA
ATOM     40  C   UNL A   1      40.990  25.195  28.327  1.00  0.00     0.031 C 
ATOM     41  C   UNL A   1      45.579  24.360  26.447  1.00  0.00     0.029 A 
ATOM     42  N   UNL A   1      45.164  26.403  27.251  1.00  0.00    -0.354 N 
ATOM     43  C   UNL A   1      41.265  27.409  28.845  1.00  0.00     0.074 A 
ATOM     44  C   UNL A   1      40.366  26.275  28.771  1.00  0.00     0.031 C 
ATOM     45  C   UNL A   1      46.701  25.082  26.308  1.00  0.00     0.029 A 
ATOM     46  C   UNL A   1      46.455  26.443  26.776  1.00  0.00     0.049 A 
ATOM     47  H   UNL A   1      44.723  27.174  27.675  1.00  0.00     0.167 HD
ATOM     48  C   UNL A   1      40.937  28.619  29.358  1.00  0.00     0.034 A 
ATOM     49  C   UNL A   1      47.333  27.464  26.695  1.00  0.00     0.034 A 
ATOM     50  C   UNL A   1      41.846  29.738  29.418  1.00  0.00     0.049 A 
ATOM     51  C   UNL A   1      46.916  28.822  27.201  1.00  0.00     0.074 A 
ATOM     52  C   UNL A   1      41.632  30.991  29.967  1.00  0.00     0.029 A 
ATOM     53  N   UNL A   1      43.132  29.751  28.893  1.00  0.00    -0.354 N 
ATOM     54  N   UNL A   1      45.780  29.185  27.753  1.00  0.00    -0.248 NA
ATOM     55  C   UNL A   1      47.894  29.911  27.073  1.00  0.00     0.031 C 
ATOM     56  C   UNL A   1      42.745  31.787  29.688  1.00  0.00     0.029 A 
ATOM     57  C   UNL A   1      43.699  31.006  29.056  1.00  0.00     0.049 A 
ATOM     58  H   UNL A   1      43.576  28.981  28.468  1.00  0.00     0.167 HD
ATOM     59  C   UNL A   1      45.922  30.536  28.060  1.00  0.00     0.074 A 
ATOM     60  C   UNL A   1      47.257  30.918  27.651  1.00  0.00     0.031 C 
ATOM     61  C   UNL A   1      45.028  31.381  28.633  1.00  0.00     0.034 A 
BRANCH  48  62
ATOM     62  C   UNL A   1      39.526  28.809  29.862  1.00  0.00     0.023 A 
ATOM     63  C   UNL A   1      38.499  29.284  29.028  1.00  0.00     0.031 A 
ATOM     64  C   UNL A   1      39.202  28.512  31.198  1.00  0.00     0.131 A 
ATOM     65  C   UNL A   1      37.221  29.519  29.555  1.00  0.00     0.055 A 
ATOM     66  C   UNL A   1      37.906  28.662  31.693  1.00  0.00     0.041 A 
ATOM     67  F   UNL A   1      40.144  28.078  32.050  1.00  0.00    -0.206 F 
ATOM     68  C   UNL A   1      36.909  29.182  30.874  1.00  0.00     0.022 A 
BRANCH  65  69
ATOM     69  S   UNL A   1      36.016  30.411  28.535  1.00  0.00     0.124 S 
ATOM     70  O   UNL A   1      35.451  31.351  29.502  1.00  0.00    -0.237 OA
ATOM     71  O   UNL A   1      36.853  30.993  27.493  1.00  0.00    -0.237 OA
ATOM     72  O   UNL A   1      35.100  29.364  28.090  1.00  0.00    -0.744 OA
ENDBRANCH  65  69
ENDBRANCH  48  62
BRANCH  49  73
ATOM     73  C   UNL A   1      48.679  27.261  26.081  1.00  0.00     0.023 A 
ATOM     74  C   UNL A   1      48.897  27.509  24.717  1.00  0.00     0.031 A 
ATOM     75  C   UNL A   1      49.755  26.764  26.839  1.00  0.00     0.131 A 
ATOM     76  C   UNL A   1      50.142  27.210  24.142  1.00  0.00     0.055 A 
ATOM     77  C   UNL A   1      51.012  26.534  26.276  1.00  0.00     0.041 A 
ATOM     78  F   UNL A   1      49.603  26.501  28.147  1.00  0.00    -0.206 F 
ATOM     79  C   UNL A   1      51.206  26.744  24.916  1.00  0.00     0.022 A 
BRANCH  76  80
ATOM     80  S   UNL A   1      50.316  27.333  22.340  1.00  0.00     0.124 S 
ATOM     81  O   UNL A   1      50.101  28.759  22.120  1.00  0.00    -0.237 OA
ATOM     82  O   UNL A   1      51.676  26.849  22.132  1.00  0.00    -0.237 OA
ATOM     83  O   UNL A   1      49.260  26.457  21.836  1.00  0.00    -0.744 OA
ENDBRANCH  76  80
ENDBRANCH  49  73
BRANCH  61  84
ATOM     84  C   UNL A   1      45.476  32.801  28.884  1.00  0.00     0.023 A 
ATOM     85  C   UNL A   1      45.239  33.829  27.956  1.00  0.00     0.031 A 
ATOM     86  C   UNL A   1      46.128  33.134  30.087  1.00  0.00     0.131 A 
ATOM     87  C   UNL A   1      45.687  35.131  28.227  1.00  0.00     0.055 A 
ATOM     88  C   UNL A   1      46.509  34.443  30.379  1.00  0.00     0.041 A 
ATOM     89  F   UNL A   1      46.389  32.191  31.006  1.00  0.00    -0.206 F 
ATOM     90  C   UNL A   1      46.297  35.449  29.443  1.00  0.00     0.022 A 
BRANCH  87  91
ATOM     91  S   UNL A   1      45.534  36.392  26.932  1.00  0.00     0.124 S 
ATOM     92  O   UNL A   1      46.326  37.487  27.483  1.00  0.00    -0.237 OA
ATOM     93  O   UNL A   1      46.100  35.718  25.769  1.00  0.00    -0.237 OA
ATOM     94  O   UNL A   1      44.095  36.642  26.865  1.00  0.00    -0.744 OA
ENDBRANCH  87  91
ENDBRANCH  61  84
ENDBRANCH  35  36
ENDBRANCH  27  30
ENDBRANCH  25  26
ENDBRANCH  24  25
ENDBRANCH   1  24
TORSDOF 17
ENDMDL
MODEL 2
REMARK VINA RESULT:     -11.5      1.879      2.540
REMARK SMILES N#Cc1ccc(C[N@H+]2CCCC[C@H]2C(=O)NCCCCNC(=O)c2ccc(-c3c4nc(c(-c5cc(S(=O)(=O)[O-])ccc5F)c5ccc([nH]5)c(-c5cc(S(=O)(=O)[O-])ccc5F)c5nc(c(-c6cc(S(=O)(=O)[O-])ccc6F)c6ccc3[nH]6)C=C5)C=C4)cc2)c(F)c1
REMARK SMILES IDX 18 1 17 2 16 3 14 4 15 5 13 7 8 8 9 9 10 11 12 12 11 13 7 14
REMARK SMILES IDX 6 15 3 16 4 17 89 18 5 19 87 20 88 21 2 22 1 23 19 24 20 25
REMARK SMILES IDX 21 26 22 27 23 29 24 30 25 31 86 32 26 33 85 34 27 35 28 36
REMARK SMILES IDX 29 37 79 38 30 39 84 40 78 41 80 42 31 43 83 44 77 45 76 46
REMARK SMILES IDX 32 48 64 49 44 50 63 51 45 52 48 53 62 54 81 55 46 56 47 57
REMARK SMILES IDX 61 59 82 60 49 61 33 62 34 63 42 64 35 65 41 66 43 67 40 68
REMARK SMILES IDX 36 69 37 70 38 71 39 72 65 73 66 74 74 75 67 76 73 77 75 78
REMARK SMILES IDX 72 79 68 80 69 81 70 82 71 83 50 84 51 85 59 86 52 87 58 88
REMARK SMILES IDX 60 89 57 90 53 91 54 92 55 93 56 94
REMARK H PARENT 16 6 8 10 21 28 80 47 48 58
REMARK Flexibility Score: inf
ROOT
ATOM      1  C   UNL A   1      36.449  22.662  23.343  1.00  0.00     0.023 C 
ENDROOT
BRANCH   1   2
ATOM      2  C   UNL A   1      35.152  23.360  22.925  1.00  0.00     0.116 C 
BRANCH   2   3
ATOM      3  N   UNL A   1      34.792  24.330  23.934  1.00  0.00    -0.351 N 
ATOM      4  C   UNL A   1      33.738  25.194  23.947  1.00  0.00     0.278 C 
ATOM      5  O   UNL A   1      33.889  26.222  24.611  1.00  0.00    -0.268 OA
ATOM      6  H   UNL A   1      35.386  24.371  24.717  1.00  0.00     0.163 HD
BRANCH   4   7
ATOM      7  C   UNL A   1      32.441  24.824  23.179  1.00  0.00     0.274 C 
ATOM      8  N   UNL A   1      31.238  24.701  24.042  1.00  0.00    -0.321 N 
ATOM      9  C   UNL A   1      30.849  25.953  24.695  1.00  0.00     0.263 C 
ATOM     10  H   UNL A   1      30.484  24.521  23.379  1.00  0.00     0.349 HD
ATOM     11  C   UNL A   1      30.693  27.108  23.694  1.00  0.00     0.062 C 
ATOM     12  C   UNL A   1      32.161  25.867  22.089  1.00  0.00     0.076 C 
ATOM     13  C   UNL A   1      31.845  27.225  22.701  1.00  0.00     0.012 C 
BRANCH   8  14
ATOM     14  C   UNL A   1      31.175  23.496  24.890  1.00  0.00     0.302 C 
BRANCH  14  15
ATOM     15  C   UNL A   1      31.796  22.229  24.357  1.00  0.00     0.042 A 
ATOM     16  C   UNL A   1      32.575  19.671  23.491  1.00  0.00     0.055 A 
ATOM     17  C   UNL A   1      32.072  20.602  22.575  1.00  0.00     0.020 A 
ATOM     18  C   UNL A   1      32.789  20.050  24.816  1.00  0.00     0.059 A 
ATOM     19  C   UNL A   1      31.678  21.873  23.006  1.00  0.00     0.014 A 
ATOM     20  C   UNL A   1      32.430  21.331  25.224  1.00  0.00     0.133 A 
ATOM     21  F   UNL A   1      32.607  21.663  26.513  1.00  0.00    -0.206 F 
BRANCH  16  22
ATOM     22  C   UNL A   1      32.828  18.320  23.081  1.00  0.00     0.099 C 
ATOM     23  N   UNL A   1      33.018  17.226  22.756  1.00  0.00    -0.192 NA
ENDBRANCH  16  22
ENDBRANCH  14  15
ENDBRANCH   8  14
ENDBRANCH   4   7
ENDBRANCH   2   3
ENDBRANCH   1   2
BRANCH   1  24
ATOM     24  C   UNL A   1      36.250  21.571  24.404  1.00  0.00     0.023 C 
BRANCH  24  25
ATOM     25  C   UNL A   1      37.064  21.772  25.676  1.00  0.00     0.116 C 
BRANCH  25  26
ATOM     26  N   UNL A   1      38.092  20.754  25.824  1.00  0.00    -0.352 N 
ATOM     27  C   UNL A   1      39.406  20.908  26.197  1.00  0.00     0.251 C 
ATOM     28  H   UNL A   1      37.809  19.831  25.632  1.00  0.00     0.163 HD
ATOM     29  O   UNL A   1      40.194  19.979  26.055  1.00  0.00    -0.269 OA
BRANCH  27  30
ATOM     30  C   UNL A   1      39.857  22.208  26.736  1.00  0.00     0.039 A 
ATOM     31  C   UNL A   1      40.835  22.225  27.731  1.00  0.00     0.014 A 
ATOM     32  C   UNL A   1      39.344  23.405  26.229  1.00  0.00     0.014 A 
ATOM     33  C   UNL A   1      41.359  23.446  28.160  1.00  0.00     0.010 A 
ATOM     34  C   UNL A   1      39.919  24.615  26.602  1.00  0.00     0.010 A 
ATOM     35  C   UNL A   1      40.943  24.648  27.562  1.00  0.00    -0.014 A 
BRANCH  35  36
ATOM     36  C   UNL A   1      41.592  25.943  27.898  1.00  0.00     0.031 A 
ATOM     37  C   UNL A   1      40.824  27.010  28.628  1.00  0.00     0.074 A 
ATOM     38  C   UNL A   1      42.852  26.180  27.482  1.00  0.00     0.049 A 
ATOM     39  N   UNL A   1      41.187  28.231  28.924  1.00  0.00    -0.248 NA
ATOM     40  C   UNL A   1      39.462  26.665  29.061  1.00  0.00     0.031 C 
ATOM     41  C   UNL A   1      43.690  25.230  26.746  1.00  0.00     0.029 A 
ATOM     42  N   UNL A   1      43.648  27.293  27.605  1.00  0.00    -0.354 N 
ATOM     43  C   UNL A   1      40.098  28.805  29.571  1.00  0.00     0.074 A 
ATOM     44  C   UNL A   1      39.043  27.812  29.572  1.00  0.00     0.031 C 
ATOM     45  C   UNL A   1      44.887  25.790  26.508  1.00  0.00     0.029 A 
ATOM     46  C   UNL A   1      44.883  27.160  27.011  1.00  0.00     0.049 A 
ATOM     47  H   UNL A   1      43.364  28.109  28.076  1.00  0.00     0.167 HD
ATOM     48  C   UNL A   1      39.996  30.038  30.125  1.00  0.00     0.034 A 
ATOM     49  C   UNL A   1      45.887  28.048  26.857  1.00  0.00     0.034 A 
ATOM     50  C   UNL A   1      41.058  31.014  30.108  1.00  0.00     0.049 A 
ATOM     51  C   UNL A   1      45.717  29.440  27.412  1.00  0.00     0.074 A 
ATOM     52  C   UNL A   1      41.078  32.272  30.687  1.00  0.00     0.029 A 
ATOM     53  N   UNL A   1      42.279  30.857  29.464  1.00  0.00    -0.354 N 
ATOM     54  N   UNL A   1      44.701  29.947  28.073  1.00  0.00    -0.248 NA
ATOM     55  C   UNL A   1      46.826  30.381  27.203  1.00  0.00     0.031 C 
ATOM     56  C   UNL A   1      42.262  32.909  30.311  1.00  0.00     0.029 A 
ATOM     57  C   UNL A   1      43.032  32.014  29.585  1.00  0.00     0.049 A 
ATOM     58  H   UNL A   1      42.567  30.042  28.992  1.00  0.00     0.167 HD
ATOM     59  C   UNL A   1      45.063  31.257  28.378  1.00  0.00     0.074 A 
ATOM     60  C   UNL A   1      46.395  31.455  27.848  1.00  0.00     0.031 C 
ATOM     61  C   UNL A   1      44.356  32.207  29.041  1.00  0.00     0.034 A 
BRANCH  48  62
ATOM     62  C   UNL A   1      38.679  30.414  30.761  1.00  0.00     0.023 A 
ATOM     63  C   UNL A   1      37.649  31.024  30.026  1.00  0.00     0.031 A 
ATOM     64  C   UNL A   1      38.452  30.162  32.126  1.00  0.00     0.131 A 
ATOM     65  C   UNL A   1      36.471  31.426  30.673  1.00  0.00     0.055 A 
ATOM     66  C   UNL A   1      37.243  30.483  32.744  1.00  0.00     0.041 A 
ATOM     67  F   UNL A   1      39.407  29.604  32.887  1.00  0.00    -0.206 F 
ATOM     68  C   UNL A   1      36.248  31.133  32.020  1.00  0.00     0.022 A 
BRANCH  65  69
ATOM     69  S   UNL A   1      35.301  32.474  29.765  1.00  0.00     0.124 S 
ATOM     70  O   UNL A   1      34.871  31.576  28.695  1.00  0.00    -0.237 OA
ATOM     71  O   UNL A   1      34.301  32.783  30.780  1.00  0.00    -0.237 OA
ATOM     72  O   UNL A   1      36.119  33.603  29.328  1.00  0.00    -0.744 OA
ENDBRANCH  65  69
ENDBRANCH  48  62
BRANCH  49  73
ATOM     73  C   UNL A   1      47.127  27.670  26.116  1.00  0.00     0.023 A 
ATOM     74  C   UNL A   1      47.254  27.921  24.741  1.00  0.00     0.031 A 
ATOM     75  C   UNL A   1      48.184  27.003  26.762  1.00  0.00     0.131 A 
ATOM     76  C   UNL A   1      48.384  27.462  24.047  1.00  0.00     0.055 A 
ATOM     77  C   UNL A   1      49.338  26.610  26.081  1.00  0.00     0.041 A 
ATOM     78  F   UNL A   1      48.115  26.729  28.075  1.00  0.00    -0.206 F 
ATOM     79  C   UNL A   1      49.435  26.827  24.711  1.00  0.00     0.022 A 
BRANCH  76  80
ATOM     80  S   UNL A   1      48.409  27.608  22.239  1.00  0.00     0.124 S 
ATOM     81  O   UNL A   1      47.099  28.192  21.972  1.00  0.00    -0.237 OA
ATOM     82  O   UNL A   1      49.558  28.479  22.020  1.00  0.00    -0.237 OA
ATOM     83  O   UNL A   1      48.581  26.227  21.790  1.00  0.00    -0.744 OA
ENDBRANCH  76  80
ENDBRANCH  49  73
BRANCH  61  84
ATOM     84  C   UNL A   1      45.025  33.543  29.263  1.00  0.00     0.023 A 
ATOM     85  C   UNL A   1      44.914  34.591  28.333  1.00  0.00     0.031 A 
ATOM     86  C   UNL A   1      45.764  33.777  30.438  1.00  0.00     0.131 A 
ATOM     87  C   UNL A   1      45.565  35.811  28.575  1.00  0.00     0.055 A 
ATOM     88  C   UNL A   1      46.350  35.014  30.704  1.00  0.00     0.041 A 
ATOM     89  F   UNL A   1      45.911  32.809  31.357  1.00  0.00    -0.206 F 
ATOM     90  C   UNL A   1      46.260  36.037  29.766  1.00  0.00     0.022 A 
BRANCH  87  91
ATOM     91  S   UNL A   1      45.559  37.074  27.275  1.00  0.00     0.124 S 
ATOM     92  O   UNL A   1      44.134  37.349  27.127  1.00  0.00    -0.237 OA
ATOM     93  O   UNL A   1      46.356  38.142  27.870  1.00  0.00    -0.237 OA
ATOM     94  O   UNL A   1      46.181  36.398  26.137  1.00  0.00    -0.744 OA
ENDBRANCH  87  91
ENDBRANCH  61  84
ENDBRANCH  35  36
ENDBRANCH  27  30
ENDBRANCH  25  26
ENDBRANCH  24  25
ENDBRANCH   1  24
TORSDOF 17
ENDMDL
MODEL 3
REMARK VINA RESULT:     -11.4      5.727      9.039
REMARK SMILES N#Cc1ccc(C[N@H+]2CCCC[C@H]2C(=O)NCCCCNC(=O)c2ccc(-c3c4nc(c(-c5cc(S(=O)(=O)[O-])ccc5F)c5ccc([nH]5)c(-c5cc(S(=O)(=O)[O-])ccc5F)c5nc(c(-c6cc(S(=O)(=O)[O-])ccc6F)c6ccc3[nH]6)C=C5)C=C4)cc2)c(F)c1
REMARK SMILES IDX 18 1 17 2 16 3 14 4 15 5 13 7 8 8 9 9 10 11 12 12 11 13 7 14
REMARK SMILES IDX 6 15 3 16 4 17 89 18 5 19 87 20 88 21 2 22 1 23 19 24 20 25
REMARK SMILES IDX 21 26 22 27 23 29 24 30 25 31 86 32 26 33 85 34 27 35 28 36
REMARK SMILES IDX 29 37 79 38 30 39 84 40 78 41 80 42 31 43 83 44 77 45 76 46
REMARK SMILES IDX 32 48 64 49 44 50 63 51 45 52 48 53 62 54 81 55 46 56 47 57
REMARK SMILES IDX 61 59 82 60 49 61 33 62 34 63 42 64 35 65 41 66 43 67 40 68
REMARK SMILES IDX 36 69 37 70 38 71 39 72 65 73 66 74 74 75 67 76 73 77 75 78
REMARK SMILES IDX 72 79 68 80 69 81 70 82 71 83 50 84 51 85 59 86 52 87 58 88
REMARK SMILES IDX 60 89 57 90 53 91 54 92 55 93 56 94
REMARK H PARENT 16 6 8 10 21 28 80 47 48 58
REMARK Flexibility Score: inf
ROOT
ATOM      1  C   UNL A   1      31.842  28.080  27.278  1.00  0.00     0.023 C 
ENDROOT
BRANCH   1   2
ATOM      2  C   UNL A   1      31.448  26.805  26.527  1.00  0.00     0.116 C 
BRANCH   2   3
ATOM      3  N   UNL A   1      32.646  26.136  26.073  1.00  0.00    -0.351 N 
ATOM      4  C   UNL A   1      32.757  25.045  25.264  1.00  0.00     0.278 C 
ATOM      5  O   UNL A   1      33.779  24.369  25.404  1.00  0.00    -0.268 OA
ATOM      6  H   UNL A   1      33.495  26.520  26.389  1.00  0.00     0.163 HD
BRANCH   4   7
ATOM      7  C   UNL A   1      31.642  24.752  24.224  1.00  0.00     0.274 C 
ATOM      8  N   UNL A   1      32.064  24.942  22.812  1.00  0.00    -0.321 N 
ATOM      9  C   UNL A   1      33.121  24.023  22.382  1.00  0.00     0.263 C 
ATOM     10  H   UNL A   1      31.247  24.651  22.275  1.00  0.00     0.349 HD
ATOM     11  C   UNL A   1      32.761  22.554  22.657  1.00  0.00     0.062 C 
ATOM     12  C   UNL A   1      31.128  23.317  24.395  1.00  0.00     0.076 C 
ATOM     13  C   UNL A   1      32.214  22.304  24.058  1.00  0.00     0.012 C 
BRANCH   8  14
ATOM     14  C   UNL A   1      32.222  26.340  22.369  1.00  0.00     0.302 C 
BRANCH  14  15
ATOM     15  C   UNL A   1      31.178  27.338  22.810  1.00  0.00     0.042 A 
ATOM     16  C   UNL A   1      29.151  29.245  23.196  1.00  0.00     0.055 A 
ATOM     17  C   UNL A   1      28.873  27.882  23.346  1.00  0.00     0.020 A 
ATOM     18  C   UNL A   1      30.460  29.662  22.959  1.00  0.00     0.059 A 
ATOM     19  C   UNL A   1      29.880  26.931  23.147  1.00  0.00     0.014 A 
ATOM     20  C   UNL A   1      31.461  28.709  22.804  1.00  0.00     0.133 A 
ATOM     21  F   UNL A   1      32.708  29.129  22.536  1.00  0.00    -0.206 F 
BRANCH  16  22
ATOM     22  C   UNL A   1      28.088  30.207  23.241  1.00  0.00     0.099 C 
ATOM     23  N   UNL A   1      27.239  30.992  23.269  1.00  0.00    -0.192 NA
ENDBRANCH  16  22
ENDBRANCH  14  15
ENDBRANCH   8  14
ENDBRANCH   4   7
ENDBRANCH   2   3
ENDBRANCH   1   2
BRANCH   1  24
ATOM     24  C   UNL A   1      31.757  29.353  26.423  1.00  0.00     0.023 C 
BRANCH  24  25
ATOM     25  C   UNL A   1      33.081  30.088  26.251  1.00  0.00     0.116 C 
BRANCH  25  26
ATOM     26  N   UNL A   1      33.005  31.455  26.740  1.00  0.00    -0.352 N 
ATOM     27  C   UNL A   1      33.819  32.088  27.648  1.00  0.00     0.251 C 
ATOM     28  H   UNL A   1      32.273  32.000  26.370  1.00  0.00     0.163 HD
ATOM     29  O   UNL A   1      33.483  33.170  28.119  1.00  0.00    -0.269 OA
BRANCH  27  30
ATOM     30  C   UNL A   1      35.076  31.437  28.070  1.00  0.00     0.039 A 
ATOM     31  C   UNL A   1      36.255  32.185  28.080  1.00  0.00     0.014 A 
ATOM     32  C   UNL A   1      35.080  30.105  28.494  1.00  0.00     0.014 A 
ATOM     33  C   UNL A   1      37.423  31.619  28.594  1.00  0.00     0.010 A 
ATOM     34  C   UNL A   1      36.226  29.570  29.074  1.00  0.00     0.010 A 
ATOM     35  C   UNL A   1      37.406  30.325  29.143  1.00  0.00    -0.014 A 
BRANCH  35  36
ATOM     36  C   UNL A   1      38.600  29.761  29.827  1.00  0.00     0.031 A 
ATOM     37  C   UNL A   1      39.016  30.280  31.175  1.00  0.00     0.074 A 
ATOM     38  C   UNL A   1      39.346  28.831  29.199  1.00  0.00     0.049 A 
ATOM     39  N   UNL A   1      40.075  29.982  31.884  1.00  0.00    -0.248 NA
ATOM     40  C   UNL A   1      38.138  31.282  31.798  1.00  0.00     0.031 C 
ATOM     41  C   UNL A   1      39.055  28.266  27.880  1.00  0.00     0.029 A 
ATOM     42  N   UNL A   1      40.508  28.201  29.577  1.00  0.00    -0.354 N 
ATOM     43  C   UNL A   1      39.997  30.763  33.031  1.00  0.00     0.074 A 
ATOM     44  C   UNL A   1      38.814  31.588  32.895  1.00  0.00     0.031 C 
ATOM     45  C   UNL A   1      39.995  27.358  27.571  1.00  0.00     0.029 A 
ATOM     46  C   UNL A   1      40.993  27.322  28.635  1.00  0.00     0.049 A 
ATOM     47  H   UNL A   1      40.950  28.362  30.441  1.00  0.00     0.167 HD
ATOM     48  C   UNL A   1      40.826  30.776  34.103  1.00  0.00     0.034 A 
ATOM     49  C   UNL A   1      42.128  26.594  28.613  1.00  0.00     0.034 A 
ATOM     50  C   UNL A   1      42.003  29.949  34.217  1.00  0.00     0.049 A 
ATOM     51  C   UNL A   1      43.075  26.687  29.783  1.00  0.00     0.074 A 
ATOM     52  C   UNL A   1      42.880  29.846  35.283  1.00  0.00     0.029 A 
ATOM     53  N   UNL A   1      42.482  29.101  33.228  1.00  0.00    -0.354 N 
ATOM     54  N   UNL A   1      42.956  27.389  30.888  1.00  0.00    -0.248 NA
ATOM     55  C   UNL A   1      44.310  25.894  29.707  1.00  0.00     0.031 C 
ATOM     56  C   UNL A   1      43.937  29.016  34.902  1.00  0.00     0.029 A 
ATOM     57  C   UNL A   1      43.670  28.516  33.637  1.00  0.00     0.049 A 
ATOM     58  H   UNL A   1      42.041  28.937  32.362  1.00  0.00     0.167 HD
ATOM     59  C   UNL A   1      44.088  27.099  31.645  1.00  0.00     0.074 A 
ATOM     60  C   UNL A   1      44.866  26.146  30.882  1.00  0.00     0.031 C 
ATOM     61  C   UNL A   1      44.447  27.576  32.864  1.00  0.00     0.034 A 
BRANCH  48  62
ATOM     62  C   UNL A   1      40.512  31.742  35.221  1.00  0.00     0.023 A 
ATOM     63  C   UNL A   1      39.485  31.494  36.148  1.00  0.00     0.031 A 
ATOM     64  C   UNL A   1      41.249  32.932  35.360  1.00  0.00     0.131 A 
ATOM     65  C   UNL A   1      39.176  32.452  37.124  1.00  0.00     0.055 A 
ATOM     66  C   UNL A   1      40.995  33.840  36.389  1.00  0.00     0.041 A 
ATOM     67  F   UNL A   1      42.226  33.238  34.492  1.00  0.00    -0.206 F 
ATOM     68  C   UNL A   1      39.944  33.610  37.271  1.00  0.00     0.022 A 
BRANCH  65  69
ATOM     69  S   UNL A   1      37.662  32.236  38.099  1.00  0.00     0.124 S 
ATOM     70  O   UNL A   1      37.393  30.812  37.912  1.00  0.00    -0.237 OA
ATOM     71  O   UNL A   1      38.088  32.636  39.435  1.00  0.00    -0.237 OA
ATOM     72  O   UNL A   1      36.707  33.132  37.452  1.00  0.00    -0.744 OA
ENDBRANCH  65  69
ENDBRANCH  48  62
BRANCH  49  73
ATOM     73  C   UNL A   1      42.459  25.740  27.433  1.00  0.00     0.023 A 
ATOM     74  C   UNL A   1      42.014  24.412  27.352  1.00  0.00     0.031 A 
ATOM     75  C   UNL A   1      43.269  26.226  26.390  1.00  0.00     0.131 A 
ATOM     76  C   UNL A   1      42.425  23.599  26.285  1.00  0.00     0.055 A 
ATOM     77  C   UNL A   1      43.618  25.434  25.294  1.00  0.00     0.041 A 
ATOM     78  F   UNL A   1      43.730  27.487  26.416  1.00  0.00    -0.206 F 
ATOM     79  C   UNL A   1      43.208  24.106  25.246  1.00  0.00     0.022 A 
BRANCH  76  80
ATOM     80  S   UNL A   1      42.016  21.832  26.333  1.00  0.00     0.124 S 
ATOM     81  O   UNL A   1      40.582  21.854  26.066  1.00  0.00    -0.237 OA
ATOM     82  O   UNL A   1      42.859  21.296  25.270  1.00  0.00    -0.237 OA
ATOM     83  O   UNL A   1      42.394  21.432  27.687  1.00  0.00    -0.744 OA
ENDBRANCH  76  80
ENDBRANCH  49  73
BRANCH  61  84
ATOM     84  C   UNL A   1      45.726  27.047  33.468  1.00  0.00     0.023 A 
ATOM     85  C   UNL A   1      45.757  25.858  34.215  1.00  0.00     0.031 A 
ATOM     86  C   UNL A   1      46.938  27.734  33.268  1.00  0.00     0.131 A 
ATOM     87  C   UNL A   1      46.967  25.412  34.770  1.00  0.00     0.055 A 
ATOM     88  C   UNL A   1      48.149  27.249  33.764  1.00  0.00     0.041 A 
ATOM     89  F   UNL A   1      46.968  28.881  32.571  1.00  0.00    -0.206 F 
ATOM     90  C   UNL A   1      48.166  26.087  34.527  1.00  0.00     0.022 A 
BRANCH  87  91
ATOM     91  S   UNL A   1      46.941  23.981  35.882  1.00  0.00     0.124 S 
ATOM     92  O   UNL A   1      48.206  24.129  36.595  1.00  0.00    -0.237 OA
ATOM     93  O   UNL A   1      45.735  24.215  36.669  1.00  0.00    -0.237 OA
ATOM     94  O   UNL A   1      46.874  22.839  34.971  1.00  0.00    -0.744 OA
ENDBRANCH  87  91
ENDBRANCH  61  84
ENDBRANCH  35  36
ENDBRANCH  27  30
ENDBRANCH  25  26
ENDBRANCH  24  25
ENDBRANCH   1  24
TORSDOF 17
ENDMDL
