MODEL 1
REMARK VINA RESULT:     -12.4      0.000      0.000
REMARK SMILES O=C(NCCCCNC(=O)c1ccccc1Nc1cccc(C(F)(F)F)c1)c1ccc(-c2c3nc(c(-c4cc(S(=O)(=O)[O-])ccc4F)c4ccc([nH]4)c(-c4cc(S(=O)(=O)[O-])ccc4F)c4nc(c(-c5cc(S(=O)(=O)[O-])ccc5F)c5ccc2[nH]5)C=C4)C=C3)cc1
REMARK SMILES IDX 5 1 4 2 3 3 1 4 2 5 28 7 29 8 90 9 30 10 89 11 31 12 32 13
REMARK SMILES IDX 33 14 83 15 34 16 88 17 82 18 84 19 35 20 87 21 81 22 80 23
REMARK SMILES IDX 36 25 68 26 48 27 67 28 49 29 52 30 66 31 85 32 50 33 51 34
REMARK SMILES IDX 65 36 86 37 53 38 37 39 38 40 46 41 39 42 45 43 47 44 44 45
REMARK SMILES IDX 40 46 41 47 42 48 43 49 69 50 70 51 78 52 71 53 77 54 79 55
REMARK SMILES IDX 76 56 72 57 73 58 74 59 75 60 54 61 55 62 63 63 56 64 62 65
REMARK SMILES IDX 64 66 61 67 57 68 58 69 59 70 60 71 6 72 7 73 8 74 9 75
REMARK SMILES IDX 10 77 11 78 12 79 16 80 13 81 15 82 14 83 17 84 18 86 19 87
REMARK SMILES IDX 27 88 20 89 22 90 21 91 23 92 24 93 25 94 26 95
REMARK H PARENT 3 6 84 24 52 35 8 76 17 85
REMARK Flexibility Score: inf
ROOT
ATOM      1  C   UNL A   1      31.316  32.005  26.456  1.00  0.00     0.023 C 
ENDROOT
BRANCH   1   2
ATOM      2  C   UNL A   1      32.566  32.449  27.202  1.00  0.00     0.116 C 
BRANCH   2   3
ATOM      3  N   UNL A   1      32.525  33.846  27.607  1.00  0.00    -0.352 N 
ATOM      4  O   UNL A   1      33.028  35.666  28.840  1.00  0.00    -0.269 OA
ATOM      5  C   UNL A   1      33.300  34.509  28.531  1.00  0.00     0.251 C 
ATOM      6  H   UNL A   1      31.846  34.396  27.155  1.00  0.00     0.163 HD
BRANCH   5   7
ATOM      7  C   UNL A   1      34.444  33.819  29.169  1.00  0.00     0.039 A 
ATOM      8  C   UNL A   1      34.231  32.781  30.078  1.00  0.00     0.014 A 
ATOM      9  C   UNL A   1      35.747  34.217  28.855  1.00  0.00     0.014 A 
ATOM     10  C   UNL A   1      35.304  32.249  30.784  1.00  0.00     0.010 A 
ATOM     11  C   UNL A   1      36.833  33.616  29.501  1.00  0.00     0.010 A 
ATOM     12  C   UNL A   1      36.619  32.649  30.494  1.00  0.00    -0.014 A 
BRANCH  12  13
ATOM     13  C   UNL A   1      37.748  31.991  31.206  1.00  0.00     0.031 A 
ATOM     14  C   UNL A   1      38.546  30.891  30.559  1.00  0.00     0.074 A 
ATOM     15  C   UNL A   1      38.074  32.431  32.437  1.00  0.00     0.049 A 
ATOM     16  N   UNL A   1      39.575  30.233  31.031  1.00  0.00    -0.248 NA
ATOM     17  C   UNL A   1      38.132  30.469  29.214  1.00  0.00     0.031 C 
ATOM     18  C   UNL A   1      37.363  33.488  33.165  1.00  0.00     0.029 A 
ATOM     19  N   UNL A   1      39.087  32.071  33.286  1.00  0.00    -0.354 N 
ATOM     20  C   UNL A   1      39.926  29.312  30.050  1.00  0.00     0.074 A 
ATOM     21  C   UNL A   1      38.976  29.475  28.969  1.00  0.00     0.031 C 
ATOM     22  C   UNL A   1      37.992  33.724  34.324  1.00  0.00     0.029 A 
ATOM     23  C   UNL A   1      39.104  32.792  34.459  1.00  0.00     0.049 A 
ATOM     24  H   UNL A   1      39.740  31.365  33.077  1.00  0.00     0.167 HD
ATOM     25  C   UNL A   1      40.949  28.420  30.053  1.00  0.00     0.034 A 
ATOM     26  C   UNL A   1      39.912  32.702  35.533  1.00  0.00     0.034 A 
ATOM     27  C   UNL A   1      41.889  28.273  31.141  1.00  0.00     0.049 A 
ATOM     28  C   UNL A   1      41.016  31.681  35.521  1.00  0.00     0.074 A 
ATOM     29  C   UNL A   1      42.977  27.422  31.232  1.00  0.00     0.029 A 
ATOM     30  N   UNL A   1      41.849  28.989  32.331  1.00  0.00    -0.354 N 
ATOM     31  N   UNL A   1      41.341  30.828  34.576  1.00  0.00    -0.248 NA
ATOM     32  C   UNL A   1      41.863  31.613  36.717  1.00  0.00     0.031 C 
ATOM     33  C   UNL A   1      43.554  27.578  32.498  1.00  0.00     0.029 A 
ATOM     34  C   UNL A   1      42.871  28.577  33.174  1.00  0.00     0.049 A 
ATOM     35  H   UNL A   1      41.189  29.687  32.546  1.00  0.00     0.167 HD
ATOM     36  C   UNL A   1      42.440  30.129  35.062  1.00  0.00     0.074 A 
ATOM     37  C   UNL A   1      42.739  30.682  36.368  1.00  0.00     0.031 C 
ATOM     38  C   UNL A   1      43.140  29.120  34.484  1.00  0.00     0.034 A 
BRANCH  25  39
ATOM     39  C   UNL A   1      41.080  27.503  28.859  1.00  0.00     0.023 A 
ATOM     40  C   UNL A   1      42.074  27.689  27.883  1.00  0.00     0.031 A 
ATOM     41  C   UNL A   1      40.192  26.424  28.695  1.00  0.00     0.131 A 
ATOM     42  C   UNL A   1      42.122  26.845  26.761  1.00  0.00     0.055 A 
ATOM     43  C   UNL A   1      40.288  25.546  27.613  1.00  0.00     0.041 A 
ATOM     44  F   UNL A   1      39.209  26.207  29.584  1.00  0.00    -0.206 F 
ATOM     45  C   UNL A   1      41.251  25.762  26.632  1.00  0.00     0.022 A 
BRANCH  42  46
ATOM     46  S   UNL A   1      43.265  27.256  25.413  1.00  0.00     0.124 S 
ATOM     47  O   UNL A   1      43.597  25.932  24.892  1.00  0.00    -0.237 OA
ATOM     48  O   UNL A   1      42.445  28.095  24.548  1.00  0.00    -0.237 OA
ATOM     49  O   UNL A   1      44.364  27.942  26.091  1.00  0.00    -0.744 OA
ENDBRANCH  42  46
ENDBRANCH  25  39
BRANCH  26  50
ATOM     50  C   UNL A   1      39.681  33.572  36.720  1.00  0.00     0.023 A 
ATOM     51  C   UNL A   1      39.069  33.074  37.879  1.00  0.00     0.031 A 
ATOM     52  C   UNL A   1      40.047  34.931  36.697  1.00  0.00     0.131 A 
ATOM     53  C   UNL A   1      38.806  33.936  38.954  1.00  0.00     0.055 A 
ATOM     54  C   UNL A   1      39.833  35.771  37.788  1.00  0.00     0.041 A 
ATOM     55  F   UNL A   1      40.640  35.457  35.613  1.00  0.00    -0.206 F 
ATOM     56  C   UNL A   1      39.196  35.277  38.922  1.00  0.00     0.022 A 
BRANCH  53  57
ATOM     57  S   UNL A   1      37.864  33.299  40.367  1.00  0.00     0.124 S 
ATOM     58  O   UNL A   1      38.694  32.181  40.799  1.00  0.00    -0.237 OA
ATOM     59  O   UNL A   1      37.835  34.457  41.255  1.00  0.00    -0.237 OA
ATOM     60  O   UNL A   1      36.577  32.932  39.781  1.00  0.00    -0.744 OA
ENDBRANCH  53  57
ENDBRANCH  26  50
BRANCH  38  61
ATOM     61  C   UNL A   1      44.309  28.577  35.266  1.00  0.00     0.023 A 
ATOM     62  C   UNL A   1      44.139  27.583  36.247  1.00  0.00     0.031 A 
ATOM     63  C   UNL A   1      45.601  29.088  35.058  1.00  0.00     0.131 A 
ATOM     64  C   UNL A   1      45.231  27.180  37.029  1.00  0.00     0.055 A 
ATOM     65  C   UNL A   1      46.695  28.640  35.798  1.00  0.00     0.041 A 
ATOM     66  F   UNL A   1      45.819  30.040  34.136  1.00  0.00    -0.206 F 
ATOM     67  C   UNL A   1      46.511  27.691  36.800  1.00  0.00     0.022 A 
BRANCH  64  68
ATOM     68  S   UNL A   1      44.937  26.051  38.418  1.00  0.00     0.124 S 
ATOM     69  O   UNL A   1      45.109  24.746  37.790  1.00  0.00    -0.237 OA
ATOM     70  O   UNL A   1      45.974  26.445  39.366  1.00  0.00    -0.237 OA
ATOM     71  O   UNL A   1      43.570  26.366  38.832  1.00  0.00    -0.744 OA
ENDBRANCH  64  68
ENDBRANCH  38  61
ENDBRANCH  12  13
ENDBRANCH   5   7
ENDBRANCH   2   3
ENDBRANCH   1   2
BRANCH   1  72
ATOM     72  C   UNL A   1      31.405  30.644  25.769  1.00  0.00     0.023 C 
BRANCH  72  73
ATOM     73  C   UNL A   1      32.771  29.968  25.818  1.00  0.00     0.116 C 
BRANCH  73  74
ATOM     74  N   UNL A   1      33.341  29.730  24.501  1.00  0.00    -0.352 N 
ATOM     75  C   UNL A   1      33.451  28.546  23.818  1.00  0.00     0.253 C 
ATOM     76  H   UNL A   1      33.694  30.524  24.040  1.00  0.00     0.163 HD
ATOM     77  O   UNL A   1      33.971  28.510  22.707  1.00  0.00    -0.269 OA
BRANCH  75  78
ATOM     78  C   UNL A   1      32.971  27.292  24.430  1.00  0.00     0.063 A 
ATOM     79  C   UNL A   1      33.797  26.727  25.414  1.00  0.00     0.016 A 
ATOM     80  C   UNL A   1      31.762  26.677  24.047  1.00  0.00     0.051 A 
ATOM     81  C   UNL A   1      33.403  25.565  26.071  1.00  0.00     0.001 A 
ATOM     82  C   UNL A   1      31.381  25.519  24.742  1.00  0.00     0.027 A 
ATOM     83  C   UNL A   1      32.191  24.967  25.741  1.00  0.00     0.002 A 
BRANCH  80  84
ATOM     84  N   UNL A   1      30.942  27.221  23.037  1.00  0.00    -0.355 N 
ATOM     85  H   UNL A   1      31.315  27.144  22.128  1.00  0.00     0.167 HD
BRANCH  84  86
ATOM     86  C   UNL A   1      29.690  27.853  23.097  1.00  0.00     0.039 A 
ATOM     87  C   UNL A   1      28.567  27.107  23.475  1.00  0.00     0.026 A 
ATOM     88  C   UNL A   1      29.524  29.221  22.842  1.00  0.00     0.039 A 
ATOM     89  C   UNL A   1      27.312  27.707  23.592  1.00  0.00     0.003 A 
ATOM     90  C   UNL A   1      28.265  29.837  22.940  1.00  0.00     0.058 A 
ATOM     91  C   UNL A   1      27.161  29.066  23.328  1.00  0.00     0.013 A 
BRANCH  90  92
ATOM     92  C   UNL A   1      28.098  31.308  22.655  1.00  0.00     0.416 C 
ATOM     93  F   UNL A   1      27.607  31.554  21.410  1.00  0.00    -0.166 F 
ATOM     94  F   UNL A   1      27.231  31.906  23.520  1.00  0.00    -0.166 F 
ATOM     95  F   UNL A   1      29.257  32.018  22.744  1.00  0.00    -0.166 F 
ENDBRANCH  90  92
ENDBRANCH  84  86
ENDBRANCH  80  84
ENDBRANCH  75  78
ENDBRANCH  73  74
ENDBRANCH  72  73
ENDBRANCH   1  72
TORSDOF 17
ENDMDL
MODEL 2
REMARK VINA RESULT:     -12.4      2.536      7.919
REMARK SMILES O=C(NCCCCNC(=O)c1ccccc1Nc1cccc(C(F)(F)F)c1)c1ccc(-c2c3nc(c(-c4cc(S(=O)(=O)[O-])ccc4F)c4ccc([nH]4)c(-c4cc(S(=O)(=O)[O-])ccc4F)c4nc(c(-c5cc(S(=O)(=O)[O-])ccc5F)c5ccc2[nH]5)C=C4)C=C3)cc1
REMARK SMILES IDX 5 1 4 2 3 3 1 4 2 5 28 7 29 8 90 9 30 10 89 11 31 12 32 13
REMARK SMILES IDX 33 14 83 15 34 16 88 17 82 18 84 19 35 20 87 21 81 22 80 23
REMARK SMILES IDX 36 25 68 26 48 27 67 28 49 29 52 30 66 31 85 32 50 33 51 34
REMARK SMILES IDX 65 36 86 37 53 38 37 39 38 40 46 41 39 42 45 43 47 44 44 45
REMARK SMILES IDX 40 46 41 47 42 48 43 49 69 50 70 51 78 52 71 53 77 54 79 55
REMARK SMILES IDX 76 56 72 57 73 58 74 59 75 60 54 61 55 62 63 63 56 64 62 65
REMARK SMILES IDX 64 66 61 67 57 68 58 69 59 70 60 71 6 72 7 73 8 74 9 75
REMARK SMILES IDX 10 77 11 78 12 79 16 80 13 81 15 82 14 83 17 84 18 86 19 87
REMARK SMILES IDX 27 88 20 89 22 90 21 91 23 92 24 93 25 94 26 95
REMARK H PARENT 3 6 84 24 52 35 8 76 17 85
REMARK Flexibility Score: inf
ROOT
ATOM      1  C   UNL A   1      31.867  28.568  26.036  1.00  0.00     0.023 C 
ENDROOT
BRANCH   1   2
ATOM      2  C   UNL A   1      32.957  29.598  25.775  1.00  0.00     0.116 C 
BRANCH   2   3
ATOM      3  N   UNL A   1      32.579  30.944  26.180  1.00  0.00    -0.352 N 
ATOM      4  O   UNL A   1      32.601  32.818  27.435  1.00  0.00    -0.269 OA
ATOM      5  C   UNL A   1      33.144  31.757  27.136  1.00  0.00     0.251 C 
ATOM      6  H   UNL A   1      31.811  31.329  25.700  1.00  0.00     0.163 HD
BRANCH   5   7
ATOM      7  C   UNL A   1      34.389  31.341  27.821  1.00  0.00     0.039 A 
ATOM      8  C   UNL A   1      34.541  30.033  28.286  1.00  0.00     0.014 A 
ATOM      9  C   UNL A   1      35.417  32.271  28.000  1.00  0.00     0.014 A 
ATOM     10  C   UNL A   1      35.646  29.700  29.061  1.00  0.00     0.010 A 
ATOM     11  C   UNL A   1      36.571  31.907  28.703  1.00  0.00     0.010 A 
ATOM     12  C   UNL A   1      36.682  30.627  29.266  1.00  0.00    -0.014 A 
BRANCH  12  13
ATOM     13  C   UNL A   1      37.890  30.205  30.023  1.00  0.00     0.031 A 
ATOM     14  C   UNL A   1      38.140  30.683  31.428  1.00  0.00     0.074 A 
ATOM     15  C   UNL A   1      38.746  29.343  29.438  1.00  0.00     0.049 A 
ATOM     16  N   UNL A   1      39.129  30.389  32.234  1.00  0.00    -0.248 NA
ATOM     17  C   UNL A   1      37.161  31.618  31.998  1.00  0.00     0.031 C 
ATOM     18  C   UNL A   1      38.607  28.819  28.075  1.00  0.00     0.029 A 
ATOM     19  N   UNL A   1      39.882  28.738  29.908  1.00  0.00    -0.354 N 
ATOM     20  C   UNL A   1      38.901  31.109  33.402  1.00  0.00     0.074 A 
ATOM     21  C   UNL A   1      37.695  31.881  33.184  1.00  0.00     0.031 C 
ATOM     22  C   UNL A   1      39.586  27.935  27.841  1.00  0.00     0.029 A 
ATOM     23  C   UNL A   1      40.464  27.881  29.003  1.00  0.00     0.049 A 
ATOM     24  H   UNL A   1      40.246  28.901  30.808  1.00  0.00     0.167 HD
ATOM     25  C   UNL A   1      39.628  31.117  34.549  1.00  0.00     0.034 A 
ATOM     26  C   UNL A   1      41.590  27.147  29.087  1.00  0.00     0.034 A 
ATOM     27  C   UNL A   1      40.828  30.338  34.748  1.00  0.00     0.049 A 
ATOM     28  C   UNL A   1      42.393  27.202  30.358  1.00  0.00     0.074 A 
ATOM     29  C   UNL A   1      41.623  30.251  35.879  1.00  0.00     0.029 A 
ATOM     30  N   UNL A   1      41.413  29.515  33.793  1.00  0.00    -0.354 N 
ATOM     31  N   UNL A   1      42.152  27.879  31.457  1.00  0.00    -0.248 NA
ATOM     32  C   UNL A   1      43.617  26.394  30.399  1.00  0.00     0.031 C 
ATOM     33  C   UNL A   1      42.718  29.430  35.587  1.00  0.00     0.029 A 
ATOM     34  C   UNL A   1      42.573  28.945  34.297  1.00  0.00     0.049 A 
ATOM     35  H   UNL A   1      41.056  29.361  32.889  1.00  0.00     0.167 HD
ATOM     36  C   UNL A   1      43.190  27.567  32.326  1.00  0.00     0.074 A 
ATOM     37  C   UNL A   1      44.041  26.619  31.634  1.00  0.00     0.031 C 
ATOM     38  C   UNL A   1      43.424  28.022  33.584  1.00  0.00     0.034 A 
BRANCH  25  39
ATOM     39  C   UNL A   1      39.168  32.030  35.661  1.00  0.00     0.023 A 
ATOM     40  C   UNL A   1      39.631  33.352  35.777  1.00  0.00     0.031 A 
ATOM     41  C   UNL A   1      38.252  31.568  36.624  1.00  0.00     0.131 A 
ATOM     42  C   UNL A   1      39.220  34.147  36.860  1.00  0.00     0.055 A 
ATOM     43  C   UNL A   1      37.794  32.386  37.659  1.00  0.00     0.041 A 
ATOM     44  F   UNL A   1      37.790  30.309  36.577  1.00  0.00    -0.206 F 
ATOM     45  C   UNL A   1      38.287  33.681  37.788  1.00  0.00     0.022 A 
BRANCH  42  46
ATOM     46  S   UNL A   1      40.014  35.761  37.105  1.00  0.00     0.124 S 
ATOM     47  O   UNL A   1      39.650  36.460  35.875  1.00  0.00    -0.237 OA
ATOM     48  O   UNL A   1      39.379  36.242  38.326  1.00  0.00    -0.237 OA
ATOM     49  O   UNL A   1      41.433  35.430  37.227  1.00  0.00    -0.744 OA
ENDBRANCH  42  46
ENDBRANCH  25  39
BRANCH  26  50
ATOM     50  C   UNL A   1      42.043  26.332  27.925  1.00  0.00     0.023 A 
ATOM     51  C   UNL A   1      41.648  24.995  27.776  1.00  0.00     0.031 A 
ATOM     52  C   UNL A   1      42.908  26.877  26.958  1.00  0.00     0.131 A 
ATOM     53  C   UNL A   1      42.146  24.235  26.708  1.00  0.00     0.055 A 
ATOM     54  C   UNL A   1      43.357  26.135  25.867  1.00  0.00     0.041 A 
ATOM     55  F   UNL A   1      43.313  28.154  27.052  1.00  0.00    -0.206 F 
ATOM     56  C   UNL A   1      42.986  24.800  25.744  1.00  0.00     0.022 A 
BRANCH  53  57
ATOM     57  S   UNL A   1      41.749  22.467  26.640  1.00  0.00     0.124 S 
ATOM     58  O   UNL A   1      40.291  22.487  26.671  1.00  0.00    -0.237 OA
ATOM     59  O   UNL A   1      42.358  22.070  25.374  1.00  0.00    -0.237 OA
ATOM     60  O   UNL A   1      42.392  21.927  27.836  1.00  0.00    -0.744 OA
ENDBRANCH  53  57
ENDBRANCH  26  50
BRANCH  38  61
ATOM     61  C   UNL A   1      44.641  27.472  34.284  1.00  0.00     0.023 A 
ATOM     62  C   UNL A   1      44.586  26.276  35.022  1.00  0.00     0.031 A 
ATOM     63  C   UNL A   1      45.858  28.173  34.247  1.00  0.00     0.131 A 
ATOM     64  C   UNL A   1      45.709  25.851  35.748  1.00  0.00     0.055 A 
ATOM     65  C   UNL A   1      46.989  27.714  34.923  1.00  0.00     0.041 A 
ATOM     66  F   UNL A   1      45.965  29.322  33.560  1.00  0.00    -0.206 F 
ATOM     67  C   UNL A   1      46.914  26.555  35.691  1.00  0.00     0.022 A 
BRANCH  64  68
ATOM     68  S   UNL A   1      45.541  24.421  36.851  1.00  0.00     0.124 S 
ATOM     69  O   UNL A   1      44.971  23.417  35.960  1.00  0.00    -0.237 OA
ATOM     70  O   UNL A   1      46.919  24.190  37.273  1.00  0.00    -0.237 OA
ATOM     71  O   UNL A   1      44.644  24.900  37.901  1.00  0.00    -0.744 OA
ENDBRANCH  64  68
ENDBRANCH  38  61
ENDBRANCH  12  13
ENDBRANCH   5   7
ENDBRANCH   2   3
ENDBRANCH   1   2
BRANCH   1  72
ATOM     72  C   UNL A   1      32.242  27.440  26.996  1.00  0.00     0.023 C 
BRANCH  72  73
ATOM     73  C   UNL A   1      32.245  26.037  26.397  1.00  0.00     0.116 C 
BRANCH  73  74
ATOM     74  N   UNL A   1      31.268  25.150  27.010  1.00  0.00    -0.352 N 
ATOM     75  C   UNL A   1      30.801  23.944  26.552  1.00  0.00     0.253 C 
ATOM     76  H   UNL A   1      30.892  25.457  27.865  1.00  0.00     0.163 HD
ATOM     77  O   UNL A   1      29.961  23.316  27.187  1.00  0.00    -0.269 OA
BRANCH  75  78
ATOM     78  C   UNL A   1      31.286  23.404  25.267  1.00  0.00     0.063 A 
ATOM     79  C   UNL A   1      32.236  22.374  25.346  1.00  0.00     0.016 A 
ATOM     80  C   UNL A   1      30.841  23.896  24.023  1.00  0.00     0.051 A 
ATOM     81  C   UNL A   1      32.718  21.781  24.183  1.00  0.00     0.001 A 
ATOM     82  C   UNL A   1      31.329  23.263  22.869  1.00  0.00     0.027 A 
ATOM     83  C   UNL A   1      32.257  22.219  22.946  1.00  0.00     0.002 A 
BRANCH  80  84
ATOM     84  N   UNL A   1      29.911  24.952  23.934  1.00  0.00    -0.355 N 
ATOM     85  H   UNL A   1      29.006  24.721  24.248  1.00  0.00     0.167 HD
BRANCH  84  86
ATOM     86  C   UNL A   1      30.046  26.272  23.477  1.00  0.00     0.039 A 
ATOM     87  C   UNL A   1      31.275  26.690  22.953  1.00  0.00     0.026 A 
ATOM     88  C   UNL A   1      28.979  27.181  23.476  1.00  0.00     0.039 A 
ATOM     89  C   UNL A   1      31.439  27.980  22.445  1.00  0.00     0.003 A 
ATOM     90  C   UNL A   1      29.131  28.489  22.983  1.00  0.00     0.058 A 
ATOM     91  C   UNL A   1      30.372  28.875  22.458  1.00  0.00     0.013 A 
BRANCH  90  92
ATOM     92  C   UNL A   1      27.979  29.460  22.995  1.00  0.00     0.416 C 
ATOM     93  F   UNL A   1      28.194  30.529  23.810  1.00  0.00    -0.166 F 
ATOM     94  F   UNL A   1      27.729  29.980  21.760  1.00  0.00    -0.166 F 
ATOM     95  F   UNL A   1      26.803  28.909  23.408  1.00  0.00    -0.166 F 
ENDBRANCH  90  92
ENDBRANCH  84  86
ENDBRANCH  80  84
ENDBRANCH  75  78
ENDBRANCH  73  74
ENDBRANCH  72  73
ENDBRANCH   1  72
TORSDOF 17
ENDMDL
MODEL 3
REMARK VINA RESULT:     -12.2      7.114     11.988
REMARK SMILES O=C(NCCCCNC(=O)c1ccccc1Nc1cccc(C(F)(F)F)c1)c1ccc(-c2c3nc(c(-c4cc(S(=O)(=O)[O-])ccc4F)c4ccc([nH]4)c(-c4cc(S(=O)(=O)[O-])ccc4F)c4nc(c(-c5cc(S(=O)(=O)[O-])ccc5F)c5ccc2[nH]5)C=C4)C=C3)cc1
REMARK SMILES IDX 5 1 4 2 3 3 1 4 2 5 28 7 29 8 90 9 30 10 89 11 31 12 32 13
REMARK SMILES IDX 33 14 83 15 34 16 88 17 82 18 84 19 35 20 87 21 81 22 80 23
REMARK SMILES IDX 36 25 68 26 48 27 67 28 49 29 52 30 66 31 85 32 50 33 51 34
REMARK SMILES IDX 65 36 86 37 53 38 37 39 38 40 46 41 39 42 45 43 47 44 44 45
REMARK SMILES IDX 40 46 41 47 42 48 43 49 69 50 70 51 78 52 71 53 77 54 79 55
REMARK SMILES IDX 76 56 72 57 73 58 74 59 75 60 54 61 55 62 63 63 56 64 62 65
REMARK SMILES IDX 64 66 61 67 57 68 58 69 59 70 60 71 6 72 7 73 8 74 9 75
REMARK SMILES IDX 10 77 11 78 12 79 16 80 13 81 15 82 14 83 17 84 18 86 19 87
REMARK SMILES IDX 27 88 20 89 22 90 21 91 23 92 24 93 25 94 26 95
REMARK H PARENT 3 6 84 24 52 35 8 76 17 85
REMARK Flexibility Score: inf
ROOT
ATOM      1  C   UNL A   1      37.915  19.608  24.851  1.00  0.00     0.023 C 
ENDROOT
BRANCH   1   2
ATOM      2  C   UNL A   1      38.990  20.103  25.808  1.00  0.00     0.116 C 
BRANCH   2   3
ATOM      3  N   UNL A   1      40.093  19.165  25.963  1.00  0.00    -0.352 N 
ATOM      4  O   UNL A   1      42.238  18.495  26.146  1.00  0.00    -0.269 OA
ATOM      5  C   UNL A   1      41.428  19.419  26.175  1.00  0.00     0.251 C 
ATOM      6  H   UNL A   1      39.848  18.214  25.909  1.00  0.00     0.163 HD
BRANCH   5   7
ATOM      7  C   UNL A   1      41.891  20.805  26.415  1.00  0.00     0.039 A 
ATOM      8  C   UNL A   1      42.176  21.245  27.709  1.00  0.00     0.014 A 
ATOM      9  C   UNL A   1      42.039  21.676  25.332  1.00  0.00     0.014 A 
ATOM     10  C   UNL A   1      42.459  22.587  27.936  1.00  0.00     0.010 A 
ATOM     11  C   UNL A   1      42.413  23.006  25.554  1.00  0.00     0.010 A 
ATOM     12  C   UNL A   1      42.595  23.481  26.861  1.00  0.00    -0.014 A 
BRANCH  12  13
ATOM     13  C   UNL A   1      42.988  24.889  27.137  1.00  0.00     0.031 A 
ATOM     14  C   UNL A   1      42.052  25.839  27.833  1.00  0.00     0.074 A 
ATOM     15  C   UNL A   1      44.225  25.291  26.786  1.00  0.00     0.049 A 
ATOM     16  N   UNL A   1      42.249  27.089  28.173  1.00  0.00    -0.248 NA
ATOM     17  C   UNL A   1      40.721  25.326  28.187  1.00  0.00     0.031 C 
ATOM     18  C   UNL A   1      45.215  24.454  26.098  1.00  0.00     0.029 A 
ATOM     19  N   UNL A   1      44.875  26.482  26.973  1.00  0.00    -0.354 N 
ATOM     20  C   UNL A   1      41.068  27.517  28.768  1.00  0.00     0.074 A 
ATOM     21  C   UNL A   1      40.147  26.400  28.713  1.00  0.00     0.031 C 
ATOM     22  C   UNL A   1      46.358  25.141  25.968  1.00  0.00     0.029 A 
ATOM     23  C   UNL A   1      46.165  26.486  26.495  1.00  0.00     0.049 A 
ATOM     24  H   UNL A   1      44.459  27.261  27.408  1.00  0.00     0.167 HD
ATOM     25  C   UNL A   1      40.785  28.727  29.315  1.00  0.00     0.034 A 
ATOM     26  C   UNL A   1      47.088  27.467  26.464  1.00  0.00     0.034 A 
ATOM     27  C   UNL A   1      41.718  29.829  29.362  1.00  0.00     0.049 A 
ATOM     28  C   UNL A   1      46.733  28.808  27.047  1.00  0.00     0.074 A 
ATOM     29  C   UNL A   1      41.543  31.086  29.918  1.00  0.00     0.029 A 
ATOM     30  N   UNL A   1      43.001  29.811  28.828  1.00  0.00    -0.354 N 
ATOM     31  N   UNL A   1      45.615  29.188  27.619  1.00  0.00    -0.248 NA
ATOM     32  C   UNL A   1      47.766  29.848  26.982  1.00  0.00     0.031 C 
ATOM     33  C   UNL A   1      42.691  31.845  29.664  1.00  0.00     0.029 A 
ATOM     34  C   UNL A   1      43.614  31.042  29.012  1.00  0.00     0.049 A 
ATOM     35  H   UNL A   1      43.415  29.037  28.383  1.00  0.00     0.167 HD
ATOM     36  C   UNL A   1      45.815  30.512  27.994  1.00  0.00     0.074 A 
ATOM     37  C   UNL A   1      47.171  30.852  27.609  1.00  0.00     0.031 C 
ATOM     38  C   UNL A   1      44.958  31.373  28.599  1.00  0.00     0.034 A 
BRANCH  25  39
ATOM     39  C   UNL A   1      39.394  28.936  29.867  1.00  0.00     0.023 A 
ATOM     40  C   UNL A   1      38.352  29.458  29.080  1.00  0.00     0.031 A 
ATOM     41  C   UNL A   1      39.106  28.610  31.205  1.00  0.00     0.131 A 
ATOM     42  C   UNL A   1      37.090  29.689  29.651  1.00  0.00     0.055 A 
ATOM     43  C   UNL A   1      37.830  28.777  31.747  1.00  0.00     0.041 A 
ATOM     44  F   UNL A   1      40.065  28.127  32.011  1.00  0.00    -0.206 F 
ATOM     45  C   UNL A   1      36.816  29.330  30.972  1.00  0.00     0.022 A 
BRANCH  42  46
ATOM     46  S   UNL A   1      35.843  30.575  28.675  1.00  0.00     0.124 S 
ATOM     47  O   UNL A   1      35.292  31.498  29.665  1.00  0.00    -0.237 OA
ATOM     48  O   UNL A   1      36.642  31.178  27.615  1.00  0.00    -0.237 OA
ATOM     49  O   UNL A   1      34.929  29.518  28.244  1.00  0.00    -0.744 OA
ENDBRANCH  42  46
ENDBRANCH  25  39
BRANCH  26  50
ATOM     50  C   UNL A   1      48.413  27.231  25.827  1.00  0.00     0.023 A 
ATOM     51  C   UNL A   1      48.608  27.439  24.453  1.00  0.00     0.031 A 
ATOM     52  C   UNL A   1      49.503  26.764  26.586  1.00  0.00     0.131 A 
ATOM     53  C   UNL A   1      49.850  27.142  23.872  1.00  0.00     0.055 A 
ATOM     54  C   UNL A   1      50.751  26.524  26.014  1.00  0.00     0.041 A 
ATOM     55  F   UNL A   1      49.371  26.554  27.905  1.00  0.00    -0.206 F 
ATOM     56  C   UNL A   1      50.926  26.700  24.645  1.00  0.00     0.022 A 
BRANCH  53  57
ATOM     57  S   UNL A   1      50.016  27.261  22.070  1.00  0.00     0.124 S 
ATOM     58  O   UNL A   1      51.370  26.764  21.861  1.00  0.00    -0.237 OA
ATOM     59  O   UNL A   1      48.935  26.394  21.611  1.00  0.00    -0.237 OA
ATOM     60  O   UNL A   1      49.825  28.686  21.804  1.00  0.00    -0.744 OA
ENDBRANCH  53  57
ENDBRANCH  26  50
BRANCH  38  61
ATOM     61  C   UNL A   1      45.486  32.754  28.895  1.00  0.00     0.023 A 
ATOM     62  C   UNL A   1      45.395  33.793  27.953  1.00  0.00     0.031 A 
ATOM     63  C   UNL A   1      46.126  33.021  30.118  1.00  0.00     0.131 A 
ATOM     64  C   UNL A   1      45.993  35.034  28.221  1.00  0.00     0.055 A 
ATOM     65  C   UNL A   1      46.667  34.275  30.403  1.00  0.00     0.041 A 
ATOM     66  F   UNL A   1      46.244  32.063  31.051  1.00  0.00    -0.206 F 
ATOM     67  C   UNL A   1      46.615  35.285  29.447  1.00  0.00     0.022 A 
BRANCH  64  68
ATOM     68  S   UNL A   1      46.036  36.281  26.906  1.00  0.00     0.124 S 
ATOM     69  O   UNL A   1      47.219  37.056  27.261  1.00  0.00    -0.237 OA
ATOM     70  O   UNL A   1      46.147  35.463  25.703  1.00  0.00    -0.237 OA
ATOM     71  O   UNL A   1      44.764  36.985  27.059  1.00  0.00    -0.744 OA
ENDBRANCH  64  68
ENDBRANCH  38  61
ENDBRANCH  12  13
ENDBRANCH   5   7
ENDBRANCH   2   3
ENDBRANCH   1   2
BRANCH   1  72
ATOM     72  C   UNL A   1      36.538  20.248  25.018  1.00  0.00     0.023 C 
BRANCH  72  73
ATOM     73  C   UNL A   1      36.513  21.575  25.769  1.00  0.00     0.116 C 
BRANCH  73  74
ATOM     74  N   UNL A   1      35.488  21.631  26.800  1.00  0.00    -0.352 N 
ATOM     75  C   UNL A   1      34.286  22.292  26.776  1.00  0.00     0.253 C 
ATOM     76  H   UNL A   1      35.684  21.129  27.623  1.00  0.00     0.163 HD
ATOM     77  O   UNL A   1      33.528  22.248  27.740  1.00  0.00    -0.269 OA
BRANCH  75  78
ATOM     78  C   UNL A   1      33.906  23.093  25.596  1.00  0.00     0.063 A 
ATOM     79  C   UNL A   1      34.539  24.339  25.463  1.00  0.00     0.016 A 
ATOM     80  C   UNL A   1      32.953  22.651  24.657  1.00  0.00     0.051 A 
ATOM     81  C   UNL A   1      34.268  25.142  24.360  1.00  0.00     0.001 A 
ATOM     82  C   UNL A   1      32.717  23.473  23.544  1.00  0.00     0.027 A 
ATOM     83  C   UNL A   1      33.364  24.705  23.396  1.00  0.00     0.002 A 
BRANCH  80  84
ATOM     84  N   UNL A   1      32.290  21.415  24.800  1.00  0.00    -0.355 N 
ATOM     85  H   UNL A   1      31.556  21.423  25.457  1.00  0.00     0.167 HD
BRANCH  84  86
ATOM     86  C   UNL A   1      32.491  20.175  24.173  1.00  0.00     0.039 A 
ATOM     87  C   UNL A   1      32.091  20.012  22.842  1.00  0.00     0.026 A 
ATOM     88  C   UNL A   1      33.126  19.102  24.813  1.00  0.00     0.039 A 
ATOM     89  C   UNL A   1      32.314  18.810  22.166  1.00  0.00     0.003 A 
ATOM     90  C   UNL A   1      33.345  17.880  24.153  1.00  0.00     0.058 A 
ATOM     91  C   UNL A   1      32.940  17.750  22.817  1.00  0.00     0.013 A 
BRANCH  90  92
ATOM     92  C   UNL A   1      34.022  16.731  24.854  1.00  0.00     0.416 C 
ATOM     93  F   UNL A   1      35.373  16.880  24.932  1.00  0.00    -0.166 F 
ATOM     94  F   UNL A   1      33.590  16.583  26.138  1.00  0.00    -0.166 F 
ATOM     95  F   UNL A   1      33.816  15.526  24.254  1.00  0.00    -0.166 F 
ENDBRANCH  90  92
ENDBRANCH  84  86
ENDBRANCH  80  84
ENDBRANCH  75  78
ENDBRANCH  73  74
ENDBRANCH  72  73
ENDBRANCH   1  72
TORSDOF 17
ENDMDL
