MODEL 1
REMARK VINA RESULT:     -10.9      0.000      0.000
REMARK SMILES Cc1cc(F)cc(NC(=O)CCC(=O)NCCCCNC(=O)c2ccc(-c3c4nc(c(-c5cc(S(=O)(=O)[O-])ccc5F)c5ccc([nH]5)c(-c5cc(S(=O)(=O)[O-])ccc5F)c5nc(c(-c6cc(S(=O)(=O)[O-])ccc6F)c6ccc3[nH]6)C=C5)C=C4)cc2)c1
REMARK SMILES IDX 17 1 16 2 15 3 13 4 14 5 12 7 11 8 9 9 8 10 10 12 7 13 1 14
REMARK SMILES IDX 2 15 3 16 86 17 4 18 5 19 6 20 18 21 19 22 20 23 21 24 22 26
REMARK SMILES IDX 23 27 24 28 85 29 25 30 84 31 26 32 27 33 28 34 78 35 29 36
REMARK SMILES IDX 83 37 77 38 79 39 30 40 82 41 76 42 75 43 31 45 63 46 43 47
REMARK SMILES IDX 62 48 44 49 47 50 61 51 80 52 45 53 46 54 60 56 81 57 48 58
REMARK SMILES IDX 32 59 33 60 41 61 34 62 40 63 42 64 39 65 35 66 36 67 37 68
REMARK SMILES IDX 38 69 64 70 65 71 73 72 66 73 72 74 74 75 71 76 67 77 68 78
REMARK SMILES IDX 69 79 70 80 49 81 50 82 58 83 51 84 57 85 59 86 56 87 52 88
REMARK SMILES IDX 53 89 54 90 55 91
REMARK H PARENT 15 6 8 11 20 25 79 44 47 55
REMARK Flexibility Score: inf
ROOT
ATOM      1  C   UNL A   1      34.212  35.698  29.013  1.00  0.00     0.023 C 
ENDROOT
BRANCH   1   2
ATOM      2  C   UNL A   1      33.283  36.908  28.960  1.00  0.00     0.116 C 
BRANCH   2   3
ATOM      3  N   UNL A   1      33.313  37.715  30.167  1.00  0.00    -0.356 N 
ATOM      4  C   UNL A   1      33.277  37.327  31.470  1.00  0.00     0.220 C 
ATOM      5  O   UNL A   1      33.508  38.162  32.344  1.00  0.00    -0.275 OA
ATOM      6  H   UNL A   1      33.367  38.687  30.021  1.00  0.00     0.163 HD
BRANCH   4   7
ATOM      7  C   UNL A   1      32.981  35.892  31.831  1.00  0.00     0.110 C 
BRANCH   7   8
ATOM      8  C   UNL A   1      33.807  35.281  32.957  1.00  0.00     0.110 C 
BRANCH   8   9
ATOM      9  C   UNL A   1      34.033  33.783  32.937  1.00  0.00     0.224 C 
ATOM     10  N   UNL A   1      35.231  33.202  32.636  1.00  0.00    -0.326 N 
ATOM     11  H   UNL A   1      35.204  32.219  32.594  1.00  0.00     0.169 HD
ATOM     12  O   UNL A   1      33.104  33.035  33.268  1.00  0.00    -0.275 OA
BRANCH  10  13
ATOM     13  C   UNL A   1      36.493  33.756  32.376  1.00  0.00     0.044 A 
ATOM     14  C   UNL A   1      38.651  34.044  29.240  1.00  0.00     0.044 C 
ATOM     15  C   UNL A   1      38.196  34.136  30.668  1.00  0.00    -0.046 A 
ATOM     16  C   UNL A   1      39.104  34.477  31.673  1.00  0.00     0.042 A 
ATOM     17  C   UNL A   1      36.871  33.849  31.026  1.00  0.00     0.029 A 
ATOM     18  C   UNL A   1      38.685  34.510  32.997  1.00  0.00     0.125 A 
ATOM     19  F   UNL A   1      39.551  34.869  33.955  1.00  0.00    -0.207 F 
ATOM     20  C   UNL A   1      37.392  34.149  33.358  1.00  0.00     0.065 A 
ENDBRANCH  10  13
ENDBRANCH   8   9
ENDBRANCH   7   8
ENDBRANCH   4   7
ENDBRANCH   2   3
ENDBRANCH   1   2
BRANCH   1  21
ATOM     21  C   UNL A   1      33.532  34.354  28.783  1.00  0.00     0.023 C 
BRANCH  21  22
ATOM     22  C   UNL A   1      34.497  33.222  28.488  1.00  0.00     0.116 C 
BRANCH  22  23
ATOM     23  N   UNL A   1      33.837  32.115  27.815  1.00  0.00    -0.352 N 
ATOM     24  C   UNL A   1      34.327  30.877  27.483  1.00  0.00     0.251 C 
ATOM     25  H   UNL A   1      32.899  32.277  27.560  1.00  0.00     0.163 HD
ATOM     26  O   UNL A   1      33.714  30.178  26.676  1.00  0.00    -0.269 OA
BRANCH  24  27
ATOM     27  C   UNL A   1      35.594  30.405  28.078  1.00  0.00     0.039 A 
ATOM     28  C   UNL A   1      35.571  29.708  29.287  1.00  0.00     0.014 A 
ATOM     29  C   UNL A   1      36.809  30.648  27.434  1.00  0.00     0.014 A 
ATOM     30  C   UNL A   1      36.763  29.208  29.815  1.00  0.00     0.010 A 
ATOM     31  C   UNL A   1      37.967  30.034  27.887  1.00  0.00     0.010 A 
ATOM     32  C   UNL A   1      37.965  29.335  29.100  1.00  0.00    -0.014 A 
BRANCH  32  33
ATOM     33  C   UNL A   1      39.247  28.800  29.625  1.00  0.00     0.031 A 
ATOM     34  C   UNL A   1      39.901  29.468  30.808  1.00  0.00     0.074 A 
ATOM     35  C   UNL A   1      39.846  27.763  29.007  1.00  0.00     0.049 A 
ATOM     36  N   UNL A   1      41.057  29.219  31.367  1.00  0.00    -0.248 NA
ATOM     37  C   UNL A   1      39.178  30.599  31.412  1.00  0.00     0.031 C 
ATOM     38  C   UNL A   1      39.330  27.071  27.824  1.00  0.00     0.029 A 
ATOM     39  N   UNL A   1      41.020  27.111  29.284  1.00  0.00    -0.354 N 
ATOM     40  C   UNL A   1      41.205  30.174  32.368  1.00  0.00     0.074 A 
ATOM     41  C   UNL A   1      40.066  31.059  32.277  1.00  0.00     0.031 C 
ATOM     42  C   UNL A   1      40.159  26.063  27.508  1.00  0.00     0.029 A 
ATOM     43  C   UNL A   1      41.293  26.071  28.426  1.00  0.00     0.049 A 
ATOM     44  H   UNL A   1      41.613  27.363  30.029  1.00  0.00     0.167 HD
ATOM     45  C   UNL A   1      42.182  30.281  33.301  1.00  0.00     0.034 A 
ATOM     46  C   UNL A   1      42.341  25.227  28.381  1.00  0.00     0.034 A 
ATOM     47  C   UNL A   1      43.296  29.370  33.388  1.00  0.00     0.049 A 
ATOM     48  C   UNL A   1      43.428  25.375  29.417  1.00  0.00     0.074 A 
ATOM     49  C   UNL A   1      44.315  29.339  34.322  1.00  0.00     0.029 A 
ATOM     50  N   UNL A   1      43.538  28.329  32.500  1.00  0.00    -0.354 N 
ATOM     51  N   UNL A   1      43.527  26.250  30.392  1.00  0.00    -0.248 NA
ATOM     52  C   UNL A   1      44.536  24.415  29.352  1.00  0.00     0.031 C 
ATOM     53  C   UNL A   1      45.213  28.332  33.954  1.00  0.00     0.029 A 
ATOM     54  C   UNL A   1      44.710  27.673  32.844  1.00  0.00     0.049 A 
ATOM     55  H   UNL A   1      42.962  28.091  31.738  1.00  0.00     0.167 HD
ATOM     56  C   UNL A   1      44.695  25.924  31.077  1.00  0.00     0.074 A 
ATOM     57  C   UNL A   1      45.253  24.763  30.411  1.00  0.00     0.031 C 
ATOM     58  C   UNL A   1      45.255  26.524  32.159  1.00  0.00     0.034 A 
BRANCH  45  59
ATOM     59  C   UNL A   1      42.089  31.433  34.277  1.00  0.00     0.023 A 
ATOM     60  C   UNL A   1      41.189  31.419  35.357  1.00  0.00     0.031 A 
ATOM     61  C   UNL A   1      42.878  32.584  34.099  1.00  0.00     0.131 A 
ATOM     62  C   UNL A   1      41.029  32.562  36.155  1.00  0.00     0.055 A 
ATOM     63  C   UNL A   1      42.784  33.682  34.959  1.00  0.00     0.041 A 
ATOM     64  F   UNL A   1      43.740  32.671  33.075  1.00  0.00    -0.206 F 
ATOM     65  C   UNL A   1      41.841  33.683  35.982  1.00  0.00     0.022 A 
BRANCH  62  66
ATOM     66  S   UNL A   1      39.625  32.624  37.304  1.00  0.00     0.124 S 
ATOM     67  O   UNL A   1      38.987  33.881  36.920  1.00  0.00    -0.237 OA
ATOM     68  O   UNL A   1      38.893  31.407  36.974  1.00  0.00    -0.237 OA
ATOM     69  O   UNL A   1      40.261  32.634  38.620  1.00  0.00    -0.744 OA
ENDBRANCH  62  66
ENDBRANCH  45  59
BRANCH  46  70
ATOM     70  C   UNL A   1      42.419  24.170  27.331  1.00  0.00     0.023 A 
ATOM     71  C   UNL A   1      41.743  22.949  27.481  1.00  0.00     0.031 A 
ATOM     72  C   UNL A   1      43.195  24.354  26.172  1.00  0.00     0.131 A 
ATOM     73  C   UNL A   1      41.893  21.942  26.515  1.00  0.00     0.055 A 
ATOM     74  C   UNL A   1      43.294  23.371  25.185  1.00  0.00     0.041 A 
ATOM     75  F   UNL A   1      43.858  25.505  25.973  1.00  0.00    -0.206 F 
ATOM     76  C   UNL A   1      42.651  22.151  25.361  1.00  0.00     0.022 A 
BRANCH  73  77
ATOM     77  S   UNL A   1      41.151  20.317  26.832  1.00  0.00     0.124 S 
ATOM     78  O   UNL A   1      40.915  20.374  28.270  1.00  0.00    -0.237 OA
ATOM     79  O   UNL A   1      39.964  20.355  25.985  1.00  0.00    -0.237 OA
ATOM     80  O   UNL A   1      42.189  19.381  26.406  1.00  0.00    -0.744 OA
ENDBRANCH  73  77
ENDBRANCH  46  70
BRANCH  58  81
ATOM     81  C   UNL A   1      46.515  25.903  32.711  1.00  0.00     0.023 A 
ATOM     82  C   UNL A   1      47.782  26.197  32.178  1.00  0.00     0.031 A 
ATOM     83  C   UNL A   1      46.443  25.000  33.788  1.00  0.00     0.131 A 
ATOM     84  C   UNL A   1      48.917  25.546  32.680  1.00  0.00     0.055 A 
ATOM     85  C   UNL A   1      47.586  24.412  34.331  1.00  0.00     0.041 A 
ATOM     86  F   UNL A   1      45.260  24.681  34.334  1.00  0.00    -0.206 F 
ATOM     87  C   UNL A   1      48.830  24.672  33.767  1.00  0.00     0.022 A 
BRANCH  84  88
ATOM     88  S   UNL A   1      50.500  25.777  31.825  1.00  0.00     0.124 S 
ATOM     89  O   UNL A   1      50.297  25.006  30.602  1.00  0.00    -0.237 OA
ATOM     90  O   UNL A   1      50.559  27.226  31.662  1.00  0.00    -0.237 OA
ATOM     91  O   UNL A   1      51.478  25.218  32.755  1.00  0.00    -0.744 OA
ENDBRANCH  84  88
ENDBRANCH  58  81
ENDBRANCH  32  33
ENDBRANCH  24  27
ENDBRANCH  22  23
ENDBRANCH  21  22
ENDBRANCH   1  21
TORSDOF 17
ENDMDL
MODEL 2
REMARK VINA RESULT:     -10.9      1.966      2.397
REMARK SMILES Cc1cc(F)cc(NC(=O)CCC(=O)NCCCCNC(=O)c2ccc(-c3c4nc(c(-c5cc(S(=O)(=O)[O-])ccc5F)c5ccc([nH]5)c(-c5cc(S(=O)(=O)[O-])ccc5F)c5nc(c(-c6cc(S(=O)(=O)[O-])ccc6F)c6ccc3[nH]6)C=C5)C=C4)cc2)c1
REMARK SMILES IDX 17 1 16 2 15 3 13 4 14 5 12 7 11 8 9 9 8 10 10 12 7 13 1 14
REMARK SMILES IDX 2 15 3 16 86 17 4 18 5 19 6 20 18 21 19 22 20 23 21 24 22 26
REMARK SMILES IDX 23 27 24 28 85 29 25 30 84 31 26 32 27 33 28 34 78 35 29 36
REMARK SMILES IDX 83 37 77 38 79 39 30 40 82 41 76 42 75 43 31 45 63 46 43 47
REMARK SMILES IDX 62 48 44 49 47 50 61 51 80 52 45 53 46 54 60 56 81 57 48 58
REMARK SMILES IDX 32 59 33 60 41 61 34 62 40 63 42 64 39 65 35 66 36 67 37 68
REMARK SMILES IDX 38 69 64 70 65 71 73 72 66 73 72 74 74 75 71 76 67 77 68 78
REMARK SMILES IDX 69 79 70 80 49 81 50 82 58 83 51 84 57 85 59 86 56 87 52 88
REMARK SMILES IDX 53 89 54 90 55 91
REMARK H PARENT 15 6 8 11 20 25 79 44 47 55
REMARK Flexibility Score: inf
ROOT
ATOM      1  C   UNL A   1      34.036  35.828  28.884  1.00  0.00     0.023 C 
ENDROOT
BRANCH   1   2
ATOM      2  C   UNL A   1      32.870  36.605  29.492  1.00  0.00     0.116 C 
BRANCH   2   3
ATOM      3  N   UNL A   1      33.273  37.532  30.534  1.00  0.00    -0.356 N 
ATOM      4  C   UNL A   1      33.490  37.307  31.858  1.00  0.00     0.220 C 
ATOM      5  O   UNL A   1      34.015  38.193  32.532  1.00  0.00    -0.275 OA
ATOM      6  H   UNL A   1      33.409  38.461  30.240  1.00  0.00     0.163 HD
BRANCH   4   7
ATOM      7  C   UNL A   1      33.113  35.984  32.479  1.00  0.00     0.110 C 
BRANCH   7   8
ATOM      8  C   UNL A   1      34.236  35.183  33.128  1.00  0.00     0.110 C 
BRANCH   8   9
ATOM      9  C   UNL A   1      34.229  33.679  32.945  1.00  0.00     0.224 C 
ATOM     10  N   UNL A   1      35.318  32.960  32.543  1.00  0.00    -0.326 N 
ATOM     11  H   UNL A   1      35.140  32.003  32.401  1.00  0.00     0.169 HD
ATOM     12  O   UNL A   1      33.203  33.048  33.231  1.00  0.00    -0.275 OA
BRANCH  10  13
ATOM     13  C   UNL A   1      36.644  33.344  32.295  1.00  0.00     0.044 A 
ATOM     14  C   UNL A   1      39.406  34.843  34.462  1.00  0.00     0.044 C 
ATOM     15  C   UNL A   1      38.660  34.315  33.271  1.00  0.00    -0.046 A 
ATOM     16  C   UNL A   1      39.180  34.487  31.986  1.00  0.00     0.042 A 
ATOM     17  C   UNL A   1      37.423  33.672  33.417  1.00  0.00     0.029 A 
ATOM     18  C   UNL A   1      38.459  34.040  30.886  1.00  0.00     0.125 A 
ATOM     19  F   UNL A   1      38.975  34.179  29.657  1.00  0.00    -0.207 F 
ATOM     20  C   UNL A   1      37.196  33.474  31.028  1.00  0.00     0.065 A 
ENDBRANCH  10  13
ENDBRANCH   8   9
ENDBRANCH   7   8
ENDBRANCH   4   7
ENDBRANCH   2   3
ENDBRANCH   1   2
BRANCH   1  21
ATOM     21  C   UNL A   1      34.121  34.365  29.300  1.00  0.00     0.023 C 
BRANCH  21  22
ATOM     22  C   UNL A   1      34.909  33.499  28.337  1.00  0.00     0.116 C 
BRANCH  22  23
ATOM     23  N   UNL A   1      34.113  32.389  27.837  1.00  0.00    -0.352 N 
ATOM     24  C   UNL A   1      34.468  31.079  27.639  1.00  0.00     0.251 C 
ATOM     25  H   UNL A   1      33.181  32.611  27.607  1.00  0.00     0.163 HD
ATOM     26  O   UNL A   1      33.749  30.352  26.954  1.00  0.00    -0.269 OA
BRANCH  24  27
ATOM     27  C   UNL A   1      35.718  30.559  28.230  1.00  0.00     0.039 A 
ATOM     28  C   UNL A   1      35.671  29.855  29.434  1.00  0.00     0.014 A 
ATOM     29  C   UNL A   1      36.940  30.766  27.588  1.00  0.00     0.014 A 
ATOM     30  C   UNL A   1      36.845  29.310  29.958  1.00  0.00     0.010 A 
ATOM     31  C   UNL A   1      38.077  30.108  28.035  1.00  0.00     0.010 A 
ATOM     32  C   UNL A   1      38.051  29.401  29.244  1.00  0.00    -0.014 A 
BRANCH  32  33
ATOM     33  C   UNL A   1      39.314  28.819  29.764  1.00  0.00     0.031 A 
ATOM     34  C   UNL A   1      39.959  29.420  30.987  1.00  0.00     0.074 A 
ATOM     35  C   UNL A   1      39.905  27.801  29.108  1.00  0.00     0.049 A 
ATOM     36  N   UNL A   1      41.101  29.124  31.553  1.00  0.00    -0.248 NA
ATOM     37  C   UNL A   1      39.246  30.535  31.631  1.00  0.00     0.031 C 
ATOM     38  C   UNL A   1      39.397  27.173  27.886  1.00  0.00     0.029 A 
ATOM     39  N   UNL A   1      41.062  27.115  29.375  1.00  0.00    -0.354 N 
ATOM     40  C   UNL A   1      41.249  30.029  32.599  1.00  0.00     0.074 A 
ATOM     41  C   UNL A   1      40.128  30.938  32.531  1.00  0.00     0.031 C 
ATOM     42  C   UNL A   1      40.213  26.166  27.537  1.00  0.00     0.029 A 
ATOM     43  C   UNL A   1      41.331  26.110  28.473  1.00  0.00     0.049 A 
ATOM     44  H   UNL A   1      41.646  27.321  30.140  1.00  0.00     0.167 HD
ATOM     45  C   UNL A   1      42.211  30.074  33.552  1.00  0.00     0.034 A 
ATOM     46  C   UNL A   1      42.365  25.250  28.407  1.00  0.00     0.034 A 
ATOM     47  C   UNL A   1      43.307  29.139  33.615  1.00  0.00     0.049 A 
ATOM     48  C   UNL A   1      43.436  25.330  29.466  1.00  0.00     0.074 A 
ATOM     49  C   UNL A   1      44.309  29.046  34.564  1.00  0.00     0.029 A 
ATOM     50  N   UNL A   1      43.546  28.136  32.684  1.00  0.00    -0.354 N 
ATOM     51  N   UNL A   1      43.534  26.156  30.482  1.00  0.00    -0.248 NA
ATOM     52  C   UNL A   1      44.528  24.353  29.375  1.00  0.00     0.031 C 
ATOM     53  C   UNL A   1      45.195  28.041  34.164  1.00  0.00     0.029 A 
ATOM     54  C   UNL A   1      44.700  27.443  33.017  1.00  0.00     0.049 A 
ATOM     55  H   UNL A   1      42.978  27.944  31.903  1.00  0.00     0.167 HD
ATOM     56  C   UNL A   1      44.684  25.778  31.170  1.00  0.00     0.074 A 
ATOM     57  C   UNL A   1      45.232  24.639  30.461  1.00  0.00     0.031 C 
ATOM     58  C   UNL A   1      45.236  26.317  32.288  1.00  0.00     0.034 A 
BRANCH  45  59
ATOM     59  C   UNL A   1      42.122  31.182  34.579  1.00  0.00     0.023 A 
ATOM     60  C   UNL A   1      42.652  32.462  34.335  1.00  0.00     0.031 A 
ATOM     61  C   UNL A   1      41.543  30.943  35.838  1.00  0.00     0.131 A 
ATOM     62  C   UNL A   1      42.680  33.418  35.361  1.00  0.00     0.055 A 
ATOM     63  C   UNL A   1      41.486  31.933  36.823  1.00  0.00     0.041 A 
ATOM     64  F   UNL A   1      41.041  29.737  36.143  1.00  0.00    -0.206 F 
ATOM     65  C   UNL A   1      42.074  33.174  36.594  1.00  0.00     0.022 A 
BRANCH  62  66
ATOM     66  S   UNL A   1      43.673  34.918  35.118  1.00  0.00     0.124 S 
ATOM     67  O   UNL A   1      43.166  35.782  36.181  1.00  0.00    -0.237 OA
ATOM     68  O   UNL A   1      45.035  34.425  35.288  1.00  0.00    -0.237 OA
ATOM     69  O   UNL A   1      43.326  35.342  33.763  1.00  0.00    -0.744 OA
ENDBRANCH  62  66
ENDBRANCH  45  59
BRANCH  46  70
ATOM     70  C   UNL A   1      42.442  24.241  27.310  1.00  0.00     0.023 A 
ATOM     71  C   UNL A   1      41.643  23.087  27.330  1.00  0.00     0.031 A 
ATOM     72  C   UNL A   1      43.338  24.402  26.237  1.00  0.00     0.131 A 
ATOM     73  C   UNL A   1      41.788  22.117  26.326  1.00  0.00     0.055 A 
ATOM     74  C   UNL A   1      43.437  23.462  25.210  1.00  0.00     0.041 A 
ATOM     75  F   UNL A   1      44.122  25.490  26.164  1.00  0.00    -0.206 F 
ATOM     76  C   UNL A   1      42.668  22.304  25.258  1.00  0.00     0.022 A 
BRANCH  73  77
ATOM     77  S   UNL A   1      40.869  20.561  26.484  1.00  0.00     0.124 S 
ATOM     78  O   UNL A   1      41.632  19.676  25.611  1.00  0.00    -0.237 OA
ATOM     79  O   UNL A   1      40.969  20.293  27.914  1.00  0.00    -0.237 OA
ATOM     80  O   UNL A   1      39.531  20.907  26.008  1.00  0.00    -0.744 OA
ENDBRANCH  73  77
ENDBRANCH  46  70
BRANCH  58  81
ATOM     81  C   UNL A   1      46.474  25.648  32.832  1.00  0.00     0.023 A 
ATOM     82  C   UNL A   1      46.402  24.609  33.776  1.00  0.00     0.031 A 
ATOM     83  C   UNL A   1      47.748  26.063  32.400  1.00  0.00     0.131 A 
ATOM     84  C   UNL A   1      47.581  24.063  34.303  1.00  0.00     0.055 A 
ATOM     85  C   UNL A   1      48.916  25.464  32.874  1.00  0.00     0.041 A 
ATOM     86  F   UNL A   1      47.876  27.052  31.503  1.00  0.00    -0.206 F 
ATOM     87  C   UNL A   1      48.837  24.468  33.843  1.00  0.00     0.022 A 
BRANCH  84  88
ATOM     88  S   UNL A   1      47.454  22.886  35.677  1.00  0.00     0.124 S 
ATOM     89  O   UNL A   1      46.046  23.001  36.044  1.00  0.00    -0.237 OA
ATOM     90  O   UNL A   1      47.849  21.629  35.049  1.00  0.00    -0.237 OA
ATOM     91  O   UNL A   1      48.397  23.408  36.664  1.00  0.00    -0.744 OA
ENDBRANCH  84  88
ENDBRANCH  58  81
ENDBRANCH  32  33
ENDBRANCH  24  27
ENDBRANCH  22  23
ENDBRANCH  21  22
ENDBRANCH   1  21
TORSDOF 17
ENDMDL
MODEL 3
REMARK VINA RESULT:     -10.3      4.701     10.573
REMARK SMILES Cc1cc(F)cc(NC(=O)CCC(=O)NCCCCNC(=O)c2ccc(-c3c4nc(c(-c5cc(S(=O)(=O)[O-])ccc5F)c5ccc([nH]5)c(-c5cc(S(=O)(=O)[O-])ccc5F)c5nc(c(-c6cc(S(=O)(=O)[O-])ccc6F)c6ccc3[nH]6)C=C5)C=C4)cc2)c1
REMARK SMILES IDX 17 1 16 2 15 3 13 4 14 5 12 7 11 8 9 9 8 10 10 12 7 13 1 14
REMARK SMILES IDX 2 15 3 16 86 17 4 18 5 19 6 20 18 21 19 22 20 23 21 24 22 26
REMARK SMILES IDX 23 27 24 28 85 29 25 30 84 31 26 32 27 33 28 34 78 35 29 36
REMARK SMILES IDX 83 37 77 38 79 39 30 40 82 41 76 42 75 43 31 45 63 46 43 47
REMARK SMILES IDX 62 48 44 49 47 50 61 51 80 52 45 53 46 54 60 56 81 57 48 58
REMARK SMILES IDX 32 59 33 60 41 61 34 62 40 63 42 64 39 65 35 66 36 67 37 68
REMARK SMILES IDX 38 69 64 70 65 71 73 72 66 73 72 74 74 75 71 76 67 77 68 78
REMARK SMILES IDX 69 79 70 80 49 81 50 82 58 83 51 84 57 85 59 86 56 87 52 88
REMARK SMILES IDX 53 89 54 90 55 91
REMARK H PARENT 15 6 8 11 20 25 79 44 47 55
REMARK Flexibility Score: inf
ROOT
ATOM      1  C   UNL A   1      31.857  30.518  26.046  1.00  0.00     0.023 C 
ENDROOT
BRANCH   1   2
ATOM      2  C   UNL A   1      32.502  29.455  26.932  1.00  0.00     0.116 C 
BRANCH   2   3
ATOM      3  N   UNL A   1      31.648  28.306  27.174  1.00  0.00    -0.356 N 
ATOM      4  C   UNL A   1      31.537  27.146  26.472  1.00  0.00     0.220 C 
ATOM      5  O   UNL A   1      30.890  26.218  26.958  1.00  0.00    -0.275 OA
ATOM      6  H   UNL A   1      31.063  28.377  27.962  1.00  0.00     0.163 HD
BRANCH   4   7
ATOM      7  C   UNL A   1      32.215  26.997  25.132  1.00  0.00     0.110 C 
BRANCH   7   8
ATOM      8  C   UNL A   1      31.312  26.957  23.904  1.00  0.00     0.110 C 
BRANCH   8   9
ATOM      9  C   UNL A   1      31.778  27.683  22.659  1.00  0.00     0.224 C 
ATOM     10  N   UNL A   1      31.039  28.631  22.014  1.00  0.00    -0.326 N 
ATOM     11  H   UNL A   1      31.443  28.961  21.181  1.00  0.00     0.169 HD
ATOM     12  O   UNL A   1      32.915  27.455  22.227  1.00  0.00    -0.275 OA
BRANCH  10  13
ATOM     13  C   UNL A   1      29.804  29.219  22.329  1.00  0.00     0.044 A 
ATOM     14  C   UNL A   1      28.691  32.802  23.034  1.00  0.00     0.044 C 
ATOM     15  C   UNL A   1      28.664  31.311  22.865  1.00  0.00    -0.046 A 
ATOM     16  C   UNL A   1      27.553  30.578  23.288  1.00  0.00     0.042 A 
ATOM     17  C   UNL A   1      29.756  30.623  22.317  1.00  0.00     0.029 A 
ATOM     18  C   UNL A   1      27.558  29.192  23.175  1.00  0.00     0.125 A 
ATOM     19  F   UNL A   1      26.477  28.495  23.552  1.00  0.00    -0.207 F 
ATOM     20  C   UNL A   1      28.673  28.508  22.703  1.00  0.00     0.065 A 
ENDBRANCH  10  13
ENDBRANCH   8   9
ENDBRANCH   7   8
ENDBRANCH   4   7
ENDBRANCH   2   3
ENDBRANCH   1   2
BRANCH   1  21
ATOM     21  C   UNL A   1      31.633  31.866  26.719  1.00  0.00     0.023 C 
BRANCH  21  22
ATOM     22  C   UNL A   1      32.890  32.469  27.315  1.00  0.00     0.116 C 
BRANCH  22  23
ATOM     23  N   UNL A   1      32.699  33.868  27.668  1.00  0.00    -0.352 N 
ATOM     24  C   UNL A   1      33.221  34.582  28.717  1.00  0.00     0.251 C 
ATOM     25  H   UNL A   1      32.110  34.377  27.064  1.00  0.00     0.163 HD
ATOM     26  O   UNL A   1      32.731  35.674  29.010  1.00  0.00    -0.269 OA
BRANCH  24  27
ATOM     27  C   UNL A   1      34.345  34.027  29.498  1.00  0.00     0.039 A 
ATOM     28  C   UNL A   1      34.087  33.134  30.539  1.00  0.00     0.014 A 
ATOM     29  C   UNL A   1      35.659  34.388  29.196  1.00  0.00     0.014 A 
ATOM     30  C   UNL A   1      35.154  32.562  31.234  1.00  0.00     0.010 A 
ATOM     31  C   UNL A   1      36.715  33.716  29.792  1.00  0.00     0.010 A 
ATOM     32  C   UNL A   1      36.478  32.821  30.842  1.00  0.00    -0.014 A 
BRANCH  32  33
ATOM     33  C   UNL A   1      37.635  32.216  31.549  1.00  0.00     0.031 A 
ATOM     34  C   UNL A   1      38.412  31.107  30.886  1.00  0.00     0.074 A 
ATOM     35  C   UNL A   1      37.945  32.618  32.797  1.00  0.00     0.049 A 
ATOM     36  N   UNL A   1      39.395  30.385  31.358  1.00  0.00    -0.248 NA
ATOM     37  C   UNL A   1      37.995  30.728  29.526  1.00  0.00     0.031 C 
ATOM     38  C   UNL A   1      37.231  33.648  33.556  1.00  0.00     0.029 A 
ATOM     39  N   UNL A   1      38.938  32.209  33.650  1.00  0.00    -0.354 N 
ATOM     40  C   UNL A   1      39.693  29.458  30.365  1.00  0.00     0.074 A 
ATOM     41  C   UNL A   1      38.730  29.650  29.306  1.00  0.00     0.031 C 
ATOM     42  C   UNL A   1      37.840  33.821  34.741  1.00  0.00     0.029 A 
ATOM     43  C   UNL A   1      38.948  32.879  34.852  1.00  0.00     0.049 A 
ATOM     44  H   UNL A   1      39.585  31.501  33.423  1.00  0.00     0.167 HD
ATOM     45  C   UNL A   1      40.702  28.554  30.323  1.00  0.00     0.034 A 
ATOM     46  C   UNL A   1      39.754  32.742  35.921  1.00  0.00     0.034 A 
ATOM     47  C   UNL A   1      41.668  28.398  31.382  1.00  0.00     0.049 A 
ATOM     48  C   UNL A   1      40.859  31.716  35.863  1.00  0.00     0.074 A 
ATOM     49  C   UNL A   1      42.768  27.560  31.430  1.00  0.00     0.029 A 
ATOM     50  N   UNL A   1      41.645  29.094  32.584  1.00  0.00    -0.354 N 
ATOM     51  N   UNL A   1      41.163  30.884  34.893  1.00  0.00    -0.248 NA
ATOM     52  C   UNL A   1      41.734  31.621  37.037  1.00  0.00     0.031 C 
ATOM     53  C   UNL A   1      43.362  27.692  32.690  1.00  0.00     0.029 A 
ATOM     54  C   UNL A   1      42.690  28.679  33.395  1.00  0.00     0.049 A 
ATOM     55  H   UNL A   1      40.984  29.782  32.825  1.00  0.00     0.167 HD
ATOM     56  C   UNL A   1      42.287  30.187  35.330  1.00  0.00     0.074 A 
ATOM     57  C   UNL A   1      42.613  30.712  36.642  1.00  0.00     0.031 C 
ATOM     58  C   UNL A   1      42.990  29.207  34.706  1.00  0.00     0.034 A 
BRANCH  45  59
ATOM     59  C   UNL A   1      40.787  27.661  29.105  1.00  0.00     0.023 A 
ATOM     60  C   UNL A   1      41.728  27.889  28.084  1.00  0.00     0.031 A 
ATOM     61  C   UNL A   1      39.886  26.596  28.937  1.00  0.00     0.131 A 
ATOM     62  C   UNL A   1      41.683  27.130  26.905  1.00  0.00     0.055 A 
ATOM     63  C   UNL A   1      39.911  25.780  27.802  1.00  0.00     0.041 A 
ATOM     64  F   UNL A   1      38.948  26.340  29.862  1.00  0.00    -0.206 F 
ATOM     65  C   UNL A   1      40.801  26.058  26.768  1.00  0.00     0.022 A 
BRANCH  62  66
ATOM     66  S   UNL A   1      42.674  27.678  25.487  1.00  0.00     0.124 S 
ATOM     67  O   UNL A   1      42.021  28.939  25.141  1.00  0.00    -0.237 OA
ATOM     68  O   UNL A   1      44.011  27.786  26.059  1.00  0.00    -0.237 OA
ATOM     69  O   UNL A   1      42.497  26.606  24.511  1.00  0.00    -0.744 OA
ENDBRANCH  62  66
ENDBRANCH  45  59
BRANCH  46  70
ATOM     70  C   UNL A   1      39.556  33.590  37.133  1.00  0.00     0.023 A 
ATOM     71  C   UNL A   1      40.347  34.727  37.358  1.00  0.00     0.031 A 
ATOM     72  C   UNL A   1      38.589  33.259  38.100  1.00  0.00     0.131 A 
ATOM     73  C   UNL A   1      40.192  35.465  38.542  1.00  0.00     0.055 A 
ATOM     74  C   UNL A   1      38.399  34.030  39.249  1.00  0.00     0.041 A 
ATOM     75  F   UNL A   1      37.800  32.185  37.933  1.00  0.00    -0.206 F 
ATOM     76  C   UNL A   1      39.213  35.133  39.481  1.00  0.00     0.022 A 
BRANCH  73  77
ATOM     77  S   UNL A   1      41.353  36.818  38.879  1.00  0.00     0.124 S 
ATOM     78  O   UNL A   1      42.106  36.288  40.009  1.00  0.00    -0.237 OA
ATOM     79  O   UNL A   1      42.075  36.920  37.616  1.00  0.00    -0.237 OA
ATOM     80  O   UNL A   1      40.476  37.947  39.186  1.00  0.00    -0.744 OA
ENDBRANCH  73  77
ENDBRANCH  46  70
BRANCH  58  81
ATOM     81  C   UNL A   1      44.206  28.673  35.422  1.00  0.00     0.023 A 
ATOM     82  C   UNL A   1      44.106  27.688  36.420  1.00  0.00     0.031 A 
ATOM     83  C   UNL A   1      45.486  29.162  35.101  1.00  0.00     0.131 A 
ATOM     84  C   UNL A   1      45.256  27.270  37.105  1.00  0.00     0.055 A 
ATOM     85  C   UNL A   1      46.635  28.688  35.735  1.00  0.00     0.041 A 
ATOM     86  F   UNL A   1      45.640  30.104  34.158  1.00  0.00    -0.206 F 
ATOM     87  C   UNL A   1      46.522  27.747  36.754  1.00  0.00     0.022 A 
BRANCH  84  88
ATOM     88  S   UNL A   1      45.064  26.169  38.533  1.00  0.00     0.124 S 
ATOM     89  O   UNL A   1      45.376  24.866  37.954  1.00  0.00    -0.237 OA
ATOM     90  O   UNL A   1      46.047  26.701  39.471  1.00  0.00    -0.237 OA
ATOM     91  O   UNL A   1      43.669  26.355  38.925  1.00  0.00    -0.744 OA
ENDBRANCH  84  88
ENDBRANCH  58  81
ENDBRANCH  32  33
ENDBRANCH  24  27
ENDBRANCH  22  23
ENDBRANCH  21  22
ENDBRANCH   1  21
TORSDOF 17
ENDMDL
