MODEL 1
REMARK VINA RESULT:      -9.4      0.000      0.000
REMARK SMILES O=C(Cc1ccc(-c2ccc(Cl)cc2)cc1)NCCCCNC(=O)c1ccc(-c2c3nc(c(-c4cc(S(=O)(=O)[O-])ccc4F)c4ccc([nH]4)c(-c4cc(S(=O)(=O)[O-])ccc4F)c4nc(c(-c5cc(S(=O)(=O)[O-])ccc5F)c5ccc2[nH]5)C=C4)C=C3)cc1
REMARK SMILES IDX 20 1 19 2 18 3 17 4 1 5 2 6 3 8 4 9 5 10 16 11 6 12 15 13
REMARK SMILES IDX 7 14 8 15 9 16 14 17 10 18 13 19 11 20 12 21 21 22 22 23
REMARK SMILES IDX 23 24 24 26 25 27 26 28 87 29 27 30 86 31 28 32 29 33 30 34
REMARK SMILES IDX 80 35 31 36 85 37 79 38 81 39 32 40 84 41 78 42 77 43 33 45
REMARK SMILES IDX 65 46 45 47 64 48 46 49 49 50 63 51 82 52 47 53 48 54 62 56
REMARK SMILES IDX 83 57 50 58 34 59 35 60 43 61 36 62 42 63 44 64 41 65 37 66
REMARK SMILES IDX 38 67 39 68 40 69 66 70 67 71 75 72 68 73 74 74 76 75 73 76
REMARK SMILES IDX 69 77 70 78 71 79 72 80 51 81 52 82 60 83 53 84 59 85 61 86
REMARK SMILES IDX 58 87 54 88 55 89 56 90 57 91
REMARK H PARENT 17 7 22 25 81 44 49 55
REMARK Flexibility Score: inf
ROOT
ATOM      1  C   UNL A   1      32.771  35.910  31.124  1.00  0.00     0.023 C 
ENDROOT
BRANCH   1   2
ATOM      2  C   UNL A   1      33.013  37.238  31.848  1.00  0.00     0.023 C 
BRANCH   2   3
ATOM      3  C   UNL A   1      34.016  37.176  32.996  1.00  0.00     0.116 C 
BRANCH   3   4
ATOM      4  N   UNL A   1      34.077  35.864  33.608  1.00  0.00    -0.356 N 
ATOM      5  O   UNL A   1      36.198  35.343  32.884  1.00  0.00    -0.275 OA
ATOM      6  C   UNL A   1      35.206  35.070  33.553  1.00  0.00     0.224 C 
ATOM      7  H   UNL A   1      33.283  35.525  34.082  1.00  0.00     0.163 HD
BRANCH   6   8
ATOM      8  C   UNL A   1      35.125  33.818  34.413  1.00  0.00     0.135 C 
BRANCH   8   9
ATOM      9  C   UNL A   1      36.311  32.878  34.316  1.00  0.00    -0.039 A 
ATOM     10  C   UNL A   1      37.437  32.984  35.140  1.00  0.00     0.005 A 
ATOM     11  C   UNL A   1      36.287  31.850  33.360  1.00  0.00     0.005 A 
ATOM     12  C   UNL A   1      38.488  32.071  35.038  1.00  0.00     0.009 A 
ATOM     13  C   UNL A   1      37.352  30.945  33.246  1.00  0.00     0.009 A 
ATOM     14  C   UNL A   1      38.464  31.037  34.093  1.00  0.00    -0.018 A 
BRANCH  14  15
ATOM     15  C   UNL A   1      39.603  30.113  34.002  1.00  0.00    -0.018 A 
ATOM     16  C   UNL A   1      39.663  29.148  32.981  1.00  0.00     0.010 A 
ATOM     17  C   UNL A   1      40.616  30.115  34.975  1.00  0.00     0.010 A 
ATOM     18  C   UNL A   1      40.679  28.190  32.952  1.00  0.00     0.021 A 
ATOM     19  C   UNL A   1      41.633  29.156  34.949  1.00  0.00     0.021 A 
ATOM     20  C   UNL A   1      41.654  28.191  33.944  1.00  0.00     0.041 A 
ATOM     21  Cl  UNL A   1      42.879  26.984  33.945  1.00  0.00    -0.084 Cl
ENDBRANCH  14  15
ENDBRANCH   8   9
ENDBRANCH   6   8
ENDBRANCH   3   4
ENDBRANCH   2   3
ENDBRANCH   1   2
BRANCH   1  22
ATOM     22  C   UNL A   1      33.667  35.647  29.916  1.00  0.00     0.116 C 
BRANCH  22  23
ATOM     23  N   UNL A   1      33.016  34.837  28.900  1.00  0.00    -0.352 N 
ATOM     24  C   UNL A   1      33.496  33.756  28.199  1.00  0.00     0.251 C 
ATOM     25  H   UNL A   1      32.094  35.102  28.680  1.00  0.00     0.163 HD
ATOM     26  O   UNL A   1      32.846  33.315  27.252  1.00  0.00    -0.269 OA
BRANCH  24  27
ATOM     27  C   UNL A   1      34.798  33.143  28.555  1.00  0.00     0.039 A 
ATOM     28  C   UNL A   1      35.968  33.678  28.009  1.00  0.00     0.014 A 
ATOM     29  C   UNL A   1      34.872  32.044  29.415  1.00  0.00     0.014 A 
ATOM     30  C   UNL A   1      37.212  33.160  28.383  1.00  0.00     0.010 A 
ATOM     31  C   UNL A   1      36.115  31.580  29.847  1.00  0.00     0.010 A 
ATOM     32  C   UNL A   1      37.300  32.135  29.339  1.00  0.00    -0.014 A 
BRANCH  32  33
ATOM     33  C   UNL A   1      38.619  31.641  29.824  1.00  0.00     0.031 A 
ATOM     34  C   UNL A   1      39.363  32.387  30.900  1.00  0.00     0.074 A 
ATOM     35  C   UNL A   1      39.175  30.552  29.256  1.00  0.00     0.049 A 
ATOM     36  N   UNL A   1      40.550  32.153  31.401  1.00  0.00    -0.248 NA
ATOM     37  C   UNL A   1      38.696  33.568  31.466  1.00  0.00     0.031 C 
ATOM     38  C   UNL A   1      38.569  29.758  28.184  1.00  0.00     0.029 A 
ATOM     39  N   UNL A   1      40.373  29.924  29.492  1.00  0.00    -0.354 N 
ATOM     40  C   UNL A   1      40.777  33.162  32.332  1.00  0.00     0.074 A 
ATOM     41  C   UNL A   1      39.628  34.043  32.278  1.00  0.00     0.031 C 
ATOM     42  C   UNL A   1      39.383  28.734  27.879  1.00  0.00     0.029 A 
ATOM     43  C   UNL A   1      40.593  28.827  28.690  1.00  0.00     0.049 A 
ATOM     44  H   UNL A   1      41.016  30.230  30.172  1.00  0.00     0.167 HD
ATOM     45  C   UNL A   1      41.833  33.327  33.167  1.00  0.00     0.034 A 
ATOM     46  C   UNL A   1      41.653  27.997  28.604  1.00  0.00     0.034 A 
ATOM     47  C   UNL A   1      42.966  32.434  33.214  1.00  0.00     0.049 A 
ATOM     48  C   UNL A   1      42.836  28.228  29.512  1.00  0.00     0.074 A 
ATOM     49  C   UNL A   1      44.061  32.478  34.062  1.00  0.00     0.029 A 
ATOM     50  N   UNL A   1      43.162  31.346  32.374  1.00  0.00    -0.354 N 
ATOM     51  N   UNL A   1      43.010  29.158  30.423  1.00  0.00    -0.248 NA
ATOM     52  C   UNL A   1      43.960  27.292  29.385  1.00  0.00     0.031 C 
ATOM     53  C   UNL A   1      44.955  31.471  33.679  1.00  0.00     0.029 A 
ATOM     54  C   UNL A   1      44.378  30.738  32.655  1.00  0.00     0.049 A 
ATOM     55  H   UNL A   1      42.531  31.049  31.679  1.00  0.00     0.167 HD
ATOM     56  C   UNL A   1      44.250  28.893  31.001  1.00  0.00     0.074 A 
ATOM     57  C   UNL A   1      44.769  27.711  30.347  1.00  0.00     0.031 C 
ATOM     58  C   UNL A   1      44.895  29.564  31.990  1.00  0.00     0.034 A 
BRANCH  45  59
ATOM     59  C   UNL A   1      41.825  34.536  34.074  1.00  0.00     0.023 A 
ATOM     60  C   UNL A   1      41.319  34.479  35.384  1.00  0.00     0.031 A 
ATOM     61  C   UNL A   1      42.318  35.772  33.615  1.00  0.00     0.131 A 
ATOM     62  C   UNL A   1      41.245  35.646  36.159  1.00  0.00     0.055 A 
ATOM     63  C   UNL A   1      42.324  36.910  34.424  1.00  0.00     0.041 A 
ATOM     64  F   UNL A   1      42.794  35.898  32.366  1.00  0.00    -0.206 F 
ATOM     65  C   UNL A   1      41.770  36.856  35.699  1.00  0.00     0.022 A 
BRANCH  62  66
ATOM     66  S   UNL A   1      40.314  35.594  37.715  1.00  0.00     0.124 S 
ATOM     67  O   UNL A   1      39.411  34.470  37.479  1.00  0.00    -0.237 OA
ATOM     68  O   UNL A   1      41.362  35.374  38.703  1.00  0.00    -0.237 OA
ATOM     69  O   UNL A   1      39.665  36.903  37.770  1.00  0.00    -0.744 OA
ENDBRANCH  62  66
ENDBRANCH  45  59
BRANCH  46  70
ATOM     70  C   UNL A   1      41.661  26.875  27.619  1.00  0.00     0.023 A 
ATOM     71  C   UNL A   1      41.489  25.545  28.036  1.00  0.00     0.031 A 
ATOM     72  C   UNL A   1      41.896  27.110  26.252  1.00  0.00     0.131 A 
ATOM     73  C   UNL A   1      41.606  24.499  27.108  1.00  0.00     0.055 A 
ATOM     74  C   UNL A   1      41.949  26.070  25.323  1.00  0.00     0.041 A 
ATOM     75  F   UNL A   1      42.068  28.362  25.797  1.00  0.00    -0.206 F 
ATOM     76  C   UNL A   1      41.819  24.754  25.752  1.00  0.00     0.022 A 
BRANCH  73  77
ATOM     77  S   UNL A   1      41.577  22.791  27.718  1.00  0.00     0.124 S 
ATOM     78  O   UNL A   1      42.479  22.129  26.782  1.00  0.00    -0.237 OA
ATOM     79  O   UNL A   1      42.068  22.948  29.082  1.00  0.00    -0.237 OA
ATOM     80  O   UNL A   1      40.170  22.413  27.602  1.00  0.00    -0.744 OA
ENDBRANCH  73  77
ENDBRANCH  46  70
BRANCH  58  81
ATOM     81  C   UNL A   1      46.216  29.000  32.459  1.00  0.00     0.023 A 
ATOM     82  C   UNL A   1      46.304  28.115  33.548  1.00  0.00     0.031 A 
ATOM     83  C   UNL A   1      47.409  29.364  31.807  1.00  0.00     0.131 A 
ATOM     84  C   UNL A   1      47.561  27.672  33.990  1.00  0.00     0.055 A 
ATOM     85  C   UNL A   1      48.650  28.865  32.209  1.00  0.00     0.041 A 
ATOM     86  F   UNL A   1      47.389  30.210  30.764  1.00  0.00    -0.206 F 
ATOM     87  C   UNL A   1      48.732  28.025  33.315  1.00  0.00     0.022 A 
BRANCH  84  88
ATOM     88  S   UNL A   1      47.655  26.711  35.525  1.00  0.00     0.124 S 
ATOM     89  O   UNL A   1      46.246  26.509  35.844  1.00  0.00    -0.237 OA
ATOM     90  O   UNL A   1      48.389  25.521  35.104  1.00  0.00    -0.237 OA
ATOM     91  O   UNL A   1      48.378  27.593  36.439  1.00  0.00    -0.744 OA
ENDBRANCH  84  88
ENDBRANCH  58  81
ENDBRANCH  32  33
ENDBRANCH  24  27
ENDBRANCH  22  23
ENDBRANCH   1  22
TORSDOF 16
ENDMDL
MODEL 2
REMARK VINA RESULT:      -9.1      0.419      7.625
REMARK SMILES O=C(Cc1ccc(-c2ccc(Cl)cc2)cc1)NCCCCNC(=O)c1ccc(-c2c3nc(c(-c4cc(S(=O)(=O)[O-])ccc4F)c4ccc([nH]4)c(-c4cc(S(=O)(=O)[O-])ccc4F)c4nc(c(-c5cc(S(=O)(=O)[O-])ccc5F)c5ccc2[nH]5)C=C4)C=C3)cc1
REMARK SMILES IDX 20 1 19 2 18 3 17 4 1 5 2 6 3 8 4 9 5 10 16 11 6 12 15 13
REMARK SMILES IDX 7 14 8 15 9 16 14 17 10 18 13 19 11 20 12 21 21 22 22 23
REMARK SMILES IDX 23 24 24 26 25 27 26 28 87 29 27 30 86 31 28 32 29 33 30 34
REMARK SMILES IDX 80 35 31 36 85 37 79 38 81 39 32 40 84 41 78 42 77 43 33 45
REMARK SMILES IDX 65 46 45 47 64 48 46 49 49 50 63 51 82 52 47 53 48 54 62 56
REMARK SMILES IDX 83 57 50 58 34 59 35 60 43 61 36 62 42 63 44 64 41 65 37 66
REMARK SMILES IDX 38 67 39 68 40 69 66 70 67 71 75 72 68 73 74 74 76 75 73 76
REMARK SMILES IDX 69 77 70 78 71 79 72 80 51 81 52 82 60 83 53 84 59 85 61 86
REMARK SMILES IDX 58 87 54 88 55 89 56 90 57 91
REMARK H PARENT 17 7 22 25 81 44 49 55
REMARK Flexibility Score: inf
ROOT
ATOM      1  C   UNL A   1      32.730  35.848  31.140  1.00  0.00     0.023 C 
ENDROOT
BRANCH   1   2
ATOM      2  C   UNL A   1      33.019  37.203  31.791  1.00  0.00     0.023 C 
BRANCH   2   3
ATOM      3  C   UNL A   1      34.027  37.171  32.936  1.00  0.00     0.116 C 
BRANCH   3   4
ATOM      4  N   UNL A   1      34.097  35.872  33.576  1.00  0.00    -0.356 N 
ATOM      5  O   UNL A   1      36.202  35.329  32.823  1.00  0.00    -0.275 OA
ATOM      6  C   UNL A   1      35.222  35.073  33.516  1.00  0.00     0.224 C 
ATOM      7  H   UNL A   1      33.311  35.547  34.073  1.00  0.00     0.163 HD
BRANCH   6   8
ATOM      8  C   UNL A   1      35.155  33.841  34.406  1.00  0.00     0.135 C 
BRANCH   8   9
ATOM      9  C   UNL A   1      36.323  32.882  34.285  1.00  0.00    -0.039 A 
ATOM     10  C   UNL A   1      36.332  31.798  33.400  1.00  0.00     0.005 A 
ATOM     11  C   UNL A   1      37.454  33.084  35.093  1.00  0.00     0.005 A 
ATOM     12  C   UNL A   1      37.448  30.966  33.298  1.00  0.00     0.009 A 
ATOM     13  C   UNL A   1      38.566  32.235  35.003  1.00  0.00     0.009 A 
ATOM     14  C   UNL A   1      38.583  31.169  34.095  1.00  0.00    -0.018 A 
BRANCH  14  15
ATOM     15  C   UNL A   1      39.725  30.253  33.974  1.00  0.00    -0.018 A 
ATOM     16  C   UNL A   1      39.768  29.295  32.946  1.00  0.00     0.010 A 
ATOM     17  C   UNL A   1      40.758  30.255  34.925  1.00  0.00     0.010 A 
ATOM     18  C   UNL A   1      40.790  28.343  32.888  1.00  0.00     0.021 A 
ATOM     19  C   UNL A   1      41.780  29.302  34.871  1.00  0.00     0.021 A 
ATOM     20  C   UNL A   1      41.786  28.344  33.860  1.00  0.00     0.041 A 
ATOM     21  Cl  UNL A   1      43.018  27.145  33.826  1.00  0.00    -0.084 Cl
ENDBRANCH  14  15
ENDBRANCH   8   9
ENDBRANCH   6   8
ENDBRANCH   3   4
ENDBRANCH   2   3
ENDBRANCH   1   2
BRANCH   1  22
ATOM     22  C   UNL A   1      33.588  35.506  29.924  1.00  0.00     0.116 C 
BRANCH  22  23
ATOM     23  N   UNL A   1      32.923  34.596  29.007  1.00  0.00    -0.352 N 
ATOM     24  C   UNL A   1      33.420  33.493  28.352  1.00  0.00     0.251 C 
ATOM     25  H   UNL A   1      31.977  34.799  28.826  1.00  0.00     0.163 HD
ATOM     26  O   UNL A   1      32.740  32.955  27.479  1.00  0.00    -0.269 OA
BRANCH  24  27
ATOM     27  C   UNL A   1      34.770  32.972  28.668  1.00  0.00     0.039 A 
ATOM     28  C   UNL A   1      35.875  33.511  28.002  1.00  0.00     0.014 A 
ATOM     29  C   UNL A   1      34.955  31.955  29.608  1.00  0.00     0.014 A 
ATOM     30  C   UNL A   1      37.165  33.083  28.332  1.00  0.00     0.010 A 
ATOM     31  C   UNL A   1      36.245  31.586  29.991  1.00  0.00     0.010 A 
ATOM     32  C   UNL A   1      37.366  32.149  29.360  1.00  0.00    -0.014 A 
BRANCH  32  33
ATOM     33  C   UNL A   1      38.736  31.758  29.794  1.00  0.00     0.031 A 
ATOM     34  C   UNL A   1      39.387  30.519  29.237  1.00  0.00     0.074 A 
ATOM     35  C   UNL A   1      39.375  32.488  30.731  1.00  0.00     0.049 A 
ATOM     36  N   UNL A   1      40.540  29.980  29.544  1.00  0.00    -0.248 NA
ATOM     37  C   UNL A   1      38.627  29.773  28.223  1.00  0.00     0.031 C 
ATOM     38  C   UNL A   1      38.840  33.693  31.370  1.00  0.00     0.029 A 
ATOM     39  N   UNL A   1      40.606  32.325  31.317  1.00  0.00    -0.354 N 
ATOM     40  C   UNL A   1      40.640  28.828  28.770  1.00  0.00     0.074 A 
ATOM     41  C   UNL A   1      39.401  28.717  28.028  1.00  0.00     0.031 C 
ATOM     42  C   UNL A   1      39.749  34.175  32.233  1.00  0.00     0.029 A 
ATOM     43  C   UNL A   1      40.907  33.288  32.253  1.00  0.00     0.049 A 
ATOM     44  H   UNL A   1      41.217  31.588  31.088  1.00  0.00     0.167 HD
ATOM     45  C   UNL A   1      41.675  27.956  28.673  1.00  0.00     0.034 A 
ATOM     46  C   UNL A   1      41.986  33.434  33.049  1.00  0.00     0.034 A 
ATOM     47  C   UNL A   1      42.908  28.086  29.413  1.00  0.00     0.049 A 
ATOM     48  C   UNL A   1      43.105  32.425  32.956  1.00  0.00     0.074 A 
ATOM     49  C   UNL A   1      44.039  27.292  29.346  1.00  0.00     0.029 A 
ATOM     50  N   UNL A   1      43.168  29.063  30.366  1.00  0.00    -0.354 N 
ATOM     51  N   UNL A   1      43.204  31.370  32.181  1.00  0.00    -0.248 NA
ATOM     52  C   UNL A   1      44.260  32.634  33.839  1.00  0.00     0.031 C 
ATOM     53  C   UNL A   1      44.947  27.735  30.314  1.00  0.00     0.029 A 
ATOM     54  C   UNL A   1      44.424  28.865  30.922  1.00  0.00     0.049 A 
ATOM     55  H   UNL A   1      42.552  29.790  30.612  1.00  0.00     0.167 HD
ATOM     56  C   UNL A   1      44.450  30.812  32.460  1.00  0.00     0.074 A 
ATOM     57  C   UNL A   1      45.068  31.655  33.460  1.00  0.00     0.031 C 
ATOM     58  C   UNL A   1      45.031  29.705  31.928  1.00  0.00     0.034 A 
BRANCH  45  59
ATOM     59  C   UNL A   1      41.503  26.767  27.756  1.00  0.00     0.023 A 
ATOM     60  C   UNL A   1      41.487  25.449  28.245  1.00  0.00     0.031 A 
ATOM     61  C   UNL A   1      41.368  26.952  26.368  1.00  0.00     0.131 A 
ATOM     62  C   UNL A   1      41.418  24.369  27.351  1.00  0.00     0.055 A 
ATOM     63  C   UNL A   1      41.209  25.877  25.492  1.00  0.00     0.041 A 
ATOM     64  F   UNL A   1      41.397  28.185  25.836  1.00  0.00    -0.206 F 
ATOM     65  C   UNL A   1      41.251  24.574  25.979  1.00  0.00     0.022 A 
BRANCH  62  66
ATOM     66  S   UNL A   1      41.706  22.696  27.990  1.00  0.00     0.124 S 
ATOM     67  O   UNL A   1      42.610  22.148  26.981  1.00  0.00    -0.237 OA
ATOM     68  O   UNL A   1      42.294  22.956  29.299  1.00  0.00    -0.237 OA
ATOM     69  O   UNL A   1      40.371  22.102  28.010  1.00  0.00    -0.744 OA
ENDBRANCH  62  66
ENDBRANCH  45  59
BRANCH  46  70
ATOM     70  C   UNL A   1      42.067  34.568  34.017  1.00  0.00     0.023 A 
ATOM     71  C   UNL A   1      41.499  34.469  35.297  1.00  0.00     0.031 A 
ATOM     72  C   UNL A   1      42.664  35.790  33.656  1.00  0.00     0.131 A 
ATOM     73  C   UNL A   1      41.494  35.583  36.150  1.00  0.00     0.055 A 
ATOM     74  C   UNL A   1      42.712  36.876  34.532  1.00  0.00     0.041 A 
ATOM     75  F   UNL A   1      43.223  35.942  32.444  1.00  0.00    -0.206 F 
ATOM     76  C   UNL A   1      42.110  36.781  35.782  1.00  0.00     0.022 A 
BRANCH  73  77
ATOM     77  S   UNL A   1      40.577  35.476  37.712  1.00  0.00     0.124 S 
ATOM     78  O   UNL A   1      41.631  35.727  38.689  1.00  0.00    -0.237 OA
ATOM     79  O   UNL A   1      39.584  36.531  37.553  1.00  0.00    -0.237 OA
ATOM     80  O   UNL A   1      40.047  34.114  37.702  1.00  0.00    -0.744 OA
ENDBRANCH  73  77
ENDBRANCH  46  70
BRANCH  58  81
ATOM     81  C   UNL A   1      46.433  29.375  32.387  1.00  0.00     0.023 A 
ATOM     82  C   UNL A   1      46.679  28.515  33.472  1.00  0.00     0.031 A 
ATOM     83  C   UNL A   1      47.541  29.940  31.729  1.00  0.00     0.131 A 
ATOM     84  C   UNL A   1      47.996  28.294  33.904  1.00  0.00     0.055 A 
ATOM     85  C   UNL A   1      48.851  29.661  32.120  1.00  0.00     0.041 A 
ATOM     86  F   UNL A   1      47.368  30.773  30.690  1.00  0.00    -0.206 F 
ATOM     87  C   UNL A   1      49.084  28.844  33.223  1.00  0.00     0.022 A 
BRANCH  84  88
ATOM     88  S   UNL A   1      48.265  27.358  35.435  1.00  0.00     0.124 S 
ATOM     89  O   UNL A   1      49.719  27.248  35.471  1.00  0.00    -0.237 OA
ATOM     90  O   UNL A   1      47.666  28.229  36.442  1.00  0.00    -0.237 OA
ATOM     91  O   UNL A   1      47.553  26.103  35.200  1.00  0.00    -0.744 OA
ENDBRANCH  84  88
ENDBRANCH  58  81
ENDBRANCH  32  33
ENDBRANCH  24  27
ENDBRANCH  22  23
ENDBRANCH   1  22
TORSDOF 16
ENDMDL
MODEL 3
REMARK VINA RESULT:      -8.7      4.952     10.293
REMARK SMILES O=C(Cc1ccc(-c2ccc(Cl)cc2)cc1)NCCCCNC(=O)c1ccc(-c2c3nc(c(-c4cc(S(=O)(=O)[O-])ccc4F)c4ccc([nH]4)c(-c4cc(S(=O)(=O)[O-])ccc4F)c4nc(c(-c5cc(S(=O)(=O)[O-])ccc5F)c5ccc2[nH]5)C=C4)C=C3)cc1
REMARK SMILES IDX 20 1 19 2 18 3 17 4 1 5 2 6 3 8 4 9 5 10 16 11 6 12 15 13
REMARK SMILES IDX 7 14 8 15 9 16 14 17 10 18 13 19 11 20 12 21 21 22 22 23
REMARK SMILES IDX 23 24 24 26 25 27 26 28 87 29 27 30 86 31 28 32 29 33 30 34
REMARK SMILES IDX 80 35 31 36 85 37 79 38 81 39 32 40 84 41 78 42 77 43 33 45
REMARK SMILES IDX 65 46 45 47 64 48 46 49 49 50 63 51 82 52 47 53 48 54 62 56
REMARK SMILES IDX 83 57 50 58 34 59 35 60 43 61 36 62 42 63 44 64 41 65 37 66
REMARK SMILES IDX 38 67 39 68 40 69 66 70 67 71 75 72 68 73 74 74 76 75 73 76
REMARK SMILES IDX 69 77 70 78 71 79 72 80 51 81 52 82 60 83 53 84 59 85 61 86
REMARK SMILES IDX 58 87 54 88 55 89 56 90 57 91
REMARK H PARENT 17 7 22 25 81 44 49 55
REMARK Flexibility Score: inf
ROOT
ATOM      1  C   UNL A   1      31.718  31.688  26.830  1.00  0.00     0.023 C 
ENDROOT
BRANCH   1   2
ATOM      2  C   UNL A   1      31.858  30.167  26.726  1.00  0.00     0.023 C 
BRANCH   2   3
ATOM      3  C   UNL A   1      31.735  29.599  25.315  1.00  0.00     0.116 C 
BRANCH   3   4
ATOM      4  N   UNL A   1      32.810  28.683  24.991  1.00  0.00    -0.356 N 
ATOM      5  O   UNL A   1      31.469  26.897  24.443  1.00  0.00    -0.275 OA
ATOM      6  C   UNL A   1      32.583  27.408  24.514  1.00  0.00     0.224 C 
ATOM      7  H   UNL A   1      33.740  28.983  25.115  1.00  0.00     0.163 HD
BRANCH   6   8
ATOM      8  C   UNL A   1      33.840  26.682  24.061  1.00  0.00     0.135 C 
BRANCH   8   9
ATOM      9  C   UNL A   1      33.775  25.167  24.107  1.00  0.00    -0.039 A 
ATOM     10  C   UNL A   1      33.876  24.435  25.296  1.00  0.00     0.005 A 
ATOM     11  C   UNL A   1      33.603  24.458  22.907  1.00  0.00     0.005 A 
ATOM     12  C   UNL A   1      33.771  23.044  25.290  1.00  0.00     0.009 A 
ATOM     13  C   UNL A   1      33.517  23.059  22.902  1.00  0.00     0.009 A 
ATOM     14  C   UNL A   1      33.589  22.332  24.097  1.00  0.00    -0.018 A 
BRANCH  14  15
ATOM     15  C   UNL A   1      33.510  20.865  24.134  1.00  0.00    -0.018 A 
ATOM     16  C   UNL A   1      34.537  20.108  24.725  1.00  0.00     0.010 A 
ATOM     17  C   UNL A   1      32.454  20.181  23.511  1.00  0.00     0.010 A 
ATOM     18  C   UNL A   1      34.531  18.712  24.664  1.00  0.00     0.021 A 
ATOM     19  C   UNL A   1      32.446  18.784  23.447  1.00  0.00     0.021 A 
ATOM     20  C   UNL A   1      33.490  18.056  24.014  1.00  0.00     0.041 A 
ATOM     21  Cl  UNL A   1      33.501  16.341  23.890  1.00  0.00    -0.084 Cl
ENDBRANCH  14  15
ENDBRANCH   8   9
ENDBRANCH   6   8
ENDBRANCH   3   4
ENDBRANCH   2   3
ENDBRANCH   1   2
BRANCH   1  22
ATOM     22  C   UNL A   1      32.972  32.435  27.277  1.00  0.00     0.116 C 
BRANCH  22  23
ATOM     23  N   UNL A   1      32.701  33.815  27.646  1.00  0.00    -0.352 N 
ATOM     24  C   UNL A   1      33.262  34.583  28.639  1.00  0.00     0.251 C 
ATOM     25  H   UNL A   1      32.014  34.266  27.105  1.00  0.00     0.163 HD
ATOM     26  O   UNL A   1      32.769  35.679  28.903  1.00  0.00    -0.269 OA
BRANCH  24  27
ATOM     27  C   UNL A   1      34.427  34.088  29.409  1.00  0.00     0.039 A 
ATOM     28  C   UNL A   1      34.204  33.270  30.521  1.00  0.00     0.014 A 
ATOM     29  C   UNL A   1      35.734  34.428  29.049  1.00  0.00     0.014 A 
ATOM     30  C   UNL A   1      35.290  32.736  31.222  1.00  0.00     0.010 A 
ATOM     31  C   UNL A   1      36.814  33.833  29.701  1.00  0.00     0.010 A 
ATOM     32  C   UNL A   1      36.605  32.976  30.793  1.00  0.00    -0.014 A 
BRANCH  32  33
ATOM     33  C   UNL A   1      37.768  32.334  31.466  1.00  0.00     0.031 A 
ATOM     34  C   UNL A   1      38.498  31.196  30.804  1.00  0.00     0.074 A 
ATOM     35  C   UNL A   1      38.133  32.739  32.700  1.00  0.00     0.049 A 
ATOM     36  N   UNL A   1      39.485  30.466  31.262  1.00  0.00    -0.248 NA
ATOM     37  C   UNL A   1      38.039  30.808  29.463  1.00  0.00     0.031 C 
ATOM     38  C   UNL A   1      37.488  33.811  33.461  1.00  0.00     0.029 A 
ATOM     39  N   UNL A   1      39.129  32.296  33.536  1.00  0.00    -0.354 N 
ATOM     40  C   UNL A   1      39.757  29.529  30.272  1.00  0.00     0.074 A 
ATOM     41  C   UNL A   1      38.789  29.744  29.217  1.00  0.00     0.031 C 
ATOM     42  C   UNL A   1      38.123  33.963  34.635  1.00  0.00     0.029 A 
ATOM     43  C   UNL A   1      39.183  32.966  34.738  1.00  0.00     0.049 A 
ATOM     44  H   UNL A   1      39.747  31.568  33.298  1.00  0.00     0.167 HD
ATOM     45  C   UNL A   1      40.735  28.588  30.236  1.00  0.00     0.034 A 
ATOM     46  C   UNL A   1      39.985  32.789  35.808  1.00  0.00     0.034 A 
ATOM     47  C   UNL A   1      41.699  28.392  31.292  1.00  0.00     0.049 A 
ATOM     48  C   UNL A   1      41.035  31.707  35.763  1.00  0.00     0.074 A 
ATOM     49  C   UNL A   1      42.764  27.508  31.331  1.00  0.00     0.029 A 
ATOM     50  N   UNL A   1      41.710  29.075  32.502  1.00  0.00    -0.354 N 
ATOM     51  N   UNL A   1      41.311  30.862  34.796  1.00  0.00    -0.248 NA
ATOM     52  C   UNL A   1      41.886  31.561  36.951  1.00  0.00     0.031 C 
ATOM     53  C   UNL A   1      43.365  27.597  32.592  1.00  0.00     0.029 A 
ATOM     54  C   UNL A   1      42.737  28.603  33.308  1.00  0.00     0.049 A 
ATOM     55  H   UNL A   1      41.081  29.790  32.751  1.00  0.00     0.167 HD
ATOM     56  C   UNL A   1      42.394  30.110  35.248  1.00  0.00     0.074 A 
ATOM     57  C   UNL A   1      42.726  30.612  36.564  1.00  0.00     0.031 C 
ATOM     58  C   UNL A   1      43.056  29.101  34.625  1.00  0.00     0.034 A 
BRANCH  45  59
ATOM     59  C   UNL A   1      40.788  27.681  29.028  1.00  0.00     0.023 A 
ATOM     60  C   UNL A   1      41.743  27.854  28.011  1.00  0.00     0.031 A 
ATOM     61  C   UNL A   1      39.859  26.634  28.884  1.00  0.00     0.131 A 
ATOM     62  C   UNL A   1      41.699  27.047  26.863  1.00  0.00     0.055 A 
ATOM     63  C   UNL A   1      39.878  25.778  27.781  1.00  0.00     0.041 A 
ATOM     64  F   UNL A   1      38.909  26.430  29.810  1.00  0.00    -0.206 F 
ATOM     65  C   UNL A   1      40.790  25.993  26.753  1.00  0.00     0.022 A 
BRANCH  62  66
ATOM     66  S   UNL A   1      42.744  27.497  25.450  1.00  0.00     0.124 S 
ATOM     67  O   UNL A   1      42.749  26.254  24.681  1.00  0.00    -0.237 OA
ATOM     68  O   UNL A   1      42.011  28.610  24.858  1.00  0.00    -0.237 OA
ATOM     69  O   UNL A   1      44.023  27.846  26.066  1.00  0.00    -0.744 OA
ENDBRANCH  62  66
ENDBRANCH  45  59
BRANCH  46  70
ATOM     70  C   UNL A   1      39.827  33.642  37.023  1.00  0.00     0.023 A 
ATOM     71  C   UNL A   1      39.297  33.117  38.212  1.00  0.00     0.031 A 
ATOM     72  C   UNL A   1      40.151  35.011  36.997  1.00  0.00     0.131 A 
ATOM     73  C   UNL A   1      39.058  33.961  39.307  1.00  0.00     0.055 A 
ATOM     74  C   UNL A   1      39.971  35.834  38.110  1.00  0.00     0.041 A 
ATOM     75  F   UNL A   1      40.661  35.568  35.886  1.00  0.00    -0.206 F 
ATOM     76  C   UNL A   1      39.407  35.313  39.270  1.00  0.00     0.022 A 
BRANCH  73  77
ATOM     77  S   UNL A   1      38.190  33.288  40.751  1.00  0.00     0.124 S 
ATOM     78  O   UNL A   1      36.798  33.384  40.328  1.00  0.00    -0.237 OA
ATOM     79  O   UNL A   1      38.745  31.941  40.836  1.00  0.00    -0.237 OA
ATOM     80  O   UNL A   1      38.579  34.190  41.832  1.00  0.00    -0.744 OA
ENDBRANCH  73  77
ENDBRANCH  46  70
BRANCH  58  81
ATOM     81  C   UNL A   1      44.244  28.508  35.346  1.00  0.00     0.023 A 
ATOM     82  C   UNL A   1      44.100  27.506  36.322  1.00  0.00     0.031 A 
ATOM     83  C   UNL A   1      45.544  28.962  35.056  1.00  0.00     0.131 A 
ATOM     84  C   UNL A   1      45.226  27.035  37.014  1.00  0.00     0.055 A 
ATOM     85  C   UNL A   1      46.668  28.440  35.699  1.00  0.00     0.041 A 
ATOM     86  F   UNL A   1      45.744  29.921  34.138  1.00  0.00    -0.206 F 
ATOM     87  C   UNL A   1      46.511  27.481  36.695  1.00  0.00     0.022 A 
BRANCH  84  88
ATOM     88  S   UNL A   1      44.981  25.906  38.413  1.00  0.00     0.124 S 
ATOM     89  O   UNL A   1      43.778  26.449  39.033  1.00  0.00    -0.237 OA
ATOM     90  O   UNL A   1      44.829  24.615  37.749  1.00  0.00    -0.237 OA
ATOM     91  O   UNL A   1      46.206  26.058  39.196  1.00  0.00    -0.744 OA
ENDBRANCH  84  88
ENDBRANCH  58  81
ENDBRANCH  32  33
ENDBRANCH  24  27
ENDBRANCH  22  23
ENDBRANCH   1  22
TORSDOF 16
ENDMDL
