MODEL 1
REMARK VINA RESULT:     -13.6      0.000      0.000
REMARK SMILES O=C(NCCCCNC(=O)c1ccc(-c2c3nc(c(-c4cc(S(=O)(=O)[O-])ccc4F)c4ccc([nH]4)c(-c4cc(S(=O)(=O)[O-])ccc4F)c4nc(c(-c5cc(S(=O)(=O)[O-])ccc5F)c5ccc2[nH]5)C=C4)C=C3)cc1)C1=Cc2cc(S(F)(F)(F)(F)F)cc(Br)c2O[C@@H]1C(F)(F)F
REMARK SMILES IDX 6 1 5 2 4 3 3 4 1 5 2 6 74 8 75 9 90 10 76 11 89 12 77 13
REMARK SMILES IDX 88 14 78 15 86 16 85 17 87 18 91 19 92 20 93 21 94 22 79 23
REMARK SMILES IDX 80 24 81 25 82 26 83 27 84 28 7 29 8 30 9 31 10 33 11 34
REMARK SMILES IDX 12 35 73 36 13 37 72 38 14 39 15 40 16 41 66 42 17 43 71 44
REMARK SMILES IDX 65 45 67 46 18 47 70 48 64 49 63 50 19 52 51 53 31 54 50 55
REMARK SMILES IDX 32 56 35 57 49 58 68 59 33 60 34 61 48 63 69 64 36 65 20 66
REMARK SMILES IDX 21 67 29 68 22 69 28 70 30 71 27 72 23 73 24 74 25 75 26 76
REMARK SMILES IDX 52 77 53 78 61 79 54 80 60 81 62 82 59 83 55 84 56 85 57 86
REMARK SMILES IDX 58 87 37 88 38 89 46 90 39 91 45 92 47 93 44 94 40 95 41 96
REMARK SMILES IDX 42 97 43 98
REMARK H PARENT 3 7 8 32 67 51 35 62
REMARK Flexibility Score: inf
ROOT
ATOM      1  C   UNL A   1      33.430  27.687  26.158  1.00  0.00     0.023 C 
ENDROOT
BRANCH   1   2
ATOM      2  C   UNL A   1      33.223  26.777  24.959  1.00  0.00     0.023 C 
BRANCH   2   3
ATOM      3  C   UNL A   1      33.626  25.357  25.325  1.00  0.00     0.116 C 
BRANCH   3   4
ATOM      4  N   UNL A   1      33.904  24.596  24.098  1.00  0.00    -0.352 N 
ATOM      5  O   UNL A   1      33.281  22.812  22.659  1.00  0.00    -0.270 OA
ATOM      6  C   UNL A   1      33.041  23.469  23.719  1.00  0.00     0.251 C 
ATOM      7  H   UNL A   1      34.670  24.841  23.529  1.00  0.00     0.163 HD
BRANCH   6   8
ATOM      8  C   UNL A   1      31.858  23.090  24.597  1.00  0.00     0.067 C 
ATOM      9  C   UNL A   1      31.810  21.863  25.181  1.00  0.00     0.025 C 
ATOM     10  C   UNL A   1      30.730  24.085  24.821  1.00  0.00     0.314 C 
ATOM     11  C   UNL A   1      32.938  20.869  24.956  1.00  0.00     0.020 A 
ATOM     12  O   UNL A   1      34.600  22.541  25.259  1.00  0.00    -0.474 OA
ATOM     13  C   UNL A   1      32.534  19.601  24.573  1.00  0.00     0.036 A 
ATOM     14  C   UNL A   1      34.224  21.193  25.019  1.00  0.00     0.142 A 
ATOM     15  C   UNL A   1      33.578  18.648  24.551  1.00  0.00     0.109 A 
ATOM     16  C   UNL A   1      35.195  20.235  24.854  1.00  0.00     0.062 A 
ATOM     17  C   UNL A   1      34.865  18.947  24.532  1.00  0.00     0.044 A 
ATOM     18  Br  UNL A   1      37.080  20.719  25.084  1.00  0.00    -0.047 Br
BRANCH  10  19
ATOM     19  C   UNL A   1      30.612  24.389  26.306  1.00  0.00     0.429 C 
ATOM     20  F   UNL A   1      29.643  23.645  26.834  1.00  0.00    -0.167 F 
ATOM     21  F   UNL A   1      31.764  24.109  26.908  1.00  0.00    -0.167 F 
ATOM     22  F   UNL A   1      30.325  25.676  26.474  1.00  0.00    -0.167 F 
ENDBRANCH  10  19
BRANCH  15  23
ATOM     23  S   UNL A   1      33.121  16.897  24.552  1.00  0.00     0.310 S 
ATOM     24  F   UNL A   1      34.610  16.461  24.221  1.00  0.00    -0.094 F 
ATOM     25  F   UNL A   1      32.872  16.977  22.998  1.00  0.00    -0.094 F 
ATOM     26  F   UNL A   1      32.746  15.388  24.562  1.00  0.00    -0.094 F 
ATOM     27  F   UNL A   1      33.509  16.803  26.080  1.00  0.00    -0.094 F 
ATOM     28  F   UNL A   1      33.612  18.400  24.535  1.00  0.00    -0.094 F 
ENDBRANCH  15  23
ENDBRANCH   6   8
ENDBRANCH   3   4
ENDBRANCH   2   3
ENDBRANCH   1   2
BRANCH   1  29
ATOM     29  C   UNL A   1      34.277  28.881  25.748  1.00  0.00     0.116 C 
BRANCH  29  30
ATOM     30  N   UNL A   1      33.722  30.104  26.346  1.00  0.00    -0.352 N 
ATOM     31  C   UNL A   1      34.466  30.811  27.398  1.00  0.00     0.251 C 
ATOM     32  H   UNL A   1      32.852  30.449  26.043  1.00  0.00     0.163 HD
ATOM     33  O   UNL A   1      33.986  31.868  27.915  1.00  0.00    -0.269 OA
BRANCH  31  34
ATOM     34  C   UNL A   1      35.811  30.278  27.867  1.00  0.00     0.039 A 
ATOM     35  C   UNL A   1      37.010  30.589  27.246  1.00  0.00     0.014 A 
ATOM     36  C   UNL A   1      35.779  29.569  28.988  1.00  0.00     0.014 A 
ATOM     37  C   UNL A   1      38.115  29.853  27.735  1.00  0.00     0.010 A 
ATOM     38  C   UNL A   1      36.924  28.991  29.483  1.00  0.00     0.010 A 
ATOM     39  C   UNL A   1      38.134  29.206  28.887  1.00  0.00    -0.014 A 
BRANCH  39  40
ATOM     40  C   UNL A   1      39.433  28.727  29.515  1.00  0.00     0.031 A 
ATOM     41  C   UNL A   1      40.021  27.633  28.879  1.00  0.00     0.074 A 
ATOM     42  C   UNL A   1      39.920  29.301  30.677  1.00  0.00     0.049 A 
ATOM     43  N   UNL A   1      41.132  26.985  29.236  1.00  0.00    -0.248 NA
ATOM     44  C   UNL A   1      39.488  27.001  27.664  1.00  0.00     0.031 C 
ATOM     45  C   UNL A   1      39.337  30.410  31.321  1.00  0.00     0.029 A 
ATOM     46  N   UNL A   1      41.022  28.920  31.410  1.00  0.00    -0.354 N 
ATOM     47  C   UNL A   1      41.390  26.003  28.370  1.00  0.00     0.074 A 
ATOM     48  C   UNL A   1      40.334  25.995  27.350  1.00  0.00     0.031 C 
ATOM     49  C   UNL A   1      40.069  30.688  32.430  1.00  0.00     0.029 A 
ATOM     50  C   UNL A   1      41.124  29.757  32.499  1.00  0.00     0.049 A 
ATOM     51  H   UNL A   1      41.632  28.180  31.193  1.00  0.00     0.167 HD
ATOM     52  C   UNL A   1      42.467  25.116  28.390  1.00  0.00     0.034 A 
ATOM     53  C   UNL A   1      42.073  29.725  33.509  1.00  0.00     0.034 A 
ATOM     54  C   UNL A   1      43.442  25.111  29.375  1.00  0.00     0.049 A 
ATOM     55  C   UNL A   1      43.118  28.799  33.561  1.00  0.00     0.074 A 
ATOM     56  C   UNL A   1      44.538  24.229  29.406  1.00  0.00     0.029 A 
ATOM     57  N   UNL A   1      43.530  25.932  30.479  1.00  0.00    -0.354 N 
ATOM     58  N   UNL A   1      43.399  27.844  32.674  1.00  0.00    -0.248 NA
ATOM     59  C   UNL A   1      44.111  28.736  34.641  1.00  0.00     0.031 C 
ATOM     60  C   UNL A   1      45.272  24.505  30.517  1.00  0.00     0.029 A 
ATOM     61  C   UNL A   1      44.645  25.567  31.199  1.00  0.00     0.049 A 
ATOM     62  H   UNL A   1      42.903  26.654  30.711  1.00  0.00     0.167 HD
ATOM     63  C   UNL A   1      44.486  27.170  33.053  1.00  0.00     0.074 A 
ATOM     64  C   UNL A   1      44.956  27.729  34.329  1.00  0.00     0.031 C 
ATOM     65  C   UNL A   1      45.108  26.113  32.386  1.00  0.00     0.034 A 
BRANCH  52  66
ATOM     66  C   UNL A   1      42.578  24.097  27.268  1.00  0.00     0.023 A 
ATOM     67  C   UNL A   1      41.872  22.904  27.279  1.00  0.00     0.031 A 
ATOM     68  C   UNL A   1      43.279  24.472  26.204  1.00  0.00     0.131 A 
ATOM     69  C   UNL A   1      42.203  22.032  26.215  1.00  0.00     0.055 A 
ATOM     70  C   UNL A   1      43.449  23.618  25.140  1.00  0.00     0.041 A 
ATOM     71  F   UNL A   1      43.821  25.686  26.166  1.00  0.00    -0.206 F 
ATOM     72  C   UNL A   1      42.828  22.400  25.111  1.00  0.00     0.022 A 
BRANCH  69  73
ATOM     73  S   UNL A   1      41.737  20.291  26.379  1.00  0.00     0.124 S 
ATOM     74  O   UNL A   1      42.156  19.779  27.759  1.00  0.00    -0.237 OA
ATOM     75  O   UNL A   1      40.222  20.150  26.221  1.00  0.00    -0.237 OA
ATOM     76  O   UNL A   1      42.524  19.375  25.168  1.00  0.00    -0.744 OA
ENDBRANCH  69  73
ENDBRANCH  52  66
BRANCH  53  77
ATOM     77  C   UNL A   1      41.972  30.756  34.622  1.00  0.00     0.023 A 
ATOM     78  C   UNL A   1      40.929  30.683  35.529  1.00  0.00     0.031 A 
ATOM     79  C   UNL A   1      42.800  31.793  34.605  1.00  0.00     0.131 A 
ATOM     80  C   UNL A   1      40.663  31.903  36.196  1.00  0.00     0.055 A 
ATOM     81  C   UNL A   1      42.554  32.896  35.385  1.00  0.00     0.041 A 
ATOM     82  F   UNL A   1      43.878  31.763  33.827  1.00  0.00    -0.206 F 
ATOM     83  C   UNL A   1      41.504  32.919  36.262  1.00  0.00     0.022 A 
BRANCH  80  84
ATOM     84  S   UNL A   1      39.060  32.083  37.016  1.00  0.00     0.124 S 
ATOM     85  O   UNL A   1      39.277  32.412  38.495  1.00  0.00    -0.237 OA
ATOM     86  O   UNL A   1      38.272  33.215  36.352  1.00  0.00    -0.237 OA
ATOM     87  O   UNL A   1      38.181  30.621  36.880  1.00  0.00    -0.744 OA
ENDBRANCH  80  84
ENDBRANCH  53  77
BRANCH  65  88
ATOM     88  C   UNL A   1      46.369  25.524  32.998  1.00  0.00     0.023 A 
ATOM     89  C   UNL A   1      47.632  25.992  32.676  1.00  0.00     0.031 A 
ATOM     90  C   UNL A   1      46.198  24.585  33.920  1.00  0.00     0.131 A 
ATOM     91  C   UNL A   1      48.685  25.194  33.180  1.00  0.00     0.055 A 
ATOM     92  C   UNL A   1      47.278  23.940  34.471  1.00  0.00     0.041 A 
ATOM     93  F   UNL A   1      44.968  24.264  34.313  1.00  0.00    -0.206 F 
ATOM     94  C   UNL A   1      48.556  24.311  34.154  1.00  0.00     0.022 A 
BRANCH  91  95
ATOM     95  S   UNL A   1      50.326  25.398  32.443  1.00  0.00     0.124 S 
ATOM     96  O   UNL A   1      51.355  25.640  33.550  1.00  0.00    -0.237 OA
ATOM     97  O   UNL A   1      50.698  24.132  31.667  1.00  0.00    -0.237 OA
ATOM     98  O   UNL A   1      50.310  26.736  31.378  1.00  0.00    -0.744 OA
ENDBRANCH  91  95
ENDBRANCH  65  88
ENDBRANCH  39  40
ENDBRANCH  31  34
ENDBRANCH  29  30
ENDBRANCH   1  29
TORSDOF 16
ENDMDL
MODEL 2
REMARK VINA RESULT:     -13.3      1.682      2.172
REMARK SMILES O=C(NCCCCNC(=O)c1ccc(-c2c3nc(c(-c4cc(S(=O)(=O)[O-])ccc4F)c4ccc([nH]4)c(-c4cc(S(=O)(=O)[O-])ccc4F)c4nc(c(-c5cc(S(=O)(=O)[O-])ccc5F)c5ccc2[nH]5)C=C4)C=C3)cc1)C1=Cc2cc(S(F)(F)(F)(F)F)cc(Br)c2O[C@@H]1C(F)(F)F
REMARK SMILES IDX 6 1 5 2 4 3 3 4 1 5 2 6 74 8 75 9 90 10 76 11 89 12 77 13
REMARK SMILES IDX 88 14 78 15 86 16 85 17 87 18 91 19 92 20 93 21 94 22 79 23
REMARK SMILES IDX 80 24 81 25 82 26 83 27 84 28 7 29 8 30 9 31 10 33 11 34
REMARK SMILES IDX 12 35 73 36 13 37 72 38 14 39 15 40 16 41 66 42 17 43 71 44
REMARK SMILES IDX 65 45 67 46 18 47 70 48 64 49 63 50 19 52 51 53 31 54 50 55
REMARK SMILES IDX 32 56 35 57 49 58 68 59 33 60 34 61 48 63 69 64 36 65 20 66
REMARK SMILES IDX 21 67 29 68 22 69 28 70 30 71 27 72 23 73 24 74 25 75 26 76
REMARK SMILES IDX 52 77 53 78 61 79 54 80 60 81 62 82 59 83 55 84 56 85 57 86
REMARK SMILES IDX 58 87 37 88 38 89 46 90 39 91 45 92 47 93 44 94 40 95 41 96
REMARK SMILES IDX 42 97 43 98
REMARK H PARENT 3 7 8 32 67 51 35 62
REMARK Flexibility Score: inf
ROOT
ATOM      1  C   UNL A   1      32.962  28.040  26.069  1.00  0.00     0.023 C 
ENDROOT
BRANCH   1   2
ATOM      2  C   UNL A   1      33.087  27.147  24.846  1.00  0.00     0.023 C 
BRANCH   2   3
ATOM      3  C   UNL A   1      33.553  25.764  25.272  1.00  0.00     0.116 C 
BRANCH   3   4
ATOM      4  N   UNL A   1      33.901  24.977  24.081  1.00  0.00    -0.352 N 
ATOM      5  O   UNL A   1      33.400  23.118  22.688  1.00  0.00    -0.270 OA
ATOM      6  C   UNL A   1      33.099  23.799  23.717  1.00  0.00     0.251 C 
ATOM      7  H   UNL A   1      34.671  25.237  23.525  1.00  0.00     0.163 HD
BRANCH   6   8
ATOM      8  C   UNL A   1      31.910  23.396  24.575  1.00  0.00     0.067 C 
ATOM      9  C   UNL A   1      31.884  22.175  25.172  1.00  0.00     0.025 C 
ATOM     10  C   UNL A   1      30.750  24.361  24.764  1.00  0.00     0.314 C 
ATOM     11  C   UNL A   1      33.044  21.211  24.983  1.00  0.00     0.020 A 
ATOM     12  O   UNL A   1      34.651  22.933  25.301  1.00  0.00    -0.474 OA
ATOM     13  C   UNL A   1      32.684  19.928  24.606  1.00  0.00     0.036 A 
ATOM     14  C   UNL A   1      34.319  21.572  25.069  1.00  0.00     0.142 A 
ATOM     15  C   UNL A   1      33.756  19.004  24.618  1.00  0.00     0.109 A 
ATOM     16  C   UNL A   1      35.320  20.640  24.936  1.00  0.00     0.062 A 
ATOM     17  C   UNL A   1      35.034  19.340  24.621  1.00  0.00     0.044 A 
ATOM     18  Br  UNL A   1      37.185  21.181  25.198  1.00  0.00    -0.047 Br
BRANCH  10  19
ATOM     19  C   UNL A   1      30.591  24.678  26.243  1.00  0.00     0.429 C 
ATOM     20  F   UNL A   1      30.293  25.966  26.390  1.00  0.00    -0.167 F 
ATOM     21  F   UNL A   1      29.613  23.935  26.752  1.00  0.00    -0.167 F 
ATOM     22  F   UNL A   1      31.728  24.410  26.878  1.00  0.00    -0.167 F 
ENDBRANCH  10  19
BRANCH  15  23
ATOM     23  S   UNL A   1      33.348  17.242  24.629  1.00  0.00     0.310 S 
ATOM     24  F   UNL A   1      31.843  17.540  24.231  1.00  0.00    -0.094 F 
ATOM     25  F   UNL A   1      32.903  17.369  26.136  1.00  0.00    -0.094 F 
ATOM     26  F   UNL A   1      32.987  15.729  24.622  1.00  0.00    -0.094 F 
ATOM     27  F   UNL A   1      33.666  17.165  23.084  1.00  0.00    -0.094 F 
ATOM     28  F   UNL A   1      33.613  18.800  24.592  1.00  0.00    -0.094 F 
ENDBRANCH  15  23
ENDBRANCH   6   8
ENDBRANCH   3   4
ENDBRANCH   2   3
ENDBRANCH   1   2
BRANCH   1  29
ATOM     29  C   UNL A   1      33.853  29.260  25.899  1.00  0.00     0.116 C 
BRANCH  29  30
ATOM     30  N   UNL A   1      33.135  30.458  26.358  1.00  0.00    -0.352 N 
ATOM     31  C   UNL A   1      33.746  31.342  27.361  1.00  0.00     0.251 C 
ATOM     32  H   UNL A   1      32.245  30.668  25.993  1.00  0.00     0.163 HD
ATOM     33  O   UNL A   1      33.125  32.378  27.757  1.00  0.00    -0.269 OA
BRANCH  31  34
ATOM     34  C   UNL A   1      35.120  31.018  27.923  1.00  0.00     0.039 A 
ATOM     35  C   UNL A   1      36.159  31.933  27.969  1.00  0.00     0.014 A 
ATOM     36  C   UNL A   1      35.237  29.815  28.472  1.00  0.00     0.014 A 
ATOM     37  C   UNL A   1      37.396  31.377  28.370  1.00  0.00     0.010 A 
ATOM     38  C   UNL A   1      36.447  29.387  28.968  1.00  0.00     0.010 A 
ATOM     39  C   UNL A   1      37.531  30.218  28.991  1.00  0.00    -0.014 A 
BRANCH  39  40
ATOM     40  C   UNL A   1      38.822  29.831  29.694  1.00  0.00     0.031 A 
ATOM     41  C   UNL A   1      39.566  28.844  29.047  1.00  0.00     0.074 A 
ATOM     42  C   UNL A   1      39.159  30.375  30.922  1.00  0.00     0.049 A 
ATOM     43  N   UNL A   1      40.709  28.288  29.454  1.00  0.00    -0.248 NA
ATOM     44  C   UNL A   1      39.193  28.242  27.759  1.00  0.00     0.031 C 
ATOM     45  C   UNL A   1      38.418  31.377  31.578  1.00  0.00     0.029 A 
ATOM     46  N   UNL A   1      40.237  30.059  31.718  1.00  0.00    -0.354 N 
ATOM     47  C   UNL A   1      41.131  27.394  28.558  1.00  0.00     0.074 A 
ATOM     48  C   UNL A   1      40.160  27.347  27.457  1.00  0.00     0.031 C 
ATOM     49  C   UNL A   1      39.033  31.655  32.757  1.00  0.00     0.029 A 
ATOM     50  C   UNL A   1      40.171  30.831  32.857  1.00  0.00     0.049 A 
ATOM     51  H   UNL A   1      40.936  29.398  31.509  1.00  0.00     0.167 HD
ATOM     52  C   UNL A   1      42.290  26.618  28.615  1.00  0.00     0.034 A 
ATOM     53  C   UNL A   1      41.040  30.828  33.937  1.00  0.00     0.034 A 
ATOM     54  C   UNL A   1      43.184  26.647  29.673  1.00  0.00     0.049 A 
ATOM     55  C   UNL A   1      42.169  30.009  34.020  1.00  0.00     0.074 A 
ATOM     56  C   UNL A   1      44.361  25.878  29.743  1.00  0.00     0.029 A 
ATOM     57  N   UNL A   1      43.104  27.401  30.825  1.00  0.00    -0.354 N 
ATOM     58  N   UNL A   1      42.613  29.145  33.106  1.00  0.00    -0.248 NA
ATOM     59  C   UNL A   1      43.081  29.975  35.171  1.00  0.00     0.031 C 
ATOM     60  C   UNL A   1      44.977  26.154  30.923  1.00  0.00     0.029 A 
ATOM     61  C   UNL A   1      44.194  27.102  31.610  1.00  0.00     0.049 A 
ATOM     62  H   UNL A   1      42.390  28.041  31.046  1.00  0.00     0.167 HD
ATOM     63  C   UNL A   1      43.733  28.559  33.533  1.00  0.00     0.074 A 
ATOM     64  C   UNL A   1      44.046  29.079  34.872  1.00  0.00     0.031 C 
ATOM     65  C   UNL A   1      44.509  27.614  32.860  1.00  0.00     0.034 A 
BRANCH  52  66
ATOM     66  C   UNL A   1      42.589  25.690  27.449  1.00  0.00     0.023 A 
ATOM     67  C   UNL A   1      41.997  24.443  27.326  1.00  0.00     0.031 A 
ATOM     68  C   UNL A   1      43.341  26.193  26.478  1.00  0.00     0.131 A 
ATOM     69  C   UNL A   1      42.495  23.675  26.248  1.00  0.00     0.055 A 
ATOM     70  C   UNL A   1      43.679  25.430  25.386  1.00  0.00     0.041 A 
ATOM     71  F   UNL A   1      43.771  27.449  26.561  1.00  0.00    -0.206 F 
ATOM     72  C   UNL A   1      43.176  24.168  25.229  1.00  0.00     0.022 A 
BRANCH  69  73
ATOM     73  S   UNL A   1      42.179  21.893  26.266  1.00  0.00     0.124 S 
ATOM     74  O   UNL A   1      40.729  21.628  25.855  1.00  0.00    -0.237 OA
ATOM     75  O   UNL A   1      43.123  21.197  25.284  1.00  0.00    -0.237 OA
ATOM     76  O   UNL A   1      42.445  21.284  27.842  1.00  0.00    -0.744 OA
ENDBRANCH  69  73
ENDBRANCH  52  66
BRANCH  53  77
ATOM     77  C   UNL A   1      40.751  31.770  35.095  1.00  0.00     0.023 A 
ATOM     78  C   UNL A   1      39.904  31.363  36.112  1.00  0.00     0.031 A 
ATOM     79  C   UNL A   1      41.193  33.019  35.024  1.00  0.00     0.131 A 
ATOM     80  C   UNL A   1      39.345  32.431  36.853  1.00  0.00     0.055 A 
ATOM     81  C   UNL A   1      40.703  33.983  35.871  1.00  0.00     0.041 A 
ATOM     82  F   UNL A   1      42.121  33.340  34.126  1.00  0.00    -0.206 F 
ATOM     83  C   UNL A   1      39.817  33.664  36.863  1.00  0.00     0.022 A 
BRANCH  80  84
ATOM     84  S   UNL A   1      37.881  32.083  37.858  1.00  0.00     0.124 S 
ATOM     85  O   UNL A   1      37.430  30.640  37.621  1.00  0.00    -0.237 OA
ATOM     86  O   UNL A   1      38.221  32.275  39.339  1.00  0.00    -0.237 OA
ATOM     87  O   UNL A   1      36.620  33.153  37.421  1.00  0.00    -0.744 OA
ENDBRANCH  80  84
ENDBRANCH  53  77
BRANCH  65  88
ATOM     88  C   UNL A   1      45.775  27.116  33.537  1.00  0.00     0.023 A 
ATOM     89  C   UNL A   1      45.798  25.958  34.297  1.00  0.00     0.031 A 
ATOM     90  C   UNL A   1      46.884  27.806  33.303  1.00  0.00     0.131 A 
ATOM     91  C   UNL A   1      47.002  25.765  35.013  1.00  0.00     0.055 A 
ATOM     92  C   UNL A   1      48.060  27.478  33.933  1.00  0.00     0.041 A 
ATOM     93  F   UNL A   1      46.858  28.826  32.449  1.00  0.00    -0.206 F 
ATOM     94  C   UNL A   1      48.140  26.380  34.745  1.00  0.00     0.022 A 
BRANCH  91  95
ATOM     95  S   UNL A   1      46.985  24.591  36.391  1.00  0.00     0.124 S 
ATOM     96  O   UNL A   1      47.324  25.326  37.690  1.00  0.00    -0.237 OA
ATOM     97  O   UNL A   1      45.594  23.962  36.509  1.00  0.00    -0.237 OA
ATOM     98  O   UNL A   1      48.143  23.366  36.111  1.00  0.00    -0.744 OA
ENDBRANCH  91  95
ENDBRANCH  65  88
ENDBRANCH  39  40
ENDBRANCH  31  34
ENDBRANCH  29  30
ENDBRANCH   1  29
TORSDOF 16
ENDMDL
MODEL 3
REMARK VINA RESULT:     -13.2      4.857     10.029
REMARK SMILES O=C(NCCCCNC(=O)c1ccc(-c2c3nc(c(-c4cc(S(=O)(=O)[O-])ccc4F)c4ccc([nH]4)c(-c4cc(S(=O)(=O)[O-])ccc4F)c4nc(c(-c5cc(S(=O)(=O)[O-])ccc5F)c5ccc2[nH]5)C=C4)C=C3)cc1)C1=Cc2cc(S(F)(F)(F)(F)F)cc(Br)c2O[C@@H]1C(F)(F)F
REMARK SMILES IDX 6 1 5 2 4 3 3 4 1 5 2 6 74 8 75 9 90 10 76 11 89 12 77 13
REMARK SMILES IDX 88 14 78 15 86 16 85 17 87 18 91 19 92 20 93 21 94 22 79 23
REMARK SMILES IDX 80 24 81 25 82 26 83 27 84 28 7 29 8 30 9 31 10 33 11 34
REMARK SMILES IDX 12 35 73 36 13 37 72 38 14 39 15 40 16 41 66 42 17 43 71 44
REMARK SMILES IDX 65 45 67 46 18 47 70 48 64 49 63 50 19 52 51 53 31 54 50 55
REMARK SMILES IDX 32 56 35 57 49 58 68 59 33 60 34 61 48 63 69 64 36 65 20 66
REMARK SMILES IDX 21 67 29 68 22 69 28 70 30 71 27 72 23 73 24 74 25 75 26 76
REMARK SMILES IDX 52 77 53 78 61 79 54 80 60 81 62 82 59 83 55 84 56 85 57 86
REMARK SMILES IDX 58 87 37 88 38 89 46 90 39 91 45 92 47 93 44 94 40 95 41 96
REMARK SMILES IDX 42 97 43 98
REMARK H PARENT 3 7 8 32 67 51 35 62
REMARK Flexibility Score: inf
ROOT
ATOM      1  C   UNL A   1      35.305  22.810  25.861  1.00  0.00     0.023 C 
ENDROOT
BRANCH   1   2
ATOM      2  C   UNL A   1      34.318  23.493  26.793  1.00  0.00     0.023 C 
BRANCH   2   3
ATOM      3  C   UNL A   1      32.924  22.938  26.551  1.00  0.00     0.116 C 
BRANCH   3   4
ATOM      4  N   UNL A   1      31.923  23.918  26.998  1.00  0.00    -0.352 N 
ATOM      5  O   UNL A   1      30.100  25.328  26.424  1.00  0.00    -0.270 OA
ATOM      6  C   UNL A   1      30.964  24.482  26.038  1.00  0.00     0.251 C 
ATOM      7  H   UNL A   1      31.895  24.197  27.942  1.00  0.00     0.163 HD
BRANCH   6   8
ATOM      8  C   UNL A   1      31.008  24.051  24.580  1.00  0.00     0.067 C 
ATOM      9  C   UNL A   1      30.988  24.986  23.593  1.00  0.00     0.025 C 
ATOM     10  C   UNL A   1      31.074  22.573  24.227  1.00  0.00     0.314 C 
ATOM     11  C   UNL A   1      30.922  26.463  23.946  1.00  0.00     0.020 A 
ATOM     12  O   UNL A   1      32.545  26.222  25.666  1.00  0.00    -0.474 OA
ATOM     13  C   UNL A   1      29.946  27.182  23.278  1.00  0.00     0.036 A 
ATOM     14  C   UNL A   1      31.667  27.025  24.892  1.00  0.00     0.142 A 
ATOM     15  C   UNL A   1      30.024  28.580  23.479  1.00  0.00     0.109 A 
ATOM     16  C   UNL A   1      31.594  28.376  25.128  1.00  0.00     0.062 A 
ATOM     17  C   UNL A   1      30.691  29.159  24.461  1.00  0.00     0.044 A 
ATOM     18  Br  UNL A   1      32.798  29.195  26.439  1.00  0.00    -0.047 Br
BRANCH  10  19
ATOM     19  C   UNL A   1      32.342  22.298  23.435  1.00  0.00     0.429 C 
ATOM     20  F   UNL A   1      32.029  22.074  22.162  1.00  0.00    -0.167 F 
ATOM     21  F   UNL A   1      33.150  23.351  23.514  1.00  0.00    -0.167 F 
ATOM     22  F   UNL A   1      32.956  21.230  23.936  1.00  0.00    -0.167 F 
ENDBRANCH  10  19
BRANCH  15  23
ATOM     23  S   UNL A   1      29.149  29.649  22.311  1.00  0.00     0.310 S 
ATOM     24  F   UNL A   1      29.412  30.927  23.212  1.00  0.00    -0.094 F 
ATOM     25  F   UNL A   1      27.820  29.430  23.128  1.00  0.00    -0.094 F 
ATOM     26  F   UNL A   1      28.412  30.583  21.309  1.00  0.00    -0.094 F 
ATOM     27  F   UNL A   1      30.517  29.968  21.589  1.00  0.00    -0.094 F 
ATOM     28  F   UNL A   1      29.933  28.794  23.385  1.00  0.00    -0.094 F 
ENDBRANCH  15  23
ENDBRANCH   6   8
ENDBRANCH   3   4
ENDBRANCH   2   3
ENDBRANCH   1   2
BRANCH   1  29
ATOM     29  C   UNL A   1      36.693  23.394  26.076  1.00  0.00     0.116 C 
BRANCH  29  30
ATOM     30  N   UNL A   1      37.698  22.331  25.935  1.00  0.00    -0.352 N 
ATOM     31  C   UNL A   1      39.085  22.570  26.361  1.00  0.00     0.251 C 
ATOM     32  H   UNL A   1      37.443  21.459  25.556  1.00  0.00     0.163 HD
ATOM     33  O   UNL A   1      39.954  21.650  26.239  1.00  0.00    -0.269 OA
BRANCH  31  34
ATOM     34  C   UNL A   1      39.479  23.916  26.947  1.00  0.00     0.039 A 
ATOM     35  C   UNL A   1      39.464  24.187  28.305  1.00  0.00     0.014 A 
ATOM     36  C   UNL A   1      39.945  24.799  26.072  1.00  0.00     0.014 A 
ATOM     37  C   UNL A   1      39.700  25.546  28.620  1.00  0.00     0.010 A 
ATOM     38  C   UNL A   1      40.284  26.069  26.474  1.00  0.00     0.010 A 
ATOM     39  C   UNL A   1      40.238  26.425  27.793  1.00  0.00    -0.014 A 
BRANCH  39  40
ATOM     40  C   UNL A   1      40.776  27.760  28.282  1.00  0.00     0.031 A 
ATOM     41  C   UNL A   1      39.801  28.665  28.701  1.00  0.00     0.074 A 
ATOM     42  C   UNL A   1      42.129  28.051  28.222  1.00  0.00     0.049 A 
ATOM     43  N   UNL A   1      39.983  29.914  29.136  1.00  0.00    -0.248 NA
ATOM     44  C   UNL A   1      38.362  28.370  28.735  1.00  0.00     0.031 C 
ATOM     45  C   UNL A   1      43.120  27.140  27.807  1.00  0.00     0.029 A 
ATOM     46  N   UNL A   1      42.752  29.238  28.537  1.00  0.00    -0.354 N 
ATOM     47  C   UNL A   1      38.812  30.462  29.465  1.00  0.00     0.074 A 
ATOM     48  C   UNL A   1      37.751  29.479  29.207  1.00  0.00     0.031 C 
ATOM     49  C   UNL A   1      44.322  27.771  27.862  1.00  0.00     0.029 A 
ATOM     50  C   UNL A   1      44.102  29.087  28.312  1.00  0.00     0.049 A 
ATOM     51  H   UNL A   1      42.310  30.052  28.868  1.00  0.00     0.167 HD
ATOM     52  C   UNL A   1      38.587  31.742  29.974  1.00  0.00     0.034 A 
ATOM     53  C   UNL A   1      45.102  30.032  28.480  1.00  0.00     0.034 A 
ATOM     54  C   UNL A   1      39.591  32.673  30.184  1.00  0.00     0.049 A 
ATOM     55  C   UNL A   1      44.870  31.333  28.933  1.00  0.00     0.074 A 
ATOM     56  C   UNL A   1      39.383  33.965  30.703  1.00  0.00     0.029 A 
ATOM     57  N   UNL A   1      40.939  32.531  29.935  1.00  0.00    -0.354 N 
ATOM     58  N   UNL A   1      43.704  31.867  29.301  1.00  0.00    -0.248 NA
ATOM     59  C   UNL A   1      45.916  32.353  29.086  1.00  0.00     0.031 C 
ATOM     60  C   UNL A   1      40.586  34.597  30.757  1.00  0.00     0.029 A 
ATOM     61  C   UNL A   1      41.566  33.709  30.272  1.00  0.00     0.049 A 
ATOM     62  H   UNL A   1      41.377  31.726  29.577  1.00  0.00     0.167 HD
ATOM     63  C   UNL A   1      43.882  33.130  29.696  1.00  0.00     0.074 A 
ATOM     64  C   UNL A   1      45.307  33.463  29.556  1.00  0.00     0.031 C 
ATOM     65  C   UNL A   1      42.914  34.016  30.171  1.00  0.00     0.034 A 
BRANCH  52  66
ATOM     66  C   UNL A   1      37.160  32.137  30.317  1.00  0.00     0.023 A 
ATOM     67  C   UNL A   1      36.266  32.588  29.359  1.00  0.00     0.031 A 
ATOM     68  C   UNL A   1      36.768  31.892  31.562  1.00  0.00     0.131 A 
ATOM     69  C   UNL A   1      35.031  33.028  29.889  1.00  0.00     0.055 A 
ATOM     70  C   UNL A   1      35.500  32.223  31.976  1.00  0.00     0.041 A 
ATOM     71  F   UNL A   1      37.611  31.319  32.417  1.00  0.00    -0.206 F 
ATOM     72  C   UNL A   1      34.584  32.729  31.096  1.00  0.00     0.022 A 
BRANCH  69  73
ATOM     73  S   UNL A   1      33.989  34.073  28.841  1.00  0.00     0.124 S 
ATOM     74  O   UNL A   1      34.851  35.151  28.179  1.00  0.00    -0.237 OA
ATOM     75  O   UNL A   1      33.328  33.215  27.761  1.00  0.00    -0.237 OA
ATOM     76  O   UNL A   1      32.782  34.815  29.798  1.00  0.00    -0.744 OA
ENDBRANCH  69  73
ENDBRANCH  52  66
BRANCH  53  77
ATOM     77  C   UNL A   1      46.532  29.631  28.153  1.00  0.00     0.023 A 
ATOM     78  C   UNL A   1      46.899  29.422  26.834  1.00  0.00     0.031 A 
ATOM     79  C   UNL A   1      47.355  29.339  29.152  1.00  0.00     0.131 A 
ATOM     80  C   UNL A   1      48.058  28.624  26.682  1.00  0.00     0.055 A 
ATOM     81  C   UNL A   1      48.535  28.678  28.916  1.00  0.00     0.041 A 
ATOM     82  F   UNL A   1      47.034  29.690  30.395  1.00  0.00    -0.206 F 
ATOM     83  C   UNL A   1      48.934  28.385  27.640  1.00  0.00     0.022 A 
BRANCH  80  84
ATOM     84  S   UNL A   1      48.359  27.877  25.061  1.00  0.00     0.124 S 
ATOM     85  O   UNL A   1      49.766  28.245  24.584  1.00  0.00    -0.237 OA
ATOM     86  O   UNL A   1      48.239  26.355  25.170  1.00  0.00    -0.237 OA
ATOM     87  O   UNL A   1      47.206  28.460  23.941  1.00  0.00    -0.744 OA
ENDBRANCH  80  84
ENDBRANCH  53  77
BRANCH  65  88
ATOM     88  C   UNL A   1      43.365  35.402  30.602  1.00  0.00     0.023 A 
ATOM     89  C   UNL A   1      43.739  35.684  31.906  1.00  0.00     0.031 A 
ATOM     90  C   UNL A   1      43.456  36.320  29.647  1.00  0.00     0.131 A 
ATOM     91  C   UNL A   1      43.928  37.061  32.163  1.00  0.00     0.055 A 
ATOM     92  C   UNL A   1      43.779  37.620  29.953  1.00  0.00     0.041 A 
ATOM     93  F   UNL A   1      43.232  35.978  28.381  1.00  0.00    -0.206 F 
ATOM     94  C   UNL A   1      44.103  37.981  31.232  1.00  0.00     0.022 A 
BRANCH  91  95
ATOM     95  S   UNL A   1      43.932  37.603  33.891  1.00  0.00     0.124 S 
ATOM     96  O   UNL A   1      45.203  38.410  34.168  1.00  0.00    -0.237 OA
ATOM     97  O   UNL A   1      42.704  38.478  34.155  1.00  0.00    -0.237 OA
ATOM     98  O   UNL A   1      43.890  36.236  34.917  1.00  0.00    -0.744 OA
ENDBRANCH  91  95
ENDBRANCH  65  88
ENDBRANCH  39  40
ENDBRANCH  31  34
ENDBRANCH  29  30
ENDBRANCH   1  29
TORSDOF 16
ENDMDL
