MODEL 1
REMARK VINA RESULT:     -11.7      0.000      0.000
REMARK SMILES [NH3+][C@@H](Cc1c[nH]c2ccccc12)C(=O)NCCC(=O)NCCCCNC(=O)c1ccc(-c2c3nc(c(-c4cc(S(=O)(=O)[O-])ccc4F)c4ccc([nH]4)c(-c4cc(S(=O)(=O)[O-])ccc4F)c4nc(c(-c5cc(S(=O)(=O)[O-])ccc5F)c5ccc2[nH]5)C=C4)C=C3)cc1
REMARK SMILES IDX 21 1 20 2 18 3 19 4 17 6 16 7 15 8 13 9 14 10 2 12 1 13 3 17
REMARK SMILES IDX 4 18 5 19 12 20 6 21 7 22 11 23 8 25 10 26 9 27 22 28 23 29
REMARK SMILES IDX 24 30 25 31 26 32 27 34 28 35 29 36 90 37 30 38 89 39 31 40
REMARK SMILES IDX 32 41 33 42 83 43 34 44 88 45 82 46 84 47 35 48 87 49 81 50
REMARK SMILES IDX 80 51 36 53 68 54 48 55 67 56 49 57 52 58 66 59 85 60 50 61
REMARK SMILES IDX 51 62 65 64 86 65 53 66 37 67 38 68 46 69 39 70 45 71 47 72
REMARK SMILES IDX 44 73 40 74 41 75 42 76 43 77 69 78 70 79 78 80 71 81 77 82
REMARK SMILES IDX 79 83 76 84 72 85 73 86 74 87 75 88 54 89 55 90 63 91 56 92
REMARK SMILES IDX 62 93 64 94 61 95 57 96 58 97 59 98 60 99
REMARK H PARENT 20 5 15 11 1 14 1 15 1 16 6 24 25 33 84 52 52 63
REMARK Flexibility Score: inf
ROOT
ATOM      1  C   UNL A   1      31.976  26.655  26.345  1.00  0.00     0.116 C 
ENDROOT
BRANCH   1   2
ATOM      2  N   UNL A   1      30.993  25.712  26.836  1.00  0.00    -0.356 N 
ATOM      3  C   UNL A   1      30.822  24.413  26.469  1.00  0.00     0.221 C 
ATOM      4  O   UNL A   1      29.850  23.788  26.891  1.00  0.00    -0.275 OA
ATOM      5  H   UNL A   1      30.371  26.052  27.520  1.00  0.00     0.163 HD
BRANCH   3   6
ATOM      6  C   UNL A   1      31.827  23.759  25.550  1.00  0.00     0.121 C 
BRANCH   6   7
ATOM      7  C   UNL A   1      31.412  23.856  24.091  1.00  0.00     0.126 C 
BRANCH   7   8
ATOM      8  N   UNL A   1      32.410  23.419  23.130  1.00  0.00    -0.350 N 
ATOM      9  C   UNL A   1      33.061  24.021  22.102  1.00  0.00     0.278 C 
ATOM     10  O   UNL A   1      33.908  23.331  21.519  1.00  0.00    -0.268 OA
ATOM     11  H   UNL A   1      32.673  22.479  23.252  1.00  0.00     0.163 HD
BRANCH   9  12
ATOM     12  C   UNL A   1      32.858  25.486  21.688  1.00  0.00     0.275 C 
BRANCH  12  13
ATOM     13  N   UNL A   1      31.811  25.652  20.653  1.00  0.00    -0.347 N 
ATOM     14  H   UNL A   1      32.109  25.193  19.793  1.00  0.00     0.345 HD
ATOM     15  H   UNL A   1      31.663  26.645  20.476  1.00  0.00     0.345 HD
ATOM     16  H   UNL A   1      30.941  25.232  20.981  1.00  0.00     0.345 HD
ENDBRANCH  12  13
BRANCH  12  17
ATOM     17  C   UNL A   1      32.804  26.448  22.898  1.00  0.00     0.113 C 
BRANCH  17  18
ATOM     18  C   UNL A   1      32.009  27.708  22.722  1.00  0.00    -0.016 A 
ATOM     19  C   UNL A   1      32.484  28.937  22.299  1.00  0.00     0.087 A 
ATOM     20  C   UNL A   1      30.601  27.874  22.956  1.00  0.00     0.003 A 
ATOM     21  N   UNL A   1      31.411  29.769  22.110  1.00  0.00    -0.361 N 
ATOM     22  C   UNL A   1      30.253  29.151  22.513  1.00  0.00     0.046 A 
ATOM     23  C   UNL A   1      29.582  27.047  23.473  1.00  0.00     0.010 A 
ATOM     24  H   UNL A   1      31.463  30.680  21.739  1.00  0.00     0.166 HD
ATOM     25  C   UNL A   1      28.933  29.621  22.508  1.00  0.00     0.026 A 
ATOM     26  C   UNL A   1      28.264  27.520  23.523  1.00  0.00     0.001 A 
ATOM     27  C   UNL A   1      27.945  28.783  23.030  1.00  0.00     0.002 A 
ENDBRANCH  17  18
ENDBRANCH  12  17
ENDBRANCH   9  12
ENDBRANCH   7   8
ENDBRANCH   6   7
ENDBRANCH   3   6
ENDBRANCH   1   2
BRANCH   1  28
ATOM     28  C   UNL A   1      32.000  27.909  27.217  1.00  0.00     0.023 C 
BRANCH  28  29
ATOM     29  C   UNL A   1      31.814  29.219  26.469  1.00  0.00     0.023 C 
BRANCH  29  30
ATOM     30  C   UNL A   1      33.051  30.093  26.406  1.00  0.00     0.116 C 
BRANCH  30  31
ATOM     31  N   UNL A   1      32.861  31.437  26.935  1.00  0.00    -0.352 N 
ATOM     32  C   UNL A   1      33.751  32.157  27.700  1.00  0.00     0.251 C 
ATOM     33  H   UNL A   1      32.006  31.877  26.723  1.00  0.00     0.163 HD
ATOM     34  O   UNL A   1      33.461  33.260  28.147  1.00  0.00    -0.269 OA
BRANCH  32  35
ATOM     35  C   UNL A   1      35.044  31.519  28.012  1.00  0.00     0.039 A 
ATOM     36  C   UNL A   1      36.190  32.311  28.064  1.00  0.00     0.014 A 
ATOM     37  C   UNL A   1      35.065  30.187  28.433  1.00  0.00     0.014 A 
ATOM     38  C   UNL A   1      37.354  31.781  28.620  1.00  0.00     0.010 A 
ATOM     39  C   UNL A   1      36.191  29.701  29.079  1.00  0.00     0.010 A 
ATOM     40  C   UNL A   1      37.349  30.490  29.175  1.00  0.00    -0.014 A 
BRANCH  40  41
ATOM     41  C   UNL A   1      38.553  29.924  29.834  1.00  0.00     0.031 A 
ATOM     42  C   UNL A   1      38.938  30.416  31.202  1.00  0.00     0.074 A 
ATOM     43  C   UNL A   1      39.332  29.040  29.179  1.00  0.00     0.049 A 
ATOM     44  N   UNL A   1      40.002  30.148  31.912  1.00  0.00    -0.248 NA
ATOM     45  C   UNL A   1      38.023  31.383  31.831  1.00  0.00     0.031 C 
ATOM     46  C   UNL A   1      39.091  28.536  27.823  1.00  0.00     0.029 A 
ATOM     47  N   UNL A   1      40.490  28.412  29.562  1.00  0.00    -0.354 N 
ATOM     48  C   UNL A   1      39.898  30.933  33.054  1.00  0.00     0.074 A 
ATOM     49  C   UNL A   1      38.709  31.744  32.902  1.00  0.00     0.031 C 
ATOM     50  C   UNL A   1      40.054  27.655  27.503  1.00  0.00     0.029 A 
ATOM     51  C   UNL A   1      41.001  27.560  28.610  1.00  0.00     0.049 A 
ATOM     52  H   UNL A   1      40.916  28.559  30.437  1.00  0.00     0.167 HD
ATOM     53  C   UNL A   1      40.699  30.951  34.148  1.00  0.00     0.034 A 
ATOM     54  C   UNL A   1      42.111  26.796  28.629  1.00  0.00     0.034 A 
ATOM     55  C   UNL A   1      41.856  30.105  34.296  1.00  0.00     0.049 A 
ATOM     56  C   UNL A   1      42.977  26.813  29.863  1.00  0.00     0.074 A 
ATOM     57  C   UNL A   1      42.706  29.986  35.380  1.00  0.00     0.029 A 
ATOM     58  N   UNL A   1      42.323  29.227  33.325  1.00  0.00    -0.354 N 
ATOM     59  N   UNL A   1      42.837  27.522  30.961  1.00  0.00    -0.248 NA
ATOM     60  C   UNL A   1      44.142  25.918  29.867  1.00  0.00     0.031 C 
ATOM     61  C   UNL A   1      43.715  29.076  35.046  1.00  0.00     0.029 A 
ATOM     62  C   UNL A   1      43.460  28.577  33.778  1.00  0.00     0.049 A 
ATOM     63  H   UNL A   1      41.907  29.087  32.443  1.00  0.00     0.167 HD
ATOM     64  C   UNL A   1      43.881  27.136  31.796  1.00  0.00     0.074 A 
ATOM     65  C   UNL A   1      44.632  26.123  31.082  1.00  0.00     0.031 C 
ATOM     66  C   UNL A   1      44.193  27.574  33.042  1.00  0.00     0.034 A 
BRANCH  53  67
ATOM     67  C   UNL A   1      40.347  31.926  35.246  1.00  0.00     0.023 A 
ATOM     68  C   UNL A   1      39.387  31.617  36.225  1.00  0.00     0.031 A 
ATOM     69  C   UNL A   1      40.933  33.204  35.281  1.00  0.00     0.131 A 
ATOM     70  C   UNL A   1      38.971  32.599  37.135  1.00  0.00     0.055 A 
ATOM     71  C   UNL A   1      40.580  34.148  36.248  1.00  0.00     0.041 A 
ATOM     72  F   UNL A   1      41.840  33.566  34.361  1.00  0.00    -0.206 F 
ATOM     73  C   UNL A   1      39.579  33.855  37.170  1.00  0.00     0.022 A 
BRANCH  70  74
ATOM     74  S   UNL A   1      37.511  32.266  38.158  1.00  0.00     0.124 S 
ATOM     75  O   UNL A   1      37.402  30.813  38.048  1.00  0.00    -0.237 OA
ATOM     76  O   UNL A   1      37.915  32.778  39.463  1.00  0.00    -0.237 OA
ATOM     77  O   UNL A   1      36.447  33.016  37.494  1.00  0.00    -0.744 OA
ENDBRANCH  70  74
ENDBRANCH  53  67
BRANCH  54  78
ATOM     78  C   UNL A   1      42.468  25.946  27.457  1.00  0.00     0.023 A 
ATOM     79  C   UNL A   1      42.054  24.606  27.383  1.00  0.00     0.031 A 
ATOM     80  C   UNL A   1      43.264  26.448  26.412  1.00  0.00     0.131 A 
ATOM     81  C   UNL A   1      42.475  23.800  26.313  1.00  0.00     0.055 A 
ATOM     82  C   UNL A   1      43.639  25.656  25.324  1.00  0.00     0.041 A 
ATOM     83  F   UNL A   1      43.679  27.725  26.429  1.00  0.00    -0.206 F 
ATOM     84  C   UNL A   1      43.255  24.320  25.278  1.00  0.00     0.022 A 
BRANCH  81  85
ATOM     85  S   UNL A   1      42.050  22.037  26.334  1.00  0.00     0.124 S 
ATOM     86  O   UNL A   1      42.882  21.518  25.254  1.00  0.00    -0.237 OA
ATOM     87  O   UNL A   1      42.438  21.648  27.686  1.00  0.00    -0.237 OA
ATOM     88  O   UNL A   1      40.612  22.031  26.074  1.00  0.00    -0.744 OA
ENDBRANCH  81  85
ENDBRANCH  54  78
BRANCH  66  89
ATOM     89  C   UNL A   1      45.369  26.920  33.721  1.00  0.00     0.023 A 
ATOM     90  C   UNL A   1      45.218  25.763  34.506  1.00  0.00     0.031 A 
ATOM     91  C   UNL A   1      46.656  27.468  33.585  1.00  0.00     0.131 A 
ATOM     92  C   UNL A   1      46.330  25.220  35.166  1.00  0.00     0.055 A 
ATOM     93  C   UNL A   1      47.767  26.891  34.199  1.00  0.00     0.041 A 
ATOM     94  F   UNL A   1      46.854  28.572  32.847  1.00  0.00    -0.206 F 
ATOM     95  C   UNL A   1      47.606  25.768  35.005  1.00  0.00     0.022 A 
BRANCH  92  96
ATOM     96  S   UNL A   1      46.073  23.835  36.307  1.00  0.00     0.124 S 
ATOM     97  O   UNL A   1      47.182  22.950  35.964  1.00  0.00    -0.237 OA
ATOM     98  O   UNL A   1      46.155  24.483  37.611  1.00  0.00    -0.237 OA
ATOM     99  O   UNL A   1      44.747  23.335  35.946  1.00  0.00    -0.744 OA
ENDBRANCH  92  96
ENDBRANCH  66  89
ENDBRANCH  40  41
ENDBRANCH  32  35
ENDBRANCH  30  31
ENDBRANCH  29  30
ENDBRANCH  28  29
ENDBRANCH   1  28
TORSDOF 20
ENDMDL
MODEL 2
REMARK VINA RESULT:     -11.5      1.971      3.694
REMARK SMILES [NH3+][C@@H](Cc1c[nH]c2ccccc12)C(=O)NCCC(=O)NCCCCNC(=O)c1ccc(-c2c3nc(c(-c4cc(S(=O)(=O)[O-])ccc4F)c4ccc([nH]4)c(-c4cc(S(=O)(=O)[O-])ccc4F)c4nc(c(-c5cc(S(=O)(=O)[O-])ccc5F)c5ccc2[nH]5)C=C4)C=C3)cc1
REMARK SMILES IDX 21 1 20 2 18 3 19 4 17 6 16 7 15 8 13 9 14 10 2 12 1 13 3 17
REMARK SMILES IDX 4 18 5 19 12 20 6 21 7 22 11 23 8 25 10 26 9 27 22 28 23 29
REMARK SMILES IDX 24 30 25 31 26 32 27 34 28 35 29 36 90 37 30 38 89 39 31 40
REMARK SMILES IDX 32 41 33 42 83 43 34 44 88 45 82 46 84 47 35 48 87 49 81 50
REMARK SMILES IDX 80 51 36 53 68 54 48 55 67 56 49 57 52 58 66 59 85 60 50 61
REMARK SMILES IDX 51 62 65 64 86 65 53 66 37 67 38 68 46 69 39 70 45 71 47 72
REMARK SMILES IDX 44 73 40 74 41 75 42 76 43 77 69 78 70 79 78 80 71 81 77 82
REMARK SMILES IDX 79 83 76 84 72 85 73 86 74 87 75 88 54 89 55 90 63 91 56 92
REMARK SMILES IDX 62 93 64 94 61 95 57 96 58 97 59 98 60 99
REMARK H PARENT 20 5 15 11 1 14 1 15 1 16 6 24 25 33 84 52 52 63
REMARK Flexibility Score: inf
ROOT
ATOM      1  C   UNL A   1      31.351  28.251  23.324  1.00  0.00     0.116 C 
ENDROOT
BRANCH   1   2
ATOM      2  N   UNL A   1      32.313  27.795  22.343  1.00  0.00    -0.356 N 
ATOM      3  C   UNL A   1      32.571  26.516  21.956  1.00  0.00     0.221 C 
ATOM      4  O   UNL A   1      33.518  26.292  21.202  1.00  0.00    -0.275 OA
ATOM      5  H   UNL A   1      32.847  28.495  21.902  1.00  0.00     0.163 HD
BRANCH   3   6
ATOM      6  C   UNL A   1      31.693  25.393  22.456  1.00  0.00     0.121 C 
BRANCH   6   7
ATOM      7  C   UNL A   1      32.469  24.097  22.628  1.00  0.00     0.126 C 
BRANCH   7   8
ATOM      8  N   UNL A   1      31.942  23.185  23.629  1.00  0.00    -0.350 N 
ATOM      9  C   UNL A   1      31.660  23.292  24.951  1.00  0.00     0.278 C 
ATOM     10  O   UNL A   1      31.159  22.292  25.482  1.00  0.00    -0.268 OA
ATOM     11  H   UNL A   1      31.746  22.291  23.266  1.00  0.00     0.163 HD
BRANCH   9  12
ATOM     12  C   UNL A   1      31.857  24.572  25.778  1.00  0.00     0.275 C 
BRANCH  12  13
ATOM     13  N   UNL A   1      30.814  24.755  26.813  1.00  0.00    -0.347 N 
ATOM     14  H   UNL A   1      30.487  23.843  27.129  1.00  0.00     0.345 HD
ATOM     15  H   UNL A   1      30.033  25.279  26.419  1.00  0.00     0.345 HD
ATOM     16  H   UNL A   1      31.205  25.269  27.602  1.00  0.00     0.345 HD
ENDBRANCH  12  13
BRANCH  12  17
ATOM     17  C   UNL A   1      33.325  24.778  26.220  1.00  0.00     0.113 C 
BRANCH  17  18
ATOM     18  C   UNL A   1      34.156  23.542  26.394  1.00  0.00    -0.016 A 
ATOM     19  C   UNL A   1      34.083  22.631  27.434  1.00  0.00     0.087 A 
ATOM     20  C   UNL A   1      35.184  23.067  25.510  1.00  0.00     0.003 A 
ATOM     21  N   UNL A   1      34.887  21.565  27.128  1.00  0.00    -0.361 N 
ATOM     22  C   UNL A   1      35.578  21.808  25.966  1.00  0.00     0.046 A 
ATOM     23  C   UNL A   1      35.794  23.574  24.343  1.00  0.00     0.010 A 
ATOM     24  H   UNL A   1      34.960  20.742  27.664  1.00  0.00     0.166 HD
ATOM     25  C   UNL A   1      36.507  21.009  25.287  1.00  0.00     0.026 A 
ATOM     26  C   UNL A   1      36.763  22.809  23.680  1.00  0.00     0.001 A 
ATOM     27  C   UNL A   1      37.100  21.538  24.139  1.00  0.00     0.002 A 
ENDBRANCH  17  18
ENDBRANCH  12  17
ENDBRANCH   9  12
ENDBRANCH   7   8
ENDBRANCH   6   7
ENDBRANCH   3   6
ENDBRANCH   1   2
BRANCH   1  28
ATOM     28  C   UNL A   1      31.932  28.152  24.733  1.00  0.00     0.023 C 
BRANCH  28  29
ATOM     29  C   UNL A   1      32.787  29.333  25.163  1.00  0.00     0.023 C 
BRANCH  29  30
ATOM     30  C   UNL A   1      32.637  29.726  26.620  1.00  0.00     0.116 C 
BRANCH  30  31
ATOM     31  N   UNL A   1      32.458  31.155  26.837  1.00  0.00    -0.352 N 
ATOM     32  C   UNL A   1      33.372  32.029  27.383  1.00  0.00     0.251 C 
ATOM     33  H   UNL A   1      31.592  31.538  26.565  1.00  0.00     0.163 HD
ATOM     34  O   UNL A   1      33.093  33.206  27.578  1.00  0.00    -0.269 OA
BRANCH  32  35
ATOM     35  C   UNL A   1      34.681  31.476  27.780  1.00  0.00     0.039 A 
ATOM     36  C   UNL A   1      35.748  32.349  27.982  1.00  0.00     0.014 A 
ATOM     37  C   UNL A   1      34.775  30.125  28.128  1.00  0.00     0.014 A 
ATOM     38  C   UNL A   1      36.898  31.879  28.615  1.00  0.00     0.010 A 
ATOM     39  C   UNL A   1      35.876  29.690  28.849  1.00  0.00     0.010 A 
ATOM     40  C   UNL A   1      36.951  30.559  29.096  1.00  0.00    -0.014 A 
BRANCH  40  41
ATOM     41  C   UNL A   1      38.134  30.049  29.834  1.00  0.00     0.031 A 
ATOM     42  C   UNL A   1      38.387  30.533  31.235  1.00  0.00     0.074 A 
ATOM     43  C   UNL A   1      39.010  29.226  29.224  1.00  0.00     0.049 A 
ATOM     44  N   UNL A   1      39.409  30.310  32.019  1.00  0.00    -0.248 NA
ATOM     45  C   UNL A   1      37.372  31.431  31.811  1.00  0.00     0.031 C 
ATOM     46  C   UNL A   1      38.900  28.740  27.845  1.00  0.00     0.029 A 
ATOM     47  N   UNL A   1      40.171  28.659  29.681  1.00  0.00    -0.354 N 
ATOM     48  C   UNL A   1      39.174  31.063  33.164  1.00  0.00     0.074 A 
ATOM     49  C   UNL A   1      37.955  31.807  32.937  1.00  0.00     0.031 C 
ATOM     50  C   UNL A   1      39.935  27.923  27.583  1.00  0.00     0.029 A 
ATOM     51  C   UNL A   1      40.802  27.859  28.756  1.00  0.00     0.049 A 
ATOM     52  H   UNL A   1      40.522  28.810  30.589  1.00  0.00     0.167 HD
ATOM     53  C   UNL A   1      39.890  31.103  34.315  1.00  0.00     0.034 A 
ATOM     54  C   UNL A   1      41.950  27.159  28.845  1.00  0.00     0.034 A 
ATOM     55  C   UNL A   1      41.081  30.322  34.535  1.00  0.00     0.049 A 
ATOM     56  C   UNL A   1      42.720  27.199  30.141  1.00  0.00     0.074 A 
ATOM     57  C   UNL A   1      41.854  30.228  35.677  1.00  0.00     0.029 A 
ATOM     58  N   UNL A   1      41.669  29.494  33.586  1.00  0.00    -0.354 N 
ATOM     59  N   UNL A   1      42.458  27.875  31.237  1.00  0.00    -0.248 NA
ATOM     60  C   UNL A   1      43.932  26.373  30.217  1.00  0.00     0.031 C 
ATOM     61  C   UNL A   1      42.937  29.386  35.404  1.00  0.00     0.029 A 
ATOM     62  C   UNL A   1      42.806  28.901  34.112  1.00  0.00     0.049 A 
ATOM     63  H   UNL A   1      41.329  29.350  32.673  1.00  0.00     0.167 HD
ATOM     64  C   UNL A   1      43.458  27.531  32.142  1.00  0.00     0.074 A 
ATOM     65  C   UNL A   1      44.318  26.579  31.468  1.00  0.00     0.031 C 
ATOM     66  C   UNL A   1      43.650  27.959  33.416  1.00  0.00     0.034 A 
BRANCH  53  67
ATOM     67  C   UNL A   1      39.401  32.032  35.400  1.00  0.00     0.023 A 
ATOM     68  C   UNL A   1      39.832  33.369  35.475  1.00  0.00     0.031 A 
ATOM     69  C   UNL A   1      38.540  31.563  36.407  1.00  0.00     0.131 A 
ATOM     70  C   UNL A   1      39.484  34.157  36.581  1.00  0.00     0.055 A 
ATOM     71  C   UNL A   1      38.121  32.383  37.458  1.00  0.00     0.041 A 
ATOM     72  F   UNL A   1      38.111  30.292  36.403  1.00  0.00    -0.206 F 
ATOM     73  C   UNL A   1      38.610  33.683  37.560  1.00  0.00     0.022 A 
BRANCH  70  74
ATOM     74  S   UNL A   1      40.320  35.751  36.802  1.00  0.00     0.124 S 
ATOM     75  O   UNL A   1      39.614  36.590  35.837  1.00  0.00    -0.237 OA
ATOM     76  O   UNL A   1      40.071  36.047  38.209  1.00  0.00    -0.237 OA
ATOM     77  O   UNL A   1      41.712  35.459  36.463  1.00  0.00    -0.744 OA
ENDBRANCH  70  74
ENDBRANCH  53  67
BRANCH  54  78
ATOM     78  C   UNL A   1      42.443  26.358  27.688  1.00  0.00     0.023 A 
ATOM     79  C   UNL A   1      42.034  25.027  27.505  1.00  0.00     0.031 A 
ATOM     80  C   UNL A   1      43.362  26.896  26.771  1.00  0.00     0.131 A 
ATOM     81  C   UNL A   1      42.578  24.264  26.459  1.00  0.00     0.055 A 
ATOM     82  C   UNL A   1      43.863  26.149  25.702  1.00  0.00     0.041 A 
ATOM     83  F   UNL A   1      43.779  28.167  26.895  1.00  0.00    -0.206 F 
ATOM     84  C   UNL A   1      43.481  24.820  25.550  1.00  0.00     0.022 A 
BRANCH  81  85
ATOM     85  S   UNL A   1      42.145  22.505  26.350  1.00  0.00     0.124 S 
ATOM     86  O   UNL A   1      42.786  22.119  25.099  1.00  0.00    -0.237 OA
ATOM     87  O   UNL A   1      42.742  21.971  27.570  1.00  0.00    -0.237 OA
ATOM     88  O   UNL A   1      40.684  22.516  26.326  1.00  0.00    -0.744 OA
ENDBRANCH  81  85
ENDBRANCH  54  78
BRANCH  66  89
ATOM     89  C   UNL A   1      44.809  27.358  34.170  1.00  0.00     0.023 A 
ATOM     90  C   UNL A   1      44.668  26.180  34.922  1.00  0.00     0.031 A 
ATOM     91  C   UNL A   1      46.069  27.981  34.138  1.00  0.00     0.131 A 
ATOM     92  C   UNL A   1      45.759  25.687  35.655  1.00  0.00     0.055 A 
ATOM     93  C   UNL A   1      47.163  27.456  34.823  1.00  0.00     0.041 A 
ATOM     94  F   UNL A   1      46.255  29.109  33.434  1.00  0.00    -0.206 F 
ATOM     95  C   UNL A   1      47.009  26.309  35.597  1.00  0.00     0.022 A 
BRANCH  92  96
ATOM     96  S   UNL A   1      45.499  24.267  36.751  1.00  0.00     0.124 S 
ATOM     97  O   UNL A   1      46.865  23.797  36.967  1.00  0.00    -0.237 OA
ATOM     98  O   UNL A   1      44.846  24.876  37.904  1.00  0.00    -0.237 OA
ATOM     99  O   UNL A   1      44.654  23.373  35.961  1.00  0.00    -0.744 OA
ENDBRANCH  92  96
ENDBRANCH  66  89
ENDBRANCH  40  41
ENDBRANCH  32  35
ENDBRANCH  30  31
ENDBRANCH  29  30
ENDBRANCH  28  29
ENDBRANCH   1  28
TORSDOF 20
ENDMDL
MODEL 3
REMARK VINA RESULT:     -11.5      2.229      3.369
REMARK SMILES [NH3+][C@@H](Cc1c[nH]c2ccccc12)C(=O)NCCC(=O)NCCCCNC(=O)c1ccc(-c2c3nc(c(-c4cc(S(=O)(=O)[O-])ccc4F)c4ccc([nH]4)c(-c4cc(S(=O)(=O)[O-])ccc4F)c4nc(c(-c5cc(S(=O)(=O)[O-])ccc5F)c5ccc2[nH]5)C=C4)C=C3)cc1
REMARK SMILES IDX 21 1 20 2 18 3 19 4 17 6 16 7 15 8 13 9 14 10 2 12 1 13 3 17
REMARK SMILES IDX 4 18 5 19 12 20 6 21 7 22 11 23 8 25 10 26 9 27 22 28 23 29
REMARK SMILES IDX 24 30 25 31 26 32 27 34 28 35 29 36 90 37 30 38 89 39 31 40
REMARK SMILES IDX 32 41 33 42 83 43 34 44 88 45 82 46 84 47 35 48 87 49 81 50
REMARK SMILES IDX 80 51 36 53 68 54 48 55 67 56 49 57 52 58 66 59 85 60 50 61
REMARK SMILES IDX 51 62 65 64 86 65 53 66 37 67 38 68 46 69 39 70 45 71 47 72
REMARK SMILES IDX 44 73 40 74 41 75 42 76 43 77 69 78 70 79 78 80 71 81 77 82
REMARK SMILES IDX 79 83 76 84 72 85 73 86 74 87 75 88 54 89 55 90 63 91 56 92
REMARK SMILES IDX 62 93 64 94 61 95 57 96 58 97 59 98 60 99
REMARK H PARENT 20 5 15 11 1 14 1 15 1 16 6 24 25 33 84 52 52 63
REMARK Flexibility Score: inf
ROOT
ATOM      1  C   UNL A   1      34.405  29.337  27.255  1.00  0.00     0.116 C 
ENDROOT
BRANCH   1   2
ATOM      2  N   UNL A   1      33.152  28.967  27.880  1.00  0.00    -0.356 N 
ATOM      3  C   UNL A   1      32.178  28.156  27.387  1.00  0.00     0.221 C 
ATOM      4  O   UNL A   1      31.113  28.051  27.995  1.00  0.00    -0.275 OA
ATOM      5  H   UNL A   1      32.985  29.349  28.772  1.00  0.00     0.163 HD
BRANCH   3   6
ATOM      6  C   UNL A   1      32.416  27.399  26.102  1.00  0.00     0.121 C 
BRANCH   6   7
ATOM      7  C   UNL A   1      32.686  25.923  26.351  1.00  0.00     0.126 C 
BRANCH   7   8
ATOM      8  N   UNL A   1      31.551  25.157  26.836  1.00  0.00    -0.350 N 
ATOM      9  C   UNL A   1      30.980  23.981  26.473  1.00  0.00     0.278 C 
ATOM     10  O   UNL A   1      30.028  23.603  27.170  1.00  0.00    -0.268 OA
ATOM     11  H   UNL A   1      31.097  25.586  27.596  1.00  0.00     0.163 HD
BRANCH   9  12
ATOM     12  C   UNL A   1      31.484  23.090  25.328  1.00  0.00     0.275 C 
BRANCH  12  13
ATOM     13  N   UNL A   1      31.518  21.654  25.688  1.00  0.00    -0.347 N 
ATOM     14  H   UNL A   1      30.611  21.375  26.058  1.00  0.00     0.345 HD
ATOM     15  H   UNL A   1      32.236  21.498  26.396  1.00  0.00     0.345 HD
ATOM     16  H   UNL A   1      31.734  21.101  24.859  1.00  0.00     0.345 HD
ENDBRANCH  12  13
BRANCH  12  17
ATOM     17  C   UNL A   1      30.850  23.454  23.965  1.00  0.00     0.113 C 
BRANCH  17  18
ATOM     18  C   UNL A   1      31.240  24.776  23.372  1.00  0.00    -0.016 A 
ATOM     19  C   UNL A   1      32.432  25.083  22.740  1.00  0.00     0.087 A 
ATOM     20  C   UNL A   1      30.445  25.972  23.348  1.00  0.00     0.003 A 
ATOM     21  N   UNL A   1      32.319  26.337  22.198  1.00  0.00    -0.361 N 
ATOM     22  C   UNL A   1      31.122  26.906  22.561  1.00  0.00     0.046 A 
ATOM     23  C   UNL A   1      29.196  26.340  23.891  1.00  0.00     0.010 A 
ATOM     24  H   UNL A   1      32.998  26.768  21.630  1.00  0.00     0.166 HD
ATOM     25  C   UNL A   1      30.592  28.163  22.246  1.00  0.00     0.026 A 
ATOM     26  C   UNL A   1      28.674  27.613  23.628  1.00  0.00     0.001 A 
ATOM     27  C   UNL A   1      29.356  28.503  22.803  1.00  0.00     0.002 A 
ENDBRANCH  17  18
ENDBRANCH  12  17
ENDBRANCH   9  12
ENDBRANCH   7   8
ENDBRANCH   6   7
ENDBRANCH   3   6
ENDBRANCH   1   2
BRANCH   1  28
ATOM     28  C   UNL A   1      34.825  30.741  27.685  1.00  0.00     0.023 C 
BRANCH  28  29
ATOM     29  C   UNL A   1      33.684  31.724  27.886  1.00  0.00     0.023 C 
BRANCH  29  30
ATOM     30  C   UNL A   1      34.062  33.180  27.706  1.00  0.00     0.116 C 
BRANCH  30  31
ATOM     31  N   UNL A   1      33.203  34.114  28.422  1.00  0.00    -0.352 N 
ATOM     32  C   UNL A   1      33.350  34.542  29.722  1.00  0.00     0.251 C 
ATOM     33  H   UNL A   1      32.436  34.478  27.923  1.00  0.00     0.163 HD
ATOM     34  O   UNL A   1      32.529  35.285  30.247  1.00  0.00    -0.269 OA
BRANCH  32  35
ATOM     35  C   UNL A   1      34.504  34.021  30.478  1.00  0.00     0.039 A 
ATOM     36  C   UNL A   1      34.302  32.980  31.384  1.00  0.00     0.014 A 
ATOM     37  C   UNL A   1      35.792  34.443  30.137  1.00  0.00     0.014 A 
ATOM     38  C   UNL A   1      35.409  32.301  31.893  1.00  0.00     0.010 A 
ATOM     39  C   UNL A   1      36.881  33.699  30.564  1.00  0.00     0.010 A 
ATOM     40  C   UNL A   1      36.703  32.624  31.450  1.00  0.00    -0.014 A 
BRANCH  40  41
ATOM     41  C   UNL A   1      37.894  31.876  31.922  1.00  0.00     0.031 A 
ATOM     42  C   UNL A   1      38.538  32.269  33.223  1.00  0.00     0.074 A 
ATOM     43  C   UNL A   1      38.437  30.910  31.153  1.00  0.00     0.049 A 
ATOM     44  N   UNL A   1      39.642  31.833  33.769  1.00  0.00    -0.248 NA
ATOM     45  C   UNL A   1      37.871  33.336  33.987  1.00  0.00     0.031 C 
ATOM     46  C   UNL A   1      37.935  30.485  29.843  1.00  0.00     0.029 A 
ATOM     47  N   UNL A   1      39.535  30.115  31.358  1.00  0.00    -0.354 N 
ATOM     48  C   UNL A   1      39.816  32.592  34.921  1.00  0.00     0.074 A 
ATOM     49  C   UNL A   1      38.747  33.566  34.950  1.00  0.00     0.031 C 
ATOM     50  C   UNL A   1      38.706  29.487  29.379  1.00  0.00     0.029 A 
ATOM     51  C   UNL A   1      39.778  29.228  30.335  1.00  0.00     0.049 A 
ATOM     52  H   UNL A   1      40.099  30.175  32.163  1.00  0.00     0.167 HD
ATOM     53  C   UNL A   1      40.760  32.465  35.886  1.00  0.00     0.034 A 
ATOM     54  C   UNL A   1      40.758  28.314  30.186  1.00  0.00     0.034 A 
ATOM     55  C   UNL A   1      41.793  31.460  35.857  1.00  0.00     0.049 A 
ATOM     56  C   UNL A   1      41.784  28.174  31.281  1.00  0.00     0.074 A 
ATOM     57  C   UNL A   1      42.763  31.191  36.805  1.00  0.00     0.029 A 
ATOM     58  N   UNL A   1      41.985  30.554  34.821  1.00  0.00    -0.354 N 
ATOM     59  N   UNL A   1      41.907  28.864  32.393  1.00  0.00    -0.248 NA
ATOM     60  C   UNL A   1      42.797  27.124  31.108  1.00  0.00     0.031 C 
ATOM     61  C   UNL A   1      43.573  30.159  36.320  1.00  0.00     0.029 A 
ATOM     62  C   UNL A   1      43.070  29.738  35.098  1.00  0.00     0.049 A 
ATOM     63  H   UNL A   1      41.432  30.500  34.008  1.00  0.00     0.167 HD
ATOM     64  C   UNL A   1      42.993  28.310  33.064  1.00  0.00     0.074 A 
ATOM     65  C   UNL A   1      43.480  27.222  32.240  1.00  0.00     0.031 C 
ATOM     66  C   UNL A   1      43.539  28.663  34.256  1.00  0.00     0.034 A 
BRANCH  53  67
ATOM     67  C   UNL A   1      40.713  33.448  37.031  1.00  0.00     0.023 A 
ATOM     68  C   UNL A   1      40.061  33.140  38.239  1.00  0.00     0.031 A 
ATOM     69  C   UNL A   1      41.273  34.730  36.896  1.00  0.00     0.131 A 
ATOM     70  C   UNL A   1      39.899  34.128  39.221  1.00  0.00     0.055 A 
ATOM     71  C   UNL A   1      41.188  35.680  37.916  1.00  0.00     0.041 A 
ATOM     72  F   UNL A   1      41.889  35.091  35.760  1.00  0.00    -0.206 F 
ATOM     73  C   UNL A   1      40.481  35.388  39.079  1.00  0.00     0.022 A 
BRANCH  70  74
ATOM     74  S   UNL A   1      38.779  33.792  40.607  1.00  0.00     0.124 S 
ATOM     75  O   UNL A   1      38.729  35.095  41.266  1.00  0.00    -0.237 OA
ATOM     76  O   UNL A   1      37.557  33.371  39.932  1.00  0.00    -0.237 OA
ATOM     77  O   UNL A   1      39.469  32.747  41.360  1.00  0.00    -0.744 OA
ENDBRANCH  70  74
ENDBRANCH  53  67
BRANCH  54  78
ATOM     78  C   UNL A   1      40.818  27.457  28.967  1.00  0.00     0.023 A 
ATOM     79  C   UNL A   1      41.753  27.712  27.951  1.00  0.00     0.031 A 
ATOM     80  C   UNL A   1      39.915  26.396  28.781  1.00  0.00     0.131 A 
ATOM     81  C   UNL A   1      41.735  26.947  26.774  1.00  0.00     0.055 A 
ATOM     82  C   UNL A   1      39.933  25.606  27.629  1.00  0.00     0.041 A 
ATOM     83  F   UNL A   1      39.007  26.104  29.725  1.00  0.00    -0.206 F 
ATOM     84  C   UNL A   1      40.839  25.889  26.611  1.00  0.00     0.022 A 
BRANCH  81  85
ATOM     85  S   UNL A   1      42.853  27.407  25.421  1.00  0.00     0.124 S 
ATOM     86  O   UNL A   1      42.115  28.490  24.780  1.00  0.00    -0.237 OA
ATOM     87  O   UNL A   1      44.060  27.793  26.145  1.00  0.00    -0.237 OA
ATOM     88  O   UNL A   1      42.964  26.177  24.639  1.00  0.00    -0.744 OA
ENDBRANCH  81  85
ENDBRANCH  54  78
BRANCH  66  89
ATOM     89  C   UNL A   1      44.694  27.831  34.751  1.00  0.00     0.023 A 
ATOM     90  C   UNL A   1      44.491  26.660  35.502  1.00  0.00     0.031 A 
ATOM     91  C   UNL A   1      46.015  28.221  34.471  1.00  0.00     0.131 A 
ATOM     92  C   UNL A   1      45.595  25.947  35.991  1.00  0.00     0.055 A 
ATOM     93  C   UNL A   1      47.108  27.476  34.913  1.00  0.00     0.041 A 
ATOM     94  F   UNL A   1      46.263  29.330  33.757  1.00  0.00    -0.206 F 
ATOM     95  C   UNL A   1      46.902  26.339  35.688  1.00  0.00     0.022 A 
BRANCH  92  96
ATOM     96  S   UNL A   1      45.301  24.543  37.100  1.00  0.00     0.124 S 
ATOM     97  O   UNL A   1      44.080  24.951  37.789  1.00  0.00    -0.237 OA
ATOM     98  O   UNL A   1      45.164  23.430  36.167  1.00  0.00    -0.237 OA
ATOM     99  O   UNL A   1      46.501  24.508  37.935  1.00  0.00    -0.744 OA
ENDBRANCH  92  96
ENDBRANCH  66  89
ENDBRANCH  40  41
ENDBRANCH  32  35
ENDBRANCH  30  31
ENDBRANCH  29  30
ENDBRANCH  28  29
ENDBRANCH   1  28
TORSDOF 20
ENDMDL
