MODEL 1
REMARK VINA RESULT:     -13.2      0.000      0.000
REMARK SMILES C[N@@H+]1CCN(C(=O)c2ccc3[nH]c4c(c3c2)CSCC4)C[C@H]1C(=O)NCCCCNC(=O)c1ccc(-c2c3nc(c(-c4cc(S(=O)(=O)[O-])ccc4F)c4ccc([nH]4)c(-c4cc(S(=O)(=O)[O-])ccc4F)c4nc(c(-c5cc(S(=O)(=O)[O-])ccc5F)c5ccc2[nH]5)C=C4)C=C3)cc1
REMARK SMILES IDX 28 1 27 2 26 3 25 4 23 5 24 6 22 8 1 9 2 10 3 11 4 13 21 14
REMARK SMILES IDX 5 15 6 16 7 17 8 18 9 19 16 20 10 21 15 22 11 23 14 24 12 25
REMARK SMILES IDX 13 26 17 27 20 29 18 30 19 31 29 32 30 33 31 34 32 36 33 37
REMARK SMILES IDX 34 38 95 39 35 40 94 41 36 42 37 43 38 44 88 45 39 46 93 47
REMARK SMILES IDX 87 48 89 49 40 50 92 51 86 52 85 53 41 55 73 56 53 57 72 58
REMARK SMILES IDX 54 59 57 60 71 61 90 62 55 63 56 64 70 66 91 67 58 68 42 69
REMARK SMILES IDX 43 70 51 71 44 72 50 73 52 74 49 75 45 76 46 77 47 78 48 79
REMARK SMILES IDX 74 80 75 81 83 82 76 83 82 84 84 85 81 86 77 87 78 88 79 89
REMARK SMILES IDX 80 90 59 91 60 92 68 93 61 94 67 95 69 96 66 97 62 98 63 99
REMARK SMILES IDX 64 100 65 101
REMARK H PARENT 25 7 2 12 12 28 30 35 89 54 57 65
REMARK Flexibility Score: inf
ROOT
ATOM      1  C   UNL A   1      38.576  21.722  25.393  1.00  0.00     0.023 C 
ENDROOT
BRANCH   1   2
ATOM      2  C   UNL A   1      37.176  22.230  25.747  1.00  0.00     0.023 C 
BRANCH   2   3
ATOM      3  C   UNL A   1      36.094  21.161  25.793  1.00  0.00     0.116 C 
BRANCH   3   4
ATOM      4  N   UNL A   1      35.008  21.506  26.696  1.00  0.00    -0.351 N 
ATOM      5  C   UNL A   1      33.809  22.095  26.423  1.00  0.00     0.280 C 
ATOM      6  O   UNL A   1      33.019  22.263  27.357  1.00  0.00    -0.268 OA
ATOM      7  H   UNL A   1      35.161  21.282  27.642  1.00  0.00     0.163 HD
BRANCH   5   8
ATOM      8  C   UNL A   1      33.412  22.482  24.991  1.00  0.00     0.293 C 
ATOM      9  C   UNL A   1      32.364  20.325  24.504  1.00  0.00     0.333 C 
ATOM     10  N   UNL A   1      32.179  21.779  24.527  1.00  0.00    -0.324 N 
ATOM     11  C   UNL A   1      31.810  22.266  23.180  1.00  0.00     0.284 C 
ATOM     12  H   UNL A   1      31.428  21.984  25.186  1.00  0.00     0.348 HD
ATOM     13  C   UNL A   1      31.655  23.797  23.118  1.00  0.00     0.181 C 
ATOM     14  C   UNL A   1      33.310  24.020  24.926  1.00  0.00     0.195 C 
ATOM     15  N   UNL A   1      32.841  24.494  23.617  1.00  0.00    -0.326 N 
BRANCH  15  16
ATOM     16  C   UNL A   1      33.214  25.694  23.019  1.00  0.00     0.254 C 
ATOM     17  O   UNL A   1      33.942  25.766  22.032  1.00  0.00    -0.269 OA
BRANCH  16  18
ATOM     18  C   UNL A   1      32.689  26.960  23.573  1.00  0.00     0.040 A 
ATOM     19  C   UNL A   1      33.246  27.520  24.727  1.00  0.00     0.016 A 
ATOM     20  C   UNL A   1      31.636  27.591  22.895  1.00  0.00     0.024 A 
ATOM     21  C   UNL A   1      32.710  28.683  25.282  1.00  0.00     0.027 A 
ATOM     22  C   UNL A   1      31.101  28.781  23.425  1.00  0.00     0.004 A 
ATOM     23  C   UNL A   1      31.639  29.287  24.611  1.00  0.00     0.046 A 
ATOM     24  C   UNL A   1      30.071  29.679  23.004  1.00  0.00    -0.009 A 
ATOM     25  N   UNL A   1      30.931  30.425  24.926  1.00  0.00    -0.358 N 
ATOM     26  C   UNL A   1      30.022  30.694  23.942  1.00  0.00     0.021 A 
ATOM     27  C   UNL A   1      29.247  29.587  21.759  1.00  0.00     0.107 C 
ATOM     28  H   UNL A   1      31.062  30.965  25.738  1.00  0.00     0.166 HD
ATOM     29  C   UNL A   1      29.144  31.897  23.927  1.00  0.00     0.065 C 
ATOM     30  S   UNL A   1      27.911  30.839  21.659  1.00  0.00    -0.157 SA
ATOM     31  C   UNL A   1      28.744  32.242  22.489  1.00  0.00     0.076 C 
ENDBRANCH  16  18
ENDBRANCH  15  16
ENDBRANCH   5   8
ENDBRANCH   3   4
ENDBRANCH   2   3
ENDBRANCH   1   2
BRANCH   1  32
ATOM     32  C   UNL A   1      39.601  21.771  26.528  1.00  0.00     0.116 C 
BRANCH  32  33
ATOM     33  N   UNL A   1      40.961  22.043  26.109  1.00  0.00    -0.352 N 
ATOM     34  C   UNL A   1      41.884  23.006  26.419  1.00  0.00     0.251 C 
ATOM     35  H   UNL A   1      41.297  21.389  25.454  1.00  0.00     0.163 HD
ATOM     36  O   UNL A   1      43.033  22.790  26.023  1.00  0.00    -0.269 OA
BRANCH  34  37
ATOM     37  C   UNL A   1      41.585  24.290  27.110  1.00  0.00     0.039 A 
ATOM     38  C   UNL A   1      40.577  25.184  26.753  1.00  0.00     0.014 A 
ATOM     39  C   UNL A   1      42.451  24.643  28.165  1.00  0.00     0.014 A 
ATOM     40  C   UNL A   1      40.509  26.441  27.343  1.00  0.00     0.010 A 
ATOM     41  C   UNL A   1      42.371  25.891  28.779  1.00  0.00     0.010 A 
ATOM     42  C   UNL A   1      41.428  26.807  28.331  1.00  0.00    -0.014 A 
BRANCH  42  43
ATOM     43  C   UNL A   1      41.267  28.127  28.934  1.00  0.00     0.031 A 
ATOM     44  C   UNL A   1      42.181  29.171  28.391  1.00  0.00     0.074 A 
ATOM     45  C   UNL A   1      40.328  28.432  29.851  1.00  0.00     0.049 A 
ATOM     46  N   UNL A   1      43.126  29.800  29.010  1.00  0.00    -0.248 NA
ATOM     47  C   UNL A   1      42.123  29.447  26.950  1.00  0.00     0.031 C 
ATOM     48  C   UNL A   1      39.171  27.634  30.255  1.00  0.00     0.029 A 
ATOM     49  N   UNL A   1      40.156  29.596  30.542  1.00  0.00    -0.354 N 
ATOM     50  C   UNL A   1      43.675  30.688  28.084  1.00  0.00     0.074 A 
ATOM     51  C   UNL A   1      43.121  30.320  26.806  1.00  0.00     0.031 C 
ATOM     52  C   UNL A   1      38.296  28.428  30.915  1.00  0.00     0.029 A 
ATOM     53  C   UNL A   1      38.895  29.742  31.100  1.00  0.00     0.049 A 
ATOM     54  H   UNL A   1      40.865  30.273  30.636  1.00  0.00     0.167 HD
ATOM     55  C   UNL A   1      44.414  31.768  28.472  1.00  0.00     0.034 A 
ATOM     56  C   UNL A   1      38.343  30.886  31.583  1.00  0.00     0.034 A 
ATOM     57  C   UNL A   1      44.812  31.655  29.848  1.00  0.00     0.049 A 
ATOM     58  C   UNL A   1      39.429  31.861  31.847  1.00  0.00     0.074 A 
ATOM     59  C   UNL A   1      45.586  30.760  30.559  1.00  0.00     0.029 A 
ATOM     60  N   UNL A   1      44.102  32.368  30.782  1.00  0.00    -0.354 N 
ATOM     61  N   UNL A   1      40.289  31.756  32.820  1.00  0.00    -0.248 NA
ATOM     62  C   UNL A   1      39.830  32.729  30.748  1.00  0.00     0.031 C 
ATOM     63  C   UNL A   1      44.943  30.647  31.823  1.00  0.00     0.029 A 
ATOM     64  C   UNL A   1      43.863  31.531  31.838  1.00  0.00     0.049 A 
ATOM     65  H   UNL A   1      43.817  33.308  30.706  1.00  0.00     0.167 HD
ATOM     66  C   UNL A   1      41.495  32.130  32.250  1.00  0.00     0.074 A 
ATOM     67  C   UNL A   1      41.136  32.822  31.012  1.00  0.00     0.031 C 
ATOM     68  C   UNL A   1      42.678  31.592  32.669  1.00  0.00     0.034 A 
BRANCH  55  69
ATOM     69  C   UNL A   1      44.505  33.073  27.713  1.00  0.00     0.023 A 
ATOM     70  C   UNL A   1      43.681  34.180  27.983  1.00  0.00     0.031 A 
ATOM     71  C   UNL A   1      45.594  33.320  26.847  1.00  0.00     0.131 A 
ATOM     72  C   UNL A   1      43.942  35.443  27.437  1.00  0.00     0.055 A 
ATOM     73  C   UNL A   1      45.893  34.596  26.353  1.00  0.00     0.041 A 
ATOM     74  F   UNL A   1      46.444  32.340  26.503  1.00  0.00    -0.206 F 
ATOM     75  C   UNL A   1      45.067  35.669  26.653  1.00  0.00     0.022 A 
BRANCH  72  76
ATOM     76  S   UNL A   1      42.822  36.831  27.769  1.00  0.00     0.124 S 
ATOM     77  O   UNL A   1      41.604  36.143  28.187  1.00  0.00    -0.237 OA
ATOM     78  O   UNL A   1      43.540  37.544  28.822  1.00  0.00    -0.237 OA
ATOM     79  O   UNL A   1      42.751  37.527  26.488  1.00  0.00    -0.744 OA
ENDBRANCH  72  76
ENDBRANCH  55  69
BRANCH  56  80
ATOM     80  C   UNL A   1      36.940  31.330  31.402  1.00  0.00     0.023 A 
ATOM     81  C   UNL A   1      36.422  31.485  30.104  1.00  0.00     0.031 A 
ATOM     82  C   UNL A   1      36.211  31.903  32.459  1.00  0.00     0.131 A 
ATOM     83  C   UNL A   1      35.259  32.232  29.882  1.00  0.00     0.055 A 
ATOM     84  C   UNL A   1      35.038  32.636  32.239  1.00  0.00     0.041 A 
ATOM     85  F   UNL A   1      36.663  31.827  33.720  1.00  0.00    -0.206 F 
ATOM     86  C   UNL A   1      34.564  32.816  30.942  1.00  0.00     0.022 A 
BRANCH  83  87
ATOM     87  S   UNL A   1      34.686  32.533  28.188  1.00  0.00     0.124 S 
ATOM     88  O   UNL A   1      35.819  33.241  27.598  1.00  0.00    -0.237 OA
ATOM     89  O   UNL A   1      34.469  31.175  27.703  1.00  0.00    -0.237 OA
ATOM     90  O   UNL A   1      33.484  33.341  28.374  1.00  0.00    -0.744 OA
ENDBRANCH  83  87
ENDBRANCH  56  80
BRANCH  68  91
ATOM     91  C   UNL A   1      42.727  30.778  33.941  1.00  0.00     0.023 A 
ATOM     92  C   UNL A   1      42.457  29.402  33.816  1.00  0.00     0.031 A 
ATOM     93  C   UNL A   1      42.772  31.314  35.242  1.00  0.00     0.131 A 
ATOM     94  C   UNL A   1      42.182  28.625  34.944  1.00  0.00     0.055 A 
ATOM     95  C   UNL A   1      42.579  30.514  36.375  1.00  0.00     0.041 A 
ATOM     96  F   UNL A   1      42.902  32.630  35.461  1.00  0.00    -0.206 F 
ATOM     97  C   UNL A   1      42.260  29.169  36.228  1.00  0.00     0.022 A 
BRANCH  94  98
ATOM     98  S   UNL A   1      41.521  26.949  34.748  1.00  0.00     0.124 S 
ATOM     99  O   UNL A   1      40.404  27.167  33.829  1.00  0.00    -0.237 OA
ATOM    100  O   UNL A   1      42.663  26.228  34.181  1.00  0.00    -0.237 OA
ATOM    101  O   UNL A   1      41.154  26.551  36.098  1.00  0.00    -0.744 OA
ENDBRANCH  94  98
ENDBRANCH  68  91
ENDBRANCH  42  43
ENDBRANCH  34  37
ENDBRANCH  32  33
ENDBRANCH   1  32
TORSDOF 16
ENDMDL
MODEL 2
REMARK VINA RESULT:     -12.9      2.281      2.663
REMARK SMILES C[N@@H+]1CCN(C(=O)c2ccc3[nH]c4c(c3c2)CSCC4)C[C@H]1C(=O)NCCCCNC(=O)c1ccc(-c2c3nc(c(-c4cc(S(=O)(=O)[O-])ccc4F)c4ccc([nH]4)c(-c4cc(S(=O)(=O)[O-])ccc4F)c4nc(c(-c5cc(S(=O)(=O)[O-])ccc5F)c5ccc2[nH]5)C=C4)C=C3)cc1
REMARK SMILES IDX 28 1 27 2 26 3 25 4 23 5 24 6 22 8 1 9 2 10 3 11 4 13 21 14
REMARK SMILES IDX 5 15 6 16 7 17 8 18 9 19 16 20 10 21 15 22 11 23 14 24 12 25
REMARK SMILES IDX 13 26 17 27 20 29 18 30 19 31 29 32 30 33 31 34 32 36 33 37
REMARK SMILES IDX 34 38 95 39 35 40 94 41 36 42 37 43 38 44 88 45 39 46 93 47
REMARK SMILES IDX 87 48 89 49 40 50 92 51 86 52 85 53 41 55 73 56 53 57 72 58
REMARK SMILES IDX 54 59 57 60 71 61 90 62 55 63 56 64 70 66 91 67 58 68 42 69
REMARK SMILES IDX 43 70 51 71 44 72 50 73 52 74 49 75 45 76 46 77 47 78 48 79
REMARK SMILES IDX 74 80 75 81 83 82 76 83 82 84 84 85 81 86 77 87 78 88 79 89
REMARK SMILES IDX 80 90 59 91 60 92 68 93 61 94 67 95 69 96 66 97 62 98 63 99
REMARK SMILES IDX 64 100 65 101
REMARK H PARENT 25 7 2 12 12 28 30 35 89 54 57 65
REMARK Flexibility Score: inf
ROOT
ATOM      1  C   UNL A   1      35.946  21.712  25.821  1.00  0.00     0.023 C 
ENDROOT
BRANCH   1   2
ATOM      2  C   UNL A   1      35.032  22.500  26.762  1.00  0.00     0.023 C 
BRANCH   2   3
ATOM      3  C   UNL A   1      34.146  21.650  27.662  1.00  0.00     0.116 C 
BRANCH   3   4
ATOM      4  N   UNL A   1      32.777  22.137  27.716  1.00  0.00    -0.351 N 
ATOM      5  C   UNL A   1      32.006  22.665  26.721  1.00  0.00     0.280 C 
ATOM      6  O   UNL A   1      30.845  22.985  26.996  1.00  0.00    -0.268 OA
ATOM      7  H   UNL A   1      32.345  22.079  28.598  1.00  0.00     0.163 HD
BRANCH   5   8
ATOM      8  C   UNL A   1      32.530  22.800  25.285  1.00  0.00     0.293 C 
ATOM      9  C   UNL A   1      32.246  20.426  24.765  1.00  0.00     0.333 C 
ATOM     10  N   UNL A   1      31.927  21.797  24.357  1.00  0.00    -0.324 N 
ATOM     11  C   UNL A   1      32.410  22.044  22.981  1.00  0.00     0.284 C 
ATOM     12  H   UNL A   1      30.913  21.901  24.391  1.00  0.00     0.348 HD
ATOM     13  C   UNL A   1      32.157  23.488  22.508  1.00  0.00     0.181 C 
ATOM     14  C   UNL A   1      32.320  24.262  24.838  1.00  0.00     0.195 C 
ATOM     15  N   UNL A   1      32.703  24.478  23.437  1.00  0.00    -0.326 N 
BRANCH  15  16
ATOM     16  C   UNL A   1      33.229  25.660  22.924  1.00  0.00     0.254 C 
ATOM     17  O   UNL A   1      34.031  25.702  21.994  1.00  0.00    -0.269 OA
BRANCH  16  18
ATOM     18  C   UNL A   1      32.785  26.947  23.500  1.00  0.00     0.040 A 
ATOM     19  C   UNL A   1      33.531  27.577  24.501  1.00  0.00     0.016 A 
ATOM     20  C   UNL A   1      31.610  27.525  22.997  1.00  0.00     0.024 A 
ATOM     21  C   UNL A   1      33.078  28.761  25.086  1.00  0.00     0.027 A 
ATOM     22  C   UNL A   1      31.154  28.735  23.556  1.00  0.00     0.004 A 
ATOM     23  C   UNL A   1      31.889  29.312  24.594  1.00  0.00     0.046 A 
ATOM     24  C   UNL A   1      30.044  29.594  23.287  1.00  0.00    -0.009 A 
ATOM     25  N   UNL A   1      31.224  30.456  24.976  1.00  0.00    -0.358 N 
ATOM     26  C   UNL A   1      30.143  30.658  24.165  1.00  0.00     0.021 A 
ATOM     27  C   UNL A   1      29.007  29.423  22.222  1.00  0.00     0.107 C 
ATOM     28  H   UNL A   1      31.489  31.041  25.721  1.00  0.00     0.166 HD
ATOM     29  C   UNL A   1      29.250  31.846  24.251  1.00  0.00     0.065 C 
ATOM     30  S   UNL A   1      27.646  30.649  22.307  1.00  0.00    -0.157 SA
ATOM     31  C   UNL A   1      28.584  32.107  22.895  1.00  0.00     0.076 C 
ENDBRANCH  16  18
ENDBRANCH  15  16
ENDBRANCH   5   8
ENDBRANCH   3   4
ENDBRANCH   2   3
ENDBRANCH   1   2
BRANCH   1  32
ATOM     32  C   UNL A   1      37.144  22.485  25.265  1.00  0.00     0.116 C 
BRANCH  32  33
ATOM     33  N   UNL A   1      38.435  21.892  25.544  1.00  0.00    -0.352 N 
ATOM     34  C   UNL A   1      39.477  22.211  26.373  1.00  0.00     0.251 C 
ATOM     35  H   UNL A   1      38.601  21.075  25.021  1.00  0.00     0.163 HD
ATOM     36  O   UNL A   1      40.340  21.339  26.506  1.00  0.00    -0.269 OA
BRANCH  34  37
ATOM     37  C   UNL A   1      39.670  23.529  27.039  1.00  0.00     0.039 A 
ATOM     38  C   UNL A   1      38.900  24.668  26.815  1.00  0.00     0.014 A 
ATOM     39  C   UNL A   1      40.773  23.628  27.911  1.00  0.00     0.014 A 
ATOM     40  C   UNL A   1      39.285  25.895  27.344  1.00  0.00     0.010 A 
ATOM     41  C   UNL A   1      41.149  24.848  28.467  1.00  0.00     0.010 A 
ATOM     42  C   UNL A   1      40.430  25.991  28.140  1.00  0.00    -0.014 A 
BRANCH  42  43
ATOM     43  C   UNL A   1      40.748  27.304  28.694  1.00  0.00     0.031 A 
ATOM     44  C   UNL A   1      42.032  27.885  28.212  1.00  0.00     0.074 A 
ATOM     45  C   UNL A   1      39.934  27.997  29.514  1.00  0.00     0.049 A 
ATOM     46  N   UNL A   1      43.097  28.138  28.899  1.00  0.00    -0.248 NA
ATOM     47  C   UNL A   1      42.193  28.079  26.765  1.00  0.00     0.031 C 
ATOM     48  C   UNL A   1      38.531  27.729  29.830  1.00  0.00     0.029 A 
ATOM     49  N   UNL A   1      40.175  29.176  30.158  1.00  0.00    -0.354 N 
ATOM     50  C   UNL A   1      44.015  28.693  28.006  1.00  0.00     0.074 A 
ATOM     51  C   UNL A   1      43.459  28.493  26.692  1.00  0.00     0.031 C 
ATOM     52  C   UNL A   1      37.986  28.834  30.389  1.00  0.00     0.029 A 
ATOM     53  C   UNL A   1      39.030  29.826  30.596  1.00  0.00     0.049 A 
ATOM     54  H   UNL A   1      41.081  29.533  30.301  1.00  0.00     0.167 HD
ATOM     55  C   UNL A   1      45.083  29.428  28.434  1.00  0.00     0.034 A 
ATOM     56  C   UNL A   1      38.929  31.119  30.999  1.00  0.00     0.034 A 
ATOM     57  C   UNL A   1      45.303  29.249  29.842  1.00  0.00     0.049 A 
ATOM     58  C   UNL A   1      40.285  31.617  31.337  1.00  0.00     0.074 A 
ATOM     59  C   UNL A   1      45.614  28.168  30.643  1.00  0.00     0.029 A 
ATOM     60  N   UNL A   1      44.855  30.233  30.690  1.00  0.00    -0.354 N 
ATOM     61  N   UNL A   1      40.962  31.247  32.387  1.00  0.00    -0.248 NA
ATOM     62  C   UNL A   1      41.071  32.201  30.259  1.00  0.00     0.031 C 
ATOM     63  C   UNL A   1      44.885  28.383  31.844  1.00  0.00     0.029 A 
ATOM     64  C   UNL A   1      44.233  29.613  31.740  1.00  0.00     0.049 A 
ATOM     65  H   UNL A   1      44.963  31.204  30.566  1.00  0.00     0.167 HD
ATOM     66  C   UNL A   1      42.257  31.096  31.920  1.00  0.00     0.074 A 
ATOM     67  C   UNL A   1      42.287  31.801  30.639  1.00  0.00     0.031 C 
ATOM     68  C   UNL A   1      43.105  30.171  32.458  1.00  0.00     0.034 A 
BRANCH  55  69
ATOM     69  C   UNL A   1      45.728  30.553  27.656  1.00  0.00     0.023 A 
ATOM     70  C   UNL A   1      44.994  31.525  26.955  1.00  0.00     0.031 A 
ATOM     71  C   UNL A   1      47.110  30.815  27.794  1.00  0.00     0.131 A 
ATOM     72  C   UNL A   1      45.598  32.682  26.447  1.00  0.00     0.055 A 
ATOM     73  C   UNL A   1      47.703  32.001  27.344  1.00  0.00     0.041 A 
ATOM     74  F   UNL A   1      47.920  29.955  28.432  1.00  0.00    -0.206 F 
ATOM     75  C   UNL A   1      46.944  32.947  26.670  1.00  0.00     0.022 A 
BRANCH  72  76
ATOM     76  S   UNL A   1      44.622  33.884  25.502  1.00  0.00     0.124 S 
ATOM     77  O   UNL A   1      44.085  34.734  26.560  1.00  0.00    -0.237 OA
ATOM     78  O   UNL A   1      45.644  34.494  24.657  1.00  0.00    -0.237 OA
ATOM     79  O   UNL A   1      43.649  33.056  24.797  1.00  0.00    -0.744 OA
ENDBRANCH  72  76
ENDBRANCH  55  69
BRANCH  56  80
ATOM     80  C   UNL A   1      37.825  32.056  30.681  1.00  0.00     0.023 A 
ATOM     81  C   UNL A   1      37.139  32.702  31.724  1.00  0.00     0.031 A 
ATOM     82  C   UNL A   1      37.231  32.082  29.406  1.00  0.00     0.131 A 
ATOM     83  C   UNL A   1      35.888  33.292  31.501  1.00  0.00     0.055 A 
ATOM     84  C   UNL A   1      35.988  32.687  29.179  1.00  0.00     0.041 A 
ATOM     85  F   UNL A   1      37.811  31.455  28.371  1.00  0.00    -0.206 F 
ATOM     86  C   UNL A   1      35.303  33.284  30.234  1.00  0.00     0.022 A 
BRANCH  83  87
ATOM     87  S   UNL A   1      34.960  33.998  32.889  1.00  0.00     0.124 S 
ATOM     88  O   UNL A   1      33.600  34.053  32.358  1.00  0.00    -0.237 OA
ATOM     89  O   UNL A   1      35.190  33.008  33.934  1.00  0.00    -0.237 OA
ATOM     90  O   UNL A   1      35.593  35.298  33.095  1.00  0.00    -0.744 OA
ENDBRANCH  83  87
ENDBRANCH  56  80
BRANCH  68  91
ATOM     91  C   UNL A   1      42.741  29.474  33.749  1.00  0.00     0.023 A 
ATOM     92  C   UNL A   1      43.453  29.869  34.897  1.00  0.00     0.031 A 
ATOM     93  C   UNL A   1      41.946  28.316  33.845  1.00  0.00     0.131 A 
ATOM     94  C   UNL A   1      43.413  29.095  36.060  1.00  0.00     0.055 A 
ATOM     95  C   UNL A   1      41.842  27.592  35.038  1.00  0.00     0.041 A 
ATOM     96  F   UNL A   1      41.327  27.793  32.778  1.00  0.00    -0.206 F 
ATOM     97  C   UNL A   1      42.596  27.966  36.145  1.00  0.00     0.022 A 
BRANCH  94  98
ATOM     98  S   UNL A   1      44.577  29.430  37.408  1.00  0.00     0.124 S 
ATOM     99  O   UNL A   1      44.547  28.174  38.156  1.00  0.00    -0.237 OA
ATOM    100  O   UNL A   1      45.823  29.696  36.686  1.00  0.00    -0.237 OA
ATOM    101  O   UNL A   1      44.008  30.582  38.092  1.00  0.00    -0.744 OA
ENDBRANCH  94  98
ENDBRANCH  68  91
ENDBRANCH  42  43
ENDBRANCH  34  37
ENDBRANCH  32  33
ENDBRANCH   1  32
TORSDOF 16
ENDMDL
MODEL 3
REMARK VINA RESULT:     -12.9      2.201      2.757
REMARK SMILES C[N@@H+]1CCN(C(=O)c2ccc3[nH]c4c(c3c2)CSCC4)C[C@H]1C(=O)NCCCCNC(=O)c1ccc(-c2c3nc(c(-c4cc(S(=O)(=O)[O-])ccc4F)c4ccc([nH]4)c(-c4cc(S(=O)(=O)[O-])ccc4F)c4nc(c(-c5cc(S(=O)(=O)[O-])ccc5F)c5ccc2[nH]5)C=C4)C=C3)cc1
REMARK SMILES IDX 28 1 27 2 26 3 25 4 23 5 24 6 22 8 1 9 2 10 3 11 4 13 21 14
REMARK SMILES IDX 5 15 6 16 7 17 8 18 9 19 16 20 10 21 15 22 11 23 14 24 12 25
REMARK SMILES IDX 13 26 17 27 20 29 18 30 19 31 29 32 30 33 31 34 32 36 33 37
REMARK SMILES IDX 34 38 95 39 35 40 94 41 36 42 37 43 38 44 88 45 39 46 93 47
REMARK SMILES IDX 87 48 89 49 40 50 92 51 86 52 85 53 41 55 73 56 53 57 72 58
REMARK SMILES IDX 54 59 57 60 71 61 90 62 55 63 56 64 70 66 91 67 58 68 42 69
REMARK SMILES IDX 43 70 51 71 44 72 50 73 52 74 49 75 45 76 46 77 47 78 48 79
REMARK SMILES IDX 74 80 75 81 83 82 76 83 82 84 84 85 81 86 77 87 78 88 79 89
REMARK SMILES IDX 80 90 59 91 60 92 68 93 61 94 67 95 69 96 66 97 62 98 63 99
REMARK SMILES IDX 64 100 65 101
REMARK H PARENT 25 7 2 12 12 28 30 35 89 54 57 65
REMARK Flexibility Score: inf
ROOT
ATOM      1  C   UNL A   1      39.269  22.031  26.185  1.00  0.00     0.023 C 
ENDROOT
BRANCH   1   2
ATOM      2  C   UNL A   1      38.892  23.465  26.562  1.00  0.00     0.023 C 
BRANCH   2   3
ATOM      3  C   UNL A   1      37.512  23.912  26.098  1.00  0.00     0.116 C 
BRANCH   3   4
ATOM      4  N   UNL A   1      37.306  23.696  24.675  1.00  0.00    -0.351 N 
ATOM      5  C   UNL A   1      36.235  23.152  24.029  1.00  0.00     0.280 C 
ATOM      6  O   UNL A   1      36.268  23.099  22.795  1.00  0.00    -0.268 OA
ATOM      7  H   UNL A   1      38.047  23.984  24.095  1.00  0.00     0.163 HD
BRANCH   5   8
ATOM      8  C   UNL A   1      34.991  22.677  24.793  1.00  0.00     0.293 C 
ATOM      9  C   UNL A   1      35.776  20.368  24.995  1.00  0.00     0.333 C 
ATOM     10  N   UNL A   1      35.287  21.544  25.720  1.00  0.00    -0.324 N 
ATOM     11  C   UNL A   1      34.068  21.200  26.483  1.00  0.00     0.284 C 
ATOM     12  H   UNL A   1      36.023  21.840  26.361  1.00  0.00     0.348 HD
ATOM     13  C   UNL A   1      33.465  22.407  27.227  1.00  0.00     0.181 C 
ATOM     14  C   UNL A   1      34.366  23.902  25.492  1.00  0.00     0.195 C 
ATOM     15  N   UNL A   1      33.218  23.540  26.334  1.00  0.00    -0.326 N 
BRANCH  15  16
ATOM     16  C   UNL A   1      32.110  24.348  26.566  1.00  0.00     0.254 C 
ATOM     17  O   UNL A   1      31.152  24.009  27.257  1.00  0.00    -0.269 OA
BRANCH  16  18
ATOM     18  C   UNL A   1      32.081  25.705  25.980  1.00  0.00     0.040 A 
ATOM     19  C   UNL A   1      33.185  26.555  26.092  1.00  0.00     0.016 A 
ATOM     20  C   UNL A   1      30.926  26.102  25.291  1.00  0.00     0.024 A 
ATOM     21  C   UNL A   1      33.135  27.857  25.591  1.00  0.00     0.027 A 
ATOM     22  C   UNL A   1      30.868  27.402  24.753  1.00  0.00     0.004 A 
ATOM     23  C   UNL A   1      31.964  28.250  24.930  1.00  0.00     0.046 A 
ATOM     24  C   UNL A   1      29.890  28.119  23.994  1.00  0.00    -0.009 A 
ATOM     25  N   UNL A   1      31.647  29.454  24.342  1.00  0.00    -0.358 N 
ATOM     26  C   UNL A   1      30.424  29.368  23.737  1.00  0.00     0.021 A 
ATOM     27  C   UNL A   1      28.571  27.606  23.508  1.00  0.00     0.107 C 
ATOM     28  H   UNL A   1      32.215  30.257  24.356  1.00  0.00     0.166 HD
ATOM     29  C   UNL A   1      29.812  30.467  22.941  1.00  0.00     0.065 C 
ATOM     30  S   UNL A   1      27.526  28.884  22.713  1.00  0.00    -0.157 SA
ATOM     31  C   UNL A   1      28.829  29.893  21.915  1.00  0.00     0.076 C 
ENDBRANCH  16  18
ENDBRANCH  15  16
ENDBRANCH   5   8
ENDBRANCH   3   4
ENDBRANCH   2   3
ENDBRANCH   1   2
BRANCH   1  32
ATOM     32  C   UNL A   1      40.717  21.632  26.478  1.00  0.00     0.116 C 
BRANCH  32  33
ATOM     33  N   UNL A   1      41.678  22.045  25.476  1.00  0.00    -0.352 N 
ATOM     34  C   UNL A   1      42.543  23.099  25.356  1.00  0.00     0.251 C 
ATOM     35  H   UNL A   1      41.718  21.429  24.709  1.00  0.00     0.163 HD
ATOM     36  O   UNL A   1      43.376  23.005  24.451  1.00  0.00    -0.269 OA
BRANCH  34  37
ATOM     37  C   UNL A   1      42.495  24.346  26.169  1.00  0.00     0.039 A 
ATOM     38  C   UNL A   1      43.093  24.521  27.415  1.00  0.00     0.014 A 
ATOM     39  C   UNL A   1      41.715  25.397  25.648  1.00  0.00     0.014 A 
ATOM     40  C   UNL A   1      42.825  25.656  28.173  1.00  0.00     0.010 A 
ATOM     41  C   UNL A   1      41.464  26.549  26.390  1.00  0.00     0.010 A 
ATOM     42  C   UNL A   1      41.981  26.653  27.675  1.00  0.00    -0.014 A 
BRANCH  42  43
ATOM     43  C   UNL A   1      41.781  27.834  28.510  1.00  0.00     0.031 A 
ATOM     44  C   UNL A   1      42.741  28.943  28.254  1.00  0.00     0.074 A 
ATOM     45  C   UNL A   1      40.774  27.974  29.394  1.00  0.00     0.049 A 
ATOM     46  N   UNL A   1      43.637  29.419  29.054  1.00  0.00    -0.248 NA
ATOM     47  C   UNL A   1      42.800  29.495  26.894  1.00  0.00     0.031 C 
ATOM     48  C   UNL A   1      39.583  27.138  29.544  1.00  0.00     0.029 A 
ATOM     49  N   UNL A   1      40.554  28.986  30.283  1.00  0.00    -0.354 N 
ATOM     50  C   UNL A   1      44.264  30.458  28.365  1.00  0.00     0.074 A 
ATOM     51  C   UNL A   1      43.812  30.357  27.001  1.00  0.00     0.031 C 
ATOM     52  C   UNL A   1      38.663  27.808  30.277  1.00  0.00     0.029 A 
ATOM     53  C   UNL A   1      39.253  29.047  30.761  1.00  0.00     0.049 A 
ATOM     54  H   UNL A   1      41.257  29.615  30.562  1.00  0.00     0.167 HD
ATOM     55  C   UNL A   1      44.976  31.426  29.013  1.00  0.00     0.034 A 
ATOM     56  C   UNL A   1      38.672  30.087  31.414  1.00  0.00     0.034 A 
ATOM     57  C   UNL A   1      45.263  31.039  30.366  1.00  0.00     0.049 A 
ATOM     58  C   UNL A   1      39.739  30.968  31.946  1.00  0.00     0.074 A 
ATOM     59  C   UNL A   1      45.972  30.006  30.946  1.00  0.00     0.029 A 
ATOM     60  N   UNL A   1      44.484  31.572  31.364  1.00  0.00    -0.354 N 
ATOM     61  N   UNL A   1      40.517  30.658  32.943  1.00  0.00    -0.248 NA
ATOM     62  C   UNL A   1      40.232  32.025  31.072  1.00  0.00     0.031 C 
ATOM     63  C   UNL A   1      45.230  29.664  32.110  1.00  0.00     0.029 A 
ATOM     64  C   UNL A   1      44.157  30.551  32.215  1.00  0.00     0.049 A 
ATOM     65  H   UNL A   1      44.212  32.515  31.451  1.00  0.00     0.167 HD
ATOM     66  C   UNL A   1      41.767  31.109  32.551  1.00  0.00     0.074 A 
ATOM     67  C   UNL A   1      41.512  32.036  31.449  1.00  0.00     0.031 C 
ATOM     68  C   UNL A   1      42.910  30.475  32.947  1.00  0.00     0.034 A 
BRANCH  55  69
ATOM     69  C   UNL A   1      45.136  32.851  28.533  1.00  0.00     0.023 A 
ATOM     70  C   UNL A   1      46.325  33.346  27.970  1.00  0.00     0.031 A 
ATOM     71  C   UNL A   1      44.008  33.694  28.413  1.00  0.00     0.131 A 
ATOM     72  C   UNL A   1      46.374  34.586  27.320  1.00  0.00     0.055 A 
ATOM     73  C   UNL A   1      44.039  34.903  27.707  1.00  0.00     0.041 A 
ATOM     74  F   UNL A   1      42.818  33.339  28.922  1.00  0.00    -0.206 F 
ATOM     75  C   UNL A   1      45.227  35.353  27.150  1.00  0.00     0.022 A 
BRANCH  72  76
ATOM     76  S   UNL A   1      47.942  35.209  26.655  1.00  0.00     0.124 S 
ATOM     77  O   UNL A   1      48.599  33.977  26.227  1.00  0.00    -0.237 OA
ATOM     78  O   UNL A   1      47.479  36.086  25.583  1.00  0.00    -0.237 OA
ATOM     79  O   UNL A   1      48.550  35.890  27.793  1.00  0.00    -0.744 OA
ENDBRANCH  72  76
ENDBRANCH  55  69
BRANCH  56  80
ATOM     80  C   UNL A   1      37.290  30.588  31.216  1.00  0.00     0.023 A 
ATOM     81  C   UNL A   1      36.805  30.789  29.911  1.00  0.00     0.031 A 
ATOM     82  C   UNL A   1      36.562  31.166  32.270  1.00  0.00     0.131 A 
ATOM     83  C   UNL A   1      35.675  31.585  29.683  1.00  0.00     0.055 A 
ATOM     84  C   UNL A   1      35.422  31.948  32.043  1.00  0.00     0.041 A 
ATOM     85  F   UNL A   1      36.986  31.046  33.538  1.00  0.00    -0.206 F 
ATOM     86  C   UNL A   1      34.982  32.173  30.742  1.00  0.00     0.022 A 
BRANCH  83  87
ATOM     87  S   UNL A   1      35.148  31.943  27.986  1.00  0.00     0.124 S 
ATOM     88  O   UNL A   1      36.016  33.060  27.620  1.00  0.00    -0.237 OA
ATOM     89  O   UNL A   1      35.430  30.680  27.315  1.00  0.00    -0.237 OA
ATOM     90  O   UNL A   1      33.736  32.283  28.132  1.00  0.00    -0.744 OA
ENDBRANCH  83  87
ENDBRANCH  56  80
BRANCH  68  91
ATOM     91  C   UNL A   1      42.853  29.428  34.036  1.00  0.00     0.023 A 
ATOM     92  C   UNL A   1      43.450  29.769  35.265  1.00  0.00     0.031 A 
ATOM     93  C   UNL A   1      42.485  28.083  33.845  1.00  0.00     0.131 A 
ATOM     94  C   UNL A   1      43.718  28.786  36.222  1.00  0.00     0.055 A 
ATOM     95  C   UNL A   1      42.679  27.118  34.840  1.00  0.00     0.041 A 
ATOM     96  F   UNL A   1      42.022  27.637  32.669  1.00  0.00    -0.206 F 
ATOM     97  C   UNL A   1      43.319  27.463  36.025  1.00  0.00     0.022 A 
BRANCH  94  98
ATOM     98  S   UNL A   1      44.770  29.175  37.645  1.00  0.00     0.124 S 
ATOM     99  O   UNL A   1      46.055  29.460  37.006  1.00  0.00    -0.237 OA
ATOM    100  O   UNL A   1      44.092  30.337  38.226  1.00  0.00    -0.237 OA
ATOM    101  O   UNL A   1      44.728  27.970  38.459  1.00  0.00    -0.744 OA
ENDBRANCH  94  98
ENDBRANCH  68  91
ENDBRANCH  42  43
ENDBRANCH  34  37
ENDBRANCH  32  33
ENDBRANCH   1  32
TORSDOF 16
ENDMDL
