MODEL 1
REMARK VINA RESULT:     -11.5      0.000      0.000
REMARK SMILES C[C@H](NC(=O)CCn1ccccc1=O)C(=O)NCCCCNC(=O)c1ccc(-c2c3nc(c(-c4cc(S(=O)(=O)[O-])ccc4F)c4ccc([nH]4)c(-c4cc(S(=O)(=O)[O-])ccc4F)c4nc(c(-c5cc(S(=O)(=O)[O-])ccc5F)c5ccc2[nH]5)C=C4)C=C3)cc1
REMARK SMILES IDX 19 1 18 2 17 3 15 4 16 5 2 7 1 8 3 9 4 10 5 12 6 13 7 14
REMARK SMILES IDX 8 15 9 16 13 17 10 18 12 19 14 20 11 21 20 22 21 23 22 24
REMARK SMILES IDX 23 25 24 27 25 28 26 29 87 30 27 31 86 32 28 33 29 34 30 35
REMARK SMILES IDX 80 36 31 37 85 38 79 39 81 40 32 41 84 42 78 43 77 44 33 46
REMARK SMILES IDX 65 47 45 48 64 49 46 50 49 51 63 52 82 53 47 54 48 55 62 57
REMARK SMILES IDX 83 58 50 59 34 60 35 61 43 62 36 63 42 64 44 65 41 66 37 67
REMARK SMILES IDX 38 68 39 69 40 70 66 71 67 72 75 73 68 74 74 75 76 76 73 77
REMARK SMILES IDX 69 78 70 79 71 80 72 81 51 82 52 83 60 84 53 85 59 86 61 87
REMARK SMILES IDX 58 88 54 89 55 90 56 91 57 92
REMARK H PARENT 17 6 3 11 22 26 81 45 49 56
REMARK Flexibility Score: inf
ROOT
ATOM      1  C   UNL A   1      32.114  27.904  27.250  1.00  0.00     0.023 C 
ENDROOT
BRANCH   1   2
ATOM      2  C   UNL A   1      31.830  26.963  26.088  1.00  0.00     0.116 C 
BRANCH   2   3
ATOM      3  N   UNL A   1      32.148  25.592  26.410  1.00  0.00    -0.354 N 
ATOM      4  C   UNL A   1      32.077  24.490  25.622  1.00  0.00     0.242 C 
ATOM      5  O   UNL A   1      32.234  23.391  26.162  1.00  0.00    -0.273 OA
ATOM      6  H   UNL A   1      32.460  25.434  27.330  1.00  0.00     0.163 HD
BRANCH   4   7
ATOM      7  C   UNL A   1      31.726  24.581  24.129  1.00  0.00     0.168 C 
ATOM      8  C   UNL A   1      31.025  23.389  23.494  1.00  0.00     0.041 C 
BRANCH   7   9
ATOM      9  N   UNL A   1      32.790  25.073  23.269  1.00  0.00    -0.345 N 
ATOM     10  C   UNL A   1      32.675  25.890  22.184  1.00  0.00     0.222 C 
ATOM     11  H   UNL A   1      33.702  24.781  23.498  1.00  0.00     0.164 HD
ATOM     12  O   UNL A   1      33.652  26.013  21.442  1.00  0.00    -0.275 OA
BRANCH  10  13
ATOM     13  C   UNL A   1      31.408  26.697  21.938  1.00  0.00     0.122 C 
BRANCH  13  14
ATOM     14  C   UNL A   1      31.200  27.945  22.814  1.00  0.00     0.135 C 
BRANCH  14  15
ATOM     15  N   UNL A   1      29.944  28.695  22.621  1.00  0.00    -0.315 N 
ATOM     16  C   UNL A   1      29.943  29.905  21.934  1.00  0.00     0.089 A 
ATOM     17  C   UNL A   1      28.759  28.163  23.146  1.00  0.00     0.250 A 
ATOM     18  C   UNL A   1      28.861  30.693  21.911  1.00  0.00     0.018 A 
ATOM     19  C   UNL A   1      27.574  29.067  23.134  1.00  0.00     0.072 A 
ATOM     20  O   UNL A   1      28.655  27.052  23.661  1.00  0.00    -0.269 OA
ATOM     21  C   UNL A   1      27.652  30.277  22.571  1.00  0.00     0.007 A 
ENDBRANCH  14  15
ENDBRANCH  13  14
ENDBRANCH  10  13
ENDBRANCH   7   9
ENDBRANCH   4   7
ENDBRANCH   2   3
ENDBRANCH   1   2
BRANCH   1  22
ATOM     22  C   UNL A   1      31.638  29.339  27.052  1.00  0.00     0.023 C 
BRANCH  22  23
ATOM     23  C   UNL A   1      32.666  30.277  26.434  1.00  0.00     0.116 C 
BRANCH  23  24
ATOM     24  N   UNL A   1      32.520  31.657  26.884  1.00  0.00    -0.352 N 
ATOM     25  C   UNL A   1      33.395  32.432  27.615  1.00  0.00     0.251 C 
ATOM     26  H   UNL A   1      31.677  32.098  26.629  1.00  0.00     0.163 HD
ATOM     27  O   UNL A   1      33.060  33.530  28.028  1.00  0.00    -0.269 OA
BRANCH  25  28
ATOM     28  C   UNL A   1      34.727  31.875  27.920  1.00  0.00     0.039 A 
ATOM     29  C   UNL A   1      34.846  30.527  28.256  1.00  0.00     0.014 A 
ATOM     30  C   UNL A   1      35.826  32.733  27.999  1.00  0.00     0.014 A 
ATOM     31  C   UNL A   1      36.004  30.088  28.879  1.00  0.00     0.010 A 
ATOM     32  C   UNL A   1      37.028  32.256  28.526  1.00  0.00     0.010 A 
ATOM     33  C   UNL A   1      37.106  30.949  29.032  1.00  0.00    -0.014 A 
BRANCH  33  34
ATOM     34  C   UNL A   1      38.320  30.454  29.730  1.00  0.00     0.031 A 
ATOM     35  C   UNL A   1      38.634  30.875  31.140  1.00  0.00     0.074 A 
ATOM     36  C   UNL A   1      39.107  29.561  29.098  1.00  0.00     0.049 A 
ATOM     37  N   UNL A   1      39.638  30.516  31.899  1.00  0.00    -0.248 NA
ATOM     38  C   UNL A   1      37.709  31.822  31.783  1.00  0.00     0.031 C 
ATOM     39  C   UNL A   1      38.883  29.077  27.735  1.00  0.00     0.029 A 
ATOM     40  N   UNL A   1      40.220  28.880  29.516  1.00  0.00    -0.354 N 
ATOM     41  C   UNL A   1      39.478  31.205  33.097  1.00  0.00     0.074 A 
ATOM     42  C   UNL A   1      38.300  32.030  32.952  1.00  0.00     0.031 C 
ATOM     43  C   UNL A   1      39.781  28.126  27.456  1.00  0.00     0.029 A 
ATOM     44  C   UNL A   1      40.705  27.996  28.579  1.00  0.00     0.049 A 
ATOM     45  H   UNL A   1      40.633  29.009  30.400  1.00  0.00     0.167 HD
ATOM     46  C   UNL A   1      40.241  31.143  34.216  1.00  0.00     0.034 A 
ATOM     47  C   UNL A   1      41.779  27.183  28.607  1.00  0.00     0.034 A 
ATOM     48  C   UNL A   1      41.403  30.300  34.345  1.00  0.00     0.049 A 
ATOM     49  C   UNL A   1      42.626  27.152  29.849  1.00  0.00     0.074 A 
ATOM     50  C   UNL A   1      42.238  30.157  35.439  1.00  0.00     0.029 A 
ATOM     51  N   UNL A   1      41.893  29.456  33.358  1.00  0.00    -0.354 N 
ATOM     52  N   UNL A   1      42.454  27.803  30.976  1.00  0.00    -0.248 NA
ATOM     53  C   UNL A   1      43.813  26.289  29.828  1.00  0.00     0.031 C 
ATOM     54  C   UNL A   1      43.259  29.268  35.096  1.00  0.00     0.029 A 
ATOM     55  C   UNL A   1      43.028  28.805  33.810  1.00  0.00     0.049 A 
ATOM     56  H   UNL A   1      41.490  29.336  32.467  1.00  0.00     0.167 HD
ATOM     57  C   UNL A   1      43.509  27.425  31.801  1.00  0.00     0.074 A 
ATOM     58  C   UNL A   1      44.293  26.462  31.053  1.00  0.00     0.031 C 
ATOM     59  C   UNL A   1      43.804  27.847  33.056  1.00  0.00     0.034 A 
BRANCH  46  60
ATOM     60  C   UNL A   1      39.854  31.997  35.400  1.00  0.00     0.023 A 
ATOM     61  C   UNL A   1      38.970  31.494  36.376  1.00  0.00     0.031 A 
ATOM     62  C   UNL A   1      40.269  33.336  35.509  1.00  0.00     0.131 A 
ATOM     63  C   UNL A   1      38.514  32.332  37.402  1.00  0.00     0.055 A 
ATOM     64  C   UNL A   1      39.840  34.156  36.555  1.00  0.00     0.041 A 
ATOM     65  F   UNL A   1      41.112  33.864  34.606  1.00  0.00    -0.206 F 
ATOM     66  C   UNL A   1      38.949  33.658  37.500  1.00  0.00     0.022 A 
BRANCH  63  67
ATOM     67  S   UNL A   1      37.293  31.757  38.614  1.00  0.00     0.124 S 
ATOM     68  O   UNL A   1      36.200  32.704  38.408  1.00  0.00    -0.237 OA
ATOM     69  O   UNL A   1      37.031  30.394  38.163  1.00  0.00    -0.237 OA
ATOM     70  O   UNL A   1      37.985  31.876  39.892  1.00  0.00    -0.744 OA
ENDBRANCH  63  67
ENDBRANCH  46  60
BRANCH  47  71
ATOM     71  C   UNL A   1      42.053  26.321  27.422  1.00  0.00     0.023 A 
ATOM     72  C   UNL A   1      41.609  24.985  27.388  1.00  0.00     0.031 A 
ATOM     73  C   UNL A   1      42.898  26.764  26.392  1.00  0.00     0.131 A 
ATOM     74  C   UNL A   1      42.097  24.114  26.408  1.00  0.00     0.055 A 
ATOM     75  C   UNL A   1      43.314  25.911  25.367  1.00  0.00     0.041 A 
ATOM     76  F   UNL A   1      43.356  28.024  26.387  1.00  0.00    -0.206 F 
ATOM     77  C   UNL A   1      42.934  24.572  25.386  1.00  0.00     0.022 A 
BRANCH  74  78
ATOM     78  S   UNL A   1      41.804  22.327  26.529  1.00  0.00     0.124 S 
ATOM     79  O   UNL A   1      42.538  21.819  25.375  1.00  0.00    -0.237 OA
ATOM     80  O   UNL A   1      42.385  22.019  27.833  1.00  0.00    -0.237 OA
ATOM     81  O   UNL A   1      40.352  22.210  26.455  1.00  0.00    -0.744 OA
ENDBRANCH  74  78
ENDBRANCH  47  71
BRANCH  59  82
ATOM     82  C   UNL A   1      45.037  27.291  33.724  1.00  0.00     0.023 A 
ATOM     83  C   UNL A   1      44.955  26.116  34.494  1.00  0.00     0.031 A 
ATOM     84  C   UNL A   1      46.250  28.004  33.721  1.00  0.00     0.131 A 
ATOM     85  C   UNL A   1      46.052  25.710  35.263  1.00  0.00     0.055 A 
ATOM     86  C   UNL A   1      47.355  27.569  34.454  1.00  0.00     0.041 A 
ATOM     87  F   UNL A   1      46.373  29.135  33.009  1.00  0.00    -0.206 F 
ATOM     88  C   UNL A   1      47.254  26.426  35.241  1.00  0.00     0.022 A 
BRANCH  85  89
ATOM     89  S   UNL A   1      45.934  24.289  36.385  1.00  0.00     0.124 S 
ATOM     90  O   UNL A   1      46.460  23.207  35.556  1.00  0.00    -0.237 OA
ATOM     91  O   UNL A   1      46.793  24.700  37.492  1.00  0.00    -0.237 OA
ATOM     92  O   UNL A   1      44.512  24.201  36.694  1.00  0.00    -0.744 OA
ENDBRANCH  85  89
ENDBRANCH  59  82
ENDBRANCH  33  34
ENDBRANCH  25  28
ENDBRANCH  23  24
ENDBRANCH  22  23
ENDBRANCH   1  22
TORSDOF 18
ENDMDL
MODEL 2
REMARK VINA RESULT:     -11.4      5.103     10.166
REMARK SMILES C[C@H](NC(=O)CCn1ccccc1=O)C(=O)NCCCCNC(=O)c1ccc(-c2c3nc(c(-c4cc(S(=O)(=O)[O-])ccc4F)c4ccc([nH]4)c(-c4cc(S(=O)(=O)[O-])ccc4F)c4nc(c(-c5cc(S(=O)(=O)[O-])ccc5F)c5ccc2[nH]5)C=C4)C=C3)cc1
REMARK SMILES IDX 19 1 18 2 17 3 15 4 16 5 2 7 1 8 3 9 4 10 5 12 6 13 7 14
REMARK SMILES IDX 8 15 9 16 13 17 10 18 12 19 14 20 11 21 20 22 21 23 22 24
REMARK SMILES IDX 23 25 24 27 25 28 26 29 87 30 27 31 86 32 28 33 29 34 30 35
REMARK SMILES IDX 80 36 31 37 85 38 79 39 81 40 32 41 84 42 78 43 77 44 33 46
REMARK SMILES IDX 65 47 45 48 64 49 46 50 49 51 63 52 82 53 47 54 48 55 62 57
REMARK SMILES IDX 83 58 50 59 34 60 35 61 43 62 36 63 42 64 44 65 41 66 37 67
REMARK SMILES IDX 38 68 39 69 40 70 66 71 67 72 75 73 68 74 74 75 76 76 73 77
REMARK SMILES IDX 69 78 70 79 71 80 72 81 51 82 52 83 60 84 53 85 59 86 61 87
REMARK SMILES IDX 58 88 54 89 55 90 56 91 57 92
REMARK H PARENT 17 6 3 11 22 26 81 45 49 56
REMARK Flexibility Score: inf
ROOT
ATOM      1  C   UNL A   1      34.968  21.821  24.535  1.00  0.00     0.023 C 
ENDROOT
BRANCH   1   2
ATOM      2  C   UNL A   1      33.526  21.390  24.765  1.00  0.00     0.116 C 
BRANCH   2   3
ATOM      3  N   UNL A   1      32.598  22.148  23.962  1.00  0.00    -0.354 N 
ATOM      4  C   UNL A   1      31.548  22.911  24.358  1.00  0.00     0.242 C 
ATOM      5  O   UNL A   1      30.785  23.330  23.482  1.00  0.00    -0.273 OA
ATOM      6  H   UNL A   1      32.747  22.107  22.989  1.00  0.00     0.163 HD
BRANCH   4   7
ATOM      7  C   UNL A   1      31.254  23.177  25.842  1.00  0.00     0.168 C 
ATOM      8  C   UNL A   1      30.209  22.304  26.523  1.00  0.00     0.041 C 
BRANCH   7   9
ATOM      9  N   UNL A   1      31.070  24.574  26.198  1.00  0.00    -0.345 N 
ATOM     10  C   UNL A   1      32.034  25.513  26.417  1.00  0.00     0.222 C 
ATOM     11  H   UNL A   1      30.139  24.880  26.292  1.00  0.00     0.164 HD
ATOM     12  O   UNL A   1      31.701  26.581  26.934  1.00  0.00    -0.275 OA
BRANCH  10  13
ATOM     13  C   UNL A   1      33.469  25.288  25.958  1.00  0.00     0.122 C 
BRANCH  13  14
ATOM     14  C   UNL A   1      34.023  26.270  24.912  1.00  0.00     0.135 C 
BRANCH  14  15
ATOM     15  N   UNL A   1      33.305  26.350  23.625  1.00  0.00    -0.315 N 
ATOM     16  C   UNL A   1      32.378  27.362  23.396  1.00  0.00     0.089 A 
ATOM     17  C   UNL A   1      33.576  25.385  22.646  1.00  0.00     0.250 A 
ATOM     18  C   UNL A   1      31.580  27.347  22.322  1.00  0.00     0.018 A 
ATOM     19  C   UNL A   1      32.659  25.370  21.471  1.00  0.00     0.072 A 
ATOM     20  O   UNL A   1      34.458  24.533  22.723  1.00  0.00    -0.269 OA
ATOM     21  C   UNL A   1      31.697  26.291  21.352  1.00  0.00     0.007 A 
ENDBRANCH  14  15
ENDBRANCH  13  14
ENDBRANCH  10  13
ENDBRANCH   7   9
ENDBRANCH   4   7
ENDBRANCH   2   3
ENDBRANCH   1   2
BRANCH   1  22
ATOM     22  C   UNL A   1      36.024  20.841  25.036  1.00  0.00     0.023 C 
BRANCH  22  23
ATOM     23  C   UNL A   1      37.415  21.433  25.216  1.00  0.00     0.116 C 
BRANCH  23  24
ATOM     24  N   UNL A   1      38.435  20.422  25.475  1.00  0.00    -0.352 N 
ATOM     25  C   UNL A   1      39.647  20.554  26.117  1.00  0.00     0.251 C 
ATOM     26  H   UNL A   1      38.228  19.519  25.144  1.00  0.00     0.163 HD
ATOM     27  O   UNL A   1      40.449  19.634  26.130  1.00  0.00    -0.269 OA
BRANCH  25  28
ATOM     28  C   UNL A   1      39.963  21.850  26.748  1.00  0.00     0.039 A 
ATOM     29  C   UNL A   1      39.387  23.016  26.243  1.00  0.00     0.014 A 
ATOM     30  C   UNL A   1      40.932  21.906  27.750  1.00  0.00     0.014 A 
ATOM     31  C   UNL A   1      39.939  24.241  26.583  1.00  0.00     0.010 A 
ATOM     32  C   UNL A   1      41.409  23.149  28.171  1.00  0.00     0.010 A 
ATOM     33  C   UNL A   1      40.964  24.323  27.543  1.00  0.00    -0.014 A 
BRANCH  33  34
ATOM     34  C   UNL A   1      41.552  25.649  27.863  1.00  0.00     0.031 A 
ATOM     35  C   UNL A   1      42.916  26.039  27.358  1.00  0.00     0.074 A 
ATOM     36  C   UNL A   1      40.810  26.532  28.560  1.00  0.00     0.049 A 
ATOM     37  N   UNL A   1      43.562  27.164  27.526  1.00  0.00    -0.248 NA
ATOM     38  C   UNL A   1      43.653  25.039  26.569  1.00  0.00     0.031 C 
ATOM     39  C   UNL A   1      39.471  26.258  29.082  1.00  0.00     0.029 A 
ATOM     40  N   UNL A   1      41.051  27.832  28.920  1.00  0.00    -0.354 N 
ATOM     41  C   UNL A   1      44.786  27.003  26.884  1.00  0.00     0.074 A 
ATOM     42  C   UNL A   1      44.806  25.659  26.352  1.00  0.00     0.031 C 
ATOM     43  C   UNL A   1      38.978  27.375  29.629  1.00  0.00     0.029 A 
ATOM     44  C   UNL A   1      39.999  28.419  29.584  1.00  0.00     0.049 A 
ATOM     45  H   UNL A   1      41.894  28.300  28.722  1.00  0.00     0.167 HD
ATOM     46  C   UNL A   1      45.791  27.901  26.743  1.00  0.00     0.034 A 
ATOM     47  C   UNL A   1      39.868  29.651  30.114  1.00  0.00     0.034 A 
ATOM     48  C   UNL A   1      45.742  29.243  27.267  1.00  0.00     0.049 A 
ATOM     49  C   UNL A   1      41.008  30.621  29.971  1.00  0.00     0.074 A 
ATOM     50  C   UNL A   1      46.704  30.234  27.171  1.00  0.00     0.029 A 
ATOM     51  N   UNL A   1      44.681  29.787  27.978  1.00  0.00    -0.354 N 
ATOM     52  N   UNL A   1      42.153  30.456  29.351  1.00  0.00    -0.248 NA
ATOM     53  C   UNL A   1      40.849  31.938  30.598  1.00  0.00     0.031 C 
ATOM     54  C   UNL A   1      46.247  31.356  27.866  1.00  0.00     0.029 A 
ATOM     55  C   UNL A   1      44.972  31.091  28.343  1.00  0.00     0.049 A 
ATOM     56  H   UNL A   1      43.843  29.315  28.189  1.00  0.00     0.167 HD
ATOM     57  C   UNL A   1      42.851  31.648  29.510  1.00  0.00     0.074 A 
ATOM     58  C   UNL A   1      41.982  32.538  30.256  1.00  0.00     0.031 C 
ATOM     59  C   UNL A   1      44.099  31.970  29.087  1.00  0.00     0.034 A 
BRANCH  46  60
ATOM     60  C   UNL A   1      47.032  27.483  25.991  1.00  0.00     0.023 A 
ATOM     61  C   UNL A   1      47.173  27.803  24.626  1.00  0.00     0.031 A 
ATOM     62  C   UNL A   1      48.019  26.680  26.589  1.00  0.00     0.131 A 
ATOM     63  C   UNL A   1      48.263  27.303  23.901  1.00  0.00     0.055 A 
ATOM     64  C   UNL A   1      49.122  26.214  25.871  1.00  0.00     0.041 A 
ATOM     65  F   UNL A   1      47.932  26.346  27.887  1.00  0.00    -0.206 F 
ATOM     66  C   UNL A   1      49.241  26.516  24.518  1.00  0.00     0.022 A 
BRANCH  63  67
ATOM     67  S   UNL A   1      48.425  27.601  22.120  1.00  0.00     0.124 S 
ATOM     68  O   UNL A   1      47.159  28.262  21.812  1.00  0.00    -0.237 OA
ATOM     69  O   UNL A   1      49.607  28.454  22.057  1.00  0.00    -0.237 OA
ATOM     70  O   UNL A   1      48.582  26.265  21.554  1.00  0.00    -0.744 OA
ENDBRANCH  63  67
ENDBRANCH  46  60
BRANCH  47  71
ATOM     71  C   UNL A   1      38.584  30.009  30.782  1.00  0.00     0.023 A 
ATOM     72  C   UNL A   1      37.569  30.680  30.072  1.00  0.00     0.031 A 
ATOM     73  C   UNL A   1      38.421  29.838  32.166  1.00  0.00     0.131 A 
ATOM     74  C   UNL A   1      36.493  31.247  30.765  1.00  0.00     0.055 A 
ATOM     75  C   UNL A   1      37.302  30.332  32.840  1.00  0.00     0.041 A 
ATOM     76  F   UNL A   1      39.366  29.215  32.886  1.00  0.00    -0.206 F 
ATOM     77  C   UNL A   1      36.344  31.063  32.143  1.00  0.00     0.022 A 
BRANCH  74  78
ATOM     78  S   UNL A   1      35.353  32.386  29.932  1.00  0.00     0.124 S 
ATOM     79  O   UNL A   1      36.233  33.496  29.580  1.00  0.00    -0.237 OA
ATOM     80  O   UNL A   1      34.884  31.572  28.813  1.00  0.00    -0.237 OA
ATOM     81  O   UNL A   1      34.349  32.676  30.950  1.00  0.00    -0.744 OA
ENDBRANCH  74  78
ENDBRANCH  47  71
BRANCH  59  82
ATOM     82  C   UNL A   1      44.635  33.340  29.421  1.00  0.00     0.023 A 
ATOM     83  C   UNL A   1      44.621  34.359  28.450  1.00  0.00     0.031 A 
ATOM     84  C   UNL A   1      45.290  33.588  30.639  1.00  0.00     0.131 A 
ATOM     85  C   UNL A   1      45.287  35.566  28.698  1.00  0.00     0.055 A 
ATOM     86  C   UNL A   1      45.913  34.810  30.899  1.00  0.00     0.041 A 
ATOM     87  F   UNL A   1      45.337  32.643  31.592  1.00  0.00    -0.206 F 
ATOM     88  C   UNL A   1      45.926  35.799  29.921  1.00  0.00     0.022 A 
BRANCH  85  89
ATOM     89  S   UNL A   1      45.421  36.842  27.416  1.00  0.00     0.124 S 
ATOM     90  O   UNL A   1      46.444  37.723  27.975  1.00  0.00    -0.237 OA
ATOM     91  O   UNL A   1      45.836  36.065  26.252  1.00  0.00    -0.237 OA
ATOM     92  O   UNL A   1      44.081  37.412  27.344  1.00  0.00    -0.744 OA
ENDBRANCH  85  89
ENDBRANCH  59  82
ENDBRANCH  33  34
ENDBRANCH  25  28
ENDBRANCH  23  24
ENDBRANCH  22  23
ENDBRANCH   1  22
TORSDOF 18
ENDMDL
MODEL 3
REMARK VINA RESULT:     -11.3      1.760      3.509
REMARK SMILES C[C@H](NC(=O)CCn1ccccc1=O)C(=O)NCCCCNC(=O)c1ccc(-c2c3nc(c(-c4cc(S(=O)(=O)[O-])ccc4F)c4ccc([nH]4)c(-c4cc(S(=O)(=O)[O-])ccc4F)c4nc(c(-c5cc(S(=O)(=O)[O-])ccc5F)c5ccc2[nH]5)C=C4)C=C3)cc1
REMARK SMILES IDX 19 1 18 2 17 3 15 4 16 5 2 7 1 8 3 9 4 10 5 12 6 13 7 14
REMARK SMILES IDX 8 15 9 16 13 17 10 18 12 19 14 20 11 21 20 22 21 23 22 24
REMARK SMILES IDX 23 25 24 27 25 28 26 29 87 30 27 31 86 32 28 33 29 34 30 35
REMARK SMILES IDX 80 36 31 37 85 38 79 39 81 40 32 41 84 42 78 43 77 44 33 46
REMARK SMILES IDX 65 47 45 48 64 49 46 50 49 51 63 52 82 53 47 54 48 55 62 57
REMARK SMILES IDX 83 58 50 59 34 60 35 61 43 62 36 63 42 64 44 65 41 66 37 67
REMARK SMILES IDX 38 68 39 69 40 70 66 71 67 72 75 73 68 74 74 75 76 76 73 77
REMARK SMILES IDX 69 78 70 79 71 80 72 81 51 82 52 83 60 84 53 85 59 86 61 87
REMARK SMILES IDX 58 88 54 89 55 90 56 91 57 92
REMARK H PARENT 17 6 3 11 22 26 81 45 49 56
REMARK Flexibility Score: inf
ROOT
ATOM      1  C   UNL A   1      31.469  30.296  25.773  1.00  0.00     0.023 C 
ENDROOT
BRANCH   1   2
ATOM      2  C   UNL A   1      31.434  28.840  25.329  1.00  0.00     0.116 C 
BRANCH   2   3
ATOM      3  N   UNL A   1      30.662  28.659  24.123  1.00  0.00    -0.354 N 
ATOM      4  C   UNL A   1      31.068  28.215  22.907  1.00  0.00     0.242 C 
ATOM      5  O   UNL A   1      30.268  28.306  21.970  1.00  0.00    -0.273 OA
ATOM      6  H   UNL A   1      29.708  28.889  24.192  1.00  0.00     0.163 HD
BRANCH   4   7
ATOM      7  C   UNL A   1      32.496  27.700  22.666  1.00  0.00     0.168 C 
ATOM      8  C   UNL A   1      33.630  28.713  22.718  1.00  0.00     0.041 C 
BRANCH   7   9
ATOM      9  N   UNL A   1      32.651  26.809  21.529  1.00  0.00    -0.345 N 
ATOM     10  C   UNL A   1      32.925  25.474  21.547  1.00  0.00     0.222 C 
ATOM     11  H   UNL A   1      32.546  27.218  20.640  1.00  0.00     0.164 HD
ATOM     12  O   UNL A   1      33.250  24.932  20.488  1.00  0.00    -0.275 OA
BRANCH  10  13
ATOM     13  C   UNL A   1      32.752  24.652  22.817  1.00  0.00     0.122 C 
BRANCH  13  14
ATOM     14  C   UNL A   1      33.094  23.156  22.726  1.00  0.00     0.135 C 
BRANCH  14  15
ATOM     15  N   UNL A   1      34.297  22.700  23.450  1.00  0.00    -0.315 N 
ATOM     16  C   UNL A   1      35.533  23.288  23.202  1.00  0.00     0.089 A 
ATOM     17  C   UNL A   1      34.164  21.665  24.384  1.00  0.00     0.250 A 
ATOM     18  C   UNL A   1      36.664  22.770  23.699  1.00  0.00     0.018 A 
ATOM     19  C   UNL A   1      35.435  21.086  24.904  1.00  0.00     0.072 A 
ATOM     20  O   UNL A   1      33.096  21.175  24.743  1.00  0.00    -0.269 OA
ATOM     21  C   UNL A   1      36.613  21.605  24.542  1.00  0.00     0.007 A 
ENDBRANCH  14  15
ENDBRANCH  13  14
ENDBRANCH  10  13
ENDBRANCH   7   9
ENDBRANCH   4   7
ENDBRANCH   2   3
ENDBRANCH   1   2
BRANCH   1  22
ATOM     22  C   UNL A   1      32.158  30.549  27.109  1.00  0.00     0.023 C 
BRANCH  22  23
ATOM     23  C   UNL A   1      33.273  31.585  27.071  1.00  0.00     0.116 C 
BRANCH  23  24
ATOM     24  N   UNL A   1      32.796  32.944  27.307  1.00  0.00    -0.352 N 
ATOM     25  C   UNL A   1      33.229  33.870  28.231  1.00  0.00     0.251 C 
ATOM     26  H   UNL A   1      32.061  33.241  26.723  1.00  0.00     0.163 HD
ATOM     27  O   UNL A   1      32.628  34.920  28.390  1.00  0.00    -0.269 OA
BRANCH  25  28
ATOM     28  C   UNL A   1      34.409  33.535  29.050  1.00  0.00     0.039 A 
ATOM     29  C   UNL A   1      35.678  33.916  28.613  1.00  0.00     0.014 A 
ATOM     30  C   UNL A   1      34.254  32.727  30.178  1.00  0.00     0.014 A 
ATOM     31  C   UNL A   1      36.793  33.311  29.171  1.00  0.00     0.010 A 
ATOM     32  C   UNL A   1      35.387  32.207  30.807  1.00  0.00     0.010 A 
ATOM     33  C   UNL A   1      36.662  32.440  30.268  1.00  0.00    -0.014 A 
BRANCH  33  34
ATOM     34  C   UNL A   1      37.874  31.787  30.824  1.00  0.00     0.031 A 
ATOM     35  C   UNL A   1      38.336  32.068  32.228  1.00  0.00     0.074 A 
ATOM     36  C   UNL A   1      38.521  30.879  30.067  1.00  0.00     0.049 A 
ATOM     37  N   UNL A   1      39.357  31.565  32.873  1.00  0.00    -0.248 NA
ATOM     38  C   UNL A   1      37.558  33.042  33.011  1.00  0.00     0.031 C 
ATOM     39  C   UNL A   1      38.146  30.523  28.698  1.00  0.00     0.029 A 
ATOM     40  N   UNL A   1      39.594  30.071  30.341  1.00  0.00    -0.354 N 
ATOM     41  C   UNL A   1      39.358  32.171  34.125  1.00  0.00     0.074 A 
ATOM     42  C   UNL A   1      38.255  33.106  34.138  1.00  0.00     0.031 C 
ATOM     43  C   UNL A   1      38.926  29.520  28.278  1.00  0.00     0.029 A 
ATOM     44  C   UNL A   1      39.918  29.223  29.307  1.00  0.00     0.049 A 
ATOM     45  H   UNL A   1      40.085  30.095  31.194  1.00  0.00     0.167 HD
ATOM     46  C   UNL A   1      40.196  31.956  35.168  1.00  0.00     0.034 A 
ATOM     47  C   UNL A   1      40.909  28.318  29.187  1.00  0.00     0.034 A 
ATOM     48  C   UNL A   1      41.279  31.006  35.139  1.00  0.00     0.049 A 
ATOM     49  C   UNL A   1      41.844  28.116  30.347  1.00  0.00     0.074 A 
ATOM     50  C   UNL A   1      42.180  30.705  36.145  1.00  0.00     0.029 A 
ATOM     51  N   UNL A   1      41.609  30.199  34.058  1.00  0.00    -0.354 N 
ATOM     52  N   UNL A   1      41.823  28.691  31.528  1.00  0.00    -0.248 NA
ATOM     53  C   UNL A   1      42.938  27.155  30.166  1.00  0.00     0.031 C 
ATOM     54  C   UNL A   1      43.083  29.758  35.656  1.00  0.00     0.029 A 
ATOM     55  C   UNL A   1      42.709  29.417  34.365  1.00  0.00     0.049 A 
ATOM     56  H   UNL A   1      41.128  30.184  33.198  1.00  0.00     0.167 HD
ATOM     57  C   UNL A   1      42.899  28.159  32.232  1.00  0.00     0.074 A 
ATOM     58  C   UNL A   1      43.527  27.191  31.355  1.00  0.00     0.031 C 
ATOM     59  C   UNL A   1      43.329  28.455  33.484  1.00  0.00     0.034 A 
BRANCH  46  60
ATOM     60  C   UNL A   1      39.986  32.747  36.437  1.00  0.00     0.023 A 
ATOM     61  C   UNL A   1      39.020  32.333  37.376  1.00  0.00     0.031 A 
ATOM     62  C   UNL A   1      40.657  33.960  36.668  1.00  0.00     0.131 A 
ATOM     63  C   UNL A   1      38.738  33.138  38.488  1.00  0.00     0.055 A 
ATOM     64  C   UNL A   1      40.398  34.741  37.796  1.00  0.00     0.041 A 
ATOM     65  F   UNL A   1      41.588  34.399  35.804  1.00  0.00    -0.206 F 
ATOM     66  C   UNL A   1      39.427  34.336  38.706  1.00  0.00     0.022 A 
BRANCH  63  67
ATOM     67  S   UNL A   1      37.428  32.697  39.662  1.00  0.00     0.124 S 
ATOM     68  O   UNL A   1      37.898  31.407  40.161  1.00  0.00    -0.237 OA
ATOM     69  O   UNL A   1      37.490  33.797  40.619  1.00  0.00    -0.237 OA
ATOM     70  O   UNL A   1      36.224  32.645  38.840  1.00  0.00    -0.744 OA
ENDBRANCH  63  67
ENDBRANCH  46  60
BRANCH  47  71
ATOM     71  C   UNL A   1      41.006  27.529  27.926  1.00  0.00     0.023 A 
ATOM     72  C   UNL A   1      40.632  26.171  27.899  1.00  0.00     0.031 A 
ATOM     73  C   UNL A   1      41.627  28.067  26.788  1.00  0.00     0.131 A 
ATOM     74  C   UNL A   1      40.977  25.376  26.800  1.00  0.00     0.055 A 
ATOM     75  C   UNL A   1      41.893  27.289  25.659  1.00  0.00     0.041 A 
ATOM     76  F   UNL A   1      42.012  29.352  26.772  1.00  0.00    -0.206 F 
ATOM     77  C   UNL A   1      41.591  25.930  25.672  1.00  0.00     0.022 A 
BRANCH  74  78
ATOM     78  S   UNL A   1      40.802  23.571  26.872  1.00  0.00     0.124 S 
ATOM     79  O   UNL A   1      41.228  23.279  28.237  1.00  0.00    -0.237 OA
ATOM     80  O   UNL A   1      39.377  23.400  26.604  1.00  0.00    -0.237 OA
ATOM     81  O   UNL A   1      41.692  23.097  25.818  1.00  0.00    -0.744 OA
ENDBRANCH  74  78
ENDBRANCH  47  71
BRANCH  59  82
ATOM     82  C   UNL A   1      44.553  27.743  34.004  1.00  0.00     0.023 A 
ATOM     83  C   UNL A   1      44.414  26.580  34.787  1.00  0.00     0.031 A 
ATOM     84  C   UNL A   1      45.837  28.296  33.853  1.00  0.00     0.131 A 
ATOM     85  C   UNL A   1      45.535  26.032  35.423  1.00  0.00     0.055 A 
ATOM     86  C   UNL A   1      46.957  27.719  34.453  1.00  0.00     0.041 A 
ATOM     87  F   UNL A   1      46.016  29.408  33.124  1.00  0.00    -0.206 F 
ATOM     88  C   UNL A   1      46.806  26.591  35.254  1.00  0.00     0.022 A 
BRANCH  85  89
ATOM     89  S   UNL A   1      45.372  24.628  36.560  1.00  0.00     0.124 S 
ATOM     90  O   UNL A   1      46.036  23.560  35.816  1.00  0.00    -0.237 OA
ATOM     91  O   UNL A   1      46.086  25.105  37.741  1.00  0.00    -0.237 OA
ATOM     92  O   UNL A   1      43.930  24.470  36.721  1.00  0.00    -0.744 OA
ENDBRANCH  85  89
ENDBRANCH  59  82
ENDBRANCH  33  34
ENDBRANCH  25  28
ENDBRANCH  23  24
ENDBRANCH  22  23
ENDBRANCH   1  22
TORSDOF 18
ENDMDL
