MODEL 1
REMARK VINA RESULT:     -11.6      0.000      0.000
REMARK SMILES CC1=NN(c2ccccc2)C(=O)/C1=C\c1ccc(-c2cc(C(=O)NCCCCNC(=O)c3ccc(-c4c5nc(c(-c6cc(S(=O)(=O)[O-])ccc6F)c6ccc([nH]6)c(-c6cc(S(=O)(=O)[O-])ccc6F)c6nc(c(-c7cc(S(=O)(=O)[O-])ccc7F)c7ccc4[nH]7)C=C6)C=C5)cc3)ccc2Cl)o1
REMARK SMILES IDX 26 1 25 2 24 3 22 4 23 5 21 7 19 8 20 9 97 10 96 11 98 12
REMARK SMILES IDX 95 13 18 14 15 15 16 16 99 17 17 18 14 19 1 20 2 21 3 22
REMARK SMILES IDX 13 23 4 24 11 25 12 26 5 27 6 28 10 29 7 30 9 31 8 32 27 33
REMARK SMILES IDX 28 34 29 35 30 36 31 38 32 39 33 40 94 41 34 42 93 43 35 44
REMARK SMILES IDX 36 45 37 46 87 47 38 48 92 49 86 50 88 51 39 52 91 53 85 54
REMARK SMILES IDX 84 55 40 57 72 58 52 59 71 60 53 61 56 62 70 63 89 64 54 65
REMARK SMILES IDX 55 66 69 68 90 69 57 70 41 71 42 72 50 73 43 74 49 75 51 76
REMARK SMILES IDX 48 77 44 78 45 79 46 80 47 81 73 82 74 83 82 84 75 85 81 86
REMARK SMILES IDX 83 87 80 88 76 89 77 90 78 91 79 92 58 93 59 94 67 95 60 96
REMARK SMILES IDX 66 97 68 98 65 99 61 100 62 101 63 102 64 103
REMARK H PARENT 24 6 29 37 88 56 56 67
REMARK Flexibility Score: inf
ROOT
ATOM      1  C   UNL A   1      40.226  26.840  28.774  1.00  0.00     0.023 C 
ENDROOT
BRANCH   1   2
ATOM      2  C   UNL A   1      38.959  27.682  28.839  1.00  0.00     0.116 C 
BRANCH   2   3
ATOM      3  N   UNL A   1      38.449  27.912  30.183  1.00  0.00    -0.352 N 
ATOM      4  C   UNL A   1      37.603  28.886  30.672  1.00  0.00     0.251 C 
ATOM      5  O   UNL A   1      37.324  28.900  31.868  1.00  0.00    -0.269 OA
ATOM      6  H   UNL A   1      38.759  27.264  30.856  1.00  0.00     0.163 HD
BRANCH   4   7
ATOM      7  C   UNL A   1      37.059  29.953  29.787  1.00  0.00     0.040 A 
ATOM      8  C   UNL A   1      35.285  30.745  28.310  1.00  0.00     0.037 A 
ATOM      9  C   UNL A   1      35.877  29.715  29.064  1.00  0.00     0.027 A 
ATOM     10  C   UNL A   1      35.853  32.034  28.378  1.00  0.00     0.052 A 
ATOM     11  C   UNL A   1      37.079  32.238  29.007  1.00  0.00     0.022 A 
ATOM     12  Cl  UNL A   1      35.086  33.440  27.714  1.00  0.00    -0.084 Cl
ATOM     13  C   UNL A   1      37.714  31.177  29.641  1.00  0.00     0.015 A 
BRANCH   8  14
ATOM     14  C   UNL A   1      34.213  30.461  27.363  1.00  0.00     0.136 A 
ATOM     15  C   UNL A   1      33.283  29.512  25.588  1.00  0.00     0.128 A 
ATOM     16  C   UNL A   1      32.333  30.339  26.180  1.00  0.00     0.051 A 
ATOM     17  O   UNL A   1      34.429  29.562  26.356  1.00  0.00    -0.457 OA
ATOM     18  C   UNL A   1      32.942  30.985  27.262  1.00  0.00     0.051 A 
BRANCH  15  19
ATOM     19  C   UNL A   1      33.108  28.734  24.408  1.00  0.00     0.063 C 
ATOM     20  C   UNL A   1      33.365  26.859  21.913  1.00  0.00     0.069 C 
ATOM     21  C   UNL A   1      33.394  26.460  23.350  1.00  0.00     0.071 C 
ATOM     22  N   UNL A   1      33.658  25.246  23.764  1.00  0.00    -0.169 NA
ATOM     23  C   UNL A   1      33.174  27.397  24.467  1.00  0.00     0.068 C 
ATOM     24  N   UNL A   1      33.510  25.280  25.147  1.00  0.00    -0.196 N 
ATOM     25  C   UNL A   1      33.180  26.534  25.674  1.00  0.00     0.280 C 
ATOM     26  O   UNL A   1      32.962  26.870  26.820  1.00  0.00    -0.267 OA
BRANCH  24  27
ATOM     27  C   UNL A   1      33.604  24.091  25.893  1.00  0.00     0.069 A 
ATOM     28  C   UNL A   1      34.765  23.311  25.856  1.00  0.00     0.028 A 
ATOM     29  C   UNL A   1      32.539  23.686  26.711  1.00  0.00     0.028 A 
ATOM     30  C   UNL A   1      34.870  22.171  26.659  1.00  0.00     0.002 A 
ATOM     31  C   UNL A   1      32.625  22.519  27.471  1.00  0.00     0.002 A 
ATOM     32  C   UNL A   1      33.798  21.771  27.457  1.00  0.00     0.000 A 
ENDBRANCH  24  27
ENDBRANCH  15  19
ENDBRANCH   8  14
ENDBRANCH   4   7
ENDBRANCH   2   3
ENDBRANCH   1   2
BRANCH   1  33
ATOM     33  C   UNL A   1      40.121  25.530  28.007  1.00  0.00     0.023 C 
BRANCH  33  34
ATOM     34  C   UNL A   1      40.077  25.650  26.489  1.00  0.00     0.116 C 
BRANCH  34  35
ATOM     35  N   UNL A   1      41.236  25.073  25.823  1.00  0.00    -0.352 N 
ATOM     36  C   UNL A   1      42.492  25.604  25.630  1.00  0.00     0.251 C 
ATOM     37  H   UNL A   1      41.102  24.169  25.457  1.00  0.00     0.163 HD
ATOM     38  O   UNL A   1      43.307  25.001  24.938  1.00  0.00    -0.269 OA
BRANCH  36  39
ATOM     39  C   UNL A   1      42.835  26.917  26.220  1.00  0.00     0.039 A 
ATOM     40  C   UNL A   1      42.159  28.056  25.778  1.00  0.00     0.014 A 
ATOM     41  C   UNL A   1      43.787  27.018  27.236  1.00  0.00     0.014 A 
ATOM     42  C   UNL A   1      42.371  29.278  26.421  1.00  0.00     0.010 A 
ATOM     43  C   UNL A   1      43.926  28.214  27.936  1.00  0.00     0.010 A 
ATOM     44  C   UNL A   1      43.217  29.357  27.539  1.00  0.00    -0.014 A 
BRANCH  44  45
ATOM     45  C   UNL A   1      43.370  30.624  28.307  1.00  0.00     0.031 A 
ATOM     46  C   UNL A   1      44.483  31.580  27.970  1.00  0.00     0.074 A 
ATOM     47  C   UNL A   1      42.548  30.882  29.344  1.00  0.00     0.049 A 
ATOM     48  N   UNL A   1      44.825  32.695  28.563  1.00  0.00    -0.248 NA
ATOM     49  C   UNL A   1      45.343  31.219  26.833  1.00  0.00     0.031 C 
ATOM     50  C   UNL A   1      41.458  30.014  29.796  1.00  0.00     0.029 A 
ATOM     51  N   UNL A   1      42.501  31.946  30.212  1.00  0.00    -0.354 N 
ATOM     52  C   UNL A   1      45.943  33.161  27.880  1.00  0.00     0.074 A 
ATOM     53  C   UNL A   1      46.262  32.170  26.875  1.00  0.00     0.031 C 
ATOM     54  C   UNL A   1      40.832  30.595  30.831  1.00  0.00     0.029 A 
ATOM     55  C   UNL A   1      41.505  31.848  31.157  1.00  0.00     0.049 A 
ATOM     56  H   UNL A   1      43.122  32.709  30.162  1.00  0.00     0.167 HD
ATOM     57  C   UNL A   1      46.626  34.320  28.058  1.00  0.00     0.034 A 
ATOM     58  C   UNL A   1      41.178  32.666  32.179  1.00  0.00     0.034 A 
ATOM     59  C   UNL A   1      46.291  35.300  29.061  1.00  0.00     0.049 A 
ATOM     60  C   UNL A   1      41.979  33.929  32.383  1.00  0.00     0.074 A 
ATOM     61  C   UNL A   1      46.881  36.530  29.294  1.00  0.00     0.029 A 
ATOM     62  N   UNL A   1      45.283  35.161  30.008  1.00  0.00    -0.354 N 
ATOM     63  N   UNL A   1      43.001  34.380  31.693  1.00  0.00    -0.248 NA
ATOM     64  C   UNL A   1      41.574  34.797  33.496  1.00  0.00     0.031 C 
ATOM     65  C   UNL A   1      46.288  37.094  30.429  1.00  0.00     0.029 A 
ATOM     66  C   UNL A   1      45.262  36.263  30.849  1.00  0.00     0.049 A 
ATOM     67  H   UNL A   1      44.672  34.391  30.073  1.00  0.00     0.167 HD
ATOM     68  C   UNL A   1      43.336  35.603  32.269  1.00  0.00     0.074 A 
ATOM     69  C   UNL A   1      42.399  35.823  33.350  1.00  0.00     0.031 C 
ATOM     70  C   UNL A   1      44.328  36.468  31.932  1.00  0.00     0.034 A 
BRANCH  57  71
ATOM     71  C   UNL A   1      47.816  34.572  27.161  1.00  0.00     0.023 A 
ATOM     72  C   UNL A   1      49.124  34.240  27.558  1.00  0.00     0.031 A 
ATOM     73  C   UNL A   1      47.646  35.173  25.902  1.00  0.00     0.131 A 
ATOM     74  C   UNL A   1      50.213  34.584  26.743  1.00  0.00     0.055 A 
ATOM     75  C   UNL A   1      48.726  35.430  25.055  1.00  0.00     0.041 A 
ATOM     76  F   UNL A   1      46.425  35.535  25.476  1.00  0.00    -0.206 F 
ATOM     77  C   UNL A   1      50.021  35.149  25.481  1.00  0.00     0.022 A 
BRANCH  74  78
ATOM     78  S   UNL A   1      51.886  34.422  27.422  1.00  0.00     0.124 S 
ATOM     79  O   UNL A   1      52.370  33.227  26.735  1.00  0.00    -0.237 OA
ATOM     80  O   UNL A   1      52.509  35.681  27.031  1.00  0.00    -0.237 OA
ATOM     81  O   UNL A   1      51.659  34.257  28.857  1.00  0.00    -0.744 OA
ENDBRANCH  74  78
ENDBRANCH  57  71
BRANCH  58  82
ATOM     82  C   UNL A   1      40.056  32.319  33.101  1.00  0.00     0.023 A 
ATOM     83  C   UNL A   1      38.739  32.719  32.822  1.00  0.00     0.031 A 
ATOM     84  C   UNL A   1      40.292  31.627  34.303  1.00  0.00     0.131 A 
ATOM     85  C   UNL A   1      37.719  32.471  33.754  1.00  0.00     0.055 A 
ATOM     86  C   UNL A   1      39.262  31.328  35.197  1.00  0.00     0.041 A 
ATOM     87  F   UNL A   1      41.531  31.221  34.621  1.00  0.00    -0.206 F 
ATOM     88  C   UNL A   1      37.969  31.765  34.932  1.00  0.00     0.022 A 
BRANCH  85  89
ATOM     89  S   UNL A   1      36.076  33.179  33.452  1.00  0.00     0.124 S 
ATOM     90  O   UNL A   1      35.461  32.153  32.617  1.00  0.00    -0.237 OA
ATOM     91  O   UNL A   1      35.547  33.307  34.805  1.00  0.00    -0.237 OA
ATOM     92  O   UNL A   1      36.369  34.442  32.778  1.00  0.00    -0.744 OA
ENDBRANCH  85  89
ENDBRANCH  58  82
BRANCH  70  93
ATOM     93  C   UNL A   1      44.412  37.760  32.710  1.00  0.00     0.023 A 
ATOM     94  C   UNL A   1      43.550  38.841  32.453  1.00  0.00     0.031 A 
ATOM     95  C   UNL A   1      45.377  37.912  33.723  1.00  0.00     0.131 A 
ATOM     96  C   UNL A   1      43.710  40.046  33.158  1.00  0.00     0.055 A 
ATOM     97  C   UNL A   1      45.484  39.087  34.467  1.00  0.00     0.041 A 
ATOM     98  F   UNL A   1      46.231  36.916  34.008  1.00  0.00    -0.206 F 
ATOM     99  C   UNL A   1      44.658  40.167  34.177  1.00  0.00     0.022 A 
BRANCH  96 100
ATOM    100  S   UNL A   1      42.734  41.487  32.651  1.00  0.00     0.124 S 
ATOM    101  O   UNL A   1      42.013  40.973  31.491  1.00  0.00    -0.237 OA
ATOM    102  O   UNL A   1      41.926  41.749  33.837  1.00  0.00    -0.237 OA
ATOM    103  O   UNL A   1      43.745  42.499  32.354  1.00  0.00    -0.744 OA
ENDBRANCH  96 100
ENDBRANCH  70  93
ENDBRANCH  44  45
ENDBRANCH  36  39
ENDBRANCH  34  35
ENDBRANCH  33  34
ENDBRANCH   1  33
TORSDOF 17
ENDMDL
MODEL 2
REMARK VINA RESULT:     -11.3      6.185     10.766
REMARK SMILES CC1=NN(c2ccccc2)C(=O)/C1=C\c1ccc(-c2cc(C(=O)NCCCCNC(=O)c3ccc(-c4c5nc(c(-c6cc(S(=O)(=O)[O-])ccc6F)c6ccc([nH]6)c(-c6cc(S(=O)(=O)[O-])ccc6F)c6nc(c(-c7cc(S(=O)(=O)[O-])ccc7F)c7ccc4[nH]7)C=C6)C=C5)cc3)ccc2Cl)o1
REMARK SMILES IDX 26 1 25 2 24 3 22 4 23 5 21 7 19 8 20 9 97 10 96 11 98 12
REMARK SMILES IDX 95 13 18 14 15 15 16 16 99 17 17 18 14 19 1 20 2 21 3 22
REMARK SMILES IDX 13 23 4 24 11 25 12 26 5 27 6 28 10 29 7 30 9 31 8 32 27 33
REMARK SMILES IDX 28 34 29 35 30 36 31 38 32 39 33 40 94 41 34 42 93 43 35 44
REMARK SMILES IDX 36 45 37 46 87 47 38 48 92 49 86 50 88 51 39 52 91 53 85 54
REMARK SMILES IDX 84 55 40 57 72 58 52 59 71 60 53 61 56 62 70 63 89 64 54 65
REMARK SMILES IDX 55 66 69 68 90 69 57 70 41 71 42 72 50 73 43 74 49 75 51 76
REMARK SMILES IDX 48 77 44 78 45 79 46 80 47 81 73 82 74 83 82 84 75 85 81 86
REMARK SMILES IDX 83 87 80 88 76 89 77 90 78 91 79 92 58 93 59 94 67 95 60 96
REMARK SMILES IDX 66 97 68 98 65 99 61 100 62 101 63 102 64 103
REMARK H PARENT 24 6 29 37 88 56 56 67
REMARK Flexibility Score: inf
ROOT
ATOM      1  C   UNL A   1      30.446  32.090  25.283  1.00  0.00     0.023 C 
ENDROOT
BRANCH   1   2
ATOM      2  C   UNL A   1      30.499  30.852  24.398  1.00  0.00     0.116 C 
BRANCH   2   3
ATOM      3  N   UNL A   1      29.553  30.853  23.291  1.00  0.00    -0.352 N 
ATOM      4  C   UNL A   1      28.909  29.812  22.653  1.00  0.00     0.251 C 
ATOM      5  O   UNL A   1      28.161  30.052  21.710  1.00  0.00    -0.269 OA
ATOM      6  H   UNL A   1      29.337  31.746  22.937  1.00  0.00     0.163 HD
BRANCH   4   7
ATOM      7  C   UNL A   1      29.141  28.398  23.055  1.00  0.00     0.040 A 
ATOM      8  C   UNL A   1      30.692  26.539  23.370  1.00  0.00     0.037 A 
ATOM      9  C   UNL A   1      30.420  27.836  22.896  1.00  0.00     0.027 A 
ATOM     10  C   UNL A   1      29.682  25.864  24.086  1.00  0.00     0.052 A 
ATOM     11  C   UNL A   1      28.389  26.380  24.147  1.00  0.00     0.022 A 
ATOM     12  Cl  UNL A   1      29.959  24.383  24.942  1.00  0.00    -0.084 Cl
ATOM     13  C   UNL A   1      28.107  27.608  23.562  1.00  0.00     0.015 A 
BRANCH   8  14
ATOM     14  C   UNL A   1      31.921  25.846  23.000  1.00  0.00     0.136 A 
ATOM     15  C   UNL A   1      33.883  24.878  23.363  1.00  0.00     0.128 A 
ATOM     16  C   UNL A   1      33.627  24.831  21.995  1.00  0.00     0.051 A 
ATOM     17  O   UNL A   1      32.797  25.470  23.979  1.00  0.00    -0.457 OA
ATOM     18  C   UNL A   1      32.418  25.499  21.763  1.00  0.00     0.051 A 
BRANCH  15  19
ATOM     19  C   UNL A   1      35.047  24.391  24.021  1.00  0.00     0.063 C 
ATOM     20  C   UNL A   1      37.188  23.216  25.981  1.00  0.00     0.069 C 
ATOM     21  C   UNL A   1      36.048  22.491  25.348  1.00  0.00     0.071 C 
ATOM     22  N   UNL A   1      35.721  21.256  25.636  1.00  0.00    -0.169 NA
ATOM     23  C   UNL A   1      35.136  23.098  24.362  1.00  0.00     0.068 C 
ATOM     24  N   UNL A   1      34.668  20.939  24.783  1.00  0.00    -0.196 N 
ATOM     25  C   UNL A   1      34.259  21.978  23.939  1.00  0.00     0.280 C 
ATOM     26  O   UNL A   1      33.400  21.999  23.082  1.00  0.00    -0.267 OA
BRANCH  24  27
ATOM     27  C   UNL A   1      34.160  19.627  24.751  1.00  0.00     0.069 A 
ATOM     28  C   UNL A   1      32.793  19.383  24.920  1.00  0.00     0.028 A 
ATOM     29  C   UNL A   1      35.021  18.543  24.521  1.00  0.00     0.028 A 
ATOM     30  C   UNL A   1      32.295  18.080  24.814  1.00  0.00     0.002 A 
ATOM     31  C   UNL A   1      34.529  17.239  24.468  1.00  0.00     0.002 A 
ATOM     32  C   UNL A   1      33.163  17.010  24.598  1.00  0.00     0.000 A 
ENDBRANCH  24  27
ENDBRANCH  15  19
ENDBRANCH   8  14
ENDBRANCH   4   7
ENDBRANCH   2   3
ENDBRANCH   1   2
BRANCH   1  33
ATOM     33  C   UNL A   1      31.022  31.938  26.682  1.00  0.00     0.023 C 
BRANCH  33  34
ATOM     34  C   UNL A   1      32.462  32.404  26.861  1.00  0.00     0.116 C 
BRANCH  34  35
ATOM     35  N   UNL A   1      32.576  33.744  27.422  1.00  0.00    -0.352 N 
ATOM     36  C   UNL A   1      33.520  34.257  28.284  1.00  0.00     0.251 C 
ATOM     37  H   UNL A   1      31.875  34.377  27.143  1.00  0.00     0.163 HD
ATOM     38  O   UNL A   1      33.380  35.389  28.735  1.00  0.00    -0.269 OA
BRANCH  36  39
ATOM     39  C   UNL A   1      34.673  33.424  28.693  1.00  0.00     0.039 A 
ATOM     40  C   UNL A   1      35.965  33.924  28.523  1.00  0.00     0.014 A 
ATOM     41  C   UNL A   1      34.478  32.173  29.283  1.00  0.00     0.014 A 
ATOM     42  C   UNL A   1      37.055  33.210  29.029  1.00  0.00     0.010 A 
ATOM     43  C   UNL A   1      35.553  31.512  29.871  1.00  0.00     0.010 A 
ATOM     44  C   UNL A   1      36.854  32.024  29.754  1.00  0.00    -0.014 A 
BRANCH  44  45
ATOM     45  C   UNL A   1      37.990  31.309  30.399  1.00  0.00     0.031 A 
ATOM     46  C   UNL A   1      38.358  31.611  31.827  1.00  0.00     0.074 A 
ATOM     47  C   UNL A   1      38.726  30.437  29.681  1.00  0.00     0.049 A 
ATOM     48  N   UNL A   1      39.352  31.149  32.541  1.00  0.00    -0.248 NA
ATOM     49  C   UNL A   1      37.513  32.583  32.536  1.00  0.00     0.031 C 
ATOM     50  C   UNL A   1      38.495  30.091  28.277  1.00  0.00     0.029 A 
ATOM     51  N   UNL A   1      39.821  29.684  30.028  1.00  0.00    -0.354 N 
ATOM     52  C   UNL A   1      39.259  31.782  33.776  1.00  0.00     0.074 A 
ATOM     53  C   UNL A   1      38.154  32.711  33.687  1.00  0.00     0.031 C 
ATOM     54  C   UNL A   1      39.397  29.173  27.895  1.00  0.00     0.029 A 
ATOM     55  C   UNL A   1      40.305  28.902  29.004  1.00  0.00     0.049 A 
ATOM     56  H   UNL A   1      40.223  29.701  30.927  1.00  0.00     0.167 HD
ATOM     57  C   UNL A   1      40.008  31.587  34.890  1.00  0.00     0.034 A 
ATOM     58  C   UNL A   1      41.368  28.073  28.957  1.00  0.00     0.034 A 
ATOM     59  C   UNL A   1      41.104  30.651  34.964  1.00  0.00     0.049 A 
ATOM     60  C   UNL A   1      42.213  27.904  30.197  1.00  0.00     0.074 A 
ATOM     61  C   UNL A   1      41.895  30.337  36.054  1.00  0.00     0.029 A 
ATOM     62  N   UNL A   1      41.572  29.886  33.902  1.00  0.00    -0.354 N 
ATOM     63  N   UNL A   1      42.077  28.471  31.373  1.00  0.00    -0.248 NA
ATOM     64  C   UNL A   1      43.347  26.976  30.103  1.00  0.00     0.031 C 
ATOM     65  C   UNL A   1      42.891  29.448  35.634  1.00  0.00     0.029 A 
ATOM     66  C   UNL A   1      42.665  29.131  34.304  1.00  0.00     0.049 A 
ATOM     67  H   UNL A   1      41.185  29.880  32.997  1.00  0.00     0.167 HD
ATOM     68  C   UNL A   1      43.088  27.938  32.169  1.00  0.00     0.074 A 
ATOM     69  C   UNL A   1      43.814  26.996  31.343  1.00  0.00     0.031 C 
ATOM     70  C   UNL A   1      43.388  28.201  33.468  1.00  0.00     0.034 A 
BRANCH  57  71
ATOM     71  C   UNL A   1      39.681  32.422  36.105  1.00  0.00     0.023 A 
ATOM     72  C   UNL A   1      38.789  31.970  37.095  1.00  0.00     0.031 A 
ATOM     73  C   UNL A   1      40.249  33.698  36.269  1.00  0.00     0.131 A 
ATOM     74  C   UNL A   1      38.430  32.816  38.156  1.00  0.00     0.055 A 
ATOM     75  C   UNL A   1      39.957  34.499  37.375  1.00  0.00     0.041 A 
ATOM     76  F   UNL A   1      41.089  34.196  35.347  1.00  0.00    -0.206 F 
ATOM     77  C   UNL A   1      39.031  34.065  38.319  1.00  0.00     0.022 A 
BRANCH  74  78
ATOM     78  S   UNL A   1      37.055  32.320  39.229  1.00  0.00     0.124 S 
ATOM     79  O   UNL A   1      37.258  30.876  39.320  1.00  0.00    -0.237 OA
ATOM     80  O   UNL A   1      37.314  33.081  40.446  1.00  0.00    -0.237 OA
ATOM     81  O   UNL A   1      35.870  32.729  38.477  1.00  0.00    -0.744 OA
ENDBRANCH  74  78
ENDBRANCH  57  71
BRANCH  58  82
ATOM     82  C   UNL A   1      41.711  27.347  27.698  1.00  0.00     0.023 A 
ATOM     83  C   UNL A   1      41.587  25.951  27.608  1.00  0.00     0.031 A 
ATOM     84  C   UNL A   1      42.218  28.034  26.580  1.00  0.00     0.131 A 
ATOM     85  C   UNL A   1      42.014  25.282  26.451  1.00  0.00     0.055 A 
ATOM     86  C   UNL A   1      42.582  27.370  25.407  1.00  0.00     0.041 A 
ATOM     87  F   UNL A   1      42.359  29.369  26.609  1.00  0.00    -0.206 F 
ATOM     88  C   UNL A   1      42.495  25.983  25.344  1.00  0.00     0.022 A 
BRANCH  85  89
ATOM     89  S   UNL A   1      42.026  23.468  26.451  1.00  0.00     0.124 S 
ATOM     90  O   UNL A   1      42.717  23.176  25.199  1.00  0.00    -0.237 OA
ATOM     91  O   UNL A   1      42.761  23.170  27.674  1.00  0.00    -0.237 OA
ATOM     92  O   UNL A   1      40.607  23.118  26.478  1.00  0.00    -0.744 OA
ENDBRANCH  85  89
ENDBRANCH  58  82
BRANCH  70  93
ATOM     93  C   UNL A   1      44.518  27.416  34.088  1.00  0.00     0.023 A 
ATOM     94  C   UNL A   1      44.327  26.127  34.618  1.00  0.00     0.031 A 
ATOM     95  C   UNL A   1      45.810  27.971  34.157  1.00  0.00     0.131 A 
ATOM     96  C   UNL A   1      45.394  25.463  35.245  1.00  0.00     0.055 A 
ATOM     97  C   UNL A   1      46.881  27.277  34.718  1.00  0.00     0.041 A 
ATOM     98  F   UNL A   1      46.051  29.200  33.673  1.00  0.00    -0.206 F 
ATOM     99  C   UNL A   1      46.674  26.021  35.279  1.00  0.00     0.022 A 
BRANCH  96 100
ATOM    100  S   UNL A   1      45.061  23.904  36.111  1.00  0.00     0.124 S 
ATOM    101  O   UNL A   1      46.080  23.023  35.550  1.00  0.00    -0.237 OA
ATOM    102  O   UNL A   1      45.244  24.279  37.509  1.00  0.00    -0.237 OA
ATOM    103  O   UNL A   1      43.687  23.586  35.729  1.00  0.00    -0.744 OA
ENDBRANCH  96 100
ENDBRANCH  70  93
ENDBRANCH  44  45
ENDBRANCH  36  39
ENDBRANCH  34  35
ENDBRANCH  33  34
ENDBRANCH   1  33
TORSDOF 17
ENDMDL
MODEL 3
REMARK VINA RESULT:     -11.2      5.779      9.338
REMARK SMILES CC1=NN(c2ccccc2)C(=O)/C1=C\c1ccc(-c2cc(C(=O)NCCCCNC(=O)c3ccc(-c4c5nc(c(-c6cc(S(=O)(=O)[O-])ccc6F)c6ccc([nH]6)c(-c6cc(S(=O)(=O)[O-])ccc6F)c6nc(c(-c7cc(S(=O)(=O)[O-])ccc7F)c7ccc4[nH]7)C=C6)C=C5)cc3)ccc2Cl)o1
REMARK SMILES IDX 26 1 25 2 24 3 22 4 23 5 21 7 19 8 20 9 97 10 96 11 98 12
REMARK SMILES IDX 95 13 18 14 15 15 16 16 99 17 17 18 14 19 1 20 2 21 3 22
REMARK SMILES IDX 13 23 4 24 11 25 12 26 5 27 6 28 10 29 7 30 9 31 8 32 27 33
REMARK SMILES IDX 28 34 29 35 30 36 31 38 32 39 33 40 94 41 34 42 93 43 35 44
REMARK SMILES IDX 36 45 37 46 87 47 38 48 92 49 86 50 88 51 39 52 91 53 85 54
REMARK SMILES IDX 84 55 40 57 72 58 52 59 71 60 53 61 56 62 70 63 89 64 54 65
REMARK SMILES IDX 55 66 69 68 90 69 57 70 41 71 42 72 50 73 43 74 49 75 51 76
REMARK SMILES IDX 48 77 44 78 45 79 46 80 47 81 73 82 74 83 82 84 75 85 81 86
REMARK SMILES IDX 83 87 80 88 76 89 77 90 78 91 79 92 58 93 59 94 67 95 60 96
REMARK SMILES IDX 66 97 68 98 65 99 61 100 62 101 63 102 64 103
REMARK H PARENT 24 6 29 37 88 56 56 67
REMARK Flexibility Score: inf
ROOT
ATOM      1  C   UNL A   1      31.217  31.723  26.218  1.00  0.00     0.023 C 
ENDROOT
BRANCH   1   2
ATOM      2  C   UNL A   1      30.907  30.496  25.371  1.00  0.00     0.116 C 
BRANCH   2   3
ATOM      3  N   UNL A   1      30.206  30.775  24.126  1.00  0.00    -0.352 N 
ATOM      4  C   UNL A   1      29.656  29.924  23.190  1.00  0.00     0.251 C 
ATOM      5  O   UNL A   1      29.126  30.392  22.186  1.00  0.00    -0.269 OA
ATOM      6  H   UNL A   1      30.108  31.733  23.917  1.00  0.00     0.163 HD
BRANCH   4   7
ATOM      7  C   UNL A   1      29.736  28.446  23.347  1.00  0.00     0.040 A 
ATOM      8  C   UNL A   1      31.096  26.422  23.437  1.00  0.00     0.037 A 
ATOM      9  C   UNL A   1      30.974  27.800  23.184  1.00  0.00     0.027 A 
ATOM     10  C   UNL A   1      29.975  25.733  23.946  1.00  0.00     0.052 A 
ATOM     11  C   UNL A   1      28.729  26.353  24.004  1.00  0.00     0.022 A 
ATOM     12  Cl  UNL A   1      30.055  24.107  24.541  1.00  0.00    -0.084 Cl
ATOM     13  C   UNL A   1      28.601  27.684  23.629  1.00  0.00     0.015 A 
BRANCH   8  14
ATOM     14  C   UNL A   1      32.292  25.687  23.039  1.00  0.00     0.136 A 
ATOM     15  C   UNL A   1      34.218  24.636  23.359  1.00  0.00     0.128 A 
ATOM     16  C   UNL A   1      33.945  24.626  21.994  1.00  0.00     0.051 A 
ATOM     17  O   UNL A   1      33.164  25.258  24.000  1.00  0.00    -0.457 OA
ATOM     18  C   UNL A   1      32.761  25.345  21.789  1.00  0.00     0.051 A 
BRANCH  15  19
ATOM     19  C   UNL A   1      35.370  24.090  23.994  1.00  0.00     0.063 C 
ATOM     20  C   UNL A   1      37.491  22.818  25.914  1.00  0.00     0.069 C 
ATOM     21  C   UNL A   1      36.295  22.152  25.320  1.00  0.00     0.071 C 
ATOM     22  N   UNL A   1      35.905  20.942  25.635  1.00  0.00    -0.169 NA
ATOM     23  C   UNL A   1      35.393  22.798  24.350  1.00  0.00     0.068 C 
ATOM     24  N   UNL A   1      34.813  20.676  24.814  1.00  0.00    -0.196 N 
ATOM     25  C   UNL A   1      34.441  21.726  23.966  1.00  0.00     0.280 C 
ATOM     26  O   UNL A   1      33.562  21.787  23.132  1.00  0.00    -0.267 OA
BRANCH  24  27
ATOM     27  C   UNL A   1      34.229  19.395  24.814  1.00  0.00     0.069 A 
ATOM     28  C   UNL A   1      34.999  18.257  24.553  1.00  0.00     0.028 A 
ATOM     29  C   UNL A   1      32.866  19.242  25.106  1.00  0.00     0.028 A 
ATOM     30  C   UNL A   1      34.419  16.986  24.629  1.00  0.00     0.002 A 
ATOM     31  C   UNL A   1      32.278  17.978  25.129  1.00  0.00     0.002 A 
ATOM     32  C   UNL A   1      33.059  16.848  24.907  1.00  0.00     0.000 A 
ENDBRANCH  24  27
ENDBRANCH  15  19
ENDBRANCH   8  14
ENDBRANCH   4   7
ENDBRANCH   2   3
ENDBRANCH   1   2
BRANCH   1  33
ATOM     33  C   UNL A   1      32.288  31.549  27.284  1.00  0.00     0.023 C 
BRANCH  33  34
ATOM     34  C   UNL A   1      33.371  32.620  27.318  1.00  0.00     0.116 C 
BRANCH  34  35
ATOM     35  N   UNL A   1      32.892  33.921  27.764  1.00  0.00    -0.352 N 
ATOM     36  C   UNL A   1      33.304  34.690  28.830  1.00  0.00     0.251 C 
ATOM     37  H   UNL A   1      32.166  34.309  27.223  1.00  0.00     0.163 HD
ATOM     38  O   UNL A   1      32.693  35.716  29.111  1.00  0.00    -0.269 OA
BRANCH  36  39
ATOM     39  C   UNL A   1      34.451  34.250  29.655  1.00  0.00     0.039 A 
ATOM     40  C   UNL A   1      34.212  33.452  30.776  1.00  0.00     0.014 A 
ATOM     41  C   UNL A   1      35.759  34.585  29.300  1.00  0.00     0.014 A 
ATOM     42  C   UNL A   1      35.291  32.915  31.484  1.00  0.00     0.010 A 
ATOM     43  C   UNL A   1      36.828  33.973  29.946  1.00  0.00     0.010 A 
ATOM     44  C   UNL A   1      36.608  33.127  31.044  1.00  0.00    -0.014 A 
BRANCH  44  45
ATOM     45  C   UNL A   1      37.764  32.473  31.716  1.00  0.00     0.031 A 
ATOM     46  C   UNL A   1      38.473  31.325  31.048  1.00  0.00     0.074 A 
ATOM     47  C   UNL A   1      38.134  32.870  32.951  1.00  0.00     0.049 A 
ATOM     48  N   UNL A   1      39.450  30.581  31.499  1.00  0.00    -0.248 NA
ATOM     49  C   UNL A   1      38.000  30.946  29.709  1.00  0.00     0.031 C 
ATOM     50  C   UNL A   1      37.498  33.942  33.720  1.00  0.00     0.029 A 
ATOM     51  N   UNL A   1      39.130  32.417  33.781  1.00  0.00    -0.354 N 
ATOM     52  C   UNL A   1      39.701  29.641  30.505  1.00  0.00     0.074 A 
ATOM     53  C   UNL A   1      38.725  29.866  29.461  1.00  0.00     0.031 C 
ATOM     54  C   UNL A   1      38.140  34.085  34.890  1.00  0.00     0.029 A 
ATOM     55  C   UNL A   1      39.196  33.082  34.984  1.00  0.00     0.049 A 
ATOM     56  H   UNL A   1      39.741  31.684  33.538  1.00  0.00     0.167 HD
ATOM     57  C   UNL A   1      40.672  28.694  30.456  1.00  0.00     0.034 A 
ATOM     58  C   UNL A   1      40.004  32.898  36.048  1.00  0.00     0.034 A 
ATOM     59  C   UNL A   1      41.641  28.487  31.503  1.00  0.00     0.049 A 
ATOM     60  C   UNL A   1      41.049  31.810  35.988  1.00  0.00     0.074 A 
ATOM     61  C   UNL A   1      42.697  27.593  31.534  1.00  0.00     0.029 A 
ATOM     62  N   UNL A   1      41.669  29.172  32.712  1.00  0.00    -0.354 N 
ATOM     63  N   UNL A   1      41.306  30.965  35.016  1.00  0.00    -0.248 NA
ATOM     64  C   UNL A   1      41.917  31.661  37.162  1.00  0.00     0.031 C 
ATOM     65  C   UNL A   1      43.310  27.680  32.789  1.00  0.00     0.029 A 
ATOM     66  C   UNL A   1      42.699  28.694  33.509  1.00  0.00     0.049 A 
ATOM     67  H   UNL A   1      41.048  29.893  32.967  1.00  0.00     0.167 HD
ATOM     68  C   UNL A   1      42.392  30.208  35.451  1.00  0.00     0.074 A 
ATOM     69  C   UNL A   1      42.747  30.708  36.763  1.00  0.00     0.031 C 
ATOM     70  C   UNL A   1      43.039  29.194  34.821  1.00  0.00     0.034 A 
BRANCH  57  71
ATOM     71  C   UNL A   1      40.711  27.799  29.239  1.00  0.00     0.023 A 
ATOM     72  C   UNL A   1      41.643  27.997  28.205  1.00  0.00     0.031 A 
ATOM     73  C   UNL A   1      39.790  26.746  29.099  1.00  0.00     0.131 A 
ATOM     74  C   UNL A   1      41.582  27.210  27.044  1.00  0.00     0.055 A 
ATOM     75  C   UNL A   1      39.793  25.908  27.982  1.00  0.00     0.041 A 
ATOM     76  F   UNL A   1      38.860  26.520  30.040  1.00  0.00    -0.206 F 
ATOM     77  C   UNL A   1      40.683  26.148  26.939  1.00  0.00     0.022 A 
BRANCH  74  78
ATOM     78  S   UNL A   1      42.589  27.696  25.617  1.00  0.00     0.124 S 
ATOM     79  O   UNL A   1      41.856  28.858  25.120  1.00  0.00    -0.237 OA
ATOM     80  O   UNL A   1      43.886  27.969  26.224  1.00  0.00    -0.237 OA
ATOM     81  O   UNL A   1      42.540  26.521  24.748  1.00  0.00    -0.744 OA
ENDBRANCH  74  78
ENDBRANCH  57  71
BRANCH  58  82
ATOM     82  C   UNL A   1      39.856  33.744  37.270  1.00  0.00     0.023 A 
ATOM     83  C   UNL A   1      40.729  34.815  37.520  1.00  0.00     0.031 A 
ATOM     84  C   UNL A   1      38.871  33.462  38.234  1.00  0.00     0.131 A 
ATOM     85  C   UNL A   1      40.636  35.530  38.725  1.00  0.00     0.055 A 
ATOM     86  C   UNL A   1      38.742  34.216  39.401  1.00  0.00     0.041 A 
ATOM     87  F   UNL A   1      38.009  32.449  38.047  1.00  0.00    -0.206 F 
ATOM     88  C   UNL A   1      39.638  35.247  39.660  1.00  0.00     0.022 A 
BRANCH  85  89
ATOM     89  S   UNL A   1      41.905  36.770  39.100  1.00  0.00     0.124 S 
ATOM     90  O   UNL A   1      42.856  35.992  39.887  1.00  0.00    -0.237 OA
ATOM     91  O   UNL A   1      42.347  37.164  37.767  1.00  0.00    -0.237 OA
ATOM     92  O   UNL A   1      41.171  37.795  39.839  1.00  0.00    -0.744 OA
ENDBRANCH  85  89
ENDBRANCH  58  82
BRANCH  70  93
ATOM     93  C   UNL A   1      44.233  28.594  35.524  1.00  0.00     0.023 A 
ATOM     94  C   UNL A   1      44.102  27.545  36.451  1.00  0.00     0.031 A 
ATOM     95  C   UNL A   1      45.526  29.088  35.266  1.00  0.00     0.131 A 
ATOM     96  C   UNL A   1      45.234  27.065  37.129  1.00  0.00     0.055 A 
ATOM     97  C   UNL A   1      46.654  28.559  35.891  1.00  0.00     0.041 A 
ATOM     98  F   UNL A   1      45.711  30.093  34.396  1.00  0.00    -0.206 F 
ATOM     99  C   UNL A   1      46.511  27.551  36.840  1.00  0.00     0.022 A 
BRANCH  96 100
ATOM    100  S   UNL A   1      45.003  25.870  38.474  1.00  0.00     0.124 S 
ATOM    101  O   UNL A   1      44.105  26.591  39.369  1.00  0.00    -0.237 OA
ATOM    102  O   UNL A   1      44.424  24.726  37.778  1.00  0.00    -0.237 OA
ATOM    103  O   UNL A   1      46.355  25.664  38.986  1.00  0.00    -0.744 OA
ENDBRANCH  96 100
ENDBRANCH  70  93
ENDBRANCH  44  45
ENDBRANCH  36  39
ENDBRANCH  34  35
ENDBRANCH  33  34
ENDBRANCH   1  33
TORSDOF 17
ENDMDL
