MODEL 1
REMARK VINA RESULT:     -12.5      0.000      0.000
REMARK SMILES Cc1ccc(Cl)c(Nc2ccccc2C(=O)N[C@@H](C)C(=O)NCCCCNC(=O)c2ccc(-c3c4nc(c(-c5cc(S(=O)(=O)[O-])ccc5F)c5ccc([nH]5)c(-c5cc(S(=O)(=O)[O-])ccc5F)c5nc(c(-c6cc(S(=O)(=O)[O-])ccc6F)c6ccc3[nH]6)C=C5)C=C4)cc2)c1Cl
REMARK SMILES IDX 24 1 23 2 22 3 20 4 21 5 18 7 19 8 17 9 15 10 16 11 14 13
REMARK SMILES IDX 9 14 10 15 11 16 13 17 12 18 8 19 7 21 1 22 2 23 3 24 93 25
REMARK SMILES IDX 4 26 94 27 5 28 6 29 25 30 26 31 27 32 28 33 29 35 30 36
REMARK SMILES IDX 31 37 92 38 32 39 91 40 33 41 34 42 35 43 85 44 36 45 90 46
REMARK SMILES IDX 84 47 86 48 37 49 89 50 83 51 82 52 38 54 70 55 50 56 69 57
REMARK SMILES IDX 51 58 54 59 68 60 87 61 52 62 53 63 67 65 88 66 55 67 39 68
REMARK SMILES IDX 40 69 48 70 41 71 47 72 49 73 46 74 42 75 43 76 44 77 45 78
REMARK SMILES IDX 71 79 72 80 80 81 73 82 79 83 81 84 78 85 74 86 75 87 76 88
REMARK SMILES IDX 77 89 56 90 57 91 65 92 58 93 64 94 66 95 63 96 59 97 60 98
REMARK SMILES IDX 61 99 62 100
REMARK H PARENT 22 6 17 12 8 20 27 34 86 53 54 64
REMARK Flexibility Score: inf
ROOT
ATOM      1  C   UNL A   1      31.456  30.777  26.330  1.00  0.00     0.023 C 
ENDROOT
BRANCH   1   2
ATOM      2  C   UNL A   1      32.857  30.148  26.361  1.00  0.00     0.116 C 
BRANCH   2   3
ATOM      3  N   UNL A   1      33.032  29.205  27.447  1.00  0.00    -0.354 N 
ATOM      4  C   UNL A   1      32.138  28.177  27.515  1.00  0.00     0.242 C 
ATOM      5  O   UNL A   1      31.080  28.394  28.104  1.00  0.00    -0.273 OA
ATOM      6  H   UNL A   1      33.761  29.302  28.102  1.00  0.00     0.163 HD
BRANCH   4   7
ATOM      7  C   UNL A   1      32.459  26.835  26.818  1.00  0.00     0.168 C 
ATOM      8  C   UNL A   1      33.441  26.896  25.659  1.00  0.00     0.041 C 
BRANCH   7   9
ATOM      9  N   UNL A   1      31.155  26.331  26.424  1.00  0.00    -0.340 N 
ATOM     10  C   UNL A   1      30.817  25.023  26.149  1.00  0.00     0.254 C 
ATOM     11  O   UNL A   1      29.706  24.663  26.553  1.00  0.00    -0.269 OA
ATOM     12  H   UNL A   1      30.434  26.997  26.345  1.00  0.00     0.164 HD
BRANCH  10  13
ATOM     13  C   UNL A   1      31.540  24.154  25.161  1.00  0.00     0.063 A 
ATOM     14  C   UNL A   1      31.556  24.154  23.750  1.00  0.00     0.051 A 
ATOM     15  C   UNL A   1      32.241  23.100  23.093  1.00  0.00     0.027 A 
ATOM     16  C   UNL A   1      32.960  22.126  23.783  1.00  0.00     0.002 A 
ATOM     17  C   UNL A   1      32.302  23.163  25.836  1.00  0.00     0.016 A 
ATOM     18  C   UNL A   1      33.012  22.173  25.163  1.00  0.00     0.001 A 
BRANCH  14  19
ATOM     19  N   UNL A   1      31.067  25.139  22.869  1.00  0.00    -0.352 N 
ATOM     20  H   UNL A   1      30.784  24.769  22.001  1.00  0.00     0.167 HD
BRANCH  19  21
ATOM     21  C   UNL A   1      30.891  26.547  22.951  1.00  0.00     0.077 A 
ATOM     22  C   UNL A   1      28.197  29.272  23.118  1.00  0.00     0.046 C 
ATOM     23  C   UNL A   1      29.544  28.600  23.047  1.00  0.00    -0.030 A 
ATOM     24  C   UNL A   1      30.655  29.360  22.649  1.00  0.00     0.006 A 
ATOM     25  C   UNL A   1      29.681  27.205  23.257  1.00  0.00     0.069 A 
ATOM     26  C   UNL A   1      31.884  28.747  22.439  1.00  0.00     0.023 A 
ATOM     27  Cl  UNL A   1      28.344  26.353  23.967  1.00  0.00    -0.082 Cl
ATOM     28  C   UNL A   1      31.992  27.362  22.573  1.00  0.00     0.066 A 
ATOM     29  Cl  UNL A   1      33.530  26.648  22.190  1.00  0.00    -0.082 Cl
ENDBRANCH  19  21
ENDBRANCH  14  19
ENDBRANCH  10  13
ENDBRANCH   7   9
ENDBRANCH   4   7
ENDBRANCH   2   3
ENDBRANCH   1   2
BRANCH   1  30
ATOM     30  C   UNL A   1      31.404  32.272  26.658  1.00  0.00     0.023 C 
BRANCH  30  31
ATOM     31  C   UNL A   1      32.715  32.858  27.164  1.00  0.00     0.116 C 
BRANCH  31  32
ATOM     32  N   UNL A   1      32.541  34.182  27.741  1.00  0.00    -0.352 N 
ATOM     33  C   UNL A   1      33.190  34.776  28.793  1.00  0.00     0.251 C 
ATOM     34  H   UNL A   1      31.850  34.736  27.312  1.00  0.00     0.163 HD
ATOM     35  O   UNL A   1      32.789  35.844  29.230  1.00  0.00    -0.269 OA
BRANCH  33  36
ATOM     36  C   UNL A   1      34.347  34.095  29.397  1.00  0.00     0.039 A 
ATOM     37  C   UNL A   1      35.625  34.430  28.952  1.00  0.00     0.014 A 
ATOM     38  C   UNL A   1      34.164  33.151  30.411  1.00  0.00     0.014 A 
ATOM     39  C   UNL A   1      36.735  33.853  29.567  1.00  0.00     0.010 A 
ATOM     40  C   UNL A   1      35.271  32.638  31.073  1.00  0.00     0.010 A 
ATOM     41  C   UNL A   1      36.565  32.980  30.653  1.00  0.00    -0.014 A 
BRANCH  41  42
ATOM     42  C   UNL A   1      37.732  32.394  31.356  1.00  0.00     0.031 A 
ATOM     43  C   UNL A   1      38.468  31.242  30.734  1.00  0.00     0.074 A 
ATOM     44  C   UNL A   1      38.075  32.855  32.574  1.00  0.00     0.049 A 
ATOM     45  N   UNL A   1      39.437  30.517  31.227  1.00  0.00    -0.248 NA
ATOM     46  C   UNL A   1      38.033  30.832  29.389  1.00  0.00     0.031 C 
ATOM     47  C   UNL A   1      37.410  33.953  33.280  1.00  0.00     0.029 A 
ATOM     48  N   UNL A   1      39.061  32.454  33.438  1.00  0.00    -0.354 N 
ATOM     49  C   UNL A   1      39.717  29.556  30.261  1.00  0.00     0.074 A 
ATOM     50  C   UNL A   1      38.771  29.753  29.185  1.00  0.00     0.031 C 
ATOM     51  C   UNL A   1      38.021  34.150  34.459  1.00  0.00     0.029 A 
ATOM     52  C   UNL A   1      39.083  33.162  34.617  1.00  0.00     0.049 A 
ATOM     53  H   UNL A   1      39.694  31.729  33.233  1.00  0.00     0.167 HD
ATOM     54  C   UNL A   1      40.691  28.613  30.266  1.00  0.00     0.034 A 
ATOM     55  C   UNL A   1      39.858  33.015  35.710  1.00  0.00     0.034 A 
ATOM     56  C   UNL A   1      41.628  28.445  31.350  1.00  0.00     0.049 A 
ATOM     57  C   UNL A   1      40.908  31.932  35.709  1.00  0.00     0.074 A 
ATOM     58  C   UNL A   1      42.682  27.552  31.446  1.00  0.00     0.029 A 
ATOM     59  N   UNL A   1      41.620  29.179  32.530  1.00  0.00    -0.354 N 
ATOM     60  N   UNL A   1      41.187  31.052  34.774  1.00  0.00    -0.248 NA
ATOM     61  C   UNL A   1      41.754  31.828  36.905  1.00  0.00     0.031 C 
ATOM     62  C   UNL A   1      43.260  27.694  32.712  1.00  0.00     0.029 A 
ATOM     63  C   UNL A   1      42.630  28.737  33.372  1.00  0.00     0.049 A 
ATOM     64  H   UNL A   1      40.990  29.906  32.738  1.00  0.00     0.167 HD
ATOM     65  C   UNL A   1      42.269  30.318  35.255  1.00  0.00     0.074 A 
ATOM     66  C   UNL A   1      42.593  30.864  36.557  1.00  0.00     0.031 C 
ATOM     67  C   UNL A   1      42.938  29.293  34.669  1.00  0.00     0.034 A 
BRANCH  54  68
ATOM     68  C   UNL A   1      40.763  27.680  29.081  1.00  0.00     0.023 A 
ATOM     69  C   UNL A   1      41.705  27.862  28.053  1.00  0.00     0.031 A 
ATOM     70  C   UNL A   1      39.859  26.610  28.961  1.00  0.00     0.131 A 
ATOM     71  C   UNL A   1      41.669  27.041  26.915  1.00  0.00     0.055 A 
ATOM     72  C   UNL A   1      39.887  25.740  27.869  1.00  0.00     0.041 A 
ATOM     73  F   UNL A   1      38.920  26.399  29.897  1.00  0.00    -0.206 F 
ATOM     74  C   UNL A   1      40.786  25.963  26.829  1.00  0.00     0.022 A 
BRANCH  71  75
ATOM     75  S   UNL A   1      42.686  27.498  25.485  1.00  0.00     0.124 S 
ATOM     76  O   UNL A   1      42.627  26.279  24.682  1.00  0.00    -0.237 OA
ATOM     77  O   UNL A   1      41.975  28.651  24.948  1.00  0.00    -0.237 OA
ATOM     78  O   UNL A   1      43.994  27.785  26.071  1.00  0.00    -0.744 OA
ENDBRANCH  71  75
ENDBRANCH  54  68
BRANCH  55  79
ATOM     79  C   UNL A   1      39.668  33.898  36.897  1.00  0.00     0.023 A 
ATOM     80  C   UNL A   1      39.094  33.405  38.078  1.00  0.00     0.031 A 
ATOM     81  C   UNL A   1      40.017  35.259  36.853  1.00  0.00     0.131 A 
ATOM     82  C   UNL A   1      38.837  34.277  39.149  1.00  0.00     0.055 A 
ATOM     83  C   UNL A   1      39.817  36.109  37.942  1.00  0.00     0.041 A 
ATOM     84  F   UNL A   1      40.574  35.783  35.749  1.00  0.00    -0.206 F 
ATOM     85  C   UNL A   1      39.209  35.622  39.095  1.00  0.00     0.022 A 
BRANCH  82  86
ATOM     86  S   UNL A   1      37.918  33.645  40.579  1.00  0.00     0.124 S 
ATOM     87  O   UNL A   1      37.801  34.841  41.406  1.00  0.00    -0.237 OA
ATOM     88  O   UNL A   1      36.685  33.169  39.960  1.00  0.00    -0.237 OA
ATOM     89  O   UNL A   1      38.791  32.601  41.110  1.00  0.00    -0.744 OA
ENDBRANCH  82  86
ENDBRANCH  55  79
BRANCH  67  90
ATOM     90  C   UNL A   1      44.133  28.739  35.407  1.00  0.00     0.023 A 
ATOM     91  C   UNL A   1      44.020  27.677  36.320  1.00  0.00     0.031 A 
ATOM     92  C   UNL A   1      45.409  29.287  35.183  1.00  0.00     0.131 A 
ATOM     93  C   UNL A   1      45.155  27.230  37.013  1.00  0.00     0.055 A 
ATOM     94  C   UNL A   1      46.545  28.794  35.827  1.00  0.00     0.041 A 
ATOM     95  F   UNL A   1      45.575  30.305  34.325  1.00  0.00    -0.206 F 
ATOM     96  C   UNL A   1      46.419  27.767  36.758  1.00  0.00     0.022 A 
BRANCH  93  97
ATOM     97  S   UNL A   1      44.945  25.992  38.323  1.00  0.00     0.124 S 
ATOM     98  O   UNL A   1      46.299  25.465  38.461  1.00  0.00    -0.237 OA
ATOM     99  O   UNL A   1      44.457  26.796  39.438  1.00  0.00    -0.237 OA
ATOM    100  O   UNL A   1      43.971  25.059  37.760  1.00  0.00    -0.744 OA
ENDBRANCH  93  97
ENDBRANCH  67  90
ENDBRANCH  41  42
ENDBRANCH  33  36
ENDBRANCH  31  32
ENDBRANCH  30  31
ENDBRANCH   1  30
TORSDOF 18
ENDMDL
MODEL 2
REMARK VINA RESULT:     -12.3      1.557      7.630
REMARK SMILES Cc1ccc(Cl)c(Nc2ccccc2C(=O)N[C@@H](C)C(=O)NCCCCNC(=O)c2ccc(-c3c4nc(c(-c5cc(S(=O)(=O)[O-])ccc5F)c5ccc([nH]5)c(-c5cc(S(=O)(=O)[O-])ccc5F)c5nc(c(-c6cc(S(=O)(=O)[O-])ccc6F)c6ccc3[nH]6)C=C5)C=C4)cc2)c1Cl
REMARK SMILES IDX 24 1 23 2 22 3 20 4 21 5 18 7 19 8 17 9 15 10 16 11 14 13
REMARK SMILES IDX 9 14 10 15 11 16 13 17 12 18 8 19 7 21 1 22 2 23 3 24 93 25
REMARK SMILES IDX 4 26 94 27 5 28 6 29 25 30 26 31 27 32 28 33 29 35 30 36
REMARK SMILES IDX 31 37 92 38 32 39 91 40 33 41 34 42 35 43 85 44 36 45 90 46
REMARK SMILES IDX 84 47 86 48 37 49 89 50 83 51 82 52 38 54 70 55 50 56 69 57
REMARK SMILES IDX 51 58 54 59 68 60 87 61 52 62 53 63 67 65 88 66 55 67 39 68
REMARK SMILES IDX 40 69 48 70 41 71 47 72 49 73 46 74 42 75 43 76 44 77 45 78
REMARK SMILES IDX 71 79 72 80 80 81 73 82 79 83 81 84 78 85 74 86 75 87 76 88
REMARK SMILES IDX 77 89 56 90 57 91 65 92 58 93 64 94 66 95 63 96 59 97 60 98
REMARK SMILES IDX 61 99 62 100
REMARK H PARENT 22 6 17 12 8 20 27 34 86 53 54 64
REMARK Flexibility Score: inf
ROOT
ATOM      1  C   UNL A   1      31.646  30.427  26.209  1.00  0.00     0.023 C 
ENDROOT
BRANCH   1   2
ATOM      2  C   UNL A   1      33.006  29.727  26.350  1.00  0.00     0.116 C 
BRANCH   2   3
ATOM      3  N   UNL A   1      33.054  28.799  27.461  1.00  0.00    -0.354 N 
ATOM      4  C   UNL A   1      32.070  27.855  27.514  1.00  0.00     0.242 C 
ATOM      5  O   UNL A   1      31.014  28.179  28.054  1.00  0.00    -0.273 OA
ATOM      6  H   UNL A   1      33.763  28.846  28.143  1.00  0.00     0.163 HD
BRANCH   4   7
ATOM      7  C   UNL A   1      32.297  26.474  26.858  1.00  0.00     0.168 C 
ATOM      8  C   UNL A   1      33.200  26.449  25.634  1.00  0.00     0.041 C 
BRANCH   7   9
ATOM      9  N   UNL A   1      30.953  26.003  26.572  1.00  0.00    -0.340 N 
ATOM     10  C   UNL A   1      30.555  24.699  26.368  1.00  0.00     0.254 C 
ATOM     11  O   UNL A   1      29.464  24.391  26.862  1.00  0.00    -0.269 OA
ATOM     12  H   UNL A   1      30.250  26.690  26.520  1.00  0.00     0.164 HD
BRANCH  10  13
ATOM     13  C   UNL A   1      31.178  23.772  25.365  1.00  0.00     0.063 A 
ATOM     14  C   UNL A   1      31.119  23.743  23.955  1.00  0.00     0.051 A 
ATOM     15  C   UNL A   1      31.712  22.641  23.288  1.00  0.00     0.027 A 
ATOM     16  C   UNL A   1      32.414  21.643  23.962  1.00  0.00     0.002 A 
ATOM     17  C   UNL A   1      31.921  22.756  26.022  1.00  0.00     0.016 A 
ATOM     18  C   UNL A   1      32.541  21.716  25.336  1.00  0.00     0.001 A 
BRANCH  14  19
ATOM     19  N   UNL A   1      30.637  24.735  23.079  1.00  0.00    -0.352 N 
ATOM     20  H   UNL A   1      29.969  24.390  22.443  1.00  0.00     0.167 HD
BRANCH  19  21
ATOM     21  C   UNL A   1      30.898  26.122  22.906  1.00  0.00     0.077 A 
ATOM     22  C   UNL A   1      33.739  28.633  22.330  1.00  0.00     0.046 C 
ATOM     23  C   UNL A   1      32.364  28.065  22.571  1.00  0.00    -0.030 A 
ATOM     24  C   UNL A   1      31.354  28.921  23.037  1.00  0.00     0.006 A 
ATOM     25  C   UNL A   1      32.112  26.675  22.448  1.00  0.00     0.069 A 
ATOM     26  C   UNL A   1      30.115  28.409  23.400  1.00  0.00     0.023 A 
ATOM     27  Cl  UNL A   1      33.309  25.698  21.654  1.00  0.00    -0.082 Cl
ATOM     28  C   UNL A   1      29.901  27.031  23.349  1.00  0.00     0.066 A 
ATOM     29  Cl  UNL A   1      28.365  26.448  23.920  1.00  0.00    -0.082 Cl
ENDBRANCH  19  21
ENDBRANCH  14  19
ENDBRANCH  10  13
ENDBRANCH   7   9
ENDBRANCH   4   7
ENDBRANCH   2   3
ENDBRANCH   1   2
BRANCH   1  30
ATOM     30  C   UNL A   1      31.591  31.861  26.742  1.00  0.00     0.023 C 
BRANCH  30  31
ATOM     31  C   UNL A   1      32.936  32.432  27.171  1.00  0.00     0.116 C 
BRANCH  31  32
ATOM     32  N   UNL A   1      32.834  33.816  27.609  1.00  0.00    -0.352 N 
ATOM     33  C   UNL A   1      33.512  34.478  28.598  1.00  0.00     0.251 C 
ATOM     34  H   UNL A   1      32.175  34.359  27.120  1.00  0.00     0.163 HD
ATOM     35  O   UNL A   1      33.170  35.606  28.922  1.00  0.00    -0.269 OA
BRANCH  33  36
ATOM     36  C   UNL A   1      34.630  33.800  29.277  1.00  0.00     0.039 A 
ATOM     37  C   UNL A   1      34.338  32.816  30.221  1.00  0.00     0.014 A 
ATOM     38  C   UNL A   1      35.952  34.122  28.959  1.00  0.00     0.014 A 
ATOM     39  C   UNL A   1      35.383  32.110  30.814  1.00  0.00     0.010 A 
ATOM     40  C   UNL A   1      36.985  33.364  29.493  1.00  0.00     0.010 A 
ATOM     41  C   UNL A   1      36.711  32.356  30.429  1.00  0.00    -0.014 A 
BRANCH  41  42
ATOM     42  C   UNL A   1      37.834  31.582  31.008  1.00  0.00     0.031 A 
ATOM     43  C   UNL A   1      38.286  31.871  32.411  1.00  0.00     0.074 A 
ATOM     44  C   UNL A   1      38.480  30.676  30.249  1.00  0.00     0.049 A 
ATOM     45  N   UNL A   1      39.311  31.392  33.066  1.00  0.00    -0.248 NA
ATOM     46  C   UNL A   1      37.496  32.857  33.166  1.00  0.00     0.031 C 
ATOM     47  C   UNL A   1      38.139  30.337  28.865  1.00  0.00     0.029 A 
ATOM     48  N   UNL A   1      39.564  29.884  30.526  1.00  0.00    -0.354 N 
ATOM     49  C   UNL A   1      39.299  32.028  34.302  1.00  0.00     0.074 A 
ATOM     50  C   UNL A   1      38.203  32.972  34.279  1.00  0.00     0.031 C 
ATOM     51  C   UNL A   1      38.983  29.391  28.425  1.00  0.00     0.029 A 
ATOM     52  C   UNL A   1      39.957  29.096  29.470  1.00  0.00     0.049 A 
ATOM     53  H   UNL A   1      40.017  29.879  31.400  1.00  0.00     0.167 HD
ATOM     54  C   UNL A   1      40.114  31.822  35.366  1.00  0.00     0.034 A 
ATOM     55  C   UNL A   1      40.998  28.247  29.353  1.00  0.00     0.034 A 
ATOM     56  C   UNL A   1      41.193  30.865  35.365  1.00  0.00     0.049 A 
ATOM     57  C   UNL A   1      41.916  28.064  30.536  1.00  0.00     0.074 A 
ATOM     58  C   UNL A   1      42.057  30.541  36.397  1.00  0.00     0.029 A 
ATOM     59  N   UNL A   1      41.564  30.084  34.277  1.00  0.00    -0.354 N 
ATOM     60  N   UNL A   1      41.872  28.645  31.714  1.00  0.00    -0.248 NA
ATOM     61  C   UNL A   1      43.016  27.105  30.379  1.00  0.00     0.031 C 
ATOM     62  C   UNL A   1      42.994  29.624  35.910  1.00  0.00     0.029 A 
ATOM     63  C   UNL A   1      42.663  29.303  34.603  1.00  0.00     0.049 A 
ATOM     64  H   UNL A   1      41.113  30.085  33.402  1.00  0.00     0.167 HD
ATOM     65  C   UNL A   1      42.915  28.089  32.449  1.00  0.00     0.074 A 
ATOM     66  C   UNL A   1      43.563  27.125  31.585  1.00  0.00     0.031 C 
ATOM     67  C   UNL A   1      43.297  28.347  33.727  1.00  0.00     0.034 A 
BRANCH  54  68
ATOM     68  C   UNL A   1      39.883  32.669  36.595  1.00  0.00     0.023 A 
ATOM     69  C   UNL A   1      39.008  32.264  37.618  1.00  0.00     0.031 A 
ATOM     70  C   UNL A   1      40.524  33.912  36.733  1.00  0.00     0.131 A 
ATOM     71  C   UNL A   1      38.736  33.127  38.691  1.00  0.00     0.055 A 
ATOM     72  C   UNL A   1      40.319  34.727  37.848  1.00  0.00     0.041 A 
ATOM     73  F   UNL A   1      41.352  34.365  35.778  1.00  0.00    -0.206 F 
ATOM     74  C   UNL A   1      39.408  34.344  38.828  1.00  0.00     0.022 A 
BRANCH  71  75
ATOM     75  S   UNL A   1      37.380  32.706  39.818  1.00  0.00     0.124 S 
ATOM     76  O   UNL A   1      37.770  31.370  40.262  1.00  0.00    -0.237 OA
ATOM     77  O   UNL A   1      37.464  33.761  40.821  1.00  0.00    -0.237 OA
ATOM     78  O   UNL A   1      36.196  32.749  38.963  1.00  0.00    -0.744 OA
ENDBRANCH  71  75
ENDBRANCH  54  68
BRANCH  55  79
ATOM     79  C   UNL A   1      41.239  27.518  28.075  1.00  0.00     0.023 A 
ATOM     80  C   UNL A   1      40.996  26.140  27.973  1.00  0.00     0.031 A 
ATOM     81  C   UNL A   1      41.756  28.180  26.947  1.00  0.00     0.131 A 
ATOM     82  C   UNL A   1      41.320  25.457  26.790  1.00  0.00     0.055 A 
ATOM     83  C   UNL A   1      42.018  27.509  25.752  1.00  0.00     0.041 A 
ATOM     84  F   UNL A   1      42.002  29.499  26.987  1.00  0.00    -0.206 F 
ATOM     85  C   UNL A   1      41.814  26.135  25.673  1.00  0.00     0.022 A 
BRANCH  82  86
ATOM     86  S   UNL A   1      41.176  23.650  26.765  1.00  0.00     0.124 S 
ATOM     87  O   UNL A   1      39.764  23.470  26.449  1.00  0.00    -0.237 OA
ATOM     88  O   UNL A   1      42.122  23.285  25.715  1.00  0.00    -0.237 OA
ATOM     89  O   UNL A   1      41.568  23.259  28.118  1.00  0.00    -0.744 OA
ENDBRANCH  82  86
ENDBRANCH  55  79
BRANCH  67  90
ATOM     90  C   UNL A   1      44.431  27.521  34.286  1.00  0.00     0.023 A 
ATOM     91  C   UNL A   1      44.258  26.182  34.675  1.00  0.00     0.031 A 
ATOM     92  C   UNL A   1      45.710  28.091  34.424  1.00  0.00     0.131 A 
ATOM     93  C   UNL A   1      45.334  25.473  35.230  1.00  0.00     0.055 A 
ATOM     94  C   UNL A   1      46.792  27.361  34.916  1.00  0.00     0.041 A 
ATOM     95  F   UNL A   1      45.931  29.368  34.072  1.00  0.00    -0.206 F 
ATOM     96  C   UNL A   1      46.604  26.047  35.334  1.00  0.00     0.022 A 
BRANCH  93  97
ATOM     97  S   UNL A   1      45.033  23.814  35.899  1.00  0.00     0.124 S 
ATOM     98  O   UNL A   1      45.841  22.980  35.016  1.00  0.00    -0.237 OA
ATOM     99  O   UNL A   1      45.511  23.939  37.272  1.00  0.00    -0.237 OA
ATOM    100  O   UNL A   1      43.588  23.646  35.760  1.00  0.00    -0.744 OA
ENDBRANCH  93  97
ENDBRANCH  67  90
ENDBRANCH  41  42
ENDBRANCH  33  36
ENDBRANCH  31  32
ENDBRANCH  30  31
ENDBRANCH   1  30
TORSDOF 18
ENDMDL
MODEL 3
REMARK VINA RESULT:     -12.1      1.306      2.865
REMARK SMILES Cc1ccc(Cl)c(Nc2ccccc2C(=O)N[C@@H](C)C(=O)NCCCCNC(=O)c2ccc(-c3c4nc(c(-c5cc(S(=O)(=O)[O-])ccc5F)c5ccc([nH]5)c(-c5cc(S(=O)(=O)[O-])ccc5F)c5nc(c(-c6cc(S(=O)(=O)[O-])ccc6F)c6ccc3[nH]6)C=C5)C=C4)cc2)c1Cl
REMARK SMILES IDX 24 1 23 2 22 3 20 4 21 5 18 7 19 8 17 9 15 10 16 11 14 13
REMARK SMILES IDX 9 14 10 15 11 16 13 17 12 18 8 19 7 21 1 22 2 23 3 24 93 25
REMARK SMILES IDX 4 26 94 27 5 28 6 29 25 30 26 31 27 32 28 33 29 35 30 36
REMARK SMILES IDX 31 37 92 38 32 39 91 40 33 41 34 42 35 43 85 44 36 45 90 46
REMARK SMILES IDX 84 47 86 48 37 49 89 50 83 51 82 52 38 54 70 55 50 56 69 57
REMARK SMILES IDX 51 58 54 59 68 60 87 61 52 62 53 63 67 65 88 66 55 67 39 68
REMARK SMILES IDX 40 69 48 70 41 71 47 72 49 73 46 74 42 75 43 76 44 77 45 78
REMARK SMILES IDX 71 79 72 80 80 81 73 82 79 83 81 84 78 85 74 86 75 87 76 88
REMARK SMILES IDX 77 89 56 90 57 91 65 92 58 93 64 94 66 95 63 96 59 97 60 98
REMARK SMILES IDX 61 99 62 100
REMARK H PARENT 22 6 17 12 8 20 27 34 86 53 54 64
REMARK Flexibility Score: inf
ROOT
ATOM      1  C   UNL A   1      31.799  30.590  26.619  1.00  0.00     0.023 C 
ENDROOT
BRANCH   1   2
ATOM      2  C   UNL A   1      33.196  30.045  26.949  1.00  0.00     0.116 C 
BRANCH   2   3
ATOM      3  N   UNL A   1      33.161  28.784  27.661  1.00  0.00    -0.354 N 
ATOM      4  C   UNL A   1      32.115  27.952  27.381  1.00  0.00     0.242 C 
ATOM      5  O   UNL A   1      31.072  28.137  28.007  1.00  0.00    -0.273 OA
ATOM      6  H   UNL A   1      33.857  28.539  28.312  1.00  0.00     0.163 HD
BRANCH   4   7
ATOM      7  C   UNL A   1      32.264  26.879  26.279  1.00  0.00     0.168 C 
ATOM      8  C   UNL A   1      33.591  26.852  25.538  1.00  0.00     0.041 C 
BRANCH   7   9
ATOM      9  N   UNL A   1      31.135  27.131  25.399  1.00  0.00    -0.340 N 
ATOM     10  C   UNL A   1      30.606  26.273  24.460  1.00  0.00     0.254 C 
ATOM     11  O   UNL A   1      29.373  26.275  24.370  1.00  0.00    -0.269 OA
ATOM     12  H   UNL A   1      30.701  28.011  25.484  1.00  0.00     0.164 HD
BRANCH  10  13
ATOM     13  C   UNL A   1      31.405  25.609  23.376  1.00  0.00     0.063 A 
ATOM     14  C   UNL A   1      32.075  24.367  23.335  1.00  0.00     0.051 A 
ATOM     15  C   UNL A   1      32.872  24.080  22.197  1.00  0.00     0.027 A 
ATOM     16  C   UNL A   1      32.946  24.933  21.097  1.00  0.00     0.002 A 
ATOM     17  C   UNL A   1      31.480  26.445  22.231  1.00  0.00     0.016 A 
ATOM     18  C   UNL A   1      32.225  26.111  21.103  1.00  0.00     0.001 A 
BRANCH  14  19
ATOM     19  N   UNL A   1      31.980  23.291  24.238  1.00  0.00    -0.352 N 
ATOM     20  H   UNL A   1      31.290  23.431  24.927  1.00  0.00     0.167 HD
BRANCH  19  21
ATOM     21  C   UNL A   1      32.656  22.049  24.380  1.00  0.00     0.077 A 
ATOM     22  C   UNL A   1      32.540  18.378  23.273  1.00  0.00     0.046 C 
ATOM     23  C   UNL A   1      32.965  19.646  23.969  1.00  0.00    -0.030 A 
ATOM     24  C   UNL A   1      33.797  19.549  25.095  1.00  0.00     0.006 A 
ATOM     25  C   UNL A   1      32.447  20.906  23.578  1.00  0.00     0.069 A 
ATOM     26  C   UNL A   1      34.097  20.680  25.843  1.00  0.00     0.023 A 
ATOM     27  Cl  UNL A   1      31.617  21.010  22.055  1.00  0.00    -0.082 Cl
ATOM     28  C   UNL A   1      33.522  21.904  25.497  1.00  0.00     0.066 A 
ATOM     29  Cl  UNL A   1      33.853  23.256  26.538  1.00  0.00    -0.082 Cl
ENDBRANCH  19  21
ENDBRANCH  14  19
ENDBRANCH  10  13
ENDBRANCH   7   9
ENDBRANCH   4   7
ENDBRANCH   2   3
ENDBRANCH   1   2
BRANCH   1  30
ATOM     30  C   UNL A   1      31.624  32.099  26.807  1.00  0.00     0.023 C 
BRANCH  30  31
ATOM     31  C   UNL A   1      32.834  32.810  27.399  1.00  0.00     0.116 C 
BRANCH  31  32
ATOM     32  N   UNL A   1      32.539  34.186  27.768  1.00  0.00    -0.352 N 
ATOM     33  C   UNL A   1      33.095  34.975  28.742  1.00  0.00     0.251 C 
ATOM     34  H   UNL A   1      31.831  34.617  27.238  1.00  0.00     0.163 HD
ATOM     35  O   UNL A   1      32.599  36.060  29.003  1.00  0.00    -0.269 OA
BRANCH  33  36
ATOM     36  C   UNL A   1      34.269  34.479  29.480  1.00  0.00     0.039 A 
ATOM     37  C   UNL A   1      34.083  33.970  30.765  1.00  0.00     0.014 A 
ATOM     38  C   UNL A   1      35.536  34.498  28.891  1.00  0.00     0.014 A 
ATOM     39  C   UNL A   1      35.170  33.425  31.447  1.00  0.00     0.010 A 
ATOM     40  C   UNL A   1      36.599  33.884  29.541  1.00  0.00     0.010 A 
ATOM     41  C   UNL A   1      36.426  33.348  30.825  1.00  0.00    -0.014 A 
BRANCH  41  42
ATOM     42  C   UNL A   1      37.585  32.726  31.510  1.00  0.00     0.031 A 
ATOM     43  C   UNL A   1      38.293  31.569  30.864  1.00  0.00     0.074 A 
ATOM     44  C   UNL A   1      37.946  33.159  32.733  1.00  0.00     0.049 A 
ATOM     45  N   UNL A   1      39.249  30.815  31.339  1.00  0.00    -0.248 NA
ATOM     46  C   UNL A   1      37.840  31.190  29.517  1.00  0.00     0.031 C 
ATOM     47  C   UNL A   1      37.309  34.259  33.462  1.00  0.00     0.029 A 
ATOM     48  N   UNL A   1      38.928  32.723  33.584  1.00  0.00    -0.354 N 
ATOM     49  C   UNL A   1      39.502  29.864  30.356  1.00  0.00     0.074 A 
ATOM     50  C   UNL A   1      38.554  30.099  29.289  1.00  0.00     0.031 C 
ATOM     51  C   UNL A   1      37.931  34.424  34.639  1.00  0.00     0.029 A 
ATOM     52  C   UNL A   1      38.972  33.411  34.774  1.00  0.00     0.049 A 
ATOM     53  H   UNL A   1      39.544  31.988  33.363  1.00  0.00     0.167 HD
ATOM     54  C   UNL A   1      40.455  28.900  30.339  1.00  0.00     0.034 A 
ATOM     55  C   UNL A   1      39.751  33.229  35.860  1.00  0.00     0.034 A 
ATOM     56  C   UNL A   1      41.395  28.695  31.414  1.00  0.00     0.049 A 
ATOM     57  C   UNL A   1      40.778  32.125  35.834  1.00  0.00     0.074 A 
ATOM     58  C   UNL A   1      42.430  27.779  31.488  1.00  0.00     0.029 A 
ATOM     59  N   UNL A   1      41.411  29.409  32.606  1.00  0.00    -0.354 N 
ATOM     60  N   UNL A   1      41.032  31.254  34.883  1.00  0.00    -0.248 NA
ATOM     61  C   UNL A   1      41.629  31.983  37.022  1.00  0.00     0.031 C 
ATOM     62  C   UNL A   1      43.019  27.887  32.752  1.00  0.00     0.029 A 
ATOM     63  C   UNL A   1      42.416  28.932  33.434  1.00  0.00     0.049 A 
ATOM     64  H   UNL A   1      40.798  30.146  32.830  1.00  0.00     0.167 HD
ATOM     65  C   UNL A   1      42.100  30.490  35.344  1.00  0.00     0.074 A 
ATOM     66  C   UNL A   1      42.445  31.007  36.653  1.00  0.00     0.031 C 
ATOM     67  C   UNL A   1      42.745  29.460  34.738  1.00  0.00     0.034 A 
BRANCH  54  68
ATOM     68  C   UNL A   1      40.500  27.986  29.139  1.00  0.00     0.023 A 
ATOM     69  C   UNL A   1      41.460  28.144  28.124  1.00  0.00     0.031 A 
ATOM     70  C   UNL A   1      39.551  26.959  28.990  1.00  0.00     0.131 A 
ATOM     71  C   UNL A   1      41.402  27.345  26.972  1.00  0.00     0.055 A 
ATOM     72  C   UNL A   1      39.554  26.108  27.883  1.00  0.00     0.041 A 
ATOM     73  F   UNL A   1      38.593  26.774  29.912  1.00  0.00    -0.206 F 
ATOM     74  C   UNL A   1      40.473  26.309  26.857  1.00  0.00     0.022 A 
BRANCH  71  75
ATOM     75  S   UNL A   1      42.454  27.781  25.561  1.00  0.00     0.124 S 
ATOM     76  O   UNL A   1      43.757  27.938  26.204  1.00  0.00    -0.237 OA
ATOM     77  O   UNL A   1      42.308  26.623  24.688  1.00  0.00    -0.237 OA
ATOM     78  O   UNL A   1      41.862  29.020  25.061  1.00  0.00    -0.744 OA
ENDBRANCH  71  75
ENDBRANCH  54  68
BRANCH  55  79
ATOM     79  C   UNL A   1      39.587  34.097  37.062  1.00  0.00     0.023 A 
ATOM     80  C   UNL A   1      39.021  33.593  38.243  1.00  0.00     0.031 A 
ATOM     81  C   UNL A   1      39.955  35.453  37.034  1.00  0.00     0.131 A 
ATOM     82  C   UNL A   1      38.789  34.452  39.329  1.00  0.00     0.055 A 
ATOM     83  C   UNL A   1      39.780  36.289  38.139  1.00  0.00     0.041 A 
ATOM     84  F   UNL A   1      40.505  35.986  35.932  1.00  0.00    -0.206 F 
ATOM     85  C   UNL A   1      39.179  35.792  39.291  1.00  0.00     0.022 A 
BRANCH  82  86
ATOM     86  S   UNL A   1      37.878  33.811  40.761  1.00  0.00     0.124 S 
ATOM     87  O   UNL A   1      38.965  33.441  41.660  1.00  0.00    -0.237 OA
ATOM     88  O   UNL A   1      37.083  34.970  41.157  1.00  0.00    -0.237 OA
ATOM     89  O   UNL A   1      37.117  32.694  40.207  1.00  0.00    -0.744 OA
ENDBRANCH  82  86
ENDBRANCH  55  79
BRANCH  67  90
ATOM     90  C   UNL A   1      43.932  28.869  35.459  1.00  0.00     0.023 A 
ATOM     91  C   UNL A   1      43.809  27.763  36.318  1.00  0.00     0.031 A 
ATOM     92  C   UNL A   1      45.211  29.425  35.273  1.00  0.00     0.131 A 
ATOM     93  C   UNL A   1      44.937  27.281  36.998  1.00  0.00     0.055 A 
ATOM     94  C   UNL A   1      46.339  28.899  35.903  1.00  0.00     0.041 A 
ATOM     95  F   UNL A   1      45.386  30.484  34.467  1.00  0.00    -0.206 F 
ATOM     96  C   UNL A   1      46.204  27.829  36.781  1.00  0.00     0.022 A 
BRANCH  93  97
ATOM     97  S   UNL A   1      44.713  25.981  38.244  1.00  0.00     0.124 S 
ATOM     98  O   UNL A   1      46.081  25.510  38.438  1.00  0.00    -0.237 OA
ATOM     99  O   UNL A   1      44.128  26.715  39.361  1.00  0.00    -0.237 OA
ATOM    100  O   UNL A   1      43.817  25.030  37.590  1.00  0.00    -0.744 OA
ENDBRANCH  93  97
ENDBRANCH  67  90
ENDBRANCH  41  42
ENDBRANCH  33  36
ENDBRANCH  31  32
ENDBRANCH  30  31
ENDBRANCH   1  30
TORSDOF 18
ENDMDL
