MODEL 1
REMARK VINA RESULT:     -12.5      0.000      0.000
REMARK SMILES COC(=O)c1ccc2c(c1)=N[C@H](c1cn(CCC(=O)NCCCCNC(=O)c3ccc(-c4c5nc(c(-c6cc(S(=O)(=O)[O-])ccc6F)c6ccc([nH]6)c(-c6cc(S(=O)(=O)[O-])ccc6F)c6nc(c(-c7cc(S(=O)(=O)[O-])ccc7F)c7ccc4[nH]7)C=C6)C=C5)cc3)c3ccccc13)N=2
REMARK SMILES IDX 21 1 20 2 18 3 19 4 17 6 16 7 15 8 13 9 14 10 96 11 91 12
REMARK SMILES IDX 95 13 92 14 94 15 93 16 12 17 5 18 6 19 10 20 7 21 9 22 8 23
REMARK SMILES IDX 11 24 97 25 3 26 4 27 2 28 1 29 22 30 23 31 24 32 25 33
REMARK SMILES IDX 26 34 27 36 28 37 29 38 90 39 30 40 89 41 31 42 32 43 33 44
REMARK SMILES IDX 83 45 34 46 88 47 82 48 84 49 35 50 87 51 81 52 80 53 36 55
REMARK SMILES IDX 68 56 48 57 67 58 49 59 52 60 66 61 85 62 50 63 51 64 65 66
REMARK SMILES IDX 86 67 53 68 37 69 38 70 46 71 39 72 45 73 47 74 44 75 40 76
REMARK SMILES IDX 41 77 42 78 43 79 69 80 70 81 78 82 71 83 77 84 79 85 76 86
REMARK SMILES IDX 72 87 73 88 74 89 75 90 54 91 55 92 63 93 56 94 62 95 64 96
REMARK SMILES IDX 61 97 57 98 58 99 59 100 60 101
REMARK H PARENT 20 5 25 35 84 54 52 65
REMARK Flexibility Score: inf
ROOT
ATOM      1  C   UNL A   1      36.995  23.062  25.537  1.00  0.00     0.116 C 
ENDROOT
BRANCH   1   2
ATOM      2  N   UNL A   1      35.966  22.623  26.473  1.00  0.00    -0.356 N 
ATOM      3  C   UNL A   1      35.018  21.639  26.431  1.00  0.00     0.221 C 
ATOM      4  O   UNL A   1      34.434  21.378  27.488  1.00  0.00    -0.275 OA
ATOM      5  H   UNL A   1      35.950  23.145  27.307  1.00  0.00     0.163 HD
BRANCH   3   6
ATOM      6  C   UNL A   1      34.733  20.813  25.189  1.00  0.00     0.122 C 
BRANCH   6   7
ATOM      7  C   UNL A   1      33.241  20.383  25.083  1.00  0.00     0.132 C 
BRANCH   7   8
ATOM      8  N   UNL A   1      32.350  21.384  24.466  1.00  0.00    -0.347 N 
ATOM      9  C   UNL A   1      32.964  23.313  23.585  1.00  0.00     0.024 A 
ATOM     10  C   UNL A   1      32.728  21.969  23.281  1.00  0.00     0.094 A 
ATOM     11  C   UNL A   1      32.715  23.421  25.006  1.00  0.00     0.007 A 
ATOM     12  C   UNL A   1      31.771  22.418  25.172  1.00  0.00     0.048 A 
ATOM     13  C   UNL A   1      32.724  24.389  26.013  1.00  0.00     0.011 A 
ATOM     14  C   UNL A   1      30.512  22.737  25.697  1.00  0.00     0.027 A 
ATOM     15  C   UNL A   1      31.551  24.687  26.689  1.00  0.00     0.001 A 
ATOM     16  C   UNL A   1      30.413  23.953  26.398  1.00  0.00     0.002 A 
BRANCH   9  17
ATOM     17  C   UNL A   1      33.208  24.334  22.514  1.00  0.00     0.255 C 
ATOM     18  C   UNL A   1      31.275  28.398  22.368  1.00  0.00     0.062 A 
ATOM     19  C   UNL A   1      32.679  28.776  22.416  1.00  0.00     0.018 A 
ATOM     20  C   UNL A   1      30.899  27.111  22.273  1.00  0.00     0.046 A 
ATOM     21  C   UNL A   1      33.671  27.904  22.643  1.00  0.00     0.031 A 
ATOM     22  C   UNL A   1      31.952  26.096  22.328  1.00  0.00     0.087 A 
ATOM     23  C   UNL A   1      33.329  26.484  22.686  1.00  0.00     0.086 A 
ATOM     24  N   UNL A   1      31.860  24.837  22.098  1.00  0.00    -0.252 NA
ATOM     25  N   UNL A   1      34.087  25.465  22.898  1.00  0.00    -0.252 NA
BRANCH  18  26
ATOM     26  C   UNL A   1      30.156  29.394  22.441  1.00  0.00     0.337 C 
ATOM     27  O   UNL A   1      29.519  29.762  21.482  1.00  0.00    -0.246 OA
BRANCH  26  28
ATOM     28  O   UNL A   1      29.993  29.832  23.721  1.00  0.00    -0.465 OA
ATOM     29  C   UNL A   1      29.284  31.070  23.815  1.00  0.00     0.282 C 
ENDBRANCH  26  28
ENDBRANCH  18  26
ENDBRANCH   9  17
ENDBRANCH   7   8
ENDBRANCH   6   7
ENDBRANCH   3   6
ENDBRANCH   1   2
BRANCH   1  30
ATOM     30  C   UNL A   1      38.448  23.101  26.058  1.00  0.00     0.023 C 
BRANCH  30  31
ATOM     31  C   UNL A   1      39.261  21.795  26.163  1.00  0.00     0.023 C 
BRANCH  31  32
ATOM     32  C   UNL A   1      40.629  21.840  26.831  1.00  0.00     0.116 C 
BRANCH  32  33
ATOM     33  N   UNL A   1      41.674  22.293  25.943  1.00  0.00    -0.352 N 
ATOM     34  C   UNL A   1      42.471  23.395  25.820  1.00  0.00     0.251 C 
ATOM     35  H   UNL A   1      41.861  21.632  25.238  1.00  0.00     0.163 HD
ATOM     36  O   UNL A   1      43.289  23.326  24.893  1.00  0.00    -0.269 OA
BRANCH  34  37
ATOM     37  C   UNL A   1      42.451  24.643  26.641  1.00  0.00     0.039 A 
ATOM     38  C   UNL A   1      43.193  24.912  27.793  1.00  0.00     0.014 A 
ATOM     39  C   UNL A   1      41.489  25.599  26.241  1.00  0.00     0.014 A 
ATOM     40  C   UNL A   1      42.938  26.077  28.542  1.00  0.00     0.010 A 
ATOM     41  C   UNL A   1      41.220  26.744  26.991  1.00  0.00     0.010 A 
ATOM     42  C   UNL A   1      41.930  26.980  28.164  1.00  0.00    -0.014 A 
BRANCH  42  43
ATOM     43  C   UNL A   1      41.770  28.260  28.878  1.00  0.00     0.031 A 
ATOM     44  C   UNL A   1      42.633  29.358  28.367  1.00  0.00     0.074 A 
ATOM     45  C   UNL A   1      40.788  28.560  29.761  1.00  0.00     0.049 A 
ATOM     46  N   UNL A   1      43.535  30.022  29.009  1.00  0.00    -0.248 NA
ATOM     47  C   UNL A   1      42.555  29.682  26.936  1.00  0.00     0.031 C 
ATOM     48  C   UNL A   1      39.651  27.720  30.107  1.00  0.00     0.029 A 
ATOM     49  N   UNL A   1      40.520  29.717  30.443  1.00  0.00    -0.354 N 
ATOM     50  C   UNL A   1      44.012  30.985  28.120  1.00  0.00     0.074 A 
ATOM     51  C   UNL A   1      43.499  30.617  26.825  1.00  0.00     0.031 C 
ATOM     52  C   UNL A   1      38.709  28.451  30.739  1.00  0.00     0.029 A 
ATOM     53  C   UNL A   1      39.226  29.789  30.961  1.00  0.00     0.049 A 
ATOM     54  H   UNL A   1      41.182  30.437  30.560  1.00  0.00     0.167 HD
ATOM     55  C   UNL A   1      44.626  32.123  28.558  1.00  0.00     0.034 A 
ATOM     56  C   UNL A   1      38.578  30.869  31.473  1.00  0.00     0.034 A 
ATOM     57  C   UNL A   1      44.991  32.008  29.945  1.00  0.00     0.049 A 
ATOM     58  C   UNL A   1      39.580  31.898  31.818  1.00  0.00     0.074 A 
ATOM     59  C   UNL A   1      45.799  31.154  30.669  1.00  0.00     0.029 A 
ATOM     60  N   UNL A   1      44.206  32.656  30.868  1.00  0.00    -0.354 N 
ATOM     61  N   UNL A   1      40.409  31.808  32.817  1.00  0.00    -0.248 NA
ATOM     62  C   UNL A   1      39.946  32.848  30.779  1.00  0.00     0.031 C 
ATOM     63  C   UNL A   1      45.136  30.987  31.915  1.00  0.00     0.029 A 
ATOM     64  C   UNL A   1      44.001  31.801  31.916  1.00  0.00     0.049 A 
ATOM     65  H   UNL A   1      43.854  33.572  30.788  1.00  0.00     0.167 HD
ATOM     66  C   UNL A   1      41.602  32.280  32.301  1.00  0.00     0.074 A 
ATOM     67  C   UNL A   1      41.231  33.020  31.096  1.00  0.00     0.031 C 
ATOM     68  C   UNL A   1      42.798  31.775  32.719  1.00  0.00     0.034 A 
BRANCH  55  69
ATOM     69  C   UNL A   1      44.587  33.454  27.840  1.00  0.00     0.023 A 
ATOM     70  C   UNL A   1      43.640  34.456  28.116  1.00  0.00     0.031 A 
ATOM     71  C   UNL A   1      45.660  33.844  27.007  1.00  0.00     0.131 A 
ATOM     72  C   UNL A   1      43.769  35.755  27.605  1.00  0.00     0.055 A 
ATOM     73  C   UNL A   1      45.826  35.159  26.552  1.00  0.00     0.041 A 
ATOM     74  F   UNL A   1      46.622  32.974  26.662  1.00  0.00    -0.206 F 
ATOM     75  C   UNL A   1      44.879  36.126  26.856  1.00  0.00     0.022 A 
BRANCH  72  76
ATOM     76  S   UNL A   1      42.490  36.998  27.937  1.00  0.00     0.124 S 
ATOM     77  O   UNL A   1      42.283  37.580  26.616  1.00  0.00    -0.237 OA
ATOM     78  O   UNL A   1      41.399  36.171  28.445  1.00  0.00    -0.237 OA
ATOM     79  O   UNL A   1      43.112  37.874  28.926  1.00  0.00    -0.744 OA
ENDBRANCH  72  76
ENDBRANCH  55  69
BRANCH  56  80
ATOM     80  C   UNL A   1      37.143  31.224  31.322  1.00  0.00     0.023 A 
ATOM     81  C   UNL A   1      36.608  31.413  30.036  1.00  0.00     0.031 A 
ATOM     82  C   UNL A   1      36.386  31.706  32.407  1.00  0.00     0.131 A 
ATOM     83  C   UNL A   1      35.413  32.120  29.854  1.00  0.00     0.055 A 
ATOM     84  C   UNL A   1      35.179  32.396  32.225  1.00  0.00     0.041 A 
ATOM     85  F   UNL A   1      36.840  31.586  33.664  1.00  0.00    -0.206 F 
ATOM     86  C   UNL A   1      34.696  32.623  30.940  1.00  0.00     0.022 A 
BRANCH  83  87
ATOM     87  S   UNL A   1      34.830  32.477  28.175  1.00  0.00     0.124 S 
ATOM     88  O   UNL A   1      35.947  33.226  27.605  1.00  0.00    -0.237 OA
ATOM     89  O   UNL A   1      34.630  31.134  27.641  1.00  0.00    -0.237 OA
ATOM     90  O   UNL A   1      33.617  33.259  28.400  1.00  0.00    -0.744 OA
ENDBRANCH  83  87
ENDBRANCH  56  80
BRANCH  68  91
ATOM     91  C   UNL A   1      42.849  30.908  33.958  1.00  0.00     0.023 A 
ATOM     92  C   UNL A   1      42.564  29.543  33.776  1.00  0.00     0.031 A 
ATOM     93  C   UNL A   1      42.917  31.387  35.281  1.00  0.00     0.131 A 
ATOM     94  C   UNL A   1      42.295  28.720  34.874  1.00  0.00     0.055 A 
ATOM     95  C   UNL A   1      42.727  30.542  36.379  1.00  0.00     0.041 A 
ATOM     96  F   UNL A   1      43.074  32.689  35.555  1.00  0.00    -0.206 F 
ATOM     97  C   UNL A   1      42.391  29.207  36.179  1.00  0.00     0.022 A 
BRANCH  94  98
ATOM     98  S   UNL A   1      41.627  27.057  34.615  1.00  0.00     0.124 S 
ATOM     99  O   UNL A   1      41.268  26.656  35.972  1.00  0.00    -0.237 OA
ATOM    100  O   UNL A   1      40.503  27.309  33.715  1.00  0.00    -0.237 OA
ATOM    101  O   UNL A   1      42.738  26.319  34.019  1.00  0.00    -0.744 OA
ENDBRANCH  94  98
ENDBRANCH  68  91
ENDBRANCH  42  43
ENDBRANCH  34  37
ENDBRANCH  32  33
ENDBRANCH  31  32
ENDBRANCH  30  31
ENDBRANCH   1  30
TORSDOF 19
ENDMDL
MODEL 2
REMARK VINA RESULT:     -11.9      3.453      9.097
REMARK SMILES COC(=O)c1ccc2c(c1)=N[C@H](c1cn(CCC(=O)NCCCCNC(=O)c3ccc(-c4c5nc(c(-c6cc(S(=O)(=O)[O-])ccc6F)c6ccc([nH]6)c(-c6cc(S(=O)(=O)[O-])ccc6F)c6nc(c(-c7cc(S(=O)(=O)[O-])ccc7F)c7ccc4[nH]7)C=C6)C=C5)cc3)c3ccccc13)N=2
REMARK SMILES IDX 21 1 20 2 18 3 19 4 17 6 16 7 15 8 13 9 14 10 96 11 91 12
REMARK SMILES IDX 95 13 92 14 94 15 93 16 12 17 5 18 6 19 10 20 7 21 9 22 8 23
REMARK SMILES IDX 11 24 97 25 3 26 4 27 2 28 1 29 22 30 23 31 24 32 25 33
REMARK SMILES IDX 26 34 27 36 28 37 29 38 90 39 30 40 89 41 31 42 32 43 33 44
REMARK SMILES IDX 83 45 34 46 88 47 82 48 84 49 35 50 87 51 81 52 80 53 36 55
REMARK SMILES IDX 68 56 48 57 67 58 49 59 52 60 66 61 85 62 50 63 51 64 65 66
REMARK SMILES IDX 86 67 53 68 37 69 38 70 46 71 39 72 45 73 47 74 44 75 40 76
REMARK SMILES IDX 41 77 42 78 43 79 69 80 70 81 78 82 71 83 77 84 79 85 76 86
REMARK SMILES IDX 72 87 73 88 74 89 75 90 54 91 55 92 63 93 56 94 62 95 64 96
REMARK SMILES IDX 61 97 57 98 58 99 59 100 60 101
REMARK H PARENT 20 5 25 35 84 54 52 65
REMARK Flexibility Score: inf
ROOT
ATOM      1  C   UNL A   1      31.187  27.439  27.004  1.00  0.00     0.116 C 
ENDROOT
BRANCH   1   2
ATOM      2  N   UNL A   1      31.776  26.113  27.156  1.00  0.00    -0.356 N 
ATOM      3  C   UNL A   1      31.415  24.871  26.713  1.00  0.00     0.221 C 
ATOM      4  O   UNL A   1      32.252  23.969  26.827  1.00  0.00    -0.275 OA
ATOM      5  H   UNL A   1      32.604  26.112  27.687  1.00  0.00     0.163 HD
BRANCH   3   6
ATOM      6  C   UNL A   1      30.094  24.588  26.019  1.00  0.00     0.122 C 
BRANCH   6   7
ATOM      7  C   UNL A   1      29.728  25.668  24.961  1.00  0.00     0.132 C 
BRANCH   7   8
ATOM      8  N   UNL A   1      30.405  25.515  23.659  1.00  0.00    -0.347 N 
ATOM      9  C   UNL A   1      32.149  24.228  23.238  1.00  0.00     0.024 A 
ATOM     10  C   UNL A   1      30.752  24.254  23.235  1.00  0.00     0.094 A 
ATOM     11  C   UNL A   1      32.544  25.537  23.708  1.00  0.00     0.007 A 
ATOM     12  C   UNL A   1      31.471  26.297  23.264  1.00  0.00     0.048 A 
ATOM     13  C   UNL A   1      33.708  26.264  23.967  1.00  0.00     0.011 A 
ATOM     14  C   UNL A   1      31.702  27.374  22.398  1.00  0.00     0.027 A 
ATOM     15  C   UNL A   1      33.967  27.424  23.254  1.00  0.00     0.001 A 
ATOM     16  C   UNL A   1      33.016  27.874  22.353  1.00  0.00     0.002 A 
BRANCH   9  17
ATOM     17  C   UNL A   1      32.918  23.084  22.648  1.00  0.00     0.255 C 
ATOM     18  C   UNL A   1      32.735  18.839  24.139  1.00  0.00     0.062 A 
ATOM     19  C   UNL A   1      32.289  18.655  22.767  1.00  0.00     0.018 A 
ATOM     20  C   UNL A   1      33.159  20.034  24.583  1.00  0.00     0.046 A 
ATOM     21  C   UNL A   1      32.007  19.671  21.939  1.00  0.00     0.031 A 
ATOM     22  C   UNL A   1      33.053  21.170  23.666  1.00  0.00     0.087 A 
ATOM     23  C   UNL A   1      32.316  21.024  22.397  1.00  0.00     0.086 A 
ATOM     24  N   UNL A   1      33.535  22.352  23.800  1.00  0.00    -0.252 NA
ATOM     25  N   UNL A   1      32.132  22.151  21.804  1.00  0.00    -0.252 NA
BRANCH  18  26
ATOM     26  C   UNL A   1      32.737  17.735  25.154  1.00  0.00     0.337 C 
ATOM     27  O   UNL A   1      32.390  17.877  26.304  1.00  0.00    -0.246 OA
BRANCH  26  28
ATOM     28  O   UNL A   1      33.207  16.582  24.601  1.00  0.00    -0.465 OA
ATOM     29  C   UNL A   1      34.614  16.397  24.776  1.00  0.00     0.282 C 
ENDBRANCH  26  28
ENDBRANCH  18  26
ENDBRANCH   9  17
ENDBRANCH   7   8
ENDBRANCH   6   7
ENDBRANCH   3   6
ENDBRANCH   1   2
BRANCH   1  30
ATOM     30  C   UNL A   1      32.038  28.507  26.282  1.00  0.00     0.023 C 
BRANCH  30  31
ATOM     31  C   UNL A   1      32.212  29.904  26.911  1.00  0.00     0.023 C 
BRANCH  31  32
ATOM     32  C   UNL A   1      33.608  30.508  26.969  1.00  0.00     0.116 C 
BRANCH  32  33
ATOM     33  N   UNL A   1      33.740  31.522  27.990  1.00  0.00    -0.352 N 
ATOM     34  C   UNL A   1      34.702  31.938  28.865  1.00  0.00     0.251 C 
ATOM     35  H   UNL A   1      32.917  32.055  28.078  1.00  0.00     0.163 HD
ATOM     36  O   UNL A   1      34.373  32.915  29.550  1.00  0.00    -0.269 OA
BRANCH  34  37
ATOM     37  C   UNL A   1      36.056  31.350  29.093  1.00  0.00     0.039 A 
ATOM     38  C   UNL A   1      37.238  32.033  29.388  1.00  0.00     0.014 A 
ATOM     39  C   UNL A   1      36.140  29.955  28.877  1.00  0.00     0.014 A 
ATOM     40  C   UNL A   1      38.466  31.342  29.414  1.00  0.00     0.010 A 
ATOM     41  C   UNL A   1      37.355  29.272  28.883  1.00  0.00     0.010 A 
ATOM     42  C   UNL A   1      38.534  29.968  29.130  1.00  0.00    -0.014 A 
BRANCH  42  43
ATOM     43  C   UNL A   1      39.803  29.235  29.297  1.00  0.00     0.031 A 
ATOM     44  C   UNL A   1      40.143  28.916  30.709  1.00  0.00     0.074 A 
ATOM     45  C   UNL A   1      40.525  28.660  28.307  1.00  0.00     0.049 A 
ATOM     46  N   UNL A   1      41.186  29.284  31.376  1.00  0.00    -0.248 NA
ATOM     47  C   UNL A   1      39.149  28.187  31.507  1.00  0.00     0.031 C 
ATOM     48  C   UNL A   1      40.148  28.570  26.903  1.00  0.00     0.029 A 
ATOM     49  N   UNL A   1      41.681  27.926  28.351  1.00  0.00    -0.354 N 
ATOM     50  C   UNL A   1      41.080  28.675  32.626  1.00  0.00     0.074 A 
ATOM     51  C   UNL A   1      39.737  28.160  32.703  1.00  0.00     0.031 C 
ATOM     52  C   UNL A   1      40.914  27.653  26.276  1.00  0.00     0.029 A 
ATOM     53  C   UNL A   1      41.927  27.177  27.199  1.00  0.00     0.049 A 
ATOM     54  H   UNL A   1      42.288  27.928  29.127  1.00  0.00     0.167 HD
ATOM     55  C   UNL A   1      42.173  28.467  33.417  1.00  0.00     0.034 A 
ATOM     56  C   UNL A   1      42.839  26.185  27.014  1.00  0.00     0.034 A 
ATOM     57  C   UNL A   1      43.297  29.235  32.951  1.00  0.00     0.049 A 
ATOM     58  C   UNL A   1      43.859  26.281  28.077  1.00  0.00     0.074 A 
ATOM     59  C   UNL A   1      43.544  30.581  32.764  1.00  0.00     0.029 A 
ATOM     60  N   UNL A   1      44.279  28.572  32.255  1.00  0.00    -0.354 N 
ATOM     61  N   UNL A   1      44.759  27.219  28.147  1.00  0.00    -0.248 NA
ATOM     62  C   UNL A   1      43.607  25.557  29.313  1.00  0.00     0.031 C 
ATOM     63  C   UNL A   1      44.353  30.648  31.597  1.00  0.00     0.029 A 
ATOM     64  C   UNL A   1      44.619  29.344  31.177  1.00  0.00     0.049 A 
ATOM     65  H   UNL A   1      44.667  27.699  32.489  1.00  0.00     0.167 HD
ATOM     66  C   UNL A   1      44.801  27.538  29.492  1.00  0.00     0.074 A 
ATOM     67  C   UNL A   1      44.173  26.406  30.173  1.00  0.00     0.031 C 
ATOM     68  C   UNL A   1      45.057  28.812  29.905  1.00  0.00     0.034 A 
BRANCH  55  69
ATOM     69  C   UNL A   1      42.326  27.321  34.393  1.00  0.00     0.023 A 
ATOM     70  C   UNL A   1      43.067  26.158  34.112  1.00  0.00     0.031 A 
ATOM     71  C   UNL A   1      41.914  27.471  35.735  1.00  0.00     0.131 A 
ATOM     72  C   UNL A   1      43.382  25.225  35.110  1.00  0.00     0.055 A 
ATOM     73  C   UNL A   1      42.285  26.574  36.746  1.00  0.00     0.041 A 
ATOM     74  F   UNL A   1      41.191  28.532  36.125  1.00  0.00    -0.206 F 
ATOM     75  C   UNL A   1      43.030  25.445  36.436  1.00  0.00     0.022 A 
BRANCH  72  76
ATOM     76  S   UNL A   1      44.287  23.710  34.691  1.00  0.00     0.124 S 
ATOM     77  O   UNL A   1      44.723  23.246  36.002  1.00  0.00    -0.237 OA
ATOM     78  O   UNL A   1      43.246  22.913  34.048  1.00  0.00    -0.237 OA
ATOM     79  O   UNL A   1      45.345  24.179  33.799  1.00  0.00    -0.744 OA
ENDBRANCH  72  76
ENDBRANCH  55  69
BRANCH  56  80
ATOM     80  C   UNL A   1      42.676  24.937  26.225  1.00  0.00     0.023 A 
ATOM     81  C   UNL A   1      41.693  24.005  26.599  1.00  0.00     0.031 A 
ATOM     82  C   UNL A   1      43.673  24.493  25.335  1.00  0.00     0.131 A 
ATOM     83  C   UNL A   1      41.761  22.676  26.160  1.00  0.00     0.055 A 
ATOM     84  C   UNL A   1      43.729  23.168  24.881  1.00  0.00     0.041 A 
ATOM     85  F   UNL A   1      44.661  25.316  24.950  1.00  0.00    -0.206 F 
ATOM     86  C   UNL A   1      42.779  22.246  25.309  1.00  0.00     0.022 A 
BRANCH  83  87
ATOM     87  S   UNL A   1      40.565  21.465  26.782  1.00  0.00     0.124 S 
ATOM     88  O   UNL A   1      40.816  21.482  28.221  1.00  0.00    -0.237 OA
ATOM     89  O   UNL A   1      39.301  22.052  26.354  1.00  0.00    -0.237 OA
ATOM     90  O   UNL A   1      40.954  20.230  26.105  1.00  0.00    -0.744 OA
ENDBRANCH  83  87
ENDBRANCH  56  80
BRANCH  68  91
ATOM     91  C   UNL A   1      45.589  29.824  28.914  1.00  0.00     0.023 A 
ATOM     92  C   UNL A   1      46.954  30.144  29.022  1.00  0.00     0.031 A 
ATOM     93  C   UNL A   1      44.797  30.632  28.075  1.00  0.00     0.131 A 
ATOM     94  C   UNL A   1      47.476  31.264  28.367  1.00  0.00     0.055 A 
ATOM     95  C   UNL A   1      45.341  31.702  27.357  1.00  0.00     0.041 A 
ATOM     96  F   UNL A   1      43.469  30.476  27.990  1.00  0.00    -0.206 F 
ATOM     97  C   UNL A   1      46.681  32.038  27.519  1.00  0.00     0.022 A 
BRANCH  94  98
ATOM     98  S   UNL A   1      49.146  31.843  28.759  1.00  0.00     0.124 S 
ATOM     99  O   UNL A   1      48.980  33.293  28.744  1.00  0.00    -0.237 OA
ATOM    100  O   UNL A   1      49.381  31.251  30.075  1.00  0.00    -0.237 OA
ATOM    101  O   UNL A   1      49.971  31.298  27.684  1.00  0.00    -0.744 OA
ENDBRANCH  94  98
ENDBRANCH  68  91
ENDBRANCH  42  43
ENDBRANCH  34  37
ENDBRANCH  32  33
ENDBRANCH  31  32
ENDBRANCH  30  31
ENDBRANCH   1  30
TORSDOF 19
ENDMDL
MODEL 3
REMARK VINA RESULT:     -11.9      3.431      9.216
REMARK SMILES COC(=O)c1ccc2c(c1)=N[C@H](c1cn(CCC(=O)NCCCCNC(=O)c3ccc(-c4c5nc(c(-c6cc(S(=O)(=O)[O-])ccc6F)c6ccc([nH]6)c(-c6cc(S(=O)(=O)[O-])ccc6F)c6nc(c(-c7cc(S(=O)(=O)[O-])ccc7F)c7ccc4[nH]7)C=C6)C=C5)cc3)c3ccccc13)N=2
REMARK SMILES IDX 21 1 20 2 18 3 19 4 17 6 16 7 15 8 13 9 14 10 96 11 91 12
REMARK SMILES IDX 95 13 92 14 94 15 93 16 12 17 5 18 6 19 10 20 7 21 9 22 8 23
REMARK SMILES IDX 11 24 97 25 3 26 4 27 2 28 1 29 22 30 23 31 24 32 25 33
REMARK SMILES IDX 26 34 27 36 28 37 29 38 90 39 30 40 89 41 31 42 32 43 33 44
REMARK SMILES IDX 83 45 34 46 88 47 82 48 84 49 35 50 87 51 81 52 80 53 36 55
REMARK SMILES IDX 68 56 48 57 67 58 49 59 52 60 66 61 85 62 50 63 51 64 65 66
REMARK SMILES IDX 86 67 53 68 37 69 38 70 46 71 39 72 45 73 47 74 44 75 40 76
REMARK SMILES IDX 41 77 42 78 43 79 69 80 70 81 78 82 71 83 77 84 79 85 76 86
REMARK SMILES IDX 72 87 73 88 74 89 75 90 54 91 55 92 63 93 56 94 62 95 64 96
REMARK SMILES IDX 61 97 57 98 58 99 59 100 60 101
REMARK H PARENT 20 5 25 35 84 54 52 65
REMARK Flexibility Score: inf
ROOT
ATOM      1  C   UNL A   1      33.588  30.249  26.949  1.00  0.00     0.116 C 
ENDROOT
BRANCH   1   2
ATOM      2  N   UNL A   1      32.593  29.486  27.695  1.00  0.00    -0.356 N 
ATOM      3  C   UNL A   1      31.755  28.459  27.361  1.00  0.00     0.221 C 
ATOM      4  O   UNL A   1      31.182  27.879  28.289  1.00  0.00    -0.275 OA
ATOM      5  H   UNL A   1      32.508  29.771  28.633  1.00  0.00     0.163 HD
BRANCH   3   6
ATOM      6  C   UNL A   1      31.582  27.958  25.938  1.00  0.00     0.122 C 
BRANCH   6   7
ATOM      7  C   UNL A   1      30.426  26.925  25.801  1.00  0.00     0.132 C 
BRANCH   7   8
ATOM      8  N   UNL A   1      30.845  25.584  25.351  1.00  0.00    -0.347 N 
ATOM      9  C   UNL A   1      32.727  24.557  25.882  1.00  0.00     0.024 A 
ATOM     10  C   UNL A   1      31.393  24.716  26.267  1.00  0.00     0.094 A 
ATOM     11  C   UNL A   1      32.881  25.402  24.718  1.00  0.00     0.007 A 
ATOM     12  C   UNL A   1      31.590  25.367  24.210  1.00  0.00     0.048 A 
ATOM     13  C   UNL A   1      33.864  25.765  23.795  1.00  0.00     0.011 A 
ATOM     14  C   UNL A   1      31.376  24.904  22.905  1.00  0.00     0.027 A 
ATOM     15  C   UNL A   1      33.686  25.470  22.452  1.00  0.00     0.001 A 
ATOM     16  C   UNL A   1      32.494  24.889  22.052  1.00  0.00     0.002 A 
BRANCH   9  17
ATOM     17  C   UNL A   1      33.614  23.529  26.517  1.00  0.00     0.255 C 
ATOM     18  C   UNL A   1      34.340  19.404  24.863  1.00  0.00     0.062 A 
ATOM     19  C   UNL A   1      35.699  19.925  24.875  1.00  0.00     0.018 A 
ATOM     20  C   UNL A   1      33.316  20.106  25.377  1.00  0.00     0.046 A 
ATOM     21  C   UNL A   1      35.996  21.207  25.132  1.00  0.00     0.031 A 
ATOM     22  C   UNL A   1      33.600  21.460  25.854  1.00  0.00     0.087 A 
ATOM     23  C   UNL A   1      34.909  22.079  25.574  1.00  0.00     0.086 A 
ATOM     24  N   UNL A   1      32.838  22.247  26.522  1.00  0.00    -0.252 NA
ATOM     25  N   UNL A   1      34.933  23.332  25.867  1.00  0.00    -0.252 NA
BRANCH  18  26
ATOM     26  C   UNL A   1      33.979  18.076  24.267  1.00  0.00     0.337 C 
ATOM     27  O   UNL A   1      34.764  17.168  24.122  1.00  0.00    -0.246 OA
BRANCH  26  28
ATOM     28  O   UNL A   1      32.669  18.063  23.894  1.00  0.00    -0.465 OA
ATOM     29  C   UNL A   1      32.478  18.093  22.477  1.00  0.00     0.282 C 
ENDBRANCH  26  28
ENDBRANCH  18  26
ENDBRANCH   9  17
ENDBRANCH   7   8
ENDBRANCH   6   7
ENDBRANCH   3   6
ENDBRANCH   1   2
BRANCH   1  30
ATOM     30  C   UNL A   1      35.047  30.182  27.451  1.00  0.00     0.023 C 
BRANCH  30  31
ATOM     31  C   UNL A   1      35.890  31.470  27.537  1.00  0.00     0.023 C 
BRANCH  31  32
ATOM     32  C   UNL A   1      35.238  32.731  28.088  1.00  0.00     0.116 C 
BRANCH  32  33
ATOM     33  N   UNL A   1      35.328  32.827  29.527  1.00  0.00    -0.352 N 
ATOM     34  C   UNL A   1      36.145  32.347  30.510  1.00  0.00     0.251 C 
ATOM     35  H   UNL A   1      34.608  33.388  29.898  1.00  0.00     0.163 HD
ATOM     36  O   UNL A   1      35.855  32.742  31.646  1.00  0.00    -0.269 OA
BRANCH  34  37
ATOM     37  C   UNL A   1      37.302  31.411  30.371  1.00  0.00     0.039 A 
ATOM     38  C   UNL A   1      37.284  30.020  30.479  1.00  0.00     0.014 A 
ATOM     39  C   UNL A   1      38.558  32.043  30.217  1.00  0.00     0.014 A 
ATOM     40  C   UNL A   1      38.493  29.295  30.482  1.00  0.00     0.010 A 
ATOM     41  C   UNL A   1      39.757  31.331  30.239  1.00  0.00     0.010 A 
ATOM     42  C   UNL A   1      39.733  29.949  30.396  1.00  0.00    -0.014 A 
BRANCH  42  43
ATOM     43  C   UNL A   1      40.978  29.170  30.261  1.00  0.00     0.031 A 
ATOM     44  C   UNL A   1      41.552  28.708  31.553  1.00  0.00     0.074 A 
ATOM     45  C   UNL A   1      41.486  28.675  29.108  1.00  0.00     0.049 A 
ATOM     46  N   UNL A   1      42.713  28.983  32.049  1.00  0.00    -0.248 NA
ATOM     47  C   UNL A   1      40.686  27.932  32.451  1.00  0.00     0.031 C 
ATOM     48  C   UNL A   1      40.860  28.730  27.795  1.00  0.00     0.029 A 
ATOM     49  N   UNL A   1      42.598  27.910  28.875  1.00  0.00    -0.354 N 
ATOM     50  C   UNL A   1      42.806  28.260  33.238  1.00  0.00     0.074 A 
ATOM     51  C   UNL A   1      41.478  27.775  33.512  1.00  0.00     0.031 C 
ATOM     52  C   UNL A   1      41.461  27.858  26.958  1.00  0.00     0.029 A 
ATOM     53  C   UNL A   1      42.601  27.269  27.635  1.00  0.00     0.049 A 
ATOM     54  H   UNL A   1      43.334  27.821  29.524  1.00  0.00     0.167 HD
ATOM     55  C   UNL A   1      44.013  27.949  33.794  1.00  0.00     0.034 A 
ATOM     56  C   UNL A   1      43.422  26.276  27.198  1.00  0.00     0.034 A 
ATOM     57  C   UNL A   1      45.068  28.728  33.201  1.00  0.00     0.049 A 
ATOM     58  C   UNL A   1      44.619  26.243  28.061  1.00  0.00     0.074 A 
ATOM     59  C   UNL A   1      45.335  30.078  33.094  1.00  0.00     0.029 A 
ATOM     60  N   UNL A   1      45.879  28.110  32.281  1.00  0.00    -0.354 N 
ATOM     61  N   UNL A   1      45.557  27.146  28.050  1.00  0.00    -0.248 NA
ATOM     62  C   UNL A   1      44.561  25.410  29.252  1.00  0.00     0.031 C 
ATOM     63  C   UNL A   1      45.924  30.237  31.810  1.00  0.00     0.029 A 
ATOM     64  C   UNL A   1      46.054  28.972  31.233  1.00  0.00     0.049 A 
ATOM     65  H   UNL A   1      46.265  27.208  32.362  1.00  0.00     0.167 HD
ATOM     66  C   UNL A   1      45.852  27.333  29.387  1.00  0.00     0.074 A 
ATOM     67  C   UNL A   1      45.309  26.158  30.067  1.00  0.00     0.031 C 
ATOM     68  C   UNL A   1      46.234  28.554  29.860  1.00  0.00     0.034 A 
BRANCH  55  69
ATOM     69  C   UNL A   1      44.289  26.710  34.618  1.00  0.00     0.023 A 
ATOM     70  C   UNL A   1      44.527  26.739  36.004  1.00  0.00     0.031 A 
ATOM     71  C   UNL A   1      44.091  25.427  34.061  1.00  0.00     0.131 A 
ATOM     72  C   UNL A   1      44.548  25.567  36.774  1.00  0.00     0.055 A 
ATOM     73  C   UNL A   1      44.045  24.262  34.839  1.00  0.00     0.041 A 
ATOM     74  F   UNL A   1      43.868  25.267  32.747  1.00  0.00    -0.206 F 
ATOM     75  C   UNL A   1      44.269  24.330  36.207  1.00  0.00     0.022 A 
BRANCH  72  76
ATOM     76  S   UNL A   1      44.918  25.646  38.548  1.00  0.00     0.124 S 
ATOM     77  O   UNL A   1      44.911  24.237  38.922  1.00  0.00    -0.237 OA
ATOM     78  O   UNL A   1      46.226  26.296  38.547  1.00  0.00    -0.237 OA
ATOM     79  O   UNL A   1      43.828  26.453  39.090  1.00  0.00    -0.744 OA
ENDBRANCH  72  76
ENDBRANCH  55  69
BRANCH  56  80
ATOM     80  C   UNL A   1      43.066  25.114  26.343  1.00  0.00     0.023 A 
ATOM     81  C   UNL A   1      42.028  24.255  26.740  1.00  0.00     0.031 A 
ATOM     82  C   UNL A   1      43.935  24.647  25.338  1.00  0.00     0.131 A 
ATOM     83  C   UNL A   1      41.923  22.964  26.206  1.00  0.00     0.055 A 
ATOM     84  C   UNL A   1      43.817  23.362  24.790  1.00  0.00     0.041 A 
ATOM     85  F   UNL A   1      44.966  25.399  24.922  1.00  0.00    -0.206 F 
ATOM     86  C   UNL A   1      42.817  22.505  25.238  1.00  0.00     0.022 A 
BRANCH  83  87
ATOM     87  S   UNL A   1      40.665  21.828  26.850  1.00  0.00     0.124 S 
ATOM     88  O   UNL A   1      39.418  22.502  26.493  1.00  0.00    -0.237 OA
ATOM     89  O   UNL A   1      40.960  20.609  26.106  1.00  0.00    -0.237 OA
ATOM     90  O   UNL A   1      40.952  21.786  28.281  1.00  0.00    -0.744 OA
ENDBRANCH  83  87
ENDBRANCH  56  80
BRANCH  68  91
ATOM     91  C   UNL A   1      46.622  29.643  28.884  1.00  0.00     0.023 A 
ATOM     92  C   UNL A   1      45.578  30.457  28.409  1.00  0.00     0.031 A 
ATOM     93  C   UNL A   1      47.872  29.748  28.241  1.00  0.00     0.131 A 
ATOM     94  C   UNL A   1      45.771  31.285  27.299  1.00  0.00     0.055 A 
ATOM     95  C   UNL A   1      48.081  30.638  27.182  1.00  0.00     0.041 A 
ATOM     96  F   UNL A   1      48.895  28.939  28.546  1.00  0.00    -0.206 F 
ATOM     97  C   UNL A   1      47.023  31.394  26.691  1.00  0.00     0.022 A 
BRANCH  94  98
ATOM     98  S   UNL A   1      44.350  32.084  26.511  1.00  0.00     0.124 S 
ATOM     99  O   UNL A   1      44.969  32.762  25.377  1.00  0.00    -0.237 OA
ATOM    100  O   UNL A   1      43.499  30.944  26.173  1.00  0.00    -0.237 OA
ATOM    101  O   UNL A   1      43.817  32.962  27.549  1.00  0.00    -0.744 OA
ENDBRANCH  94  98
ENDBRANCH  68  91
ENDBRANCH  42  43
ENDBRANCH  34  37
ENDBRANCH  32  33
ENDBRANCH  31  32
ENDBRANCH  30  31
ENDBRANCH   1  30
TORSDOF 19
ENDMDL
