MODEL 1
REMARK VINA RESULT:     -12.7      0.000      0.000
REMARK SMILES O=C(NCCCCNC(=O)[C@H]1CC=CC[C@@H]1C(=O)Nc1ccccc1C(=O)NCc1ccco1)c1ccc(-c2c3nc(c(-c4cc(S(=O)(=O)[O-])ccc4F)c4ccc([nH]4)c(-c4cc(S(=O)(=O)[O-])ccc4F)c4nc(c(-c5cc(S(=O)(=O)[O-])ccc5F)c5ccc2[nH]5)C=C4)C=C3)cc1
REMARK SMILES IDX 6 1 5 2 4 3 3 4 1 5 2 6 35 8 36 9 97 10 37 11 96 12 38 13
REMARK SMILES IDX 39 14 40 15 90 16 41 17 95 18 89 19 91 20 42 21 94 22 88 23
REMARK SMILES IDX 87 24 43 26 75 27 55 28 74 29 56 30 59 31 73 32 92 33 57 34
REMARK SMILES IDX 58 35 72 37 93 38 60 39 44 40 45 41 53 42 46 43 52 44 54 45
REMARK SMILES IDX 51 46 47 47 48 48 49 49 50 50 76 51 77 52 85 53 78 54 84 55
REMARK SMILES IDX 86 56 83 57 79 58 80 59 81 60 82 61 61 62 62 63 70 64 63 65
REMARK SMILES IDX 69 66 71 67 68 68 64 69 65 70 66 71 67 72 7 73 8 74 9 75
REMARK SMILES IDX 10 77 11 78 12 79 16 80 13 81 15 82 14 83 17 84 18 85 19 86
REMARK SMILES IDX 20 88 21 89 25 90 22 91 24 92 23 93 26 94 27 95 28 96 29 98
REMARK SMILES IDX 30 99 31 100 34 101 32 102 33 103
REMARK H PARENT 3 7 91 25 59 36 8 76 19 87 28 97
REMARK Flexibility Score: inf
ROOT
ATOM      1  C   UNL A   1      36.328  23.208  23.663  1.00  0.00     0.023 C 
ENDROOT
BRANCH   1   2
ATOM      2  C   UNL A   1      36.542  21.768  24.103  1.00  0.00     0.023 C 
BRANCH   2   3
ATOM      3  C   UNL A   1      37.232  21.597  25.446  1.00  0.00     0.116 C 
BRANCH   3   4
ATOM      4  N   UNL A   1      38.253  20.553  25.504  1.00  0.00    -0.352 N 
ATOM      5  O   UNL A   1      40.289  19.718  26.084  1.00  0.00    -0.269 OA
ATOM      6  C   UNL A   1      39.497  20.649  26.101  1.00  0.00     0.251 C 
ATOM      7  H   UNL A   1      38.032  19.695  25.075  1.00  0.00     0.163 HD
BRANCH   6   8
ATOM      8  C   UNL A   1      39.850  21.944  26.720  1.00  0.00     0.039 A 
ATOM      9  C   UNL A   1      39.345  23.119  26.162  1.00  0.00     0.014 A 
ATOM     10  C   UNL A   1      40.830  21.983  27.714  1.00  0.00     0.014 A 
ATOM     11  C   UNL A   1      39.968  24.322  26.453  1.00  0.00     0.010 A 
ATOM     12  C   UNL A   1      41.375  23.214  28.086  1.00  0.00     0.010 A 
ATOM     13  C   UNL A   1      40.985  24.389  27.422  1.00  0.00    -0.014 A 
BRANCH  13  14
ATOM     14  C   UNL A   1      41.593  25.707  27.737  1.00  0.00     0.031 A 
ATOM     15  C   UNL A   1      42.983  26.061  27.279  1.00  0.00     0.074 A 
ATOM     16  C   UNL A   1      40.844  26.608  28.401  1.00  0.00     0.049 A 
ATOM     17  N   UNL A   1      43.666  27.157  27.495  1.00  0.00    -0.248 NA
ATOM     18  C   UNL A   1      43.704  25.054  26.487  1.00  0.00     0.031 C 
ATOM     19  C   UNL A   1      39.477  26.374  28.876  1.00  0.00     0.029 A 
ATOM     20  N   UNL A   1      41.103  27.901  28.768  1.00  0.00    -0.354 N 
ATOM     21  C   UNL A   1      44.906  26.965  26.893  1.00  0.00     0.074 A 
ATOM     22  C   UNL A   1      44.885  25.635  26.318  1.00  0.00     0.031 C 
ATOM     23  C   UNL A   1      38.995  27.503  29.410  1.00  0.00     0.029 A 
ATOM     24  C   UNL A   1      40.048  28.510  29.406  1.00  0.00     0.049 A 
ATOM     25  H   UNL A   1      41.961  28.351  28.592  1.00  0.00     0.167 HD
ATOM     26  C   UNL A   1      45.958  27.820  26.828  1.00  0.00     0.034 A 
ATOM     27  C   UNL A   1      39.945  29.731  29.961  1.00  0.00     0.034 A 
ATOM     28  C   UNL A   1      45.947  29.149  27.399  1.00  0.00     0.049 A 
ATOM     29  C   UNL A   1      41.136  30.644  29.909  1.00  0.00     0.074 A 
ATOM     30  C   UNL A   1      46.948  30.106  27.381  1.00  0.00     0.029 A 
ATOM     31  N   UNL A   1      44.880  29.710  28.092  1.00  0.00    -0.354 N 
ATOM     32  N   UNL A   1      42.313  30.431  29.366  1.00  0.00    -0.248 NA
ATOM     33  C   UNL A   1      40.990  31.952  30.553  1.00  0.00     0.031 C 
ATOM     34  C   UNL A   1      46.511  31.217  28.114  1.00  0.00     0.029 A 
ATOM     35  C   UNL A   1      45.210  30.986  28.530  1.00  0.00     0.049 A 
ATOM     36  H   UNL A   1      44.015  29.267  28.250  1.00  0.00     0.167 HD
ATOM     37  C   UNL A   1      43.048  31.586  29.599  1.00  0.00     0.074 A 
ATOM     38  C   UNL A   1      42.172  32.499  30.309  1.00  0.00     0.031 C 
ATOM     39  C   UNL A   1      44.332  31.867  29.262  1.00  0.00     0.034 A 
BRANCH  26  40
ATOM     40  C   UNL A   1      47.225  27.327  26.168  1.00  0.00     0.023 A 
ATOM     41  C   UNL A   1      48.162  26.531  26.850  1.00  0.00     0.031 A 
ATOM     42  C   UNL A   1      47.503  27.667  24.830  1.00  0.00     0.131 A 
ATOM     43  C   UNL A   1      49.357  26.155  26.215  1.00  0.00     0.055 A 
ATOM     44  C   UNL A   1      48.659  27.229  24.181  1.00  0.00     0.041 A 
ATOM     45  F   UNL A   1      46.656  28.440  24.133  1.00  0.00    -0.206 F 
ATOM     46  C   UNL A   1      49.601  26.478  24.877  1.00  0.00     0.022 A 
BRANCH  43  47
ATOM     47  S   UNL A   1      50.648  25.343  27.199  1.00  0.00     0.124 S 
ATOM     48  O   UNL A   1      51.610  24.964  26.168  1.00  0.00    -0.237 OA
ATOM     49  O   UNL A   1      51.067  26.405  28.105  1.00  0.00    -0.237 OA
ATOM     50  O   UNL A   1      49.947  24.225  27.828  1.00  0.00    -0.744 OA
ENDBRANCH  43  47
ENDBRANCH  26  40
BRANCH  27  51
ATOM     51  C   UNL A   1      38.689  30.128  30.653  1.00  0.00     0.023 A 
ATOM     52  C   UNL A   1      37.702  30.874  29.993  1.00  0.00     0.031 A 
ATOM     53  C   UNL A   1      38.454  29.752  31.988  1.00  0.00     0.131 A 
ATOM     54  C   UNL A   1      36.534  31.241  30.677  1.00  0.00     0.055 A 
ATOM     55  C   UNL A   1      37.269  30.075  32.648  1.00  0.00     0.041 A 
ATOM     56  F   UNL A   1      39.365  29.030  32.661  1.00  0.00    -0.206 F 
ATOM     57  C   UNL A   1      36.304  30.833  31.994  1.00  0.00     0.022 A 
BRANCH  54  58
ATOM     58  S   UNL A   1      35.337  32.314  29.838  1.00  0.00     0.124 S 
ATOM     59  O   UNL A   1      36.174  33.441  29.443  1.00  0.00    -0.237 OA
ATOM     60  O   UNL A   1      34.866  31.454  28.758  1.00  0.00    -0.237 OA
ATOM     61  O   UNL A   1      34.352  32.601  30.878  1.00  0.00    -0.744 OA
ENDBRANCH  54  58
ENDBRANCH  27  51
BRANCH  39  62
ATOM     62  C   UNL A   1      44.839  33.232  29.649  1.00  0.00     0.023 A 
ATOM     63  C   UNL A   1      44.621  34.354  28.831  1.00  0.00     0.031 A 
ATOM     64  C   UNL A   1      45.588  33.401  30.827  1.00  0.00     0.131 A 
ATOM     65  C   UNL A   1      45.198  35.587  29.171  1.00  0.00     0.055 A 
ATOM     66  C   UNL A   1      46.112  34.642  31.188  1.00  0.00     0.041 A 
ATOM     67  F   UNL A   1      45.827  32.359  31.639  1.00  0.00    -0.206 F 
ATOM     68  C   UNL A   1      45.931  35.740  30.352  1.00  0.00     0.022 A 
BRANCH  65  69
ATOM     69  S   UNL A   1      45.059  36.964  28.001  1.00  0.00     0.124 S 
ATOM     70  O   UNL A   1      46.454  37.358  27.828  1.00  0.00    -0.237 OA
ATOM     71  O   UNL A   1      44.427  36.331  26.847  1.00  0.00    -0.237 OA
ATOM     72  O   UNL A   1      44.224  37.933  28.709  1.00  0.00    -0.744 OA
ENDBRANCH  65  69
ENDBRANCH  39  62
ENDBRANCH  13  14
ENDBRANCH   6   8
ENDBRANCH   3   4
ENDBRANCH   2   3
ENDBRANCH   1   2
BRANCH   1  73
ATOM     73  C   UNL A   1      34.909  23.744  23.824  1.00  0.00     0.116 C 
BRANCH  73  74
ATOM     74  N   UNL A   1      33.914  22.943  23.139  1.00  0.00    -0.356 N 
ATOM     75  C   UNL A   1      32.712  22.421  23.463  1.00  0.00     0.224 C 
ATOM     76  H   UNL A   1      34.179  22.727  22.216  1.00  0.00     0.163 HD
ATOM     77  O   UNL A   1      32.095  21.905  22.518  1.00  0.00    -0.275 OA
BRANCH  75  78
ATOM     78  C   UNL A   1      32.098  22.313  24.864  1.00  0.00     0.095 C 
ATOM     79  C   UNL A   1      32.545  20.988  25.501  1.00  0.00     0.041 C 
ATOM     80  C   UNL A   1      32.120  23.517  25.811  1.00  0.00     0.095 C 
ATOM     81  C   UNL A   1      33.672  21.116  26.473  1.00  0.00    -0.030 C 
ATOM     82  C   UNL A   1      33.208  23.527  26.908  1.00  0.00     0.041 C 
ATOM     83  C   UNL A   1      33.975  22.260  27.095  1.00  0.00    -0.030 C 
BRANCH  80  84
ATOM     84  C   UNL A   1      30.817  23.639  26.595  1.00  0.00     0.228 C 
ATOM     85  O   UNL A   1      30.435  22.777  27.387  1.00  0.00    -0.274 OA
ATOM     86  N   UNL A   1      30.196  24.869  26.598  1.00  0.00    -0.325 N 
ATOM     87  H   UNL A   1      29.660  25.076  27.399  1.00  0.00     0.169 HD
BRANCH  86  88
ATOM     88  C   UNL A   1      30.226  25.865  25.609  1.00  0.00     0.054 A 
ATOM     89  C   UNL A   1      29.544  25.557  24.423  1.00  0.00     0.027 A 
ATOM     90  C   UNL A   1      30.865  27.114  25.738  1.00  0.00     0.063 A 
ATOM     91  C   UNL A   1      29.377  26.520  23.428  1.00  0.00     0.002 A 
ATOM     92  C   UNL A   1      30.675  28.079  24.730  1.00  0.00     0.016 A 
ATOM     93  C   UNL A   1      29.923  27.789  23.590  1.00  0.00     0.001 A 
BRANCH  90  94
ATOM     94  C   UNL A   1      31.765  27.538  26.852  1.00  0.00     0.253 C 
ATOM     95  O   UNL A   1      31.261  28.098  27.824  1.00  0.00    -0.269 OA
ATOM     96  N   UNL A   1      33.132  27.389  26.802  1.00  0.00    -0.345 N 
ATOM     97  H   UNL A   1      33.633  27.791  27.548  1.00  0.00     0.164 HD
BRANCH  96  98
ATOM     98  C   UNL A   1      33.926  26.722  25.797  1.00  0.00     0.191 C 
BRANCH  98  99
ATOM     99  C   UNL A   1      33.820  27.311  24.445  1.00  0.00     0.122 A 
ATOM    100  C   UNL A   1      33.553  26.852  23.172  1.00  0.00     0.047 A 
ATOM    101  O   UNL A   1      34.076  28.654  24.403  1.00  0.00    -0.467 OA
ATOM    102  C   UNL A   1      33.648  27.979  22.314  1.00  0.00     0.042 A 
ATOM    103  C   UNL A   1      33.962  29.051  23.113  1.00  0.00     0.195 A 
ENDBRANCH  98  99
ENDBRANCH  96  98
ENDBRANCH  90  94
ENDBRANCH  86  88
ENDBRANCH  80  84
ENDBRANCH  75  78
ENDBRANCH  73  74
ENDBRANCH   1  73
TORSDOF 19
ENDMDL
MODEL 2
REMARK VINA RESULT:     -12.6      1.290      7.582
REMARK SMILES O=C(NCCCCNC(=O)[C@H]1CC=CC[C@@H]1C(=O)Nc1ccccc1C(=O)NCc1ccco1)c1ccc(-c2c3nc(c(-c4cc(S(=O)(=O)[O-])ccc4F)c4ccc([nH]4)c(-c4cc(S(=O)(=O)[O-])ccc4F)c4nc(c(-c5cc(S(=O)(=O)[O-])ccc5F)c5ccc2[nH]5)C=C4)C=C3)cc1
REMARK SMILES IDX 6 1 5 2 4 3 3 4 1 5 2 6 35 8 36 9 97 10 37 11 96 12 38 13
REMARK SMILES IDX 39 14 40 15 90 16 41 17 95 18 89 19 91 20 42 21 94 22 88 23
REMARK SMILES IDX 87 24 43 26 75 27 55 28 74 29 56 30 59 31 73 32 92 33 57 34
REMARK SMILES IDX 58 35 72 37 93 38 60 39 44 40 45 41 53 42 46 43 52 44 54 45
REMARK SMILES IDX 51 46 47 47 48 48 49 49 50 50 76 51 77 52 85 53 78 54 84 55
REMARK SMILES IDX 86 56 83 57 79 58 80 59 81 60 82 61 61 62 62 63 70 64 63 65
REMARK SMILES IDX 69 66 71 67 68 68 64 69 65 70 66 71 67 72 7 73 8 74 9 75
REMARK SMILES IDX 10 77 11 78 12 79 16 80 13 81 15 82 14 83 17 84 18 85 19 86
REMARK SMILES IDX 20 88 21 89 25 90 22 91 24 92 23 93 26 94 27 95 28 96 29 98
REMARK SMILES IDX 30 99 31 100 34 101 32 102 33 103
REMARK H PARENT 3 7 91 25 59 36 8 76 19 87 28 97
REMARK Flexibility Score: inf
ROOT
ATOM      1  C   UNL A   1      36.396  22.707  23.746  1.00  0.00     0.023 C 
ENDROOT
BRANCH   1   2
ATOM      2  C   UNL A   1      36.444  21.358  24.445  1.00  0.00     0.023 C 
BRANCH   2   3
ATOM      3  C   UNL A   1      37.310  21.306  25.694  1.00  0.00     0.116 C 
BRANCH   3   4
ATOM      4  N   UNL A   1      38.394  20.328  25.671  1.00  0.00    -0.352 N 
ATOM      5  O   UNL A   1      40.516  19.621  26.093  1.00  0.00    -0.269 OA
ATOM      6  C   UNL A   1      39.672  20.500  26.173  1.00  0.00     0.251 C 
ATOM      7  H   UNL A   1      38.196  19.457  25.256  1.00  0.00     0.163 HD
BRANCH   6   8
ATOM      8  C   UNL A   1      39.990  21.815  26.770  1.00  0.00     0.039 A 
ATOM      9  C   UNL A   1      39.482  22.969  26.171  1.00  0.00     0.014 A 
ATOM     10  C   UNL A   1      40.944  21.893  27.786  1.00  0.00     0.014 A 
ATOM     11  C   UNL A   1      40.079  24.188  26.449  1.00  0.00     0.010 A 
ATOM     12  C   UNL A   1      41.460  23.141  28.142  1.00  0.00     0.010 A 
ATOM     13  C   UNL A   1      41.070  24.293  27.441  1.00  0.00    -0.014 A 
BRANCH  13  14
ATOM     14  C   UNL A   1      41.650  25.628  27.738  1.00  0.00     0.031 A 
ATOM     15  C   UNL A   1      40.883  26.665  28.515  1.00  0.00     0.074 A 
ATOM     16  C   UNL A   1      42.914  25.872  27.340  1.00  0.00     0.049 A 
ATOM     17  N   UNL A   1      41.237  27.884  28.834  1.00  0.00    -0.248 NA
ATOM     18  C   UNL A   1      39.542  26.290  28.986  1.00  0.00     0.031 C 
ATOM     19  C   UNL A   1      43.755  24.929  26.596  1.00  0.00     0.029 A 
ATOM     20  N   UNL A   1      43.723  26.961  27.524  1.00  0.00    -0.354 N 
ATOM     21  C   UNL A   1      40.157  28.435  29.516  1.00  0.00     0.074 A 
ATOM     22  C   UNL A   1      39.125  27.419  29.548  1.00  0.00     0.031 C 
ATOM     23  C   UNL A   1      44.978  25.453  26.445  1.00  0.00     0.029 A 
ATOM     24  C   UNL A   1      44.982  26.803  26.992  1.00  0.00     0.049 A 
ATOM     25  H   UNL A   1      43.432  27.778  27.991  1.00  0.00     0.167 HD
ATOM     26  C   UNL A   1      40.043  29.673  30.062  1.00  0.00     0.034 A 
ATOM     27  C   UNL A   1      46.016  27.659  26.919  1.00  0.00     0.034 A 
ATOM     28  C   UNL A   1      41.095  30.665  30.028  1.00  0.00     0.049 A 
ATOM     29  C   UNL A   1      45.850  29.034  27.497  1.00  0.00     0.074 A 
ATOM     30  C   UNL A   1      41.095  31.943  30.561  1.00  0.00     0.029 A 
ATOM     31  N   UNL A   1      42.336  30.490  29.427  1.00  0.00    -0.354 N 
ATOM     32  N   UNL A   1      44.808  29.550  28.108  1.00  0.00    -0.248 NA
ATOM     33  C   UNL A   1      46.992  29.945  27.366  1.00  0.00     0.031 C 
ATOM     34  C   UNL A   1      42.308  32.560  30.229  1.00  0.00     0.029 A 
ATOM     35  C   UNL A   1      43.096  31.645  29.550  1.00  0.00     0.049 A 
ATOM     36  H   UNL A   1      42.633  29.666  28.978  1.00  0.00     0.167 HD
ATOM     37  C   UNL A   1      45.173  30.849  28.440  1.00  0.00     0.074 A 
ATOM     38  C   UNL A   1      46.538  31.025  27.985  1.00  0.00     0.031 C 
ATOM     39  C   UNL A   1      44.445  31.810  29.062  1.00  0.00     0.034 A 
BRANCH  26  40
ATOM     40  C   UNL A   1      38.719  30.043  30.691  1.00  0.00     0.023 A 
ATOM     41  C   UNL A   1      37.735  30.763  29.993  1.00  0.00     0.031 A 
ATOM     42  C   UNL A   1      38.441  29.673  32.021  1.00  0.00     0.131 A 
ATOM     43  C   UNL A   1      36.549  31.143  30.643  1.00  0.00     0.055 A 
ATOM     44  C   UNL A   1      37.230  29.990  32.639  1.00  0.00     0.041 A 
ATOM     45  F   UNL A   1      39.349  29.000  32.747  1.00  0.00    -0.206 F 
ATOM     46  C   UNL A   1      36.279  30.741  31.954  1.00  0.00     0.022 A 
BRANCH  43  47
ATOM     47  S   UNL A   1      35.416  32.278  29.794  1.00  0.00     0.124 S 
ATOM     48  O   UNL A   1      36.293  33.412  29.510  1.00  0.00    -0.237 OA
ATOM     49  O   UNL A   1      34.992  31.495  28.640  1.00  0.00    -0.237 OA
ATOM     50  O   UNL A   1      34.378  32.537  30.790  1.00  0.00    -0.744 OA
ENDBRANCH  43  47
ENDBRANCH  26  40
BRANCH  27  51
ATOM     51  C   UNL A   1      47.269  27.251  26.226  1.00  0.00     0.023 A 
ATOM     52  C   UNL A   1      48.267  26.531  26.899  1.00  0.00     0.031 A 
ATOM     53  C   UNL A   1      47.478  27.568  24.871  1.00  0.00     0.131 A 
ATOM     54  C   UNL A   1      49.441  26.170  26.220  1.00  0.00     0.055 A 
ATOM     55  C   UNL A   1      48.623  27.164  24.188  1.00  0.00     0.041 A 
ATOM     56  F   UNL A   1      46.548  28.250  24.182  1.00  0.00    -0.206 F 
ATOM     57  C   UNL A   1      49.618  26.467  24.866  1.00  0.00     0.022 A 
BRANCH  54  58
ATOM     58  S   UNL A   1      50.765  25.354  27.150  1.00  0.00     0.124 S 
ATOM     59  O   UNL A   1      50.035  24.297  27.842  1.00  0.00    -0.237 OA
ATOM     60  O   UNL A   1      51.661  24.922  26.083  1.00  0.00    -0.237 OA
ATOM     61  O   UNL A   1      51.284  26.417  28.006  1.00  0.00    -0.744 OA
ENDBRANCH  54  58
ENDBRANCH  27  51
BRANCH  39  62
ATOM     62  C   UNL A   1      45.139  33.126  29.294  1.00  0.00     0.023 A 
ATOM     63  C   UNL A   1      45.842  33.385  30.484  1.00  0.00     0.031 A 
ATOM     64  C   UNL A   1      45.059  34.148  28.333  1.00  0.00     0.131 A 
ATOM     65  C   UNL A   1      46.386  34.658  30.709  1.00  0.00     0.055 A 
ATOM     66  C   UNL A   1      45.650  35.394  28.539  1.00  0.00     0.041 A 
ATOM     67  F   UNL A   1      44.396  33.952  27.182  1.00  0.00    -0.206 F 
ATOM     68  C   UNL A   1      46.306  35.660  29.738  1.00  0.00     0.022 A 
BRANCH  65  69
ATOM     69  S   UNL A   1      47.117  35.017  32.329  1.00  0.00     0.124 S 
ATOM     70  O   UNL A   1      46.972  36.467  32.413  1.00  0.00    -0.237 OA
ATOM     71  O   UNL A   1      46.273  34.239  33.232  1.00  0.00    -0.237 OA
ATOM     72  O   UNL A   1      48.491  34.537  32.200  1.00  0.00    -0.744 OA
ENDBRANCH  65  69
ENDBRANCH  39  62
ENDBRANCH  13  14
ENDBRANCH   6   8
ENDBRANCH   3   4
ENDBRANCH   2   3
ENDBRANCH   1   2
BRANCH   1  73
ATOM     73  C   UNL A   1      35.214  23.599  24.111  1.00  0.00     0.116 C 
BRANCH  73  74
ATOM     74  N   UNL A   1      34.076  23.430  23.229  1.00  0.00    -0.356 N 
ATOM     75  C   UNL A   1      32.750  23.239  23.396  1.00  0.00     0.224 C 
ATOM     76  H   UNL A   1      34.332  23.462  22.279  1.00  0.00     0.163 HD
ATOM     77  O   UNL A   1      32.080  23.290  22.353  1.00  0.00    -0.275 OA
BRANCH  75  78
ATOM     78  C   UNL A   1      32.026  22.869  24.696  1.00  0.00     0.095 C 
ATOM     79  C   UNL A   1      32.217  21.368  24.962  1.00  0.00     0.041 C 
ATOM     80  C   UNL A   1      32.162  23.761  25.935  1.00  0.00     0.095 C 
ATOM     81  C   UNL A   1      33.276  21.046  25.965  1.00  0.00    -0.030 C 
ATOM     82  C   UNL A   1      33.156  23.299  27.025  1.00  0.00     0.041 C 
ATOM     83  C   UNL A   1      33.704  21.917  26.883  1.00  0.00    -0.030 C 
BRANCH  80  84
ATOM     84  C   UNL A   1      30.840  23.888  26.685  1.00  0.00     0.228 C 
ATOM     85  O   UNL A   1      30.451  23.046  27.494  1.00  0.00    -0.274 OA
ATOM     86  N   UNL A   1      30.202  25.108  26.634  1.00  0.00    -0.325 N 
ATOM     87  H   UNL A   1      29.645  25.333  27.415  1.00  0.00     0.169 HD
BRANCH  86  88
ATOM     88  C   UNL A   1      30.241  26.073  25.615  1.00  0.00     0.054 A 
ATOM     89  C   UNL A   1      29.498  25.767  24.466  1.00  0.00     0.027 A 
ATOM     90  C   UNL A   1      30.948  27.291  25.680  1.00  0.00     0.063 A 
ATOM     91  C   UNL A   1      29.338  26.709  23.449  1.00  0.00     0.002 A 
ATOM     92  C   UNL A   1      30.765  28.235  24.651  1.00  0.00     0.016 A 
ATOM     93  C   UNL A   1      29.954  27.953  23.552  1.00  0.00     0.001 A 
BRANCH  90  94
ATOM     94  C   UNL A   1      31.913  27.699  26.744  1.00  0.00     0.253 C 
ATOM     95  O   UNL A   1      31.481  28.332  27.706  1.00  0.00    -0.269 OA
ATOM     96  N   UNL A   1      33.264  27.457  26.656  1.00  0.00    -0.345 N 
ATOM     97  H   UNL A   1      33.817  27.855  27.368  1.00  0.00     0.164 HD
BRANCH  96  98
ATOM     98  C   UNL A   1      33.976  26.695  25.657  1.00  0.00     0.191 C 
BRANCH  98  99
ATOM     99  C   UNL A   1      33.897  27.258  24.291  1.00  0.00     0.122 A 
ATOM    100  C   UNL A   1      34.156  28.474  23.695  1.00  0.00     0.047 A 
ATOM    101  O   UNL A   1      33.418  26.382  23.356  1.00  0.00    -0.467 OA
ATOM    102  C   UNL A   1      33.821  28.324  22.323  1.00  0.00     0.042 A 
ATOM    103  C   UNL A   1      33.384  27.031  22.169  1.00  0.00     0.195 A 
ENDBRANCH  98  99
ENDBRANCH  96  98
ENDBRANCH  90  94
ENDBRANCH  86  88
ENDBRANCH  80  84
ENDBRANCH  75  78
ENDBRANCH  73  74
ENDBRANCH   1  73
TORSDOF 19
ENDMDL
MODEL 3
REMARK VINA RESULT:     -12.4      5.411      8.976
REMARK SMILES O=C(NCCCCNC(=O)[C@H]1CC=CC[C@@H]1C(=O)Nc1ccccc1C(=O)NCc1ccco1)c1ccc(-c2c3nc(c(-c4cc(S(=O)(=O)[O-])ccc4F)c4ccc([nH]4)c(-c4cc(S(=O)(=O)[O-])ccc4F)c4nc(c(-c5cc(S(=O)(=O)[O-])ccc5F)c5ccc2[nH]5)C=C4)C=C3)cc1
REMARK SMILES IDX 6 1 5 2 4 3 3 4 1 5 2 6 35 8 36 9 97 10 37 11 96 12 38 13
REMARK SMILES IDX 39 14 40 15 90 16 41 17 95 18 89 19 91 20 42 21 94 22 88 23
REMARK SMILES IDX 87 24 43 26 75 27 55 28 74 29 56 30 59 31 73 32 92 33 57 34
REMARK SMILES IDX 58 35 72 37 93 38 60 39 44 40 45 41 53 42 46 43 52 44 54 45
REMARK SMILES IDX 51 46 47 47 48 48 49 49 50 50 76 51 77 52 85 53 78 54 84 55
REMARK SMILES IDX 86 56 83 57 79 58 80 59 81 60 82 61 61 62 62 63 70 64 63 65
REMARK SMILES IDX 69 66 71 67 68 68 64 69 65 70 66 71 67 72 7 73 8 74 9 75
REMARK SMILES IDX 10 77 11 78 12 79 16 80 13 81 15 82 14 83 17 84 18 85 19 86
REMARK SMILES IDX 20 88 21 89 25 90 22 91 24 92 23 93 26 94 27 95 28 96 29 98
REMARK SMILES IDX 30 99 31 100 34 101 32 102 33 103
REMARK H PARENT 3 7 91 25 59 36 8 76 19 87 28 97
REMARK Flexibility Score: inf
ROOT
ATOM      1  C   UNL A   1      32.763  30.248  25.949  1.00  0.00     0.023 C 
ENDROOT
BRANCH   1   2
ATOM      2  C   UNL A   1      32.540  31.014  27.244  1.00  0.00     0.023 C 
BRANCH   2   3
ATOM      3  C   UNL A   1      33.515  32.153  27.498  1.00  0.00     0.116 C 
BRANCH   3   4
ATOM      4  N   UNL A   1      32.914  33.472  27.675  1.00  0.00    -0.352 N 
ATOM      5  O   UNL A   1      32.724  35.515  28.660  1.00  0.00    -0.269 OA
ATOM      6  C   UNL A   1      33.303  34.442  28.581  1.00  0.00     0.251 C 
ATOM      7  H   UNL A   1      32.154  33.693  27.088  1.00  0.00     0.163 HD
BRANCH   6   8
ATOM      8  C   UNL A   1      34.422  34.107  29.487  1.00  0.00     0.039 A 
ATOM      9  C   UNL A   1      35.730  34.352  29.064  1.00  0.00     0.014 A 
ATOM     10  C   UNL A   1      34.168  33.376  30.648  1.00  0.00     0.014 A 
ATOM     11  C   UNL A   1      36.774  33.692  29.693  1.00  0.00     0.010 A 
ATOM     12  C   UNL A   1      35.237  32.806  31.344  1.00  0.00     0.010 A 
ATOM     13  C   UNL A   1      36.544  32.917  30.843  1.00  0.00    -0.014 A 
BRANCH  13  14
ATOM     14  C   UNL A   1      37.699  32.264  31.512  1.00  0.00     0.031 A 
ATOM     15  C   UNL A   1      38.504  31.194  30.824  1.00  0.00     0.074 A 
ATOM     16  C   UNL A   1      38.046  32.695  32.740  1.00  0.00     0.049 A 
ATOM     17  N   UNL A   1      39.522  30.509  31.281  1.00  0.00    -0.248 NA
ATOM     18  C   UNL A   1      38.113  30.840  29.452  1.00  0.00     0.031 C 
ATOM     19  C   UNL A   1      37.343  33.740  33.491  1.00  0.00     0.029 A 
ATOM     20  N   UNL A   1      39.081  32.338  33.562  1.00  0.00    -0.354 N 
ATOM     21  C   UNL A   1      39.877  29.622  30.269  1.00  0.00     0.074 A 
ATOM     22  C   UNL A   1      38.950  29.846  29.178  1.00  0.00     0.031 C 
ATOM     23  C   UNL A   1      38.003  33.985  34.629  1.00  0.00     0.029 A 
ATOM     24  C   UNL A   1      39.116  33.052  34.737  1.00  0.00     0.049 A 
ATOM     25  H   UNL A   1      39.736  31.639  33.334  1.00  0.00     0.167 HD
ATOM     26  C   UNL A   1      40.883  28.710  30.256  1.00  0.00     0.034 A 
ATOM     27  C   UNL A   1      39.930  32.946  35.803  1.00  0.00     0.034 A 
ATOM     28  C   UNL A   1      41.804  28.516  31.354  1.00  0.00     0.049 A 
ATOM     29  C   UNL A   1      41.010  31.903  35.779  1.00  0.00     0.074 A 
ATOM     30  C   UNL A   1      42.867  27.634  31.445  1.00  0.00     0.029 A 
ATOM     31  N   UNL A   1      41.771  29.217  32.555  1.00  0.00    -0.354 N 
ATOM     32  N   UNL A   1      41.308  31.050  34.827  1.00  0.00    -0.248 NA
ATOM     33  C   UNL A   1      41.853  31.802  36.974  1.00  0.00     0.031 C 
ATOM     34  C   UNL A   1      43.437  27.758  32.719  1.00  0.00     0.029 A 
ATOM     35  C   UNL A   1      42.775  28.766  33.401  1.00  0.00     0.049 A 
ATOM     36  H   UNL A   1      41.129  29.929  32.774  1.00  0.00     0.167 HD
ATOM     37  C   UNL A   1      42.382  30.310  35.308  1.00  0.00     0.074 A 
ATOM     38  C   UNL A   1      42.692  30.839  36.622  1.00  0.00     0.031 C 
ATOM     39  C   UNL A   1      43.049  29.286  34.720  1.00  0.00     0.034 A 
BRANCH  26  40
ATOM     40  C   UNL A   1      41.004  27.816  29.044  1.00  0.00     0.023 A 
ATOM     41  C   UNL A   1      41.986  28.019  28.059  1.00  0.00     0.031 A 
ATOM     42  C   UNL A   1      40.111  26.741  28.867  1.00  0.00     0.131 A 
ATOM     43  C   UNL A   1      42.015  27.203  26.916  1.00  0.00     0.055 A 
ATOM     44  C   UNL A   1      40.191  25.888  27.764  1.00  0.00     0.041 A 
ATOM     45  F   UNL A   1      39.139  26.507  29.762  1.00  0.00    -0.206 F 
ATOM     46  C   UNL A   1      41.139  26.124  26.774  1.00  0.00     0.022 A 
BRANCH  43  47
ATOM     47  S   UNL A   1      43.132  27.647  25.557  1.00  0.00     0.124 S 
ATOM     48  O   UNL A   1      43.626  26.337  25.141  1.00  0.00    -0.237 OA
ATOM     49  O   UNL A   1      42.238  28.320  24.623  1.00  0.00    -0.237 OA
ATOM     50  O   UNL A   1      44.128  28.505  26.197  1.00  0.00    -0.744 OA
ENDBRANCH  43  47
ENDBRANCH  26  40
BRANCH  27  51
ATOM     51  C   UNL A   1      39.713  33.815  36.991  1.00  0.00     0.023 A 
ATOM     52  C   UNL A   1      39.050  33.335  38.129  1.00  0.00     0.031 A 
ATOM     53  C   UNL A   1      40.179  35.143  37.006  1.00  0.00     0.131 A 
ATOM     54  C   UNL A   1      38.851  34.184  39.228  1.00  0.00     0.055 A 
ATOM     55  C   UNL A   1      40.024  35.967  38.119  1.00  0.00     0.041 A 
ATOM     56  F   UNL A   1      40.827  35.647  35.942  1.00  0.00    -0.206 F 
ATOM     57  C   UNL A   1      39.348  35.491  39.237  1.00  0.00     0.022 A 
BRANCH  54  58
ATOM     58  S   UNL A   1      37.879  33.575  40.632  1.00  0.00     0.124 S 
ATOM     59  O   UNL A   1      37.651  34.799  41.390  1.00  0.00    -0.237 OA
ATOM     60  O   UNL A   1      36.713  33.005  39.967  1.00  0.00    -0.237 OA
ATOM     61  O   UNL A   1      38.769  32.605  41.265  1.00  0.00    -0.744 OA
ENDBRANCH  54  58
ENDBRANCH  27  51
BRANCH  39  62
ATOM     62  C   UNL A   1      44.191  28.697  35.504  1.00  0.00     0.023 A 
ATOM     63  C   UNL A   1      43.996  27.620  36.387  1.00  0.00     0.031 A 
ATOM     64  C   UNL A   1      45.481  29.248  35.400  1.00  0.00     0.131 A 
ATOM     65  C   UNL A   1      45.062  27.167  37.178  1.00  0.00     0.055 A 
ATOM     66  C   UNL A   1      46.549  28.756  36.149  1.00  0.00     0.041 A 
ATOM     67  F   UNL A   1      45.717  30.280  34.574  1.00  0.00    -0.206 F 
ATOM     68  C   UNL A   1      46.340  27.719  37.054  1.00  0.00     0.022 A 
BRANCH  65  69
ATOM     69  S   UNL A   1      44.733  25.908  38.441  1.00  0.00     0.124 S 
ATOM     70  O   UNL A   1      43.835  24.998  37.736  1.00  0.00    -0.237 OA
ATOM     71  O   UNL A   1      46.068  25.393  38.725  1.00  0.00    -0.237 OA
ATOM     72  O   UNL A   1      44.118  26.666  39.529  1.00  0.00    -0.744 OA
ENDBRANCH  65  69
ENDBRANCH  39  62
ENDBRANCH  13  14
ENDBRANCH   6   8
ENDBRANCH   3   4
ENDBRANCH   2   3
ENDBRANCH   1   2
BRANCH   1  73
ATOM     73  C   UNL A   1      33.912  29.246  25.964  1.00  0.00     0.116 C 
BRANCH  73  74
ATOM     74  N   UNL A   1      33.921  28.369  24.809  1.00  0.00    -0.356 N 
ATOM     75  C   UNL A   1      33.219  27.282  24.423  1.00  0.00     0.224 C 
ATOM     76  H   UNL A   1      34.602  28.629  24.148  1.00  0.00     0.163 HD
ATOM     77  O   UNL A   1      33.443  26.902  23.263  1.00  0.00    -0.275 OA
BRANCH  75  78
ATOM     78  C   UNL A   1      32.278  26.434  25.287  1.00  0.00     0.095 C 
ATOM     79  C   UNL A   1      30.942  27.176  25.443  1.00  0.00     0.041 C 
ATOM     80  C   UNL A   1      32.148  24.928  25.035  1.00  0.00     0.095 C 
ATOM     81  C   UNL A   1      29.854  26.690  24.542  1.00  0.00    -0.030 C 
ATOM     82  C   UNL A   1      30.915  24.456  24.232  1.00  0.00     0.041 C 
ATOM     83  C   UNL A   1      29.850  25.474  23.991  1.00  0.00    -0.030 C 
BRANCH  80  84
ATOM     84  C   UNL A   1      32.050  24.146  26.340  1.00  0.00     0.228 C 
ATOM     85  O   UNL A   1      31.160  24.343  27.167  1.00  0.00    -0.274 OA
ATOM     86  N   UNL A   1      32.833  23.019  26.461  1.00  0.00    -0.325 N 
ATOM     87  H   UNL A   1      32.476  22.309  27.043  1.00  0.00     0.169 HD
BRANCH  86  88
ATOM     88  C   UNL A   1      34.074  22.750  25.863  1.00  0.00     0.054 A 
ATOM     89  C   UNL A   1      35.186  23.322  26.498  1.00  0.00     0.027 A 
ATOM     90  C   UNL A   1      34.264  21.958  24.712  1.00  0.00     0.063 A 
ATOM     91  C   UNL A   1      36.481  23.007  26.087  1.00  0.00     0.002 A 
ATOM     92  C   UNL A   1      35.578  21.639  24.319  1.00  0.00     0.016 A 
ATOM     93  C   UNL A   1      36.679  22.147  25.011  1.00  0.00     0.001 A 
BRANCH  90  94
ATOM     94  C   UNL A   1      33.193  21.416  23.824  1.00  0.00     0.253 C 
ATOM     95  O   UNL A   1      32.935  22.024  22.787  1.00  0.00    -0.269 OA
ATOM     96  N   UNL A   1      32.443  20.310  24.154  1.00  0.00    -0.345 N 
ATOM     97  H   UNL A   1      31.700  20.099  23.542  1.00  0.00     0.164 HD
BRANCH  96  98
ATOM     98  C   UNL A   1      32.602  19.421  25.280  1.00  0.00     0.191 C 
BRANCH  98  99
ATOM     99  C   UNL A   1      33.295  18.153  24.962  1.00  0.00     0.122 A 
ATOM    100  C   UNL A   1      34.342  17.761  24.156  1.00  0.00     0.047 A 
ATOM    101  O   UNL A   1      32.767  17.059  25.591  1.00  0.00    -0.467 OA
ATOM    102  C   UNL A   1      34.458  16.355  24.308  1.00  0.00     0.042 A 
ATOM    103  C   UNL A   1      33.481  15.978  25.197  1.00  0.00     0.195 A 
ENDBRANCH  98  99
ENDBRANCH  96  98
ENDBRANCH  90  94
ENDBRANCH  86  88
ENDBRANCH  80  84
ENDBRANCH  75  78
ENDBRANCH  73  74
ENDBRANCH   1  73
TORSDOF 19
ENDMDL
