MODEL 1
REMARK VINA RESULT:     -12.6      0.000      0.000
REMARK SMILES CC1=C(C(=O)NCCCCNC(=O)c2ccc(-c3c4nc(c(-c5cc(S(=O)(=O)[O-])ccc5F)c5ccc([nH]5)c(-c5cc(S(=O)(=O)[O-])ccc5F)c5nc(c(-c6cc(S(=O)(=O)[O-])ccc6F)c6ccc3[nH]6)C=C5)C=C4)cc2)N2C(=O)[C@@H](NC(=O)c3ccn(C)n3)[C@H]2SC1
REMARK SMILES IDX 9 1 8 2 7 3 6 4 4 5 5 6 3 8 1 9 2 10 92 11 77 12 91 13 78 14
REMARK SMILES IDX 90 15 79 16 80 17 81 18 82 19 83 21 84 22 85 23 89 24 86 25
REMARK SMILES IDX 87 26 88 27 10 28 11 29 12 30 13 32 14 33 15 34 76 35 16 36
REMARK SMILES IDX 75 37 17 38 18 39 19 40 69 41 20 42 74 43 68 44 70 45 21 46
REMARK SMILES IDX 73 47 67 48 66 49 22 51 54 52 34 53 53 54 35 55 38 56 52 57
REMARK SMILES IDX 71 58 36 59 37 60 51 62 72 63 39 64 23 65 24 66 32 67 25 68
REMARK SMILES IDX 31 69 33 70 30 71 26 72 27 73 28 74 29 75 55 76 56 77 64 78
REMARK SMILES IDX 57 79 63 80 65 81 62 82 58 83 59 84 60 85 61 86 40 87 41 88
REMARK SMILES IDX 49 89 42 90 48 91 50 92 47 93 43 94 44 95 45 96 46 97
REMARK H PARENT 6 7 81 20 11 31 70 50 38 61
REMARK Flexibility Score: inf
ROOT
ATOM      1  C   UNL A   1      32.895  29.700  25.038  1.00  0.00     0.023 C 
ENDROOT
BRANCH   1   2
ATOM      2  C   UNL A   1      34.033  28.876  24.443  1.00  0.00     0.023 C 
BRANCH   2   3
ATOM      3  C   UNL A   1      33.957  28.583  22.952  1.00  0.00     0.116 C 
BRANCH   3   4
ATOM      4  N   UNL A   1      34.288  27.237  22.534  1.00  0.00    -0.351 N 
ATOM      5  C   UNL A   1      33.623  26.067  22.797  1.00  0.00     0.268 C 
ATOM      6  O   UNL A   1      33.929  25.051  22.172  1.00  0.00    -0.268 OA
ATOM      7  H   UNL A   1      35.102  27.150  21.986  1.00  0.00     0.163 HD
BRANCH   5   8
ATOM      8  C   UNL A   1      32.562  25.992  23.873  1.00  0.00     0.110 C 
ATOM      9  C   UNL A   1      34.046  25.235  25.781  1.00  0.00     0.043 C 
ATOM     10  C   UNL A   1      32.715  25.510  25.133  1.00  0.00    -0.034 C 
ATOM     11  C   UNL A   1      31.549  25.234  26.086  1.00  0.00     0.104 C 
ATOM     12  N   UNL A   1      31.395  26.636  23.599  1.00  0.00    -0.290 N 
ATOM     13  S   UNL A   1      29.897  25.758  25.502  1.00  0.00    -0.129 SA
ATOM     14  C   UNL A   1      30.693  27.133  22.563  1.00  0.00     0.253 C 
ATOM     15  C   UNL A   1      30.585  27.195  24.657  1.00  0.00     0.181 C 
ATOM     16  O   UNL A   1      30.763  27.012  21.362  1.00  0.00    -0.272 OA
ATOM     17  C   UNL A   1      29.790  27.921  23.557  1.00  0.00     0.206 C 
BRANCH  17  18
ATOM     18  N   UNL A   1      28.322  27.734  23.515  1.00  0.00    -0.336 N 
ATOM     19  C   UNL A   1      27.376  28.691  23.190  1.00  0.00     0.272 C 
ATOM     20  H   UNL A   1      27.985  26.838  23.742  1.00  0.00     0.164 HD
ATOM     21  O   UNL A   1      26.187  28.445  23.386  1.00  0.00    -0.267 OA
BRANCH  19  22
ATOM     22  C   UNL A   1      27.853  29.972  22.639  1.00  0.00     0.150 A 
ATOM     23  C   UNL A   1      28.142  30.278  21.277  1.00  0.00     0.056 A 
ATOM     24  N   UNL A   1      28.113  31.034  23.425  1.00  0.00    -0.168 NA
ATOM     25  C   UNL A   1      28.640  31.558  21.285  1.00  0.00     0.109 A 
ATOM     26  N   UNL A   1      28.563  31.977  22.578  1.00  0.00    -0.275 N 
ATOM     27  C   UNL A   1      28.937  33.280  23.073  1.00  0.00     0.173 C 
ENDBRANCH  19  22
ENDBRANCH  17  18
ENDBRANCH   5   8
ENDBRANCH   3   4
ENDBRANCH   2   3
ENDBRANCH   1   2
BRANCH   1  28
ATOM     28  C   UNL A   1      32.906  29.890  26.552  1.00  0.00     0.116 C 
BRANCH  28  29
ATOM     29  N   UNL A   1      32.901  31.286  26.973  1.00  0.00    -0.352 N 
ATOM     30  C   UNL A   1      33.837  32.002  27.687  1.00  0.00     0.251 C 
ATOM     31  H   UNL A   1      32.104  31.796  26.705  1.00  0.00     0.163 HD
ATOM     32  O   UNL A   1      33.583  33.153  28.030  1.00  0.00    -0.269 OA
BRANCH  30  33
ATOM     33  C   UNL A   1      35.120  31.374  28.077  1.00  0.00     0.039 A 
ATOM     34  C   UNL A   1      36.274  32.160  28.126  1.00  0.00     0.014 A 
ATOM     35  C   UNL A   1      35.181  30.025  28.428  1.00  0.00     0.014 A 
ATOM     36  C   UNL A   1      37.461  31.616  28.630  1.00  0.00     0.010 A 
ATOM     37  C   UNL A   1      36.332  29.516  29.024  1.00  0.00     0.010 A 
ATOM     38  C   UNL A   1      37.486  30.307  29.138  1.00  0.00    -0.014 A 
BRANCH  38  39
ATOM     39  C   UNL A   1      38.703  29.751  29.793  1.00  0.00     0.031 A 
ATOM     40  C   UNL A   1      39.131  30.255  31.146  1.00  0.00     0.074 A 
ATOM     41  C   UNL A   1      39.457  28.836  29.147  1.00  0.00     0.049 A 
ATOM     42  N   UNL A   1      40.195  29.952  31.845  1.00  0.00    -0.248 NA
ATOM     43  C   UNL A   1      38.262  31.256  31.785  1.00  0.00     0.031 C 
ATOM     44  C   UNL A   1      39.173  28.296  27.815  1.00  0.00     0.029 A 
ATOM     45  N   UNL A   1      40.618  28.202  29.516  1.00  0.00    -0.354 N 
ATOM     46  C   UNL A   1      40.128  30.730  32.996  1.00  0.00     0.074 A 
ATOM     47  C   UNL A   1      38.958  31.569  32.866  1.00  0.00     0.031 C 
ATOM     48  C   UNL A   1      40.110  27.389  27.498  1.00  0.00     0.029 A 
ATOM     49  C   UNL A   1      41.097  27.322  28.571  1.00  0.00     0.049 A 
ATOM     50  H   UNL A   1      41.067  28.363  30.378  1.00  0.00     0.167 HD
ATOM     51  C   UNL A   1      40.950  30.723  34.075  1.00  0.00     0.034 A 
ATOM     52  C   UNL A   1      42.211  26.561  28.560  1.00  0.00     0.034 A 
ATOM     53  C   UNL A   1      42.110  29.874  34.195  1.00  0.00     0.049 A 
ATOM     54  C   UNL A   1      43.138  26.610  29.751  1.00  0.00     0.074 A 
ATOM     55  C   UNL A   1      42.980  29.754  35.263  1.00  0.00     0.029 A 
ATOM     56  N   UNL A   1      42.570  29.010  33.209  1.00  0.00    -0.354 N 
ATOM     57  N   UNL A   1      43.028  27.313  30.855  1.00  0.00    -0.248 NA
ATOM     58  C   UNL A   1      44.333  25.758  29.697  1.00  0.00     0.031 C 
ATOM     59  C   UNL A   1      44.011  28.886  34.894  1.00  0.00     0.029 A 
ATOM     60  C   UNL A   1      43.734  28.386  33.632  1.00  0.00     0.049 A 
ATOM     61  H   UNL A   1      42.135  28.863  32.339  1.00  0.00     0.167 HD
ATOM     62  C   UNL A   1      44.122  26.957  31.641  1.00  0.00     0.074 A 
ATOM     63  C   UNL A   1      44.867  25.968  30.891  1.00  0.00     0.031 C 
ATOM     64  C   UNL A   1      44.474  27.404  32.874  1.00  0.00     0.034 A 
BRANCH  51  65
ATOM     65  C   UNL A   1      40.634  31.682  35.200  1.00  0.00     0.023 A 
ATOM     66  C   UNL A   1      39.545  31.474  36.064  1.00  0.00     0.031 A 
ATOM     67  C   UNL A   1      41.422  32.828  35.402  1.00  0.00     0.131 A 
ATOM     68  C   UNL A   1      39.230  32.431  37.039  1.00  0.00     0.055 A 
ATOM     69  C   UNL A   1      41.158  33.732  36.433  1.00  0.00     0.041 A 
ATOM     70  F   UNL A   1      42.461  33.096  34.594  1.00  0.00    -0.206 F 
ATOM     71  C   UNL A   1      40.046  33.545  37.250  1.00  0.00     0.022 A 
BRANCH  68  72
ATOM     72  S   UNL A   1      37.655  32.280  37.924  1.00  0.00     0.124 S 
ATOM     73  O   UNL A   1      36.757  33.041  37.057  1.00  0.00    -0.237 OA
ATOM     74  O   UNL A   1      37.444  30.837  37.950  1.00  0.00    -0.237 OA
ATOM     75  O   UNL A   1      37.928  32.897  39.220  1.00  0.00    -0.744 OA
ENDBRANCH  68  72
ENDBRANCH  51  65
BRANCH  52  76
ATOM     76  C   UNL A   1      42.533  25.698  27.384  1.00  0.00     0.023 A 
ATOM     77  C   UNL A   1      42.071  24.374  27.307  1.00  0.00     0.031 A 
ATOM     78  C   UNL A   1      43.365  26.162  26.349  1.00  0.00     0.131 A 
ATOM     79  C   UNL A   1      42.488  23.545  26.254  1.00  0.00     0.055 A 
ATOM     80  C   UNL A   1      43.723  25.354  25.267  1.00  0.00     0.041 A 
ATOM     81  F   UNL A   1      43.840  27.418  26.371  1.00  0.00    -0.206 F 
ATOM     82  C   UNL A   1      43.297  24.031  25.225  1.00  0.00     0.022 A 
BRANCH  79  83
ATOM     83  S   UNL A   1      42.053  21.783  26.311  1.00  0.00     0.124 S 
ATOM     84  O   UNL A   1      42.911  21.235  25.268  1.00  0.00    -0.237 OA
ATOM     85  O   UNL A   1      42.401  21.430  27.682  1.00  0.00    -0.237 OA
ATOM     86  O   UNL A   1      40.623  21.778  26.012  1.00  0.00    -0.744 OA
ENDBRANCH  79  83
ENDBRANCH  52  76
BRANCH  64  87
ATOM     87  C   UNL A   1      45.694  26.783  33.514  1.00  0.00     0.023 A 
ATOM     88  C   UNL A   1      45.613  25.622  34.302  1.00  0.00     0.031 A 
ATOM     89  C   UNL A   1      46.962  27.365  33.324  1.00  0.00     0.131 A 
ATOM     90  C   UNL A   1      46.767  25.114  34.917  1.00  0.00     0.055 A 
ATOM     91  C   UNL A   1      48.116  26.813  33.880  1.00  0.00     0.041 A 
ATOM     92  F   UNL A   1      47.099  28.477  32.586  1.00  0.00    -0.206 F 
ATOM     93  C   UNL A   1      48.021  25.688  34.693  1.00  0.00     0.022 A 
BRANCH  90  94
ATOM     94  S   UNL A   1      46.595  23.747  36.098  1.00  0.00     0.124 S 
ATOM     95  O   UNL A   1      47.700  22.874  35.713  1.00  0.00    -0.237 OA
ATOM     96  O   UNL A   1      46.736  24.423  37.382  1.00  0.00    -0.237 OA
ATOM     97  O   UNL A   1      45.261  23.218  35.818  1.00  0.00    -0.744 OA
ENDBRANCH  90  94
ENDBRANCH  64  87
ENDBRANCH  38  39
ENDBRANCH  30  33
ENDBRANCH  28  29
ENDBRANCH   1  28
TORSDOF 16
ENDMDL
MODEL 2
REMARK VINA RESULT:     -12.4      2.789      8.602
REMARK SMILES CC1=C(C(=O)NCCCCNC(=O)c2ccc(-c3c4nc(c(-c5cc(S(=O)(=O)[O-])ccc5F)c5ccc([nH]5)c(-c5cc(S(=O)(=O)[O-])ccc5F)c5nc(c(-c6cc(S(=O)(=O)[O-])ccc6F)c6ccc3[nH]6)C=C5)C=C4)cc2)N2C(=O)[C@@H](NC(=O)c3ccn(C)n3)[C@H]2SC1
REMARK SMILES IDX 9 1 8 2 7 3 6 4 4 5 5 6 3 8 1 9 2 10 92 11 77 12 91 13 78 14
REMARK SMILES IDX 90 15 79 16 80 17 81 18 82 19 83 21 84 22 85 23 89 24 86 25
REMARK SMILES IDX 87 26 88 27 10 28 11 29 12 30 13 32 14 33 15 34 76 35 16 36
REMARK SMILES IDX 75 37 17 38 18 39 19 40 69 41 20 42 74 43 68 44 70 45 21 46
REMARK SMILES IDX 73 47 67 48 66 49 22 51 54 52 34 53 53 54 35 55 38 56 52 57
REMARK SMILES IDX 71 58 36 59 37 60 51 62 72 63 39 64 23 65 24 66 32 67 25 68
REMARK SMILES IDX 31 69 33 70 30 71 26 72 27 73 28 74 29 75 55 76 56 77 64 78
REMARK SMILES IDX 57 79 63 80 65 81 62 82 58 83 59 84 60 85 61 86 40 87 41 88
REMARK SMILES IDX 49 89 42 90 48 91 50 92 47 93 43 94 44 95 45 96 46 97
REMARK H PARENT 6 7 81 20 11 31 70 50 38 61
REMARK Flexibility Score: inf
ROOT
ATOM      1  C   UNL A   1      31.316  32.435  26.402  1.00  0.00     0.023 C 
ENDROOT
BRANCH   1   2
ATOM      2  C   UNL A   1      31.150  31.000  25.910  1.00  0.00     0.023 C 
BRANCH   2   3
ATOM      3  C   UNL A   1      32.254  30.020  26.278  1.00  0.00     0.116 C 
BRANCH   3   4
ATOM      4  N   UNL A   1      33.157  29.625  25.218  1.00  0.00    -0.351 N 
ATOM      5  C   UNL A   1      32.874  28.960  24.052  1.00  0.00     0.268 C 
ATOM      6  O   UNL A   1      33.732  28.910  23.169  1.00  0.00    -0.268 OA
ATOM      7  H   UNL A   1      34.102  29.866  25.352  1.00  0.00     0.163 HD
BRANCH   5   8
ATOM      8  C   UNL A   1      31.554  28.248  23.854  1.00  0.00     0.110 C 
ATOM      9  C   UNL A   1      30.629  29.722  22.013  1.00  0.00     0.043 C 
ATOM     10  C   UNL A   1      30.525  28.648  23.063  1.00  0.00    -0.034 C 
ATOM     11  C   UNL A   1      29.131  28.017  23.099  1.00  0.00     0.104 C 
ATOM     12  N   UNL A   1      31.472  26.997  24.384  1.00  0.00    -0.290 N 
ATOM     13  S   UNL A   1      28.947  26.541  24.161  1.00  0.00    -0.129 SA
ATOM     14  C   UNL A   1      32.073  26.204  25.292  1.00  0.00     0.253 C 
ATOM     15  C   UNL A   1      30.623  25.989  23.790  1.00  0.00     0.181 C 
ATOM     16  O   UNL A   1      32.864  26.396  26.186  1.00  0.00    -0.272 OA
ATOM     17  C   UNL A   1      31.338  24.969  24.693  1.00  0.00     0.206 C 
BRANCH  17  18
ATOM     18  N   UNL A   1      30.511  24.114  25.574  1.00  0.00    -0.336 N 
ATOM     19  C   UNL A   1      30.743  22.787  25.893  1.00  0.00     0.272 C 
ATOM     20  H   UNL A   1      29.714  24.532  25.973  1.00  0.00     0.164 HD
ATOM     21  O   UNL A   1      29.868  22.152  26.479  1.00  0.00    -0.267 OA
BRANCH  19  22
ATOM     22  C   UNL A   1      32.033  22.197  25.492  1.00  0.00     0.150 A 
ATOM     23  C   UNL A   1      32.257  21.170  24.530  1.00  0.00     0.056 A 
ATOM     24  N   UNL A   1      33.196  22.571  26.060  1.00  0.00    -0.168 NA
ATOM     25  C   UNL A   1      33.603  20.902  24.582  1.00  0.00     0.109 A 
ATOM     26  N   UNL A   1      34.122  21.790  25.475  1.00  0.00    -0.275 N 
ATOM     27  C   UNL A   1      35.514  21.920  25.833  1.00  0.00     0.173 C 
ENDBRANCH  19  22
ENDBRANCH  17  18
ENDBRANCH   5   8
ENDBRANCH   3   4
ENDBRANCH   2   3
ENDBRANCH   1   2
BRANCH   1  28
ATOM     28  C   UNL A   1      32.543  32.727  27.261  1.00  0.00     0.116 C 
BRANCH  28  29
ATOM     29  N   UNL A   1      32.573  34.077  27.809  1.00  0.00    -0.352 N 
ATOM     30  C   UNL A   1      33.437  34.649  28.718  1.00  0.00     0.251 C 
ATOM     31  H   UNL A   1      31.865  34.674  27.478  1.00  0.00     0.163 HD
ATOM     32  O   UNL A   1      33.216  35.783  29.131  1.00  0.00    -0.269 OA
BRANCH  30  33
ATOM     33  C   UNL A   1      34.597  33.882  29.229  1.00  0.00     0.039 A 
ATOM     34  C   UNL A   1      35.888  34.339  28.954  1.00  0.00     0.014 A 
ATOM     35  C   UNL A   1      34.415  32.738  30.008  1.00  0.00     0.014 A 
ATOM     36  C   UNL A   1      36.987  33.710  29.548  1.00  0.00     0.010 A 
ATOM     37  C   UNL A   1      35.499  32.179  30.679  1.00  0.00     0.010 A 
ATOM     38  C   UNL A   1      36.799  32.661  30.463  1.00  0.00    -0.014 A 
BRANCH  38  39
ATOM     39  C   UNL A   1      37.944  32.059  31.202  1.00  0.00     0.031 A 
ATOM     40  C   UNL A   1      38.749  30.951  30.577  1.00  0.00     0.074 A 
ATOM     41  C   UNL A   1      38.223  32.467  32.459  1.00  0.00     0.049 A 
ATOM     42  N   UNL A   1      39.731  30.250  31.086  1.00  0.00    -0.248 NA
ATOM     43  C   UNL A   1      38.380  30.556  29.208  1.00  0.00     0.031 C 
ATOM     44  C   UNL A   1      37.494  33.504  33.192  1.00  0.00     0.029 A 
ATOM     45  N   UNL A   1      39.189  32.058  33.345  1.00  0.00    -0.354 N 
ATOM     46  C   UNL A   1      40.089  29.330  30.107  1.00  0.00     0.074 A 
ATOM     47  C   UNL A   1      39.171  29.514  29.004  1.00  0.00     0.031 C 
ATOM     48  C   UNL A   1      38.060  33.674  34.397  1.00  0.00     0.029 A 
ATOM     49  C   UNL A   1      39.154  32.720  34.553  1.00  0.00     0.049 A 
ATOM     50  H   UNL A   1      39.846  31.355  33.137  1.00  0.00     0.167 HD
ATOM     51  C   UNL A   1      41.107  28.434  30.114  1.00  0.00     0.034 A 
ATOM     52  C   UNL A   1      39.904  32.568  35.664  1.00  0.00     0.034 A 
ATOM     53  C   UNL A   1      42.019  28.266  31.218  1.00  0.00     0.049 A 
ATOM     54  C   UNL A   1      40.998  31.527  35.666  1.00  0.00     0.074 A 
ATOM     55  C   UNL A   1      43.113  27.424  31.308  1.00  0.00     0.029 A 
ATOM     56  N   UNL A   1      41.940  28.944  32.428  1.00  0.00    -0.354 N 
ATOM     57  N   UNL A   1      41.357  30.702  34.708  1.00  0.00    -0.248 NA
ATOM     58  C   UNL A   1      41.793  31.403  36.895  1.00  0.00     0.031 C 
ATOM     59  C   UNL A   1      43.641  27.527  32.599  1.00  0.00     0.029 A 
ATOM     60  C   UNL A   1      42.940  28.507  33.283  1.00  0.00     0.049 A 
ATOM     61  H   UNL A   1      41.271  29.632  32.647  1.00  0.00     0.167 HD
ATOM     62  C   UNL A   1      42.443  29.989  35.210  1.00  0.00     0.074 A 
ATOM     63  C   UNL A   1      42.689  30.492  36.545  1.00  0.00     0.031 C 
ATOM     64  C   UNL A   1      43.174  29.011  34.616  1.00  0.00     0.034 A 
BRANCH  51  65
ATOM     65  C   UNL A   1      41.269  27.551  28.898  1.00  0.00     0.023 A 
ATOM     66  C   UNL A   1      42.280  27.779  27.949  1.00  0.00     0.031 A 
ATOM     67  C   UNL A   1      40.391  26.475  28.677  1.00  0.00     0.131 A 
ATOM     68  C   UNL A   1      42.343  26.994  26.788  1.00  0.00     0.055 A 
ATOM     69  C   UNL A   1      40.515  25.640  27.565  1.00  0.00     0.041 A 
ATOM     70  F   UNL A   1      39.390  26.220  29.534  1.00  0.00    -0.206 F 
ATOM     71  C   UNL A   1      41.486  25.906  26.604  1.00  0.00     0.022 A 
BRANCH  68  72
ATOM     72  S   UNL A   1      43.457  27.508  25.454  1.00  0.00     0.124 S 
ATOM     73  O   UNL A   1      44.244  26.294  25.244  1.00  0.00    -0.237 OA
ATOM     74  O   UNL A   1      42.530  27.861  24.385  1.00  0.00    -0.237 OA
ATOM     75  O   UNL A   1      44.196  28.627  26.036  1.00  0.00    -0.744 OA
ENDBRANCH  68  72
ENDBRANCH  51  65
BRANCH  52  76
ATOM     76  C   UNL A   1      39.646  33.399  36.878  1.00  0.00     0.023 A 
ATOM     77  C   UNL A   1      38.966  32.871  37.988  1.00  0.00     0.031 A 
ATOM     78  C   UNL A   1      40.016  34.756  36.921  1.00  0.00     0.131 A 
ATOM     79  C   UNL A   1      38.627  33.705  39.065  1.00  0.00     0.055 A 
ATOM     80  C   UNL A   1      39.736  35.565  38.025  1.00  0.00     0.041 A 
ATOM     81  F   UNL A   1      40.665  35.316  35.888  1.00  0.00    -0.206 F 
ATOM     82  C   UNL A   1      39.022  35.044  39.098  1.00  0.00     0.022 A 
BRANCH  79  83
ATOM     83  S   UNL A   1      37.556  33.042  40.372  1.00  0.00     0.124 S 
ATOM     84  O   UNL A   1      36.331  32.762  39.634  1.00  0.00    -0.237 OA
ATOM     85  O   UNL A   1      38.315  31.882  40.825  1.00  0.00    -0.237 OA
ATOM     86  O   UNL A   1      37.472  34.142  41.331  1.00  0.00    -0.744 OA
ENDBRANCH  79  83
ENDBRANCH  52  76
BRANCH  64  87
ATOM     87  C   UNL A   1      44.348  28.458  35.390  1.00  0.00     0.023 A 
ATOM     88  C   UNL A   1      44.196  27.441  36.348  1.00  0.00     0.031 A 
ATOM     89  C   UNL A   1      45.644  28.957  35.157  1.00  0.00     0.131 A 
ATOM     90  C   UNL A   1      45.310  26.997  37.079  1.00  0.00     0.055 A 
ATOM     91  C   UNL A   1      46.757  28.461  35.835  1.00  0.00     0.041 A 
ATOM     92  F   UNL A   1      45.849  29.932  34.258  1.00  0.00    -0.206 F 
ATOM     93  C   UNL A   1      46.592  27.484  36.812  1.00  0.00     0.022 A 
BRANCH  90  94
ATOM     94  S   UNL A   1      45.047  25.843  38.453  1.00  0.00     0.124 S 
ATOM     95  O   UNL A   1      44.624  24.633  37.755  1.00  0.00    -0.237 OA
ATOM     96  O   UNL A   1      46.364  25.792  39.076  1.00  0.00    -0.237 OA
ATOM     97  O   UNL A   1      44.008  26.492  39.252  1.00  0.00    -0.744 OA
ENDBRANCH  90  94
ENDBRANCH  64  87
ENDBRANCH  38  39
ENDBRANCH  30  33
ENDBRANCH  28  29
ENDBRANCH   1  28
TORSDOF 16
ENDMDL
MODEL 3
REMARK VINA RESULT:     -12.2      3.134      5.032
REMARK SMILES CC1=C(C(=O)NCCCCNC(=O)c2ccc(-c3c4nc(c(-c5cc(S(=O)(=O)[O-])ccc5F)c5ccc([nH]5)c(-c5cc(S(=O)(=O)[O-])ccc5F)c5nc(c(-c6cc(S(=O)(=O)[O-])ccc6F)c6ccc3[nH]6)C=C5)C=C4)cc2)N2C(=O)[C@@H](NC(=O)c3ccn(C)n3)[C@H]2SC1
REMARK SMILES IDX 9 1 8 2 7 3 6 4 4 5 5 6 3 8 1 9 2 10 92 11 77 12 91 13 78 14
REMARK SMILES IDX 90 15 79 16 80 17 81 18 82 19 83 21 84 22 85 23 89 24 86 25
REMARK SMILES IDX 87 26 88 27 10 28 11 29 12 30 13 32 14 33 15 34 76 35 16 36
REMARK SMILES IDX 75 37 17 38 18 39 19 40 69 41 20 42 74 43 68 44 70 45 21 46
REMARK SMILES IDX 73 47 67 48 66 49 22 51 54 52 34 53 53 54 35 55 38 56 52 57
REMARK SMILES IDX 71 58 36 59 37 60 51 62 72 63 39 64 23 65 24 66 32 67 25 68
REMARK SMILES IDX 31 69 33 70 30 71 26 72 27 73 28 74 29 75 55 76 56 77 64 78
REMARK SMILES IDX 57 79 63 80 65 81 62 82 58 83 59 84 60 85 61 86 40 87 41 88
REMARK SMILES IDX 49 89 42 90 48 91 50 92 47 93 43 94 44 95 45 96 46 97
REMARK H PARENT 6 7 81 20 11 31 70 50 38 61
REMARK Flexibility Score: inf
ROOT
ATOM      1  C   UNL A   1      31.454  28.884  26.335  1.00  0.00     0.023 C 
ENDROOT
BRANCH   1   2
ATOM      2  C   UNL A   1      31.590  27.598  27.144  1.00  0.00     0.023 C 
BRANCH   2   3
ATOM      3  C   UNL A   1      31.442  26.291  26.380  1.00  0.00     0.116 C 
BRANCH   3   4
ATOM      4  N   UNL A   1      31.658  25.070  27.128  1.00  0.00    -0.351 N 
ATOM      5  C   UNL A   1      32.413  23.977  26.789  1.00  0.00     0.268 C 
ATOM      6  O   UNL A   1      32.658  23.129  27.648  1.00  0.00    -0.268 OA
ATOM      7  H   UNL A   1      31.200  25.017  27.998  1.00  0.00     0.163 HD
BRANCH   5   8
ATOM      8  C   UNL A   1      32.904  23.770  25.372  1.00  0.00     0.110 C 
ATOM      9  C   UNL A   1      34.369  25.829  25.201  1.00  0.00     0.043 C 
ATOM     10  C   UNL A   1      33.648  24.635  24.636  1.00  0.00    -0.034 C 
ATOM     11  C   UNL A   1      33.900  24.474  23.134  1.00  0.00     0.104 C 
ATOM     12  N   UNL A   1      32.727  22.521  24.861  1.00  0.00    -0.290 N 
ATOM     13  S   UNL A   1      33.279  22.930  22.379  1.00  0.00    -0.129 SA
ATOM     14  C   UNL A   1      32.009  21.400  25.064  1.00  0.00     0.253 C 
ATOM     15  C   UNL A   1      33.635  21.984  23.873  1.00  0.00     0.181 C 
ATOM     16  O   UNL A   1      31.031  21.133  25.723  1.00  0.00    -0.272 OA
ATOM     17  C   UNL A   1      32.971  20.619  24.121  1.00  0.00     0.206 C 
BRANCH  17  18
ATOM     18  N   UNL A   1      32.419  19.887  22.959  1.00  0.00    -0.336 N 
ATOM     19  C   UNL A   1      32.485  18.523  22.733  1.00  0.00     0.272 C 
ATOM     20  H   UNL A   1      31.957  20.426  22.277  1.00  0.00     0.164 HD
ATOM     21  O   UNL A   1      32.154  18.084  21.633  1.00  0.00    -0.267 OA
BRANCH  19  22
ATOM     22  C   UNL A   1      32.973  17.666  23.828  1.00  0.00     0.150 A 
ATOM     23  C   UNL A   1      32.263  17.258  24.994  1.00  0.00     0.056 A 
ATOM     24  N   UNL A   1      34.231  17.185  23.853  1.00  0.00    -0.168 NA
ATOM     25  C   UNL A   1      33.167  16.553  25.750  1.00  0.00     0.109 A 
ATOM     26  N   UNL A   1      34.308  16.503  25.009  1.00  0.00    -0.275 N 
ATOM     27  C   UNL A   1      35.531  15.828  25.375  1.00  0.00     0.173 C 
ENDBRANCH  19  22
ENDBRANCH  17  18
ENDBRANCH   5   8
ENDBRANCH   3   4
ENDBRANCH   2   3
ENDBRANCH   1   2
BRANCH   1  28
ATOM     28  C   UNL A   1      32.726  29.700  26.126  1.00  0.00     0.116 C 
BRANCH  28  29
ATOM     29  N   UNL A   1      32.624  31.081  26.581  1.00  0.00    -0.352 N 
ATOM     30  C   UNL A   1      33.471  31.819  27.380  1.00  0.00     0.251 C 
ATOM     31  H   UNL A   1      31.825  31.562  26.268  1.00  0.00     0.163 HD
ATOM     32  O   UNL A   1      33.138  32.946  27.733  1.00  0.00    -0.269 OA
BRANCH  30  33
ATOM     33  C   UNL A   1      34.751  31.238  27.846  1.00  0.00     0.039 A 
ATOM     34  C   UNL A   1      35.866  32.070  27.976  1.00  0.00     0.014 A 
ATOM     35  C   UNL A   1      34.844  29.889  28.191  1.00  0.00     0.014 A 
ATOM     36  C   UNL A   1      37.040  31.569  28.550  1.00  0.00     0.010 A 
ATOM     37  C   UNL A   1      35.975  29.422  28.855  1.00  0.00     0.010 A 
ATOM     38  C   UNL A   1      37.086  30.257  29.050  1.00  0.00    -0.014 A 
BRANCH  38  39
ATOM     39  C   UNL A   1      38.280  29.743  29.777  1.00  0.00     0.031 A 
ATOM     40  C   UNL A   1      38.610  30.264  31.151  1.00  0.00     0.074 A 
ATOM     41  C   UNL A   1      39.102  28.854  29.179  1.00  0.00     0.049 A 
ATOM     42  N   UNL A   1      39.641  29.998  31.912  1.00  0.00    -0.248 NA
ATOM     43  C   UNL A   1      37.671  31.236  31.734  1.00  0.00     0.031 C 
ATOM     44  C   UNL A   1      38.915  28.302  27.835  1.00  0.00     0.029 A 
ATOM     45  N   UNL A   1      40.260  28.260  29.618  1.00  0.00    -0.354 N 
ATOM     46  C   UNL A   1      39.481  30.774  33.055  1.00  0.00     0.074 A 
ATOM     47  C   UNL A   1      38.292  31.574  32.853  1.00  0.00     0.031 C 
ATOM     48  C   UNL A   1      39.899  27.427  27.576  1.00  0.00     0.029 A 
ATOM     49  C   UNL A   1      40.823  27.395  28.706  1.00  0.00     0.049 A 
ATOM     50  H   UNL A   1      40.651  28.437  30.504  1.00  0.00     0.167 HD
ATOM     51  C   UNL A   1      40.237  30.798  34.180  1.00  0.00     0.034 A 
ATOM     52  C   UNL A   1      41.961  26.672  28.763  1.00  0.00     0.034 A 
ATOM     53  C   UNL A   1      41.416  29.989  34.371  1.00  0.00     0.049 A 
ATOM     54  C   UNL A   1      42.814  26.755  30.006  1.00  0.00     0.074 A 
ATOM     55  C   UNL A   1      42.225  29.900  35.489  1.00  0.00     0.029 A 
ATOM     56  N   UNL A   1      41.962  29.139  33.417  1.00  0.00    -0.354 N 
ATOM     57  N   UNL A   1      42.615  27.455  31.100  1.00  0.00    -0.248 NA
ATOM     58  C   UNL A   1      44.038  25.944  30.026  1.00  0.00     0.031 C 
ATOM     59  C   UNL A   1      43.305  29.067  35.184  1.00  0.00     0.029 A 
ATOM     60  C   UNL A   1      43.120  28.555  33.910  1.00  0.00     0.049 A 
ATOM     61  H   UNL A   1      41.584  28.976  32.523  1.00  0.00     0.167 HD
ATOM     62  C   UNL A   1      43.672  27.138  31.950  1.00  0.00     0.074 A 
ATOM     63  C   UNL A   1      44.493  26.174  31.249  1.00  0.00     0.031 C 
ATOM     64  C   UNL A   1      43.935  27.598  33.200  1.00  0.00     0.034 A 
BRANCH  51  65
ATOM     65  C   UNL A   1      39.822  31.747  35.281  1.00  0.00     0.023 A 
ATOM     66  C   UNL A   1      39.037  31.321  36.367  1.00  0.00     0.031 A 
ATOM     67  C   UNL A   1      40.205  33.099  35.237  1.00  0.00     0.131 A 
ATOM     68  C   UNL A   1      38.598  32.250  37.321  1.00  0.00     0.055 A 
ATOM     69  C   UNL A   1      39.840  34.001  36.239  1.00  0.00     0.041 A 
ATOM     70  F   UNL A   1      40.934  33.572  34.214  1.00  0.00    -0.206 F 
ATOM     71  C   UNL A   1      39.018  33.582  37.282  1.00  0.00     0.022 A 
BRANCH  68  72
ATOM     72  S   UNL A   1      37.347  31.729  38.525  1.00  0.00     0.124 S 
ATOM     73  O   UNL A   1      38.083  31.842  39.782  1.00  0.00    -0.237 OA
ATOM     74  O   UNL A   1      36.283  32.704  38.318  1.00  0.00    -0.237 OA
ATOM     75  O   UNL A   1      37.029  30.361  38.119  1.00  0.00    -0.744 OA
ENDBRANCH  68  72
ENDBRANCH  51  65
BRANCH  52  76
ATOM     76  C   UNL A   1      42.381  25.819  27.611  1.00  0.00     0.023 A 
ATOM     77  C   UNL A   1      41.906  24.505  27.470  1.00  0.00     0.031 A 
ATOM     78  C   UNL A   1      43.317  26.282  26.668  1.00  0.00     0.131 A 
ATOM     79  C   UNL A   1      42.409  23.683  26.450  1.00  0.00     0.055 A 
ATOM     80  C   UNL A   1      43.763  25.482  25.614  1.00  0.00     0.041 A 
ATOM     81  F   UNL A   1      43.808  27.529  26.754  1.00  0.00    -0.206 F 
ATOM     82  C   UNL A   1      43.322  24.167  25.511  1.00  0.00     0.022 A 
BRANCH  79  83
ATOM     83  S   UNL A   1      41.942  21.928  26.439  1.00  0.00     0.124 S 
ATOM     84  O   UNL A   1      42.791  21.405  25.376  1.00  0.00    -0.237 OA
ATOM     85  O   UNL A   1      42.282  21.516  27.796  1.00  0.00    -0.237 OA
ATOM     86  O   UNL A   1      40.512  21.961  26.139  1.00  0.00    -0.744 OA
ENDBRANCH  79  83
ENDBRANCH  52  76
BRANCH  64  87
ATOM     87  C   UNL A   1      45.136  27.020  33.912  1.00  0.00     0.023 A 
ATOM     88  C   UNL A   1      45.051  25.849  34.685  1.00  0.00     0.031 A 
ATOM     89  C   UNL A   1      46.389  27.653  33.809  1.00  0.00     0.131 A 
ATOM     90  C   UNL A   1      46.184  25.381  35.371  1.00  0.00     0.055 A 
ATOM     91  C   UNL A   1      47.527  27.143  34.434  1.00  0.00     0.041 A 
ATOM     92  F   UNL A   1      46.529  28.777  33.089  1.00  0.00    -0.206 F 
ATOM     93  C   UNL A   1      47.425  26.007  35.231  1.00  0.00     0.022 A 
BRANCH  90  94
ATOM     94  S   UNL A   1      45.992  23.997  36.528  1.00  0.00     0.124 S 
ATOM     95  O   UNL A   1      46.491  24.572  37.772  1.00  0.00    -0.237 OA
ATOM     96  O   UNL A   1      44.557  23.742  36.475  1.00  0.00    -0.237 OA
ATOM     97  O   UNL A   1      46.829  22.948  35.949  1.00  0.00    -0.744 OA
ENDBRANCH  90  94
ENDBRANCH  64  87
ENDBRANCH  38  39
ENDBRANCH  30  33
ENDBRANCH  28  29
ENDBRANCH   1  28
TORSDOF 16
ENDMDL
