MODEL 1
REMARK VINA RESULT:      -9.7      0.000      0.000
REMARK SMILES O=C(COc1ccc(N2C[C@@H](C(=O)NCCCCNC(=O)c3ccc(-c4c5nc(c(-c6cc(S(=O)(=O)[O-])ccc6F)c6ccc([nH]6)c(-c6cc(S(=O)(=O)[O-])ccc6F)c6nc(c(-c7cc(S(=O)(=O)[O-])ccc7F)c7ccc4[nH]7)C=C6)C=C5)cc3)CC2=O)cc1)Nc1ccc(Cl)cc1Cl
REMARK SMILES IDX 15 1 14 2 12 3 13 4 11 6 9 7 10 8 86 9 85 10 87 11 8 12 5 13
REMARK SMILES IDX 6 14 89 15 7 16 88 17 4 18 3 19 2 20 1 21 90 22 91 24 92 25
REMARK SMILES IDX 97 26 93 27 96 28 98 29 94 30 95 31 16 32 17 33 18 34 19 35
REMARK SMILES IDX 20 36 21 38 22 39 23 40 84 41 24 42 83 43 25 44 26 45 27 46
REMARK SMILES IDX 77 47 28 48 82 49 76 50 78 51 29 52 81 53 75 54 74 55 30 57
REMARK SMILES IDX 62 58 42 59 61 60 43 61 46 62 60 63 79 64 44 65 45 66 59 68
REMARK SMILES IDX 80 69 47 70 31 71 32 72 40 73 33 74 39 75 41 76 38 77 34 78
REMARK SMILES IDX 35 79 36 80 37 81 63 82 64 83 72 84 65 85 71 86 73 87 70 88
REMARK SMILES IDX 66 89 67 90 68 91 69 92 48 93 49 94 57 95 50 96 56 97 58 98
REMARK SMILES IDX 55 99 51 100 52 101 53 102 54 103
REMARK H PARENT 14 5 90 23 19 37 78 56 46 67
REMARK Flexibility Score: inf
ROOT
ATOM      1  C   UNL A   1      43.515  19.496  26.172  1.00  0.00     0.116 C 
ENDROOT
BRANCH   1   2
ATOM      2  N   UNL A   1      44.267  18.915  25.073  1.00  0.00    -0.356 N 
ATOM      3  C   UNL A   1      45.201  19.433  24.236  1.00  0.00     0.225 C 
ATOM      4  O   UNL A   1      45.705  18.672  23.406  1.00  0.00    -0.275 OA
ATOM      5  H   UNL A   1      44.061  17.967  24.904  1.00  0.00     0.163 HD
BRANCH   3   6
ATOM      6  C   UNL A   1      45.650  20.881  24.284  1.00  0.00     0.107 C 
ATOM      7  N   UNL A   1      45.240  22.593  25.848  1.00  0.00    -0.312 N 
ATOM      8  C   UNL A   1      45.982  21.369  25.684  1.00  0.00     0.139 C 
ATOM      9  C   UNL A   1      44.449  22.903  24.744  1.00  0.00     0.227 C 
ATOM     10  C   UNL A   1      44.651  21.858  23.686  1.00  0.00     0.116 C 
ATOM     11  O   UNL A   1      43.716  23.872  24.589  1.00  0.00    -0.274 OA
BRANCH   7  12
ATOM     12  C   UNL A   1      45.250  23.340  27.044  1.00  0.00     0.044 A 
ATOM     13  C   UNL A   1      45.427  24.713  29.496  1.00  0.00     0.120 A 
ATOM     14  C   UNL A   1      44.314  23.919  29.213  1.00  0.00     0.048 A 
ATOM     15  C   UNL A   1      46.433  24.840  28.544  1.00  0.00     0.048 A 
ATOM     16  C   UNL A   1      44.206  23.265  27.975  1.00  0.00     0.030 A 
ATOM     17  C   UNL A   1      46.348  24.150  27.337  1.00  0.00     0.030 A 
BRANCH  13  18
ATOM     18  O   UNL A   1      45.563  25.209  30.767  1.00  0.00    -0.484 OA
BRANCH  18  19
ATOM     19  C   UNL A   1      44.340  25.273  31.500  1.00  0.00     0.329 C 
BRANCH  19  20
ATOM     20  C   UNL A   1      44.086  26.563  32.288  1.00  0.00     0.262 C 
ATOM     21  O   UNL A   1      44.386  26.643  33.475  1.00  0.00    -0.271 OA
ATOM     22  N   UNL A   1      43.416  27.527  31.544  1.00  0.00    -0.322 N 
ATOM     23  H   UNL A   1      43.258  27.336  30.592  1.00  0.00     0.170 HD
BRANCH  22  24
ATOM     24  C   UNL A   1      42.944  28.763  32.050  1.00  0.00     0.060 A 
ATOM     25  C   UNL A   1      41.546  28.910  32.078  1.00  0.00     0.029 A 
ATOM     26  C   UNL A   1      43.740  29.821  32.529  1.00  0.00     0.066 A 
ATOM     27  C   UNL A   1      40.955  30.042  32.650  1.00  0.00     0.023 A 
ATOM     28  C   UNL A   1      43.144  30.947  33.113  1.00  0.00     0.043 A 
ATOM     29  Cl  UNL A   1      45.445  29.930  32.252  1.00  0.00    -0.082 Cl
ATOM     30  C   UNL A   1      41.758  31.046  33.181  1.00  0.00     0.042 A 
ATOM     31  Cl  UNL A   1      41.030  32.435  33.888  1.00  0.00    -0.084 Cl
ENDBRANCH  22  24
ENDBRANCH  19  20
ENDBRANCH  18  19
ENDBRANCH  13  18
ENDBRANCH   7  12
ENDBRANCH   3   6
ENDBRANCH   1   2
BRANCH   1  32
ATOM     32  C   UNL A   1      42.072  19.821  25.782  1.00  0.00     0.023 C 
BRANCH  32  33
ATOM     33  C   UNL A   1      41.612  21.242  26.117  1.00  0.00     0.023 C 
BRANCH  33  34
ATOM     34  C   UNL A   1      40.434  21.343  27.081  1.00  0.00     0.116 C 
BRANCH  34  35
ATOM     35  N   UNL A   1      39.180  21.659  26.416  1.00  0.00    -0.352 N 
ATOM     36  C   UNL A   1      38.529  22.866  26.316  1.00  0.00     0.251 C 
ATOM     37  H   UNL A   1      38.734  20.901  25.974  1.00  0.00     0.163 HD
ATOM     38  O   UNL A   1      37.402  22.908  25.831  1.00  0.00    -0.269 OA
BRANCH  36  39
ATOM     39  C   UNL A   1      39.170  24.098  26.828  1.00  0.00     0.039 A 
ATOM     40  C   UNL A   1      39.914  24.887  25.946  1.00  0.00     0.014 A 
ATOM     41  C   UNL A   1      39.026  24.485  28.163  1.00  0.00     0.014 A 
ATOM     42  C   UNL A   1      40.446  26.102  26.385  1.00  0.00     0.010 A 
ATOM     43  C   UNL A   1      39.492  25.730  28.577  1.00  0.00     0.010 A 
ATOM     44  C   UNL A   1      40.203  26.556  27.692  1.00  0.00    -0.014 A 
BRANCH  44  45
ATOM     45  C   UNL A   1      40.677  27.890  28.148  1.00  0.00     0.031 A 
ATOM     46  C   UNL A   1      42.149  28.205  28.162  1.00  0.00     0.074 A 
ATOM     47  C   UNL A   1      39.788  28.793  28.609  1.00  0.00     0.049 A 
ATOM     48  N   UNL A   1      42.763  29.274  28.599  1.00  0.00    -0.248 NA
ATOM     49  C   UNL A   1      43.049  27.164  27.645  1.00  0.00     0.031 C 
ATOM     50  C   UNL A   1      38.339  28.591  28.682  1.00  0.00     0.029 A 
ATOM     51  N   UNL A   1      39.970  30.057  29.113  1.00  0.00    -0.354 N 
ATOM     52  C   UNL A   1      44.121  29.033  28.421  1.00  0.00     0.074 A 
ATOM     53  C   UNL A   1      44.239  27.688  27.897  1.00  0.00     0.031 C 
ATOM     54  C   UNL A   1      37.763  29.699  29.175  1.00  0.00     0.029 A 
ATOM     55  C   UNL A   1      38.801  30.673  29.501  1.00  0.00     0.049 A 
ATOM     56  H   UNL A   1      40.853  30.484  29.190  1.00  0.00     0.167 HD
ATOM     57  C   UNL A   1      45.169  29.863  28.650  1.00  0.00     0.034 A 
ATOM     58  C   UNL A   1      38.589  31.877  30.069  1.00  0.00     0.034 A 
ATOM     59  C   UNL A   1      45.032  31.205  29.163  1.00  0.00     0.049 A 
ATOM     60  C   UNL A   1      39.773  32.771  30.344  1.00  0.00     0.074 A 
ATOM     61  C   UNL A   1      46.021  32.148  29.383  1.00  0.00     0.029 A 
ATOM     62  N   UNL A   1      43.833  31.792  29.547  1.00  0.00    -0.354 N 
ATOM     63  N   UNL A   1      41.048  32.546  30.122  1.00  0.00    -0.248 NA
ATOM     64  C   UNL A   1      39.488  34.084  30.936  1.00  0.00     0.031 C 
ATOM     65  C   UNL A   1      45.431  33.275  29.965  1.00  0.00     0.029 A 
ATOM     66  C   UNL A   1      44.062  33.071  30.033  1.00  0.00     0.049 A 
ATOM     67  H   UNL A   1      42.948  31.363  29.484  1.00  0.00     0.167 HD
ATOM     68  C   UNL A   1      41.712  33.704  30.517  1.00  0.00     0.074 A 
ATOM     69  C   UNL A   1      40.695  34.629  30.975  1.00  0.00     0.031 C 
ATOM     70  C   UNL A   1      43.041  33.981  30.496  1.00  0.00     0.034 A 
BRANCH  57  71
ATOM     71  C   UNL A   1      46.554  29.327  28.370  1.00  0.00     0.023 A 
ATOM     72  C   UNL A   1      47.258  28.566  29.319  1.00  0.00     0.031 A 
ATOM     73  C   UNL A   1      47.191  29.601  27.147  1.00  0.00     0.131 A 
ATOM     74  C   UNL A   1      48.581  28.175  29.064  1.00  0.00     0.055 A 
ATOM     75  C   UNL A   1      48.477  29.134  26.863  1.00  0.00     0.041 A 
ATOM     76  F   UNL A   1      46.580  30.341  26.207  1.00  0.00    -0.206 F 
ATOM     77  C   UNL A   1      49.186  28.430  27.831  1.00  0.00     0.022 A 
BRANCH  74  78
ATOM     78  S   UNL A   1      49.551  27.460  30.420  1.00  0.00     0.124 S 
ATOM     79  O   UNL A   1      48.851  26.198  30.647  1.00  0.00    -0.237 OA
ATOM     80  O   UNL A   1      50.883  27.357  29.836  1.00  0.00    -0.237 OA
ATOM     81  O   UNL A   1      49.414  28.441  31.494  1.00  0.00    -0.744 OA
ENDBRANCH  74  78
ENDBRANCH  57  71
BRANCH  58  82
ATOM     82  C   UNL A   1      37.209  32.312  30.431  1.00  0.00     0.023 A 
ATOM     83  C   UNL A   1      36.360  32.896  29.477  1.00  0.00     0.031 A 
ATOM     84  C   UNL A   1      36.733  32.193  31.750  1.00  0.00     0.131 A 
ATOM     85  C   UNL A   1      35.102  33.384  29.863  1.00  0.00     0.055 A 
ATOM     86  C   UNL A   1      35.459  32.627  32.117  1.00  0.00     0.041 A 
ATOM     87  F   UNL A   1      37.501  31.639  32.702  1.00  0.00    -0.206 F 
ATOM     88  C   UNL A   1      34.640  33.241  31.173  1.00  0.00     0.022 A 
BRANCH  85  89
ATOM     89  S   UNL A   1      34.113  34.296  28.646  1.00  0.00     0.124 S 
ATOM     90  O   UNL A   1      32.832  34.412  29.333  1.00  0.00    -0.237 OA
ATOM     91  O   UNL A   1      34.878  35.529  28.499  1.00  0.00    -0.237 OA
ATOM     92  O   UNL A   1      34.119  33.418  27.478  1.00  0.00    -0.744 OA
ENDBRANCH  85  89
ENDBRANCH  58  82
BRANCH  70  93
ATOM     93  C   UNL A   1      43.462  35.362  30.940  1.00  0.00     0.023 A 
ATOM     94  C   UNL A   1      43.522  36.445  30.046  1.00  0.00     0.031 A 
ATOM     95  C   UNL A   1      43.819  35.592  32.283  1.00  0.00     0.131 A 
ATOM     96  C   UNL A   1      43.984  37.694  30.492  1.00  0.00     0.055 A 
ATOM     97  C   UNL A   1      44.215  36.851  32.732  1.00  0.00     0.041 A 
ATOM     98  F   UNL A   1      43.784  34.594  33.179  1.00  0.00    -0.206 F 
ATOM     99  C   UNL A   1      44.313  37.908  31.832  1.00  0.00     0.022 A 
BRANCH  96 100
ATOM    100  S   UNL A   1      44.239  39.014  29.273  1.00  0.00     0.124 S 
ATOM    101  O   UNL A   1      44.666  40.126  30.115  1.00  0.00    -0.237 OA
ATOM    102  O   UNL A   1      45.262  38.442  28.403  1.00  0.00    -0.237 OA
ATOM    103  O   UNL A   1      42.921  39.171  28.658  1.00  0.00    -0.744 OA
ENDBRANCH  96 100
ENDBRANCH  70  93
ENDBRANCH  44  45
ENDBRANCH  36  39
ENDBRANCH  34  35
ENDBRANCH  33  34
ENDBRANCH  32  33
ENDBRANCH   1  32
TORSDOF 19
ENDMDL
MODEL 2
REMARK VINA RESULT:      -9.1      1.730      2.030
REMARK SMILES O=C(COc1ccc(N2C[C@@H](C(=O)NCCCCNC(=O)c3ccc(-c4c5nc(c(-c6cc(S(=O)(=O)[O-])ccc6F)c6ccc([nH]6)c(-c6cc(S(=O)(=O)[O-])ccc6F)c6nc(c(-c7cc(S(=O)(=O)[O-])ccc7F)c7ccc4[nH]7)C=C6)C=C5)cc3)CC2=O)cc1)Nc1ccc(Cl)cc1Cl
REMARK SMILES IDX 15 1 14 2 12 3 13 4 11 6 9 7 10 8 86 9 85 10 87 11 8 12 5 13
REMARK SMILES IDX 6 14 89 15 7 16 88 17 4 18 3 19 2 20 1 21 90 22 91 24 92 25
REMARK SMILES IDX 97 26 93 27 96 28 98 29 94 30 95 31 16 32 17 33 18 34 19 35
REMARK SMILES IDX 20 36 21 38 22 39 23 40 84 41 24 42 83 43 25 44 26 45 27 46
REMARK SMILES IDX 77 47 28 48 82 49 76 50 78 51 29 52 81 53 75 54 74 55 30 57
REMARK SMILES IDX 62 58 42 59 61 60 43 61 46 62 60 63 79 64 44 65 45 66 59 68
REMARK SMILES IDX 80 69 47 70 31 71 32 72 40 73 33 74 39 75 41 76 38 77 34 78
REMARK SMILES IDX 35 79 36 80 37 81 63 82 64 83 72 84 65 85 71 86 73 87 70 88
REMARK SMILES IDX 66 89 67 90 68 91 69 92 48 93 49 94 57 95 50 96 56 97 58 98
REMARK SMILES IDX 55 99 51 100 52 101 53 102 54 103
REMARK H PARENT 14 5 90 23 19 37 78 56 46 67
REMARK Flexibility Score: inf
ROOT
ATOM      1  C   UNL A   1      43.216  19.711  26.191  1.00  0.00     0.116 C 
ENDROOT
BRANCH   1   2
ATOM      2  N   UNL A   1      43.939  19.101  25.089  1.00  0.00    -0.356 N 
ATOM      3  C   UNL A   1      44.910  19.573  24.267  1.00  0.00     0.225 C 
ATOM      4  O   UNL A   1      45.372  18.794  23.428  1.00  0.00    -0.275 OA
ATOM      5  H   UNL A   1      43.675  18.171  24.903  1.00  0.00     0.163 HD
BRANCH   3   6
ATOM      6  C   UNL A   1      45.448  20.988  24.341  1.00  0.00     0.107 C 
ATOM      7  N   UNL A   1      45.134  22.699  25.929  1.00  0.00    -0.312 N 
ATOM      8  C   UNL A   1      45.799  21.433  25.751  1.00  0.00     0.139 C 
ATOM      9  C   UNL A   1      44.373  23.075  24.824  1.00  0.00     0.227 C 
ATOM     10  C   UNL A   1      44.519  22.035  23.751  1.00  0.00     0.116 C 
ATOM     11  O   UNL A   1      43.703  24.090  24.678  1.00  0.00    -0.274 OA
BRANCH   7  12
ATOM     12  C   UNL A   1      45.179  23.426  27.137  1.00  0.00     0.044 A 
ATOM     13  C   UNL A   1      45.431  24.756  29.605  1.00  0.00     0.120 A 
ATOM     14  C   UNL A   1      44.311  23.967  29.342  1.00  0.00     0.048 A 
ATOM     15  C   UNL A   1      46.407  24.900  28.625  1.00  0.00     0.048 A 
ATOM     16  C   UNL A   1      44.165  23.334  28.097  1.00  0.00     0.030 A 
ATOM     17  C   UNL A   1      46.286  24.231  27.409  1.00  0.00     0.030 A 
BRANCH  13  18
ATOM     18  O   UNL A   1      45.606  25.230  30.879  1.00  0.00    -0.484 OA
BRANCH  18  19
ATOM     19  C   UNL A   1      44.508  24.968  31.753  1.00  0.00     0.329 C 
BRANCH  19  20
ATOM     20  C   UNL A   1      44.006  26.152  32.589  1.00  0.00     0.262 C 
ATOM     21  O   UNL A   1      43.676  25.998  33.760  1.00  0.00    -0.271 OA
ATOM     22  N   UNL A   1      43.887  27.323  31.849  1.00  0.00    -0.322 N 
ATOM     23  H   UNL A   1      44.212  27.308  30.921  1.00  0.00     0.170 HD
BRANCH  22  24
ATOM     24  C   UNL A   1      43.333  28.535  32.329  1.00  0.00     0.060 A 
ATOM     25  C   UNL A   1      44.251  29.435  32.899  1.00  0.00     0.029 A 
ATOM     26  C   UNL A   1      41.977  28.908  32.269  1.00  0.00     0.066 A 
ATOM     27  C   UNL A   1      43.845  30.707  33.315  1.00  0.00     0.023 A 
ATOM     28  C   UNL A   1      41.577  30.189  32.674  1.00  0.00     0.043 A 
ATOM     29  Cl  UNL A   1      40.699  27.795  31.916  1.00  0.00    -0.082 Cl
ATOM     30  C   UNL A   1      42.513  31.083  33.183  1.00  0.00     0.042 A 
ATOM     31  Cl  UNL A   1      42.015  32.650  33.691  1.00  0.00    -0.084 Cl
ENDBRANCH  22  24
ENDBRANCH  19  20
ENDBRANCH  18  19
ENDBRANCH  13  18
ENDBRANCH   7  12
ENDBRANCH   3   6
ENDBRANCH   1   2
BRANCH   1  32
ATOM     32  C   UNL A   1      41.758  20.011  25.837  1.00  0.00     0.023 C 
BRANCH  32  33
ATOM     33  C   UNL A   1      41.316  21.458  26.068  1.00  0.00     0.023 C 
BRANCH  33  34
ATOM     34  C   UNL A   1      40.217  21.653  27.108  1.00  0.00     0.116 C 
BRANCH  34  35
ATOM     35  N   UNL A   1      38.939  22.024  26.522  1.00  0.00    -0.352 N 
ATOM     36  C   UNL A   1      38.321  23.252  26.491  1.00  0.00     0.251 C 
ATOM     37  H   UNL A   1      38.446  21.293  26.086  1.00  0.00     0.163 HD
ATOM     38  O   UNL A   1      37.170  23.341  26.071  1.00  0.00    -0.269 OA
BRANCH  36  39
ATOM     39  C   UNL A   1      39.027  24.450  26.999  1.00  0.00     0.039 A 
ATOM     40  C   UNL A   1      39.806  25.200  26.113  1.00  0.00     0.014 A 
ATOM     41  C   UNL A   1      38.909  24.845  28.334  1.00  0.00     0.014 A 
ATOM     42  C   UNL A   1      40.402  26.386  26.549  1.00  0.00     0.010 A 
ATOM     43  C   UNL A   1      39.440  26.065  28.745  1.00  0.00     0.010 A 
ATOM     44  C   UNL A   1      40.188  26.852  27.857  1.00  0.00    -0.014 A 
BRANCH  44  45
ATOM     45  C   UNL A   1      40.733  28.161  28.309  1.00  0.00     0.031 A 
ATOM     46  C   UNL A   1      42.220  28.364  28.420  1.00  0.00     0.074 A 
ATOM     47  C   UNL A   1      39.887  29.143  28.681  1.00  0.00     0.049 A 
ATOM     48  N   UNL A   1      42.884  29.396  28.870  1.00  0.00    -0.248 NA
ATOM     49  C   UNL A   1      43.070  27.241  27.996  1.00  0.00     0.031 C 
ATOM     50  C   UNL A   1      38.425  29.054  28.656  1.00  0.00     0.029 A 
ATOM     51  N   UNL A   1      40.131  30.405  29.163  1.00  0.00    -0.354 N 
ATOM     52  C   UNL A   1      44.228  29.047  28.796  1.00  0.00     0.074 A 
ATOM     53  C   UNL A   1      44.277  27.681  28.318  1.00  0.00     0.031 C 
ATOM     54  C   UNL A   1      37.905  30.218  29.076  1.00  0.00     0.029 A 
ATOM     55  C   UNL A   1      38.991  31.120  29.450  1.00  0.00     0.049 A 
ATOM     56  H   UNL A   1      41.038  30.766  29.291  1.00  0.00     0.167 HD
ATOM     57  C   UNL A   1      45.319  29.802  29.077  1.00  0.00     0.034 A 
ATOM     58  C   UNL A   1      38.834  32.354  29.968  1.00  0.00     0.034 A 
ATOM     59  C   UNL A   1      45.252  31.166  29.543  1.00  0.00     0.049 A 
ATOM     60  C   UNL A   1      40.063  33.164  30.303  1.00  0.00     0.074 A 
ATOM     61  C   UNL A   1      46.294  32.039  29.808  1.00  0.00     0.029 A 
ATOM     62  N   UNL A   1      44.079  31.855  29.825  1.00  0.00    -0.354 N 
ATOM     63  N   UNL A   1      41.328  32.836  30.179  1.00  0.00    -0.248 NA
ATOM     64  C   UNL A   1      39.840  34.513  30.837  1.00  0.00     0.031 C 
ATOM     65  C   UNL A   1      45.755  33.225  30.316  1.00  0.00     0.029 A 
ATOM     66  C   UNL A   1      44.373  33.128  30.291  1.00  0.00     0.049 A 
ATOM     67  H   UNL A   1      43.170  31.493  29.710  1.00  0.00     0.167 HD
ATOM     68  C   UNL A   1      42.051  33.952  30.589  1.00  0.00     0.074 A 
ATOM     69  C   UNL A   1      41.081  34.966  30.949  1.00  0.00     0.031 C 
ATOM     70  C   UNL A   1      43.397  34.128  30.656  1.00  0.00     0.034 A 
BRANCH  57  71
ATOM     71  C   UNL A   1      46.674  29.154  28.911  1.00  0.00     0.023 A 
ATOM     72  C   UNL A   1      47.201  28.857  27.643  1.00  0.00     0.031 A 
ATOM     73  C   UNL A   1      47.442  28.807  30.037  1.00  0.00     0.131 A 
ATOM     74  C   UNL A   1      48.415  28.162  27.531  1.00  0.00     0.055 A 
ATOM     75  C   UNL A   1      48.691  28.193  29.918  1.00  0.00     0.041 A 
ATOM     76  F   UNL A   1      46.985  29.045  31.277  1.00  0.00    -0.206 F 
ATOM     77  C   UNL A   1      49.178  27.852  28.660  1.00  0.00     0.022 A 
BRANCH  74  78
ATOM     78  S   UNL A   1      48.909  27.537  25.902  1.00  0.00     0.124 S 
ATOM     79  O   UNL A   1      49.491  26.242  26.249  1.00  0.00    -0.237 OA
ATOM     80  O   UNL A   1      47.642  27.495  25.182  1.00  0.00    -0.237 OA
ATOM     81  O   UNL A   1      49.866  28.534  25.427  1.00  0.00    -0.744 OA
ENDBRANCH  74  78
ENDBRANCH  57  71
BRANCH  58  82
ATOM     82  C   UNL A   1      37.470  32.904  30.219  1.00  0.00     0.023 A 
ATOM     83  C   UNL A   1      36.969  33.031  31.525  1.00  0.00     0.031 A 
ATOM     84  C   UNL A   1      36.627  33.269  29.153  1.00  0.00     0.131 A 
ATOM     85  C   UNL A   1      35.649  33.461  31.730  1.00  0.00     0.055 A 
ATOM     86  C   UNL A   1      35.335  33.751  29.366  1.00  0.00     0.041 A 
ATOM     87  F   UNL A   1      37.056  33.172  27.885  1.00  0.00    -0.206 F 
ATOM     88  C   UNL A   1      34.834  33.835  30.661  1.00  0.00     0.022 A 
BRANCH  85  89
ATOM     89  S   UNL A   1      34.980  33.434  33.416  1.00  0.00     0.124 S 
ATOM     90  O   UNL A   1      35.801  32.406  34.045  1.00  0.00    -0.237 OA
ATOM     91  O   UNL A   1      35.217  34.804  33.857  1.00  0.00    -0.237 OA
ATOM     92  O   UNL A   1      33.576  33.079  33.219  1.00  0.00    -0.744 OA
ENDBRANCH  85  89
ENDBRANCH  58  82
BRANCH  70  93
ATOM     93  C   UNL A   1      43.892  35.486  31.092  1.00  0.00     0.023 A 
ATOM     94  C   UNL A   1      43.977  36.568  30.199  1.00  0.00     0.031 A 
ATOM     95  C   UNL A   1      44.295  35.694  32.424  1.00  0.00     0.131 A 
ATOM     96  C   UNL A   1      44.508  37.793  30.635  1.00  0.00     0.055 A 
ATOM     97  C   UNL A   1      44.761  36.933  32.866  1.00  0.00     0.041 A 
ATOM     98  F   UNL A   1      44.239  34.696  33.319  1.00  0.00    -0.206 F 
ATOM     99  C   UNL A   1      44.882  37.987  31.966  1.00  0.00     0.022 A 
BRANCH  96 100
ATOM    100  S   UNL A   1      44.790  39.104  29.412  1.00  0.00     0.124 S 
ATOM    101  O   UNL A   1      45.453  40.128  30.213  1.00  0.00    -0.237 OA
ATOM    102  O   UNL A   1      45.624  38.432  28.420  1.00  0.00    -0.237 OA
ATOM    103  O   UNL A   1      43.443  39.446  28.959  1.00  0.00    -0.744 OA
ENDBRANCH  96 100
ENDBRANCH  70  93
ENDBRANCH  44  45
ENDBRANCH  36  39
ENDBRANCH  34  35
ENDBRANCH  33  34
ENDBRANCH  32  33
ENDBRANCH   1  32
TORSDOF 19
ENDMDL
MODEL 3
REMARK VINA RESULT:      -8.8      3.804     10.018
REMARK SMILES O=C(COc1ccc(N2C[C@@H](C(=O)NCCCCNC(=O)c3ccc(-c4c5nc(c(-c6cc(S(=O)(=O)[O-])ccc6F)c6ccc([nH]6)c(-c6cc(S(=O)(=O)[O-])ccc6F)c6nc(c(-c7cc(S(=O)(=O)[O-])ccc7F)c7ccc4[nH]7)C=C6)C=C5)cc3)CC2=O)cc1)Nc1ccc(Cl)cc1Cl
REMARK SMILES IDX 15 1 14 2 12 3 13 4 11 6 9 7 10 8 86 9 85 10 87 11 8 12 5 13
REMARK SMILES IDX 6 14 89 15 7 16 88 17 4 18 3 19 2 20 1 21 90 22 91 24 92 25
REMARK SMILES IDX 97 26 93 27 96 28 98 29 94 30 95 31 16 32 17 33 18 34 19 35
REMARK SMILES IDX 20 36 21 38 22 39 23 40 84 41 24 42 83 43 25 44 26 45 27 46
REMARK SMILES IDX 77 47 28 48 82 49 76 50 78 51 29 52 81 53 75 54 74 55 30 57
REMARK SMILES IDX 62 58 42 59 61 60 43 61 46 62 60 63 79 64 44 65 45 66 59 68
REMARK SMILES IDX 80 69 47 70 31 71 32 72 40 73 33 74 39 75 41 76 38 77 34 78
REMARK SMILES IDX 35 79 36 80 37 81 63 82 64 83 72 84 65 85 71 86 73 87 70 88
REMARK SMILES IDX 66 89 67 90 68 91 69 92 48 93 49 94 57 95 50 96 56 97 58 98
REMARK SMILES IDX 55 99 51 100 52 101 53 102 54 103
REMARK H PARENT 14 5 90 23 19 37 78 56 46 67
REMARK Flexibility Score: inf
ROOT
ATOM      1  C   UNL A   1      37.610  23.119  25.718  1.00  0.00     0.116 C 
ENDROOT
BRANCH   1   2
ATOM      2  N   UNL A   1      36.475  22.378  26.241  1.00  0.00    -0.356 N 
ATOM      3  C   UNL A   1      35.155  22.398  25.931  1.00  0.00     0.225 C 
ATOM      4  O   UNL A   1      34.418  21.611  26.530  1.00  0.00    -0.275 OA
ATOM      5  H   UNL A   1      36.708  21.742  26.956  1.00  0.00     0.163 HD
BRANCH   3   6
ATOM      6  C   UNL A   1      34.559  23.324  24.888  1.00  0.00     0.107 C 
ATOM      7  N   UNL A   1      33.589  25.462  25.068  1.00  0.00    -0.312 N 
ATOM      8  C   UNL A   1      34.863  24.793  25.132  1.00  0.00     0.139 C 
ATOM      9  C   UNL A   1      32.523  24.589  24.863  1.00  0.00     0.227 C 
ATOM     10  C   UNL A   1      33.053  23.191  24.732  1.00  0.00     0.116 C 
ATOM     11  O   UNL A   1      31.333  24.860  24.763  1.00  0.00    -0.274 OA
BRANCH   7  12
ATOM     12  C   UNL A   1      33.440  26.848  25.287  1.00  0.00     0.044 A 
ATOM     13  C   UNL A   1      32.944  29.576  25.773  1.00  0.00     0.120 A 
ATOM     14  C   UNL A   1      33.207  29.129  24.477  1.00  0.00     0.048 A 
ATOM     15  C   UNL A   1      32.957  28.665  26.824  1.00  0.00     0.048 A 
ATOM     16  C   UNL A   1      33.493  27.775  24.239  1.00  0.00     0.030 A 
ATOM     17  C   UNL A   1      33.191  27.314  26.579  1.00  0.00     0.030 A 
BRANCH  13  18
ATOM     18  O   UNL A   1      32.524  30.871  25.938  1.00  0.00    -0.484 OA
BRANCH  18  19
ATOM     19  C   UNL A   1      32.326  31.249  27.300  1.00  0.00     0.329 C 
BRANCH  19  20
ATOM     20  C   UNL A   1      33.318  32.267  27.874  1.00  0.00     0.262 C 
ATOM     21  O   UNL A   1      33.245  33.454  27.572  1.00  0.00    -0.271 OA
ATOM     22  N   UNL A   1      34.309  31.677  28.650  1.00  0.00    -0.322 N 
ATOM     23  H   UNL A   1      34.230  30.713  28.830  1.00  0.00     0.170 HD
BRANCH  22  24
ATOM     24  C   UNL A   1      35.422  32.356  29.202  1.00  0.00     0.060 A 
ATOM     25  C   UNL A   1      36.552  32.442  28.370  1.00  0.00     0.029 A 
ATOM     26  C   UNL A   1      35.482  32.950  30.478  1.00  0.00     0.066 A 
ATOM     27  C   UNL A   1      37.677  33.176  28.760  1.00  0.00     0.023 A 
ATOM     28  C   UNL A   1      36.606  33.695  30.859  1.00  0.00     0.043 A 
ATOM     29  Cl  UNL A   1      34.323  32.643  31.726  1.00  0.00    -0.082 Cl
ATOM     30  C   UNL A   1      37.690  33.814  29.995  1.00  0.00     0.042 A 
ATOM     31  Cl  UNL A   1      39.073  34.719  30.473  1.00  0.00    -0.084 Cl
ENDBRANCH  22  24
ENDBRANCH  19  20
ENDBRANCH  18  19
ENDBRANCH  13  18
ENDBRANCH   7  12
ENDBRANCH   3   6
ENDBRANCH   1   2
BRANCH   1  32
ATOM     32  C   UNL A   1      38.946  22.570  26.220  1.00  0.00     0.023 C 
BRANCH  32  33
ATOM     33  C   UNL A   1      39.296  21.162  25.733  1.00  0.00     0.023 C 
BRANCH  33  34
ATOM     34  C   UNL A   1      40.089  20.304  26.714  1.00  0.00     0.116 C 
BRANCH  34  35
ATOM     35  N   UNL A   1      41.082  19.464  26.062  1.00  0.00    -0.352 N 
ATOM     36  C   UNL A   1      42.362  19.777  25.669  1.00  0.00     0.251 C 
ATOM     37  H   UNL A   1      40.797  18.540  25.877  1.00  0.00     0.163 HD
ATOM     38  O   UNL A   1      43.005  18.971  25.003  1.00  0.00    -0.269 OA
BRANCH  36  39
ATOM     39  C   UNL A   1      42.942  21.094  26.015  1.00  0.00     0.039 A 
ATOM     40  C   UNL A   1      43.130  22.035  24.999  1.00  0.00     0.014 A 
ATOM     41  C   UNL A   1      43.282  21.409  27.333  1.00  0.00     0.014 A 
ATOM     42  C   UNL A   1      43.586  23.317  25.318  1.00  0.00     0.010 A 
ATOM     43  C   UNL A   1      43.663  22.709  27.658  1.00  0.00     0.010 A 
ATOM     44  C   UNL A   1      43.814  23.679  26.656  1.00  0.00    -0.014 A 
BRANCH  44  45
ATOM     45  C   UNL A   1      44.205  25.067  27.025  1.00  0.00     0.031 A 
ATOM     46  C   UNL A   1      43.185  26.013  27.598  1.00  0.00     0.074 A 
ATOM     47  C   UNL A   1      45.461  25.493  26.782  1.00  0.00     0.049 A 
ATOM     48  N   UNL A   1      43.308  27.279  27.904  1.00  0.00    -0.248 NA
ATOM     49  C   UNL A   1      41.838  25.467  27.828  1.00  0.00     0.031 C 
ATOM     50  C   UNL A   1      46.529  24.683  26.192  1.00  0.00     0.029 A 
ATOM     51  N   UNL A   1      46.051  26.715  26.989  1.00  0.00    -0.354 N 
ATOM     52  C   UNL A   1      42.056  27.686  28.352  1.00  0.00     0.074 A 
ATOM     53  C   UNL A   1      41.173  26.546  28.214  1.00  0.00     0.031 C 
ATOM     54  C   UNL A   1      47.648  25.420  26.111  1.00  0.00     0.029 A 
ATOM     55  C   UNL A   1      47.368  26.769  26.593  1.00  0.00     0.049 A 
ATOM     56  H   UNL A   1      45.577  27.482  27.385  1.00  0.00     0.167 HD
ATOM     57  C   UNL A   1      41.683  28.890  28.852  1.00  0.00     0.034 A 
ATOM     58  C   UNL A   1      48.247  27.791  26.601  1.00  0.00     0.034 A 
ATOM     59  C   UNL A   1      42.578  30.013  28.992  1.00  0.00     0.049 A 
ATOM     60  C   UNL A   1      47.800  29.131  27.134  1.00  0.00     0.074 A 
ATOM     61  C   UNL A   1      42.319  31.260  29.534  1.00  0.00     0.029 A 
ATOM     62  N   UNL A   1      43.904  30.031  28.577  1.00  0.00    -0.354 N 
ATOM     63  N   UNL A   1      46.625  29.485  27.600  1.00  0.00    -0.248 NA
ATOM     64  C   UNL A   1      48.802  30.204  27.150  1.00  0.00     0.031 C 
ATOM     65  C   UNL A   1      43.462  32.052  29.382  1.00  0.00     0.029 A 
ATOM     66  C   UNL A   1      44.464  31.276  28.821  1.00  0.00     0.049 A 
ATOM     67  H   UNL A   1      44.378  29.270  28.168  1.00  0.00     0.167 HD
ATOM     68  C   UNL A   1      46.758  30.812  27.997  1.00  0.00     0.074 A 
ATOM     69  C   UNL A   1      48.131  31.190  27.728  1.00  0.00     0.031 C 
ATOM     70  C   UNL A   1      45.832  31.644  28.540  1.00  0.00     0.034 A 
BRANCH  57  71
ATOM     71  C   UNL A   1      40.237  29.056  29.260  1.00  0.00     0.023 A 
ATOM     72  C   UNL A   1      39.842  29.035  30.608  1.00  0.00     0.031 A 
ATOM     73  C   UNL A   1      39.235  29.214  28.286  1.00  0.00     0.131 A 
ATOM     74  C   UNL A   1      38.480  29.089  30.943  1.00  0.00     0.055 A 
ATOM     75  C   UNL A   1      37.888  29.354  28.629  1.00  0.00     0.041 A 
ATOM     76  F   UNL A   1      39.545  29.220  26.979  1.00  0.00    -0.206 F 
ATOM     77  C   UNL A   1      37.502  29.275  29.964  1.00  0.00     0.022 A 
BRANCH  74  78
ATOM     78  S   UNL A   1      37.996  28.759  32.659  1.00  0.00     0.124 S 
ATOM     79  O   UNL A   1      39.017  29.498  33.399  1.00  0.00    -0.237 OA
ATOM     80  O   UNL A   1      36.645  29.306  32.717  1.00  0.00    -0.237 OA
ATOM     81  O   UNL A   1      38.087  27.305  32.769  1.00  0.00    -0.744 OA
ENDBRANCH  74  78
ENDBRANCH  57  71
BRANCH  58  82
ATOM     82  C   UNL A   1      49.633  27.605  26.081  1.00  0.00     0.023 A 
ATOM     83  C   UNL A   1      49.965  27.958  24.763  1.00  0.00     0.031 A 
ATOM     84  C   UNL A   1      50.636  27.026  26.880  1.00  0.00     0.131 A 
ATOM     85  C   UNL A   1      51.249  27.685  24.267  1.00  0.00     0.055 A 
ATOM     86  C   UNL A   1      51.928  26.809  26.400  1.00  0.00     0.041 A 
ATOM     87  F   UNL A   1      50.375  26.673  28.148  1.00  0.00    -0.206 F 
ATOM     88  C   UNL A   1      52.237  27.126  25.080  1.00  0.00     0.022 A 
BRANCH  85  89
ATOM     89  S   UNL A   1      51.582  27.984  22.509  1.00  0.00     0.124 S 
ATOM     90  O   UNL A   1      53.039  28.045  22.490  1.00  0.00    -0.237 OA
ATOM     91  O   UNL A   1      50.979  26.813  21.883  1.00  0.00    -0.237 OA
ATOM     92  O   UNL A   1      50.901  29.250  22.245  1.00  0.00    -0.744 OA
ENDBRANCH  85  89
ENDBRANCH  58  82
BRANCH  70  93
ATOM     93  C   UNL A   1      46.293  33.030  28.923  1.00  0.00     0.023 A 
ATOM     94  C   UNL A   1      46.084  34.141  28.088  1.00  0.00     0.031 A 
ATOM     95  C   UNL A   1      46.965  33.237  30.143  1.00  0.00     0.131 A 
ATOM     96  C   UNL A   1      46.590  35.398  28.456  1.00  0.00     0.055 A 
ATOM     97  C   UNL A   1      47.408  34.501  30.532  1.00  0.00     0.041 A 
ATOM     98  F   UNL A   1      47.196  32.212  30.978  1.00  0.00    -0.206 F 
ATOM     99  C   UNL A   1      47.235  35.588  29.681  1.00  0.00     0.022 A 
BRANCH  96 100
ATOM    100  S   UNL A   1      46.478  36.765  27.268  1.00  0.00     0.124 S 
ATOM    101  O   UNL A   1      47.564  36.452  26.344  1.00  0.00    -0.237 OA
ATOM    102  O   UNL A   1      45.127  36.609  26.739  1.00  0.00    -0.237 OA
ATOM    103  O   UNL A   1      46.688  37.954  28.092  1.00  0.00    -0.744 OA
ENDBRANCH  96 100
ENDBRANCH  70  93
ENDBRANCH  44  45
ENDBRANCH  36  39
ENDBRANCH  34  35
ENDBRANCH  33  34
ENDBRANCH  32  33
ENDBRANCH   1  32
TORSDOF 19
ENDMDL
