MODEL 1
REMARK VINA RESULT:     -12.1      0.000      0.000
REMARK SMILES COc1ccc2c(c1)CC[C@@](C)(CCC(=O)NCCCCNC(=O)c1ccc(-c3c4nc(c(-c5cc(S(=O)(=O)[O-])ccc5F)c5ccc([nH]5)c(-c5cc(S(=O)(=O)[O-])ccc5F)c5nc(c(-c6cc(S(=O)(=O)[O-])ccc6F)c6ccc3[nH]6)C=C5)C=C4)cc1)C2=O
REMARK SMILES IDX 19 1 18 2 17 3 15 4 16 5 14 7 13 8 11 9 3 10 4 11 8 12 5 13
REMARK SMILES IDX 7 14 6 15 9 16 88 17 10 18 89 19 12 20 2 21 1 22 20 23 21 24
REMARK SMILES IDX 22 25 23 26 24 28 25 29 26 30 87 31 27 32 86 33 28 34 29 35
REMARK SMILES IDX 30 36 80 37 31 38 85 39 79 40 81 41 32 42 84 43 78 44 77 45
REMARK SMILES IDX 33 47 65 48 45 49 64 50 46 51 49 52 63 53 82 54 47 55 48 56
REMARK SMILES IDX 62 58 83 59 50 60 34 61 35 62 43 63 36 64 42 65 44 66 41 67
REMARK SMILES IDX 37 68 38 69 39 70 40 71 66 72 67 73 75 74 68 75 74 76 76 77
REMARK SMILES IDX 73 78 69 79 70 80 71 81 72 82 51 83 52 84 60 85 53 86 59 87
REMARK SMILES IDX 61 88 58 89 54 90 55 91 56 92 57 93
REMARK H PARENT 17 6 22 27 81 46 49 57
REMARK Flexibility Score: inf
ROOT
ATOM      1  C   UNL A   1      32.736  27.539  26.333  1.00  0.00     0.023 C 
ENDROOT
BRANCH   1   2
ATOM      2  C   UNL A   1      32.071  26.211  25.996  1.00  0.00     0.116 C 
BRANCH   2   3
ATOM      3  N   UNL A   1      30.861  26.433  25.235  1.00  0.00    -0.356 N 
ATOM      4  C   UNL A   1      30.128  25.564  24.490  1.00  0.00     0.220 C 
ATOM      5  O   UNL A   1      29.195  25.999  23.816  1.00  0.00    -0.275 OA
ATOM      6  H   UNL A   1      30.516  27.355  25.260  1.00  0.00     0.163 HD
BRANCH   4   7
ATOM      7  C   UNL A   1      30.435  24.081  24.543  1.00  0.00     0.101 C 
BRANCH   7   8
ATOM      8  C   UNL A   1      31.100  23.530  23.271  1.00  0.00     0.025 C 
BRANCH   8   9
ATOM      9  C   UNL A   1      32.254  22.467  23.388  1.00  0.00     0.032 C 
ATOM     10  C   UNL A   1      37.187  21.440  24.815  1.00  0.00     0.119 A 
ATOM     11  C   UNL A   1      37.260  22.578  24.015  1.00  0.00     0.047 A 
ATOM     12  C   UNL A   1      35.941  20.881  25.109  1.00  0.00     0.050 A 
ATOM     13  C   UNL A   1      36.089  23.127  23.484  1.00  0.00     0.016 A 
ATOM     14  C   UNL A   1      34.755  21.433  24.598  1.00  0.00    -0.033 A 
ATOM     15  C   UNL A   1      34.840  22.546  23.754  1.00  0.00     0.022 A 
ATOM     16  C   UNL A   1      33.443  20.767  24.899  1.00  0.00     0.037 C 
ATOM     17  C   UNL A   1      33.620  23.104  23.092  1.00  0.00     0.169 C 
ATOM     18  C   UNL A   1      32.280  21.742  24.748  1.00  0.00     0.020 C 
ATOM     19  O   UNL A   1      33.750  23.994  22.254  1.00  0.00    -0.294 OA
ATOM     20  C   UNL A   1      32.059  21.448  22.238  1.00  0.00     0.020 C 
BRANCH  10  21
ATOM     21  O   UNL A   1      38.271  20.717  25.231  1.00  0.00    -0.497 OA
ATOM     22  C   UNL A   1      38.150  19.303  25.122  1.00  0.00     0.278 C 
ENDBRANCH  10  21
ENDBRANCH   8   9
ENDBRANCH   7   8
ENDBRANCH   4   7
ENDBRANCH   2   3
ENDBRANCH   1   2
BRANCH   1  23
ATOM     23  C   UNL A   1      31.870  28.779  26.266  1.00  0.00     0.023 C 
BRANCH  23  24
ATOM     24  C   UNL A   1      32.555  30.094  25.948  1.00  0.00     0.116 C 
BRANCH  24  25
ATOM     25  N   UNL A   1      32.149  31.260  26.726  1.00  0.00    -0.352 N 
ATOM     26  C   UNL A   1      32.958  32.132  27.434  1.00  0.00     0.251 C 
ATOM     27  H   UNL A   1      31.184  31.449  26.750  1.00  0.00     0.163 HD
ATOM     28  O   UNL A   1      32.509  33.163  27.921  1.00  0.00    -0.269 OA
BRANCH  26  29
ATOM     29  C   UNL A   1      34.363  31.744  27.665  1.00  0.00     0.039 A 
ATOM     30  C   UNL A   1      34.658  30.434  28.021  1.00  0.00     0.014 A 
ATOM     31  C   UNL A   1      35.334  32.744  27.758  1.00  0.00     0.014 A 
ATOM     32  C   UNL A   1      35.806  30.202  28.759  1.00  0.00     0.010 A 
ATOM     33  C   UNL A   1      36.561  32.467  28.357  1.00  0.00     0.010 A 
ATOM     34  C   UNL A   1      36.770  31.216  28.943  1.00  0.00    -0.014 A 
BRANCH  34  35
ATOM     35  C   UNL A   1      38.003  30.878  29.691  1.00  0.00     0.031 A 
ATOM     36  C   UNL A   1      38.202  31.269  31.129  1.00  0.00     0.074 A 
ATOM     37  C   UNL A   1      38.899  30.108  29.046  1.00  0.00     0.049 A 
ATOM     38  N   UNL A   1      39.133  30.870  31.956  1.00  0.00    -0.248 NA
ATOM     39  C   UNL A   1      37.264  32.238  31.718  1.00  0.00     0.031 C 
ATOM     40  C   UNL A   1      38.796  29.748  27.629  1.00  0.00     0.029 A 
ATOM     41  N   UNL A   1      40.010  29.439  29.481  1.00  0.00    -0.354 N 
ATOM     42  C   UNL A   1      38.912  31.553  33.149  1.00  0.00     0.074 A 
ATOM     43  C   UNL A   1      37.770  32.411  32.935  1.00  0.00     0.031 C 
ATOM     44  C   UNL A   1      39.724  28.833  27.342  1.00  0.00     0.029 A 
ATOM     45  C   UNL A   1      40.552  28.612  28.522  1.00  0.00     0.049 A 
ATOM     46  H   UNL A   1      40.383  29.538  30.386  1.00  0.00     0.167 HD
ATOM     47  C   UNL A   1      39.608  31.456  34.308  1.00  0.00     0.034 A 
ATOM     48  C   UNL A   1      41.595  27.762  28.584  1.00  0.00     0.034 A 
ATOM     49  C   UNL A   1      40.725  30.558  34.481  1.00  0.00     0.049 A 
ATOM     50  C   UNL A   1      42.287  27.604  29.907  1.00  0.00     0.074 A 
ATOM     51  C   UNL A   1      41.470  30.331  35.623  1.00  0.00     0.029 A 
ATOM     52  N   UNL A   1      41.253  29.738  33.492  1.00  0.00    -0.354 N 
ATOM     53  N   UNL A   1      42.014  28.198  31.047  1.00  0.00    -0.248 NA
ATOM     54  C   UNL A   1      43.412  26.668  29.970  1.00  0.00     0.031 C 
ATOM     55  C   UNL A   1      42.485  29.427  35.309  1.00  0.00     0.029 A 
ATOM     56  C   UNL A   1      42.330  29.026  33.990  1.00  0.00     0.049 A 
ATOM     57  H   UNL A   1      40.910  29.672  32.571  1.00  0.00     0.167 HD
ATOM     58  C   UNL A   1      42.940  27.717  31.960  1.00  0.00     0.074 A 
ATOM     59  C   UNL A   1      43.749  26.743  31.252  1.00  0.00     0.031 C 
ATOM     60  C   UNL A   1      43.121  28.063  33.260  1.00  0.00     0.034 A 
BRANCH  47  61
ATOM     61  C   UNL A   1      39.210  32.304  35.496  1.00  0.00     0.023 A 
ATOM     62  C   UNL A   1      39.686  33.627  35.604  1.00  0.00     0.031 A 
ATOM     63  C   UNL A   1      38.517  31.762  36.591  1.00  0.00     0.131 A 
ATOM     64  C   UNL A   1      39.507  34.342  36.797  1.00  0.00     0.055 A 
ATOM     65  C   UNL A   1      38.305  32.493  37.763  1.00  0.00     0.041 A 
ATOM     66  F   UNL A   1      38.044  30.506  36.545  1.00  0.00    -0.206 F 
ATOM     67  C   UNL A   1      38.814  33.784  37.875  1.00  0.00     0.022 A 
BRANCH  64  68
ATOM     68  S   UNL A   1      40.224  35.994  37.019  1.00  0.00     0.124 S 
ATOM     69  O   UNL A   1      39.761  36.689  35.819  1.00  0.00    -0.237 OA
ATOM     70  O   UNL A   1      39.605  36.429  38.268  1.00  0.00    -0.237 OA
ATOM     71  O   UNL A   1      41.660  35.749  37.076  1.00  0.00    -0.744 OA
ENDBRANCH  64  68
ENDBRANCH  47  61
BRANCH  48  72
ATOM     72  C   UNL A   1      41.955  26.987  27.361  1.00  0.00     0.023 A 
ATOM     73  C   UNL A   1      41.582  25.633  27.245  1.00  0.00     0.031 A 
ATOM     74  C   UNL A   1      42.827  27.514  26.395  1.00  0.00     0.131 A 
ATOM     75  C   UNL A   1      42.171  24.826  26.264  1.00  0.00     0.055 A 
ATOM     76  C   UNL A   1      43.338  26.727  25.360  1.00  0.00     0.041 A 
ATOM     77  F   UNL A   1      43.231  28.791  26.470  1.00  0.00    -0.206 F 
ATOM     78  C   UNL A   1      43.035  25.369  25.309  1.00  0.00     0.022 A 
BRANCH  75  79
ATOM     79  S   UNL A   1      42.009  23.018  26.344  1.00  0.00     0.124 S 
ATOM     80  O   UNL A   1      42.596  22.605  25.074  1.00  0.00    -0.237 OA
ATOM     81  O   UNL A   1      42.790  22.695  27.537  1.00  0.00    -0.237 OA
ATOM     82  O   UNL A   1      40.571  22.809  26.478  1.00  0.00    -0.744 OA
ENDBRANCH  75  79
ENDBRANCH  48  72
BRANCH  60  83
ATOM     83  C   UNL A   1      44.257  27.417  34.010  1.00  0.00     0.023 A 
ATOM     84  C   UNL A   1      44.055  26.193  34.672  1.00  0.00     0.031 A 
ATOM     85  C   UNL A   1      45.476  28.090  34.197  1.00  0.00     0.131 A 
ATOM     86  C   UNL A   1      45.046  25.698  35.528  1.00  0.00     0.055 A 
ATOM     87  C   UNL A   1      46.479  27.569  35.013  1.00  0.00     0.041 A 
ATOM     88  F   UNL A   1      45.706  29.266  33.593  1.00  0.00    -0.206 F 
ATOM     89  C   UNL A   1      46.259  26.374  35.696  1.00  0.00     0.022 A 
BRANCH  86  90
ATOM     90  S   UNL A   1      44.759  24.211  36.524  1.00  0.00     0.124 S 
ATOM     91  O   UNL A   1      43.725  23.527  35.752  1.00  0.00    -0.237 OA
ATOM     92  O   UNL A   1      46.072  23.573  36.511  1.00  0.00    -0.237 OA
ATOM     93  O   UNL A   1      44.327  24.730  37.818  1.00  0.00    -0.744 OA
ENDBRANCH  86  90
ENDBRANCH  60  83
ENDBRANCH  34  35
ENDBRANCH  26  29
ENDBRANCH  24  25
ENDBRANCH  23  24
ENDBRANCH   1  23
TORSDOF 17
ENDMDL
MODEL 2
REMARK VINA RESULT:     -12.0      2.366      8.660
REMARK SMILES COc1ccc2c(c1)CC[C@@](C)(CCC(=O)NCCCCNC(=O)c1ccc(-c3c4nc(c(-c5cc(S(=O)(=O)[O-])ccc5F)c5ccc([nH]5)c(-c5cc(S(=O)(=O)[O-])ccc5F)c5nc(c(-c6cc(S(=O)(=O)[O-])ccc6F)c6ccc3[nH]6)C=C5)C=C4)cc1)C2=O
REMARK SMILES IDX 19 1 18 2 17 3 15 4 16 5 14 7 13 8 11 9 3 10 4 11 8 12 5 13
REMARK SMILES IDX 7 14 6 15 9 16 88 17 10 18 89 19 12 20 2 21 1 22 20 23 21 24
REMARK SMILES IDX 22 25 23 26 24 28 25 29 26 30 87 31 27 32 86 33 28 34 29 35
REMARK SMILES IDX 30 36 80 37 31 38 85 39 79 40 81 41 32 42 84 43 78 44 77 45
REMARK SMILES IDX 33 47 65 48 45 49 64 50 46 51 49 52 63 53 82 54 47 55 48 56
REMARK SMILES IDX 62 58 83 59 50 60 34 61 35 62 43 63 36 64 42 65 44 66 41 67
REMARK SMILES IDX 37 68 38 69 39 70 40 71 66 72 67 73 75 74 68 75 74 76 76 77
REMARK SMILES IDX 73 78 69 79 70 80 71 81 72 82 51 83 52 84 60 85 53 86 59 87
REMARK SMILES IDX 61 88 58 89 54 90 55 91 56 92 57 93
REMARK H PARENT 17 6 22 27 81 46 49 57
REMARK Flexibility Score: inf
ROOT
ATOM      1  C   UNL A   1      37.415  23.646  25.280  1.00  0.00     0.023 C 
ENDROOT
BRANCH   1   2
ATOM      2  C   UNL A   1      35.973  24.043  25.569  1.00  0.00     0.116 C 
BRANCH   2   3
ATOM      3  N   UNL A   1      35.407  23.179  26.582  1.00  0.00    -0.356 N 
ATOM      4  C   UNL A   1      34.793  21.973  26.455  1.00  0.00     0.220 C 
ATOM      5  O   UNL A   1      34.267  21.466  27.446  1.00  0.00    -0.275 OA
ATOM      6  H   UNL A   1      35.476  23.516  27.504  1.00  0.00     0.163 HD
BRANCH   4   7
ATOM      7  C   UNL A   1      34.812  21.254  25.121  1.00  0.00     0.101 C 
BRANCH   7   8
ATOM      8  C   UNL A   1      33.418  20.968  24.541  1.00  0.00     0.025 C 
BRANCH   8   9
ATOM      9  C   UNL A   1      32.766  21.986  23.533  1.00  0.00     0.032 C 
ATOM     10  C   UNL A   1      30.812  26.780  22.741  1.00  0.00     0.119 A 
ATOM     11  C   UNL A   1      30.172  26.302  23.882  1.00  0.00     0.047 A 
ATOM     12  C   UNL A   1      31.796  26.004  22.123  1.00  0.00     0.050 A 
ATOM     13  C   UNL A   1      30.494  25.034  24.376  1.00  0.00     0.016 A 
ATOM     14  C   UNL A   1      32.142  24.736  22.619  1.00  0.00    -0.033 A 
ATOM     15  C   UNL A   1      31.459  24.240  23.735  1.00  0.00     0.022 A 
ATOM     16  C   UNL A   1      33.167  23.916  21.890  1.00  0.00     0.037 C 
ATOM     17  C   UNL A   1      31.709  22.853  24.235  1.00  0.00     0.169 C 
ATOM     18  C   UNL A   1      33.796  22.873  22.809  1.00  0.00     0.020 C 
ATOM     19  O   UNL A   1      30.996  22.404  25.131  1.00  0.00    -0.294 OA
ATOM     20  C   UNL A   1      31.950  21.160  22.508  1.00  0.00     0.020 C 
BRANCH  10  21
ATOM     21  O   UNL A   1      30.448  27.915  22.070  1.00  0.00    -0.497 OA
ATOM     22  C   UNL A   1      29.958  28.980  22.877  1.00  0.00     0.278 C 
ENDBRANCH  10  21
ENDBRANCH   8   9
ENDBRANCH   7   8
ENDBRANCH   4   7
ENDBRANCH   2   3
ENDBRANCH   1   2
BRANCH   1  23
ATOM     23  C   UNL A   1      38.429  23.896  26.377  1.00  0.00     0.023 C 
BRANCH  23  24
ATOM     24  C   UNL A   1      39.366  22.758  26.733  1.00  0.00     0.116 C 
BRANCH  24  25
ATOM     25  N   UNL A   1      40.490  22.516  25.834  1.00  0.00    -0.352 N 
ATOM     26  C   UNL A   1      41.764  23.053  25.902  1.00  0.00     0.251 C 
ATOM     27  H   UNL A   1      40.321  21.896  25.089  1.00  0.00     0.163 HD
ATOM     28  O   UNL A   1      42.664  22.651  25.173  1.00  0.00    -0.269 OA
BRANCH  26  29
ATOM     29  C   UNL A   1      41.990  24.189  26.817  1.00  0.00     0.039 A 
ATOM     30  C   UNL A   1      41.925  23.983  28.189  1.00  0.00     0.014 A 
ATOM     31  C   UNL A   1      42.025  25.483  26.291  1.00  0.00     0.014 A 
ATOM     32  C   UNL A   1      41.577  25.055  28.992  1.00  0.00     0.010 A 
ATOM     33  C   UNL A   1      41.837  26.579  27.131  1.00  0.00     0.010 A 
ATOM     34  C   UNL A   1      41.521  26.365  28.474  1.00  0.00    -0.014 A 
BRANCH  34  35
ATOM     35  C   UNL A   1      41.202  27.471  29.407  1.00  0.00     0.031 A 
ATOM     36  C   UNL A   1      39.953  28.297  29.275  1.00  0.00     0.074 A 
ATOM     37  C   UNL A   1      42.040  27.634  30.447  1.00  0.00     0.049 A 
ATOM     38  N   UNL A   1      39.453  29.153  30.129  1.00  0.00    -0.248 NA
ATOM     39  C   UNL A   1      39.170  28.174  28.035  1.00  0.00     0.031 C 
ATOM     40  C   UNL A   1      43.304  26.908  30.598  1.00  0.00     0.029 A 
ATOM     41  N   UNL A   1      41.946  28.380  31.590  1.00  0.00    -0.354 N 
ATOM     42  C   UNL A   1      38.319  29.687  29.524  1.00  0.00     0.074 A 
ATOM     43  C   UNL A   1      38.212  29.076  28.220  1.00  0.00     0.031 C 
ATOM     44  C   UNL A   1      43.806  27.149  31.812  1.00  0.00     0.029 A 
ATOM     45  C   UNL A   1      42.955  28.121  32.489  1.00  0.00     0.049 A 
ATOM     46  H   UNL A   1      41.230  29.035  31.751  1.00  0.00     0.167 HD
ATOM     47  C   UNL A   1      37.455  30.601  30.030  1.00  0.00     0.034 A 
ATOM     48  C   UNL A   1      43.172  28.603  33.728  1.00  0.00     0.034 A 
ATOM     49  C   UNL A   1      37.589  31.160  31.354  1.00  0.00     0.049 A 
ATOM     50  C   UNL A   1      42.148  29.541  34.299  1.00  0.00     0.074 A 
ATOM     51  C   UNL A   1      36.746  32.048  31.996  1.00  0.00     0.029 A 
ATOM     52  N   UNL A   1      38.623  30.882  32.239  1.00  0.00    -0.354 N 
ATOM     53  N   UNL A   1      41.039  29.974  33.744  1.00  0.00    -0.248 NA
ATOM     54  C   UNL A   1      42.384  30.052  35.652  1.00  0.00     0.031 C 
ATOM     55  C   UNL A   1      37.302  32.357  33.238  1.00  0.00     0.029 A 
ATOM     56  C   UNL A   1      38.454  31.602  33.409  1.00  0.00     0.049 A 
ATOM     57  H   UNL A   1      39.366  30.262  32.061  1.00  0.00     0.167 HD
ATOM     58  C   UNL A   1      40.449  30.817  34.675  1.00  0.00     0.074 A 
ATOM     59  C   UNL A   1      41.300  30.792  35.850  1.00  0.00     0.031 C 
ATOM     60  C   UNL A   1      39.320  31.561  34.563  1.00  0.00     0.034 A 
BRANCH  47  61
ATOM     61  C   UNL A   1      36.281  31.066  29.197  1.00  0.00     0.023 A 
ATOM     62  C   UNL A   1      35.389  30.120  28.652  1.00  0.00     0.031 A 
ATOM     63  C   UNL A   1      36.143  32.407  28.801  1.00  0.00     0.131 A 
ATOM     64  C   UNL A   1      34.434  30.520  27.705  1.00  0.00     0.055 A 
ATOM     65  C   UNL A   1      35.163  32.808  27.888  1.00  0.00     0.041 A 
ATOM     66  F   UNL A   1      36.966  33.351  29.285  1.00  0.00    -0.206 F 
ATOM     67  C   UNL A   1      34.313  31.860  27.324  1.00  0.00     0.022 A 
BRANCH  64  68
ATOM     68  S   UNL A   1      33.362  29.309  26.882  1.00  0.00     0.124 S 
ATOM     69  O   UNL A   1      32.915  28.489  28.007  1.00  0.00    -0.237 OA
ATOM     70  O   UNL A   1      32.338  30.164  26.289  1.00  0.00    -0.237 OA
ATOM     71  O   UNL A   1      34.250  28.637  25.941  1.00  0.00    -0.744 OA
ENDBRANCH  64  68
ENDBRANCH  47  61
BRANCH  48  72
ATOM     72  C   UNL A   1      44.374  28.130  34.475  1.00  0.00     0.023 A 
ATOM     73  C   UNL A   1      44.253  27.102  35.432  1.00  0.00     0.031 A 
ATOM     74  C   UNL A   1      45.597  28.813  34.395  1.00  0.00     0.131 A 
ATOM     75  C   UNL A   1      45.290  26.869  36.344  1.00  0.00     0.055 A 
ATOM     76  C   UNL A   1      46.664  28.511  35.246  1.00  0.00     0.041 A 
ATOM     77  F   UNL A   1      45.759  29.815  33.518  1.00  0.00    -0.206 F 
ATOM     78  C   UNL A   1      46.502  27.556  36.246  1.00  0.00     0.022 A 
BRANCH  75  79
ATOM     79  S   UNL A   1      45.005  25.836  37.812  1.00  0.00     0.124 S 
ATOM     80  O   UNL A   1      43.801  26.436  38.374  1.00  0.00    -0.237 OA
ATOM     81  O   UNL A   1      44.836  24.509  37.222  1.00  0.00    -0.237 OA
ATOM     82  O   UNL A   1      46.226  26.008  38.593  1.00  0.00    -0.744 OA
ENDBRANCH  75  79
ENDBRANCH  48  72
BRANCH  60  83
ATOM     83  C   UNL A   1      38.940  32.444  35.723  1.00  0.00     0.023 A 
ATOM     84  C   UNL A   1      39.439  33.756  35.801  1.00  0.00     0.031 A 
ATOM     85  C   UNL A   1      38.221  31.932  36.817  1.00  0.00     0.131 A 
ATOM     86  C   UNL A   1      39.249  34.500  36.970  1.00  0.00     0.055 A 
ATOM     87  C   UNL A   1      37.993  32.695  37.961  1.00  0.00     0.041 A 
ATOM     88  F   UNL A   1      37.736  30.681  36.789  1.00  0.00    -0.206 F 
ATOM     89  C   UNL A   1      38.522  33.981  38.047  1.00  0.00     0.022 A 
BRANCH  86  90
ATOM     90  S   UNL A   1      40.016  36.131  37.173  1.00  0.00     0.124 S 
ATOM     91  O   UNL A   1      39.230  36.698  38.266  1.00  0.00    -0.237 OA
ATOM     92  O   UNL A   1      41.394  35.783  37.510  1.00  0.00    -0.237 OA
ATOM     93  O   UNL A   1      39.830  36.772  35.876  1.00  0.00    -0.744 OA
ENDBRANCH  86  90
ENDBRANCH  60  83
ENDBRANCH  34  35
ENDBRANCH  26  29
ENDBRANCH  24  25
ENDBRANCH  23  24
ENDBRANCH   1  23
TORSDOF 17
ENDMDL
MODEL 3
REMARK VINA RESULT:     -11.8      5.817     10.586
REMARK SMILES COc1ccc2c(c1)CC[C@@](C)(CCC(=O)NCCCCNC(=O)c1ccc(-c3c4nc(c(-c5cc(S(=O)(=O)[O-])ccc5F)c5ccc([nH]5)c(-c5cc(S(=O)(=O)[O-])ccc5F)c5nc(c(-c6cc(S(=O)(=O)[O-])ccc6F)c6ccc3[nH]6)C=C5)C=C4)cc1)C2=O
REMARK SMILES IDX 19 1 18 2 17 3 15 4 16 5 14 7 13 8 11 9 3 10 4 11 8 12 5 13
REMARK SMILES IDX 7 14 6 15 9 16 88 17 10 18 89 19 12 20 2 21 1 22 20 23 21 24
REMARK SMILES IDX 22 25 23 26 24 28 25 29 26 30 87 31 27 32 86 33 28 34 29 35
REMARK SMILES IDX 30 36 80 37 31 38 85 39 79 40 81 41 32 42 84 43 78 44 77 45
REMARK SMILES IDX 33 47 65 48 45 49 64 50 46 51 49 52 63 53 82 54 47 55 48 56
REMARK SMILES IDX 62 58 83 59 50 60 34 61 35 62 43 63 36 64 42 65 44 66 41 67
REMARK SMILES IDX 37 68 38 69 39 70 40 71 66 72 67 73 75 74 68 75 74 76 76 77
REMARK SMILES IDX 73 78 69 79 70 80 71 81 72 82 51 83 52 84 60 85 53 86 59 87
REMARK SMILES IDX 61 88 58 89 54 90 55 91 56 92 57 93
REMARK H PARENT 17 6 22 27 81 46 49 57
REMARK Flexibility Score: inf
ROOT
ATOM      1  C   UNL A   1      37.781  23.662  25.988  1.00  0.00     0.023 C 
ENDROOT
BRANCH   1   2
ATOM      2  C   UNL A   1      36.284  23.835  25.768  1.00  0.00     0.116 C 
BRANCH   2   3
ATOM      3  N   UNL A   1      35.540  23.001  26.687  1.00  0.00    -0.356 N 
ATOM      4  C   UNL A   1      34.870  21.840  26.462  1.00  0.00     0.220 C 
ATOM      5  O   UNL A   1      34.193  21.359  27.370  1.00  0.00    -0.275 OA
ATOM      6  H   UNL A   1      35.515  23.324  27.616  1.00  0.00     0.163 HD
BRANCH   4   7
ATOM      7  C   UNL A   1      35.010  21.135  25.128  1.00  0.00     0.101 C 
BRANCH   7   8
ATOM      8  C   UNL A   1      33.671  20.782  24.460  1.00  0.00     0.025 C 
BRANCH   8   9
ATOM      9  C   UNL A   1      32.861  21.894  23.696  1.00  0.00     0.032 C 
ATOM     10  C   UNL A   1      30.548  26.590  23.885  1.00  0.00     0.119 A 
ATOM     11  C   UNL A   1      30.057  25.889  24.984  1.00  0.00     0.047 A 
ATOM     12  C   UNL A   1      31.511  25.999  23.062  1.00  0.00     0.050 A 
ATOM     13  C   UNL A   1      30.504  24.587  25.230  1.00  0.00     0.016 A 
ATOM     14  C   UNL A   1      31.982  24.698  23.308  1.00  0.00    -0.033 A 
ATOM     15  C   UNL A   1      31.446  23.981  24.384  1.00  0.00     0.022 A 
ATOM     16  C   UNL A   1      32.977  24.086  22.366  1.00  0.00     0.037 C 
ATOM     17  C   UNL A   1      31.829  22.555  24.624  1.00  0.00     0.169 C 
ATOM     18  C   UNL A   1      33.757  22.961  23.040  1.00  0.00     0.020 C 
ATOM     19  O   UNL A   1      31.239  21.917  25.493  1.00  0.00    -0.294 OA
ATOM     20  C   UNL A   1      31.998  21.182  22.625  1.00  0.00     0.020 C 
BRANCH  10  21
ATOM     21  O   UNL A   1      30.051  27.786  23.446  1.00  0.00    -0.497 OA
ATOM     22  C   UNL A   1      30.859  28.484  22.506  1.00  0.00     0.278 C 
ENDBRANCH  10  21
ENDBRANCH   8   9
ENDBRANCH   7   8
ENDBRANCH   4   7
ENDBRANCH   2   3
ENDBRANCH   1   2
BRANCH   1  23
ATOM     23  C   UNL A   1      38.392  22.347  25.552  1.00  0.00     0.023 C 
BRANCH  23  24
ATOM     24  C   UNL A   1      39.373  21.684  26.500  1.00  0.00     0.116 C 
BRANCH  24  25
ATOM     25  N   UNL A   1      39.944  20.408  26.080  1.00  0.00    -0.352 N 
ATOM     26  C   UNL A   1      41.267  20.007  26.148  1.00  0.00     0.251 C 
ATOM     27  H   UNL A   1      39.313  19.755  25.704  1.00  0.00     0.163 HD
ATOM     28  O   UNL A   1      41.595  18.852  25.903  1.00  0.00    -0.269 OA
BRANCH  26  29
ATOM     29  C   UNL A   1      42.290  21.032  26.435  1.00  0.00     0.039 A 
ATOM     30  C   UNL A   1      42.680  21.255  27.750  1.00  0.00     0.014 A 
ATOM     31  C   UNL A   1      42.665  21.915  25.420  1.00  0.00     0.014 A 
ATOM     32  C   UNL A   1      43.163  22.509  28.081  1.00  0.00     0.010 A 
ATOM     33  C   UNL A   1      43.303  23.112  25.741  1.00  0.00     0.010 A 
ATOM     34  C   UNL A   1      43.474  23.457  27.084  1.00  0.00    -0.014 A 
BRANCH  34  35
ATOM     35  C   UNL A   1      44.044  24.756  27.510  1.00  0.00     0.031 A 
ATOM     36  C   UNL A   1      45.486  25.114  27.279  1.00  0.00     0.074 A 
ATOM     37  C   UNL A   1      43.177  25.647  28.026  1.00  0.00     0.049 A 
ATOM     38  N   UNL A   1      46.064  26.280  27.416  1.00  0.00    -0.248 NA
ATOM     39  C   UNL A   1      46.405  24.044  26.861  1.00  0.00     0.031 C 
ATOM     40  C   UNL A   1      41.778  25.339  28.337  1.00  0.00     0.029 A 
ATOM     41  N   UNL A   1      43.297  26.979  28.313  1.00  0.00    -0.354 N 
ATOM     42  C   UNL A   1      47.411  26.081  27.129  1.00  0.00     0.074 A 
ATOM     43  C   UNL A   1      47.573  24.678  26.830  1.00  0.00     0.031 C 
ATOM     44  C   UNL A   1      41.141  26.469  28.653  1.00  0.00     0.029 A 
ATOM     45  C   UNL A   1      42.102  27.565  28.664  1.00  0.00     0.049 A 
ATOM     46  H   UNL A   1      44.150  27.467  28.272  1.00  0.00     0.167 HD
ATOM     47  C   UNL A   1      48.407  27.001  27.118  1.00  0.00     0.034 A 
ATOM     48  C   UNL A   1      41.806  28.847  28.957  1.00  0.00     0.034 A 
ATOM     49  C   UNL A   1      48.186  28.401  27.396  1.00  0.00     0.049 A 
ATOM     50  C   UNL A   1      42.909  29.859  28.844  1.00  0.00     0.074 A 
ATOM     51  C   UNL A   1      49.104  29.434  27.358  1.00  0.00     0.029 A 
ATOM     52  N   UNL A   1      46.967  28.963  27.753  1.00  0.00    -0.354 N 
ATOM     53  N   UNL A   1      44.160  29.668  28.493  1.00  0.00    -0.248 NA
ATOM     54  C   UNL A   1      42.576  31.253  29.152  1.00  0.00     0.031 C 
ATOM     55  C   UNL A   1      48.458  30.605  27.756  1.00  0.00     0.029 A 
ATOM     56  C   UNL A   1      47.116  30.323  27.966  1.00  0.00     0.049 A 
ATOM     57  H   UNL A   1      46.121  28.467  27.840  1.00  0.00     0.167 HD
ATOM     58  C   UNL A   1      44.768  30.913  28.549  1.00  0.00     0.074 A 
ATOM     59  C   UNL A   1      43.733  31.860  28.917  1.00  0.00     0.031 C 
ATOM     60  C   UNL A   1      46.067  31.243  28.336  1.00  0.00     0.034 A 
BRANCH  47  61
ATOM     61  C   UNL A   1      49.821  26.574  26.792  1.00  0.00     0.023 A 
ATOM     62  C   UNL A   1      50.814  26.612  27.791  1.00  0.00     0.031 A 
ATOM     63  C   UNL A   1      50.222  26.299  25.473  1.00  0.00     0.131 A 
ATOM     64  C   UNL A   1      52.161  26.431  27.448  1.00  0.00     0.055 A 
ATOM     65  C   UNL A   1      51.562  26.079  25.143  1.00  0.00     0.041 A 
ATOM     66  F   UNL A   1      49.319  26.253  24.480  1.00  0.00    -0.206 F 
ATOM     67  C   UNL A   1      52.541  26.160  26.131  1.00  0.00     0.022 A 
BRANCH  64  68
ATOM     68  S   UNL A   1      53.478  26.609  28.684  1.00  0.00     0.124 S 
ATOM     69  O   UNL A   1      52.805  26.175  29.908  1.00  0.00    -0.237 OA
ATOM     70  O   UNL A   1      54.497  25.696  28.177  1.00  0.00    -0.237 OA
ATOM     71  O   UNL A   1      53.817  28.027  28.635  1.00  0.00    -0.744 OA
ENDBRANCH  64  68
ENDBRANCH  47  61
BRANCH  48  72
ATOM     72  C   UNL A   1      40.397  29.188  29.311  1.00  0.00     0.023 A 
ATOM     73  C   UNL A   1      39.982  29.171  30.657  1.00  0.00     0.031 A 
ATOM     74  C   UNL A   1      39.414  29.339  28.321  1.00  0.00     0.131 A 
ATOM     75  C   UNL A   1      38.616  29.183  30.969  1.00  0.00     0.055 A 
ATOM     76  C   UNL A   1      38.058  29.447  28.643  1.00  0.00     0.041 A 
ATOM     77  F   UNL A   1      39.751  29.339  27.023  1.00  0.00    -0.206 F 
ATOM     78  C   UNL A   1      37.652  29.338  29.970  1.00  0.00     0.022 A 
BRANCH  75  79
ATOM     79  S   UNL A   1      38.055  28.770  32.647  1.00  0.00     0.124 S 
ATOM     80  O   UNL A   1      39.018  29.490  33.474  1.00  0.00    -0.237 OA
ATOM     81  O   UNL A   1      36.694  29.302  32.653  1.00  0.00    -0.237 OA
ATOM     82  O   UNL A   1      38.144  27.314  32.689  1.00  0.00    -0.744 OA
ENDBRANCH  75  79
ENDBRANCH  48  72
BRANCH  60  83
ATOM     83  C   UNL A   1      46.469  32.683  28.525  1.00  0.00     0.023 A 
ATOM     84  C   UNL A   1      46.662  33.511  27.405  1.00  0.00     0.031 A 
ATOM     85  C   UNL A   1      46.810  33.178  29.795  1.00  0.00     0.131 A 
ATOM     86  C   UNL A   1      47.225  34.781  27.573  1.00  0.00     0.055 A 
ATOM     87  C   UNL A   1      47.327  34.462  29.962  1.00  0.00     0.041 A 
ATOM     88  F   UNL A   1      46.652  32.417  30.889  1.00  0.00    -0.206 F 
ATOM     89  C   UNL A   1      47.551  35.264  28.845  1.00  0.00     0.022 A 
BRANCH  86  90
ATOM     90  S   UNL A   1      47.642  35.812  26.142  1.00  0.00     0.124 S 
ATOM     91  O   UNL A   1      46.547  36.778  26.138  1.00  0.00    -0.237 OA
ATOM     92  O   UNL A   1      48.947  36.349  26.519  1.00  0.00    -0.237 OA
ATOM     93  O   UNL A   1      47.650  34.877  25.022  1.00  0.00    -0.744 OA
ENDBRANCH  86  90
ENDBRANCH  60  83
ENDBRANCH  34  35
ENDBRANCH  26  29
ENDBRANCH  24  25
ENDBRANCH  23  24
ENDBRANCH   1  23
TORSDOF 17
ENDMDL
