MODEL 1
REMARK VINA RESULT:     -11.8      0.000      0.000
REMARK SMILES [NH3+][C@H](C(=O)NCCCCNC(=O)c1ccc(-c2c3nc(c(-c4cc(S(=O)(=O)[O-])ccc4F)c4ccc([nH]4)c(-c4cc(S(=O)(=O)[O-])ccc4F)c4nc(c(-c5cc(S(=O)(=O)[O-])ccc5F)c5ccc2[nH]5)C=C4)C=C3)cc1)c1ccc(OCC(=O)N2CCCC2)cc1
REMARK SMILES IDX 7 1 6 2 5 3 3 4 4 5 2 7 1 8 76 12 77 13 90 14 78 15 89 16
REMARK SMILES IDX 79 17 80 18 81 19 82 20 83 21 84 22 85 23 88 24 86 25 87 26
REMARK SMILES IDX 8 27 9 28 10 29 11 30 12 32 13 33 14 34 75 35 15 36 74 37
REMARK SMILES IDX 16 38 17 39 18 40 68 41 19 42 73 43 67 44 69 45 20 46 72 47
REMARK SMILES IDX 66 48 65 49 21 51 53 52 33 53 52 54 34 55 37 56 51 57 70 58
REMARK SMILES IDX 35 59 36 60 50 62 71 63 38 64 22 65 23 66 31 67 24 68 30 69
REMARK SMILES IDX 32 70 29 71 25 72 26 73 27 74 28 75 54 76 55 77 63 78 56 79
REMARK SMILES IDX 62 80 64 81 61 82 57 83 58 84 59 85 60 86 39 87 40 88 48 89
REMARK SMILES IDX 41 90 47 91 49 92 46 93 42 94 43 95 44 96 45 97
REMARK H PARENT 5 6 1 9 1 10 1 11 10 31 69 50 37 61
REMARK Flexibility Score: inf
ROOT
ATOM      1  C   UNL A   1      31.134  29.146  24.384  1.00  0.00     0.023 C 
ENDROOT
BRANCH   1   2
ATOM      2  C   UNL A   1      31.031  28.601  22.958  1.00  0.00     0.116 C 
BRANCH   2   3
ATOM      3  N   UNL A   1      32.330  28.196  22.446  1.00  0.00    -0.351 N 
ATOM      4  C   UNL A   1      32.843  26.950  22.222  1.00  0.00     0.283 C 
ATOM      5  O   UNL A   1      34.018  26.888  21.839  1.00  0.00    -0.268 OA
ATOM      6  H   UNL A   1      32.936  28.939  22.226  1.00  0.00     0.163 HD
BRANCH   4   7
ATOM      7  C   UNL A   1      31.978  25.652  22.332  1.00  0.00     0.302 C 
BRANCH   7   8
ATOM      8  N   UNL A   1      32.535  24.613  21.433  1.00  0.00    -0.343 N 
ATOM      9  H   UNL A   1      32.224  23.692  21.745  1.00  0.00     0.345 HD
ATOM     10  H   UNL A   1      33.554  24.653  21.457  1.00  0.00     0.345 HD
ATOM     11  H   UNL A   1      32.209  24.777  20.480  1.00  0.00     0.345 HD
ENDBRANCH   7   8
BRANCH   7  12
ATOM     12  C   UNL A   1      31.830  25.099  23.735  1.00  0.00     0.019 A 
ATOM     13  C   UNL A   1      32.622  25.622  24.768  1.00  0.00     0.014 A 
ATOM     14  C   UNL A   1      30.989  24.014  24.016  1.00  0.00     0.014 A 
ATOM     15  C   UNL A   1      32.689  24.972  25.997  1.00  0.00     0.047 A 
ATOM     16  C   UNL A   1      31.056  23.366  25.255  1.00  0.00     0.047 A 
ATOM     17  C   UNL A   1      31.945  23.816  26.228  1.00  0.00     0.120 A 
BRANCH  17  18
ATOM     18  O   UNL A   1      32.198  23.227  27.432  1.00  0.00    -0.484 OA
BRANCH  18  19
ATOM     19  C   UNL A   1      33.501  22.732  27.677  1.00  0.00     0.329 C 
BRANCH  19  20
ATOM     20  C   UNL A   1      34.074  21.695  26.699  1.00  0.00     0.260 C 
ATOM     21  O   UNL A   1      33.493  20.619  26.527  1.00  0.00    -0.271 OA
ATOM     22  N   UNL A   1      35.202  22.026  25.981  1.00  0.00    -0.340 N 
ATOM     23  C   UNL A   1      36.006  23.229  26.093  1.00  0.00     0.119 C 
ATOM     24  C   UNL A   1      35.744  21.118  24.989  1.00  0.00     0.119 C 
ATOM     25  C   UNL A   1      36.790  23.268  24.794  1.00  0.00     0.023 C 
ATOM     26  C   UNL A   1      37.013  21.792  24.486  1.00  0.00     0.023 C 
ENDBRANCH  19  20
ENDBRANCH  18  19
ENDBRANCH  17  18
ENDBRANCH   7  12
ENDBRANCH   4   7
ENDBRANCH   2   3
ENDBRANCH   1   2
BRANCH   1  27
ATOM     27  C   UNL A   1      32.545  29.502  24.842  1.00  0.00     0.023 C 
BRANCH  27  28
ATOM     28  C   UNL A   1      32.697  29.738  26.337  1.00  0.00     0.116 C 
BRANCH  28  29
ATOM     29  N   UNL A   1      32.420  31.109  26.743  1.00  0.00    -0.352 N 
ATOM     30  C   UNL A   1      33.235  31.973  27.438  1.00  0.00     0.251 C 
ATOM     31  H   UNL A   1      31.536  31.463  26.488  1.00  0.00     0.163 HD
ATOM     32  O   UNL A   1      32.825  33.078  27.780  1.00  0.00    -0.269 OA
BRANCH  30  33
ATOM     33  C   UNL A   1      34.592  31.523  27.813  1.00  0.00     0.039 A 
ATOM     34  C   UNL A   1      35.630  32.458  27.844  1.00  0.00     0.014 A 
ATOM     35  C   UNL A   1      34.806  30.209  28.238  1.00  0.00     0.014 A 
ATOM     36  C   UNL A   1      36.859  32.102  28.404  1.00  0.00     0.010 A 
ATOM     37  C   UNL A   1      36.006  29.880  28.858  1.00  0.00     0.010 A 
ATOM     38  C   UNL A   1      37.035  30.829  28.970  1.00  0.00    -0.014 A 
BRANCH  38  39
ATOM     39  C   UNL A   1      38.259  30.475  29.735  1.00  0.00     0.031 A 
ATOM     40  C   UNL A   1      39.203  29.436  29.196  1.00  0.00     0.074 A 
ATOM     41  C   UNL A   1      38.445  30.993  30.966  1.00  0.00     0.049 A 
ATOM     42  N   UNL A   1      40.225  28.867  29.779  1.00  0.00    -0.248 NA
ATOM     43  C   UNL A   1      38.939  28.951  27.833  1.00  0.00     0.031 C 
ATOM     44  C   UNL A   1      37.568  31.971  31.616  1.00  0.00     0.029 A 
ATOM     45  N   UNL A   1      39.416  30.748  31.908  1.00  0.00    -0.354 N 
ATOM     46  C   UNL A   1      40.708  27.933  28.870  1.00  0.00     0.074 A 
ATOM     47  C   UNL A   1      39.845  27.991  27.709  1.00  0.00     0.031 C 
ATOM     48  C   UNL A   1      38.037  32.237  32.846  1.00  0.00     0.029 A 
ATOM     49  C   UNL A   1      39.218  31.417  33.095  1.00  0.00     0.049 A 
ATOM     50  H   UNL A   1      40.181  30.149  31.748  1.00  0.00     0.167 HD
ATOM     51  C   UNL A   1      41.778  27.112  28.993  1.00  0.00     0.034 A 
ATOM     52  C   UNL A   1      39.888  31.352  34.263  1.00  0.00     0.034 A 
ATOM     53  C   UNL A   1      42.651  27.097  30.139  1.00  0.00     0.049 A 
ATOM     54  C   UNL A   1      41.075  30.426  34.370  1.00  0.00     0.074 A 
ATOM     55  C   UNL A   1      43.833  26.396  30.311  1.00  0.00     0.029 A 
ATOM     56  N   UNL A   1      42.434  27.804  31.313  1.00  0.00    -0.354 N 
ATOM     57  N   UNL A   1      41.568  29.611  33.466  1.00  0.00    -0.248 NA
ATOM     58  C   UNL A   1      41.794  30.411  35.650  1.00  0.00     0.031 C 
ATOM     59  C   UNL A   1      44.294  26.629  31.611  1.00  0.00     0.029 A 
ATOM     60  C   UNL A   1      43.434  27.523  32.229  1.00  0.00     0.049 A 
ATOM     61  H   UNL A   1      41.679  28.416  31.472  1.00  0.00     0.167 HD
ATOM     62  C   UNL A   1      42.668  29.005  34.065  1.00  0.00     0.074 A 
ATOM     63  C   UNL A   1      42.776  29.558  35.399  1.00  0.00     0.031 C 
ATOM     64  C   UNL A   1      43.516  28.075  33.560  1.00  0.00     0.034 A 
BRANCH  51  65
ATOM     65  C   UNL A   1      42.051  26.143  27.872  1.00  0.00     0.023 A 
ATOM     66  C   UNL A   1      41.441  24.878  27.819  1.00  0.00     0.031 A 
ATOM     67  C   UNL A   1      42.931  26.498  26.834  1.00  0.00     0.131 A 
ATOM     68  C   UNL A   1      41.763  23.992  26.780  1.00  0.00     0.055 A 
ATOM     69  C   UNL A   1      43.194  25.637  25.767  1.00  0.00     0.041 A 
ATOM     70  F   UNL A   1      43.554  27.687  26.845  1.00  0.00    -0.206 F 
ATOM     71  C   UNL A   1      42.616  24.372  25.741  1.00  0.00     0.022 A 
BRANCH  68  72
ATOM     72  S   UNL A   1      41.123  22.297  26.857  1.00  0.00     0.124 S 
ATOM     73  O   UNL A   1      41.788  21.680  25.711  1.00  0.00    -0.237 OA
ATOM     74  O   UNL A   1      41.569  21.849  28.170  1.00  0.00    -0.237 OA
ATOM     75  O   UNL A   1      39.679  22.469  26.712  1.00  0.00    -0.744 OA
ENDBRANCH  68  72
ENDBRANCH  51  65
BRANCH  52  76
ATOM     76  C   UNL A   1      39.440  32.143  35.445  1.00  0.00     0.023 A 
ATOM     77  C   UNL A   1      38.718  31.542  36.487  1.00  0.00     0.031 A 
ATOM     78  C   UNL A   1      39.671  33.529  35.517  1.00  0.00     0.131 A 
ATOM     79  C   UNL A   1      38.204  32.331  37.529  1.00  0.00     0.055 A 
ATOM     80  C   UNL A   1      39.203  34.301  36.582  1.00  0.00     0.041 A 
ATOM     81  F   UNL A   1      40.360  34.153  34.549  1.00  0.00    -0.206 F 
ATOM     82  C   UNL A   1      38.451  33.703  37.589  1.00  0.00     0.022 A 
BRANCH  79  83
ATOM     83  S   UNL A   1      37.114  31.550  38.751  1.00  0.00     0.124 S 
ATOM     84  O   UNL A   1      35.913  32.370  38.647  1.00  0.00    -0.237 OA
ATOM     85  O   UNL A   1      37.009  30.189  38.234  1.00  0.00    -0.237 OA
ATOM     86  O   UNL A   1      37.855  31.684  40.002  1.00  0.00    -0.744 OA
ENDBRANCH  79  83
ENDBRANCH  52  76
BRANCH  64  87
ATOM     87  C   UNL A   1      44.648  27.627  34.447  1.00  0.00     0.023 A 
ATOM     88  C   UNL A   1      44.532  26.491  35.265  1.00  0.00     0.031 A 
ATOM     89  C   UNL A   1      45.853  28.350  34.475  1.00  0.00     0.131 A 
ATOM     90  C   UNL A   1      45.591  26.132  36.111  1.00  0.00     0.055 A 
ATOM     91  C   UNL A   1      46.923  27.958  35.280  1.00  0.00     0.041 A 
ATOM     92  F   UNL A   1      46.012  29.443  33.713  1.00  0.00    -0.206 F 
ATOM     93  C   UNL A   1      46.792  26.849  36.112  1.00  0.00     0.022 A 
BRANCH  90  94
ATOM     94  S   UNL A   1      45.361  24.746  37.257  1.00  0.00     0.124 S 
ATOM     95  O   UNL A   1      44.980  23.666  36.353  1.00  0.00    -0.237 OA
ATOM     96  O   UNL A   1      46.679  24.625  37.874  1.00  0.00    -0.237 OA
ATOM     97  O   UNL A   1      44.301  25.210  38.150  1.00  0.00    -0.744 OA
ENDBRANCH  90  94
ENDBRANCH  64  87
ENDBRANCH  38  39
ENDBRANCH  30  33
ENDBRANCH  28  29
ENDBRANCH  27  28
ENDBRANCH   1  27
TORSDOF 19
ENDMDL
MODEL 2
REMARK VINA RESULT:     -11.6      2.288      2.730
REMARK SMILES [NH3+][C@H](C(=O)NCCCCNC(=O)c1ccc(-c2c3nc(c(-c4cc(S(=O)(=O)[O-])ccc4F)c4ccc([nH]4)c(-c4cc(S(=O)(=O)[O-])ccc4F)c4nc(c(-c5cc(S(=O)(=O)[O-])ccc5F)c5ccc2[nH]5)C=C4)C=C3)cc1)c1ccc(OCC(=O)N2CCCC2)cc1
REMARK SMILES IDX 7 1 6 2 5 3 3 4 4 5 2 7 1 8 76 12 77 13 90 14 78 15 89 16
REMARK SMILES IDX 79 17 80 18 81 19 82 20 83 21 84 22 85 23 88 24 86 25 87 26
REMARK SMILES IDX 8 27 9 28 10 29 11 30 12 32 13 33 14 34 75 35 15 36 74 37
REMARK SMILES IDX 16 38 17 39 18 40 68 41 19 42 73 43 67 44 69 45 20 46 72 47
REMARK SMILES IDX 66 48 65 49 21 51 53 52 33 53 52 54 34 55 37 56 51 57 70 58
REMARK SMILES IDX 35 59 36 60 50 62 71 63 38 64 22 65 23 66 31 67 24 68 30 69
REMARK SMILES IDX 32 70 29 71 25 72 26 73 27 74 28 75 54 76 55 77 63 78 56 79
REMARK SMILES IDX 62 80 64 81 61 82 57 83 58 84 59 85 60 86 39 87 40 88 48 89
REMARK SMILES IDX 41 90 47 91 49 92 46 93 42 94 43 95 44 96 45 97
REMARK H PARENT 5 6 1 9 1 10 1 11 10 31 69 50 37 61
REMARK Flexibility Score: inf
ROOT
ATOM      1  C   UNL A   1      31.027  29.246  24.625  1.00  0.00     0.023 C 
ENDROOT
BRANCH   1   2
ATOM      2  C   UNL A   1      31.010  29.040  23.109  1.00  0.00     0.116 C 
BRANCH   2   3
ATOM      3  N   UNL A   1      32.353  29.056  22.553  1.00  0.00    -0.351 N 
ATOM      4  C   UNL A   1      33.166  28.026  22.174  1.00  0.00     0.283 C 
ATOM      5  O   UNL A   1      34.305  28.321  21.789  1.00  0.00    -0.268 OA
ATOM      6  H   UNL A   1      32.739  29.953  22.431  1.00  0.00     0.163 HD
BRANCH   4   7
ATOM      7  C   UNL A   1      32.673  26.543  22.115  1.00  0.00     0.302 C 
BRANCH   7   8
ATOM      8  N   UNL A   1      32.699  26.071  20.710  1.00  0.00    -0.343 N 
ATOM      9  H   UNL A   1      32.663  26.875  20.081  1.00  0.00     0.345 HD
ATOM     10  H   UNL A   1      31.894  25.469  20.538  1.00  0.00     0.345 HD
ATOM     11  H   UNL A   1      33.559  25.547  20.543  1.00  0.00     0.345 HD
ENDBRANCH   7   8
BRANCH   7  12
ATOM     12  C   UNL A   1      33.437  25.579  23.000  1.00  0.00     0.019 A 
ATOM     13  C   UNL A   1      33.598  24.247  22.588  1.00  0.00     0.014 A 
ATOM     14  C   UNL A   1      33.912  25.954  24.264  1.00  0.00     0.014 A 
ATOM     15  C   UNL A   1      34.071  23.290  23.481  1.00  0.00     0.047 A 
ATOM     16  C   UNL A   1      34.391  24.990  25.157  1.00  0.00     0.047 A 
ATOM     17  C   UNL A   1      34.422  23.648  24.782  1.00  0.00     0.120 A 
BRANCH  17  18
ATOM     18  O   UNL A   1      34.757  22.591  25.575  1.00  0.00    -0.484 OA
BRANCH  18  19
ATOM     19  C   UNL A   1      34.031  21.385  25.429  1.00  0.00     0.329 C 
BRANCH  19  20
ATOM     20  C   UNL A   1      34.795  20.136  24.965  1.00  0.00     0.260 C 
ATOM     21  O   UNL A   1      36.030  20.142  24.933  1.00  0.00    -0.271 OA
ATOM     22  N   UNL A   1      34.074  19.005  24.653  1.00  0.00    -0.340 N 
ATOM     23  C   UNL A   1      32.630  18.854  24.614  1.00  0.00     0.119 C 
ATOM     24  C   UNL A   1      34.744  17.775  24.282  1.00  0.00     0.119 C 
ATOM     25  C   UNL A   1      32.417  17.353  24.684  1.00  0.00     0.023 C 
ATOM     26  C   UNL A   1      33.625  16.801  23.936  1.00  0.00     0.023 C 
ENDBRANCH  19  20
ENDBRANCH  18  19
ENDBRANCH  17  18
ENDBRANCH   7  12
ENDBRANCH   4   7
ENDBRANCH   2   3
ENDBRANCH   1   2
BRANCH   1  27
ATOM     27  C   UNL A   1      32.356  29.730  25.199  1.00  0.00     0.023 C 
BRANCH  27  28
ATOM     28  C   UNL A   1      32.322  30.108  26.672  1.00  0.00     0.116 C 
BRANCH  28  29
ATOM     29  N   UNL A   1      32.089  31.527  26.907  1.00  0.00    -0.352 N 
ATOM     30  C   UNL A   1      32.954  32.455  27.439  1.00  0.00     0.251 C 
ATOM     31  H   UNL A   1      31.198  31.863  26.653  1.00  0.00     0.163 HD
ATOM     32  O   UNL A   1      32.581  33.605  27.651  1.00  0.00    -0.269 OA
BRANCH  30  33
ATOM     33  C   UNL A   1      34.322  32.028  27.799  1.00  0.00     0.039 A 
ATOM     34  C   UNL A   1      35.319  32.996  27.939  1.00  0.00     0.014 A 
ATOM     35  C   UNL A   1      34.584  30.689  28.103  1.00  0.00     0.014 A 
ATOM     36  C   UNL A   1      36.552  32.639  28.490  1.00  0.00     0.010 A 
ATOM     37  C   UNL A   1      35.787  30.351  28.715  1.00  0.00     0.010 A 
ATOM     38  C   UNL A   1      36.772  31.327  28.938  1.00  0.00    -0.014 A 
BRANCH  38  39
ATOM     39  C   UNL A   1      37.996  30.952  29.692  1.00  0.00     0.031 A 
ATOM     40  C   UNL A   1      38.934  29.919  29.131  1.00  0.00     0.074 A 
ATOM     41  C   UNL A   1      38.189  31.445  30.933  1.00  0.00     0.049 A 
ATOM     42  N   UNL A   1      39.954  29.334  29.700  1.00  0.00    -0.248 NA
ATOM     43  C   UNL A   1      38.663  29.461  27.759  1.00  0.00     0.031 C 
ATOM     44  C   UNL A   1      37.318  32.415  31.604  1.00  0.00     0.029 A 
ATOM     45  N   UNL A   1      39.160  31.177  31.866  1.00  0.00    -0.354 N 
ATOM     46  C   UNL A   1      40.430  28.415  28.772  1.00  0.00     0.074 A 
ATOM     47  C   UNL A   1      39.564  28.500  27.614  1.00  0.00     0.031 C 
ATOM     48  C   UNL A   1      37.792  32.655  32.837  1.00  0.00     0.029 A 
ATOM     49  C   UNL A   1      38.969  31.824  33.067  1.00  0.00     0.049 A 
ATOM     50  H   UNL A   1      39.922  30.578  31.693  1.00  0.00     0.167 HD
ATOM     51  C   UNL A   1      41.496  27.586  28.875  1.00  0.00     0.034 A 
ATOM     52  C   UNL A   1      39.642  31.733  34.232  1.00  0.00     0.034 A 
ATOM     53  C   UNL A   1      42.372  27.545  30.019  1.00  0.00     0.049 A 
ATOM     54  C   UNL A   1      40.824  30.800  34.317  1.00  0.00     0.074 A 
ATOM     55  C   UNL A   1      43.550  26.835  30.173  1.00  0.00     0.029 A 
ATOM     56  N   UNL A   1      42.161  28.231  31.207  1.00  0.00    -0.354 N 
ATOM     57  N   UNL A   1      41.311  30.001  33.396  1.00  0.00    -0.248 NA
ATOM     58  C   UNL A   1      41.547  30.757  35.595  1.00  0.00     0.031 C 
ATOM     59  C   UNL A   1      44.017  27.041  31.477  1.00  0.00     0.029 A 
ATOM     60  C   UNL A   1      43.163  27.927  32.114  1.00  0.00     0.049 A 
ATOM     61  H   UNL A   1      41.410  28.843  31.379  1.00  0.00     0.167 HD
ATOM     62  C   UNL A   1      42.409  29.377  33.980  1.00  0.00     0.074 A 
ATOM     63  C   UNL A   1      42.524  29.904  35.324  1.00  0.00     0.031 C 
ATOM     64  C   UNL A   1      43.251  28.452  33.455  1.00  0.00     0.034 A 
BRANCH  51  65
ATOM     65  C   UNL A   1      41.761  26.638  27.735  1.00  0.00     0.023 A 
ATOM     66  C   UNL A   1      41.263  25.323  27.732  1.00  0.00     0.031 A 
ATOM     67  C   UNL A   1      42.518  27.062  26.629  1.00  0.00     0.131 A 
ATOM     68  C   UNL A   1      41.576  24.462  26.669  1.00  0.00     0.055 A 
ATOM     69  C   UNL A   1      42.768  26.220  25.543  1.00  0.00     0.041 A 
ATOM     70  F   UNL A   1      43.032  28.301  26.589  1.00  0.00    -0.206 F 
ATOM     71  C   UNL A   1      42.304  24.909  25.565  1.00  0.00     0.022 A 
BRANCH  68  72
ATOM     72  S   UNL A   1      41.097  22.718  26.798  1.00  0.00     0.124 S 
ATOM     73  O   UNL A   1      41.943  22.105  25.776  1.00  0.00    -0.237 OA
ATOM     74  O   UNL A   1      41.433  22.398  28.179  1.00  0.00    -0.237 OA
ATOM     75  O   UNL A   1      39.669  22.731  26.489  1.00  0.00    -0.744 OA
ENDBRANCH  68  72
ENDBRANCH  51  65
BRANCH  52  76
ATOM     76  C   UNL A   1      39.202  32.504  35.429  1.00  0.00     0.023 A 
ATOM     77  C   UNL A   1      39.634  33.822  35.642  1.00  0.00     0.031 A 
ATOM     78  C   UNL A   1      38.393  31.909  36.415  1.00  0.00     0.131 A 
ATOM     79  C   UNL A   1      39.303  34.484  36.835  1.00  0.00     0.055 A 
ATOM     80  C   UNL A   1      38.022  32.590  37.576  1.00  0.00     0.041 A 
ATOM     81  F   UNL A   1      37.949  30.652  36.260  1.00  0.00    -0.206 F 
ATOM     82  C   UNL A   1      38.491  33.881  37.798  1.00  0.00     0.022 A 
BRANCH  79  83
ATOM     83  S   UNL A   1      40.040  36.110  37.158  1.00  0.00     0.124 S 
ATOM     84  O   UNL A   1      41.407  35.752  37.521  1.00  0.00    -0.237 OA
ATOM     85  O   UNL A   1      39.872  36.777  35.871  1.00  0.00    -0.237 OA
ATOM     86  O   UNL A   1      39.225  36.643  38.246  1.00  0.00    -0.744 OA
ENDBRANCH  79  83
ENDBRANCH  52  76
BRANCH  64  87
ATOM     87  C   UNL A   1      44.383  27.982  34.330  1.00  0.00     0.023 A 
ATOM     88  C   UNL A   1      45.618  28.653  34.356  1.00  0.00     0.031 A 
ATOM     89  C   UNL A   1      44.224  26.848  35.145  1.00  0.00     0.131 A 
ATOM     90  C   UNL A   1      46.662  28.159  35.150  1.00  0.00     0.055 A 
ATOM     91  C   UNL A   1      45.250  26.390  35.972  1.00  0.00     0.041 A 
ATOM     92  F   UNL A   1      43.064  26.172  35.155  1.00  0.00    -0.206 F 
ATOM     93  C   UNL A   1      46.481  27.041  35.971  1.00  0.00     0.022 A 
BRANCH  90  94
ATOM     94  S   UNL A   1      48.285  28.961  35.055  1.00  0.00     0.124 S 
ATOM     95  O   UNL A   1      48.204  29.937  36.137  1.00  0.00    -0.237 OA
ATOM     96  O   UNL A   1      49.201  27.845  35.270  1.00  0.00    -0.237 OA
ATOM     97  O   UNL A   1      48.309  29.530  33.708  1.00  0.00    -0.744 OA
ENDBRANCH  90  94
ENDBRANCH  64  87
ENDBRANCH  38  39
ENDBRANCH  30  33
ENDBRANCH  28  29
ENDBRANCH  27  28
ENDBRANCH   1  27
TORSDOF 19
ENDMDL
MODEL 3
REMARK VINA RESULT:     -11.6      2.324      3.091
REMARK SMILES [NH3+][C@H](C(=O)NCCCCNC(=O)c1ccc(-c2c3nc(c(-c4cc(S(=O)(=O)[O-])ccc4F)c4ccc([nH]4)c(-c4cc(S(=O)(=O)[O-])ccc4F)c4nc(c(-c5cc(S(=O)(=O)[O-])ccc5F)c5ccc2[nH]5)C=C4)C=C3)cc1)c1ccc(OCC(=O)N2CCCC2)cc1
REMARK SMILES IDX 7 1 6 2 5 3 3 4 4 5 2 7 1 8 76 12 77 13 90 14 78 15 89 16
REMARK SMILES IDX 79 17 80 18 81 19 82 20 83 21 84 22 85 23 88 24 86 25 87 26
REMARK SMILES IDX 8 27 9 28 10 29 11 30 12 32 13 33 14 34 75 35 15 36 74 37
REMARK SMILES IDX 16 38 17 39 18 40 68 41 19 42 73 43 67 44 69 45 20 46 72 47
REMARK SMILES IDX 66 48 65 49 21 51 53 52 33 53 52 54 34 55 37 56 51 57 70 58
REMARK SMILES IDX 35 59 36 60 50 62 71 63 38 64 22 65 23 66 31 67 24 68 30 69
REMARK SMILES IDX 32 70 29 71 25 72 26 73 27 74 28 75 54 76 55 77 63 78 56 79
REMARK SMILES IDX 62 80 64 81 61 82 57 83 58 84 59 85 60 86 39 87 40 88 48 89
REMARK SMILES IDX 41 90 47 91 49 92 46 93 42 94 43 95 44 96 45 97
REMARK H PARENT 5 6 1 9 1 10 1 11 10 31 69 50 37 61
REMARK Flexibility Score: inf
ROOT
ATOM      1  C   UNL A   1      33.182  29.201  27.269  1.00  0.00     0.023 C 
ENDROOT
BRANCH   1   2
ATOM      2  C   UNL A   1      32.980  28.256  26.083  1.00  0.00     0.116 C 
BRANCH   2   3
ATOM      3  N   UNL A   1      33.658  28.742  24.893  1.00  0.00    -0.351 N 
ATOM      4  C   UNL A   1      33.739  28.206  23.639  1.00  0.00     0.283 C 
ATOM      5  O   UNL A   1      34.447  28.802  22.818  1.00  0.00    -0.268 OA
ATOM      6  H   UNL A   1      34.135  29.595  25.008  1.00  0.00     0.163 HD
BRANCH   4   7
ATOM      7  C   UNL A   1      32.903  26.959  23.203  1.00  0.00     0.302 C 
BRANCH   7   8
ATOM      8  N   UNL A   1      32.482  27.118  21.790  1.00  0.00    -0.343 N 
ATOM      9  H   UNL A   1      32.278  28.101  21.606  1.00  0.00     0.345 HD
ATOM     10  H   UNL A   1      31.645  26.560  21.620  1.00  0.00     0.345 HD
ATOM     11  H   UNL A   1      33.233  26.805  21.174  1.00  0.00     0.345 HD
ENDBRANCH   7   8
BRANCH   7  12
ATOM     12  C   UNL A   1      33.599  25.625  23.388  1.00  0.00     0.019 A 
ATOM     13  C   UNL A   1      33.386  24.602  22.452  1.00  0.00     0.014 A 
ATOM     14  C   UNL A   1      34.380  25.350  24.519  1.00  0.00     0.014 A 
ATOM     15  C   UNL A   1      33.806  23.304  22.726  1.00  0.00     0.047 A 
ATOM     16  C   UNL A   1      34.804  24.044  24.789  1.00  0.00     0.047 A 
ATOM     17  C   UNL A   1      34.472  23.011  23.915  1.00  0.00     0.120 A 
BRANCH  17  18
ATOM     18  O   UNL A   1      34.718  21.682  24.098  1.00  0.00    -0.484 OA
BRANCH  18  19
ATOM     19  C   UNL A   1      34.202  21.056  25.257  1.00  0.00     0.329 C 
BRANCH  19  20
ATOM     20  C   UNL A   1      33.072  20.031  25.080  1.00  0.00     0.260 C 
ATOM     21  O   UNL A   1      31.896  20.375  25.229  1.00  0.00    -0.271 OA
ATOM     22  N   UNL A   1      33.404  18.752  24.691  1.00  0.00    -0.340 N 
ATOM     23  C   UNL A   1      34.732  18.195  24.507  1.00  0.00     0.119 C 
ATOM     24  C   UNL A   1      32.376  17.763  24.436  1.00  0.00     0.119 C 
ATOM     25  C   UNL A   1      34.497  16.963  23.652  1.00  0.00     0.023 C 
ATOM     26  C   UNL A   1      33.130  16.479  24.119  1.00  0.00     0.023 C 
ENDBRANCH  19  20
ENDBRANCH  18  19
ENDBRANCH  17  18
ENDBRANCH   7  12
ENDBRANCH   4   7
ENDBRANCH   2   3
ENDBRANCH   1   2
BRANCH   1  27
ATOM     27  C   UNL A   1      32.640  30.614  27.073  1.00  0.00     0.023 C 
BRANCH  27  28
ATOM     28  C   UNL A   1      33.631  31.731  27.363  1.00  0.00     0.116 C 
BRANCH  28  29
ATOM     29  N   UNL A   1      33.004  33.027  27.582  1.00  0.00    -0.352 N 
ATOM     30  C   UNL A   1      33.349  33.996  28.497  1.00  0.00     0.251 C 
ATOM     31  H   UNL A   1      32.235  33.236  27.003  1.00  0.00     0.163 HD
ATOM     32  O   UNL A   1      32.668  35.010  28.617  1.00  0.00    -0.269 OA
BRANCH  30  33
ATOM     33  C   UNL A   1      34.521  33.768  29.367  1.00  0.00     0.039 A 
ATOM     34  C   UNL A   1      34.372  32.977  30.509  1.00  0.00     0.014 A 
ATOM     35  C   UNL A   1      35.781  34.242  28.991  1.00  0.00     0.014 A 
ATOM     36  C   UNL A   1      35.506  32.571  31.217  1.00  0.00     0.010 A 
ATOM     37  C   UNL A   1      36.911  33.779  29.655  1.00  0.00     0.010 A 
ATOM     38  C   UNL A   1      36.787  32.919  30.758  1.00  0.00    -0.014 A 
BRANCH  38  39
ATOM     39  C   UNL A   1      38.017  32.357  31.373  1.00  0.00     0.031 A 
ATOM     40  C   UNL A   1      38.743  31.227  30.698  1.00  0.00     0.074 A 
ATOM     41  C   UNL A   1      38.401  32.780  32.595  1.00  0.00     0.049 A 
ATOM     42  N   UNL A   1      39.725  30.491  31.146  1.00  0.00    -0.248 NA
ATOM     43  C   UNL A   1      38.275  30.855  29.354  1.00  0.00     0.031 C 
ATOM     44  C   UNL A   1      37.744  33.836  33.372  1.00  0.00     0.029 A 
ATOM     45  N   UNL A   1      39.416  32.353  33.417  1.00  0.00    -0.354 N 
ATOM     46  C   UNL A   1      39.974  29.547  30.157  1.00  0.00     0.074 A 
ATOM     47  C   UNL A   1      39.015  29.785  29.098  1.00  0.00     0.031 C 
ATOM     48  C   UNL A   1      38.369  33.970  34.553  1.00  0.00     0.029 A 
ATOM     49  C   UNL A   1      39.438  32.980  34.643  1.00  0.00     0.049 A 
ATOM     50  H   UNL A   1      40.067  31.663  33.154  1.00  0.00     0.167 HD
ATOM     51  C   UNL A   1      40.921  28.579  30.133  1.00  0.00     0.034 A 
ATOM     52  C   UNL A   1      40.207  32.762  35.729  1.00  0.00     0.034 A 
ATOM     53  C   UNL A   1      41.894  28.383  31.177  1.00  0.00     0.049 A 
ATOM     54  C   UNL A   1      41.252  31.676  35.673  1.00  0.00     0.074 A 
ATOM     55  C   UNL A   1      42.973  27.516  31.195  1.00  0.00     0.029 A 
ATOM     56  N   UNL A   1      41.901  29.052  32.393  1.00  0.00    -0.354 N 
ATOM     57  N   UNL A   1      41.528  30.848  34.692  1.00  0.00    -0.248 NA
ATOM     58  C   UNL A   1      42.087  31.493  36.867  1.00  0.00     0.031 C 
ATOM     59  C   UNL A   1      43.593  27.614  32.445  1.00  0.00     0.029 A 
ATOM     60  C   UNL A   1      42.938  28.586  33.185  1.00  0.00     0.049 A 
ATOM     61  H   UNL A   1      41.262  29.754  32.654  1.00  0.00     0.167 HD
ATOM     62  C   UNL A   1      42.584  30.063  35.146  1.00  0.00     0.074 A 
ATOM     63  C   UNL A   1      42.905  30.526  36.480  1.00  0.00     0.031 C 
ATOM     64  C   UNL A   1      43.233  29.051  34.518  1.00  0.00     0.034 A 
BRANCH  51  65
ATOM     65  C   UNL A   1      40.936  27.641  28.954  1.00  0.00     0.023 A 
ATOM     66  C   UNL A   1      41.879  27.766  27.918  1.00  0.00     0.031 A 
ATOM     67  C   UNL A   1      39.995  26.600  28.871  1.00  0.00     0.131 A 
ATOM     68  C   UNL A   1      41.824  26.898  26.818  1.00  0.00     0.055 A 
ATOM     69  C   UNL A   1      39.989  25.698  27.805  1.00  0.00     0.041 A 
ATOM     70  F   UNL A   1      39.061  26.447  29.823  1.00  0.00    -0.206 F 
ATOM     71  C   UNL A   1      40.901  25.851  26.766  1.00  0.00     0.022 A 
BRANCH  68  72
ATOM     72  S   UNL A   1      42.916  27.218  25.406  1.00  0.00     0.124 S 
ATOM     73  O   UNL A   1      42.201  28.289  24.718  1.00  0.00    -0.237 OA
ATOM     74  O   UNL A   1      44.166  27.598  26.053  1.00  0.00    -0.237 OA
ATOM     75  O   UNL A   1      42.943  25.940  24.697  1.00  0.00    -0.744 OA
ENDBRANCH  68  72
ENDBRANCH  51  65
BRANCH  52  76
ATOM     76  C   UNL A   1      40.000  33.546  36.980  1.00  0.00     0.023 A 
ATOM     77  C   UNL A   1      39.270  33.014  38.055  1.00  0.00     0.031 A 
ATOM     78  C   UNL A   1      40.472  34.866  37.093  1.00  0.00     0.131 A 
ATOM     79  C   UNL A   1      38.987  33.815  39.173  1.00  0.00     0.055 A 
ATOM     80  C   UNL A   1      40.233  35.641  38.230  1.00  0.00     0.041 A 
ATOM     81  F   UNL A   1      41.178  35.422  36.096  1.00  0.00    -0.206 F 
ATOM     82  C   UNL A   1      39.473  35.120  39.272  1.00  0.00     0.022 A 
BRANCH  79  83
ATOM     83  S   UNL A   1      37.881  33.157  40.452  1.00  0.00     0.124 S 
ATOM     84  O   UNL A   1      38.595  31.958  40.876  1.00  0.00    -0.237 OA
ATOM     85  O   UNL A   1      37.845  34.255  41.412  1.00  0.00    -0.237 OA
ATOM     86  O   UNL A   1      36.633  32.918  39.733  1.00  0.00    -0.744 OA
ENDBRANCH  79  83
ENDBRANCH  52  76
BRANCH  64  87
ATOM     87  C   UNL A   1      44.372  28.405  35.262  1.00  0.00     0.023 A 
ATOM     88  C   UNL A   1      44.144  27.444  36.262  1.00  0.00     0.031 A 
ATOM     89  C   UNL A   1      45.701  28.757  34.967  1.00  0.00     0.131 A 
ATOM     90  C   UNL A   1      45.228  26.898  36.963  1.00  0.00     0.055 A 
ATOM     91  C   UNL A   1      46.778  28.172  35.632  1.00  0.00     0.041 A 
ATOM     92  F   UNL A   1      45.971  29.670  34.021  1.00  0.00    -0.206 F 
ATOM     93  C   UNL A   1      46.545  27.244  36.643  1.00  0.00     0.022 A 
BRANCH  90  94
ATOM     94  S   UNL A   1      44.896  25.768  38.341  1.00  0.00     0.124 S 
ATOM     95  O   UNL A   1      43.734  26.390  38.969  1.00  0.00    -0.237 OA
ATOM     96  O   UNL A   1      44.650  24.502  37.658  1.00  0.00    -0.237 OA
ATOM     97  O   UNL A   1      46.126  25.816  39.130  1.00  0.00    -0.744 OA
ENDBRANCH  90  94
ENDBRANCH  64  87
ENDBRANCH  38  39
ENDBRANCH  30  33
ENDBRANCH  28  29
ENDBRANCH  27  28
ENDBRANCH   1  27
TORSDOF 19
ENDMDL
