MODEL 1
REMARK VINA RESULT:     -12.0      0.000      0.000
REMARK SMILES O=C(Cc1ccn[nH]1)NC[C@H]1CCCC[C@H]1C(=O)NCCCCNC(=O)c1ccc(-c2c3nc(c(-c4cc(S(=O)(=O)[O-])ccc4F)c4ccc([nH]4)c(-c4cc(S(=O)(=O)[O-])ccc4F)c4nc(c(-c5cc(S(=O)(=O)[O-])ccc5F)c5ccc2[nH]5)C=C4)C=C3)cc1
REMARK SMILES IDX 21 1 20 2 19 3 17 4 18 5 16 7 11 8 12 9 13 10 15 11 14 12
REMARK SMILES IDX 10 13 9 14 1 15 2 16 3 18 4 19 5 20 8 21 6 22 7 23 22 25
REMARK SMILES IDX 23 26 24 27 25 28 26 30 27 31 28 32 89 33 29 34 88 35 30 36
REMARK SMILES IDX 31 37 32 38 82 39 33 40 87 41 81 42 83 43 34 44 86 45 80 46
REMARK SMILES IDX 79 47 35 49 67 50 47 51 66 52 48 53 51 54 65 55 84 56 49 57
REMARK SMILES IDX 50 58 64 60 85 61 52 62 36 63 37 64 45 65 38 66 44 67 46 68
REMARK SMILES IDX 43 69 39 70 40 71 41 72 42 73 68 74 69 75 77 76 70 77 76 78
REMARK SMILES IDX 78 79 75 80 71 81 72 82 73 83 74 84 53 85 54 86 62 87 55 88
REMARK SMILES IDX 61 89 63 90 60 91 56 92 57 93 58 94 59 95
REMARK H PARENT 19 6 9 17 8 24 24 29 83 48 51 59
REMARK Flexibility Score: inf
ROOT
ATOM      1  C   UNL A   1      31.891  29.220  25.005  1.00  0.00     0.023 C 
ENDROOT
BRANCH   1   2
ATOM      2  C   UNL A   1      33.370  28.808  25.129  1.00  0.00     0.116 C 
BRANCH   2   3
ATOM      3  N   UNL A   1      33.828  27.617  24.447  1.00  0.00    -0.356 N 
ATOM      4  C   UNL A   1      33.518  26.297  24.455  1.00  0.00     0.223 C 
ATOM      5  O   UNL A   1      33.933  25.603  23.516  1.00  0.00    -0.275 OA
ATOM      6  H   UNL A   1      34.554  27.816  23.813  1.00  0.00     0.163 HD
BRANCH   4   7
ATOM      7  C   UNL A   1      32.750  25.614  25.574  1.00  0.00     0.083 C 
ATOM      8  C   UNL A   1      31.236  25.399  25.287  1.00  0.00     0.021 C 
ATOM      9  C   UNL A   1      30.732  23.956  25.541  1.00  0.00     0.006 C 
ATOM     10  C   UNL A   1      31.796  22.870  25.541  1.00  0.00     0.000 C 
ATOM     11  C   UNL A   1      33.589  24.508  26.235  1.00  0.00     0.014 C 
ATOM     12  C   UNL A   1      32.897  23.189  26.527  1.00  0.00     0.001 C 
BRANCH   8  13
ATOM     13  C   UNL A   1      30.666  25.939  23.940  1.00  0.00     0.120 C 
BRANCH  13  14
ATOM     14  N   UNL A   1      29.546  26.879  23.979  1.00  0.00    -0.355 N 
ATOM     15  O   UNL A   1      30.090  28.090  22.087  1.00  0.00    -0.275 OA
ATOM     16  C   UNL A   1      29.293  27.805  22.978  1.00  0.00     0.226 C 
ATOM     17  H   UNL A   1      28.941  26.852  24.756  1.00  0.00     0.163 HD
BRANCH  16  18
ATOM     18  C   UNL A   1      27.920  28.444  22.951  1.00  0.00     0.155 C 
BRANCH  18  19
ATOM     19  C   UNL A   1      28.035  29.883  22.550  1.00  0.00     0.044 A 
ATOM     20  C   UNL A   1      28.270  31.049  23.256  1.00  0.00     0.045 A 
ATOM     21  N   UNL A   1      27.836  30.289  21.258  1.00  0.00    -0.282 N 
ATOM     22  C   UNL A   1      28.270  32.071  22.292  1.00  0.00     0.135 A 
ATOM     23  N   UNL A   1      28.054  31.598  21.066  1.00  0.00    -0.184 NA
ATOM     24  H   UNL A   1      27.558  29.678  20.538  1.00  0.00     0.190 HD
ENDBRANCH  18  19
ENDBRANCH  16  18
ENDBRANCH  13  14
ENDBRANCH   8  13
ENDBRANCH   4   7
ENDBRANCH   2   3
ENDBRANCH   1   2
BRANCH   1  25
ATOM     25  C   UNL A   1      31.355  30.580  25.495  1.00  0.00     0.023 C 
BRANCH  25  26
ATOM     26  C   UNL A   1      31.677  31.034  26.926  1.00  0.00     0.116 C 
BRANCH  26  27
ATOM     27  N   UNL A   1      31.918  32.467  26.964  1.00  0.00    -0.352 N 
ATOM     28  C   UNL A   1      32.921  33.226  27.516  1.00  0.00     0.251 C 
ATOM     29  H   UNL A   1      31.229  32.998  26.502  1.00  0.00     0.163 HD
ATOM     30  O   UNL A   1      32.693  34.433  27.630  1.00  0.00    -0.269 OA
BRANCH  28  31
ATOM     31  C   UNL A   1      34.248  32.701  27.970  1.00  0.00     0.039 A 
ATOM     32  C   UNL A   1      34.273  31.389  28.473  1.00  0.00     0.014 A 
ATOM     33  C   UNL A   1      35.415  33.463  28.067  1.00  0.00     0.014 A 
ATOM     34  C   UNL A   1      35.426  30.859  29.072  1.00  0.00     0.010 A 
ATOM     35  C   UNL A   1      36.589  32.913  28.631  1.00  0.00     0.010 A 
ATOM     36  C   UNL A   1      36.606  31.611  29.161  1.00  0.00    -0.014 A 
BRANCH  36  37
ATOM     37  C   UNL A   1      37.811  31.034  29.844  1.00  0.00     0.031 A 
ATOM     38  C   UNL A   1      38.142  31.391  31.276  1.00  0.00     0.074 A 
ATOM     39  C   UNL A   1      38.596  30.142  29.204  1.00  0.00     0.049 A 
ATOM     40  N   UNL A   1      39.124  30.963  32.034  1.00  0.00    -0.248 NA
ATOM     41  C   UNL A   1      37.257  32.358  31.938  1.00  0.00     0.031 C 
ATOM     42  C   UNL A   1      38.407  29.699  27.823  1.00  0.00     0.029 A 
ATOM     43  N   UNL A   1      39.704  29.440  29.626  1.00  0.00    -0.354 N 
ATOM     44  C   UNL A   1      38.970  31.599  33.263  1.00  0.00     0.074 A 
ATOM     45  C   UNL A   1      37.833  32.487  33.125  1.00  0.00     0.031 C 
ATOM     46  C   UNL A   1      39.349  28.789  27.518  1.00  0.00     0.029 A 
ATOM     47  C   UNL A   1      40.237  28.610  28.664  1.00  0.00     0.049 A 
ATOM     48  H   UNL A   1      40.080  29.524  30.531  1.00  0.00     0.167 HD
ATOM     49  C   UNL A   1      39.688  31.445  34.406  1.00  0.00     0.034 A 
ATOM     50  C   UNL A   1      41.321  27.805  28.688  1.00  0.00     0.034 A 
ATOM     51  C   UNL A   1      40.827  30.567  34.548  1.00  0.00     0.049 A 
ATOM     52  C   UNL A   1      42.145  27.703  29.950  1.00  0.00     0.074 A 
ATOM     53  C   UNL A   1      41.608  30.342  35.671  1.00  0.00     0.029 A 
ATOM     54  N   UNL A   1      41.354  29.770  33.540  1.00  0.00    -0.354 N 
ATOM     55  N   UNL A   1      41.965  28.298  31.107  1.00  0.00    -0.248 NA
ATOM     56  C   UNL A   1      43.314  26.810  29.914  1.00  0.00     0.031 C 
ATOM     57  C   UNL A   1      42.642  29.464  35.325  1.00  0.00     0.029 A 
ATOM     58  C   UNL A   1      42.463  29.078  34.008  1.00  0.00     0.049 A 
ATOM     59  H   UNL A   1      40.994  29.706  32.626  1.00  0.00     0.167 HD
ATOM     60  C   UNL A   1      42.976  27.822  31.940  1.00  0.00     0.074 A 
ATOM     61  C   UNL A   1      43.750  26.879  31.162  1.00  0.00     0.031 C 
ATOM     62  C   UNL A   1      43.239  28.138  33.234  1.00  0.00     0.034 A 
BRANCH  49  63
ATOM     63  C   UNL A   1      39.271  32.269  35.605  1.00  0.00     0.023 A 
ATOM     64  C   UNL A   1      39.684  33.605  35.758  1.00  0.00     0.031 A 
ATOM     65  C   UNL A   1      38.447  31.718  36.603  1.00  0.00     0.131 A 
ATOM     66  C   UNL A   1      39.327  34.321  36.909  1.00  0.00     0.055 A 
ATOM     67  C   UNL A   1      38.032  32.462  37.710  1.00  0.00     0.041 A 
ATOM     68  F   UNL A   1      38.031  30.444  36.521  1.00  0.00    -0.206 F 
ATOM     69  C   UNL A   1      38.483  33.768  37.875  1.00  0.00     0.022 A 
BRANCH  66  70
ATOM     70  S   UNL A   1      40.085  35.945  37.192  1.00  0.00     0.124 S 
ATOM     71  O   UNL A   1      39.705  36.663  35.977  1.00  0.00    -0.237 OA
ATOM     72  O   UNL A   1      39.442  36.386  38.423  1.00  0.00    -0.237 OA
ATOM     73  O   UNL A   1      41.511  35.642  37.306  1.00  0.00    -0.744 OA
ENDBRANCH  66  70
ENDBRANCH  49  63
BRANCH  50  74
ATOM     74  C   UNL A   1      41.733  27.046  27.467  1.00  0.00     0.023 A 
ATOM     75  C   UNL A   1      41.547  25.657  27.371  1.00  0.00     0.031 A 
ATOM     76  C   UNL A   1      42.406  27.693  26.413  1.00  0.00     0.131 A 
ATOM     77  C   UNL A   1      42.080  24.952  26.280  1.00  0.00     0.055 A 
ATOM     78  C   UNL A   1      42.872  26.997  25.297  1.00  0.00     0.041 A 
ATOM     79  F   UNL A   1      42.627  29.016  26.460  1.00  0.00    -0.206 F 
ATOM     80  C   UNL A   1      42.726  25.615  25.234  1.00  0.00     0.022 A 
BRANCH  77  81
ATOM     81  S   UNL A   1      42.031  23.138  26.307  1.00  0.00     0.124 S 
ATOM     82  O   UNL A   1      42.923  22.834  27.419  1.00  0.00    -0.237 OA
ATOM     83  O   UNL A   1      40.612  22.875  26.531  1.00  0.00    -0.237 OA
ATOM     84  O   UNL A   1      42.530  22.764  24.985  1.00  0.00    -0.744 OA
ENDBRANCH  77  81
ENDBRANCH  50  74
BRANCH  62  85
ATOM     85  C   UNL A   1      44.383  27.413  33.906  1.00  0.00     0.023 A 
ATOM     86  C   UNL A   1      44.180  26.256  34.680  1.00  0.00     0.031 A 
ATOM     87  C   UNL A   1      45.697  27.900  33.783  1.00  0.00     0.131 A 
ATOM     88  C   UNL A   1      45.262  25.658  35.346  1.00  0.00     0.055 A 
ATOM     89  C   UNL A   1      46.778  27.267  34.398  1.00  0.00     0.041 A 
ATOM     90  F   UNL A   1      45.952  29.002  33.059  1.00  0.00    -0.206 F 
ATOM     91  C   UNL A   1      46.563  26.147  35.196  1.00  0.00     0.022 A 
BRANCH  88  92
ATOM     92  S   UNL A   1      44.939  24.280  36.481  1.00  0.00     0.124 S 
ATOM     93  O   UNL A   1      44.051  23.435  35.689  1.00  0.00    -0.237 OA
ATOM     94  O   UNL A   1      46.278  23.750  36.720  1.00  0.00    -0.237 OA
ATOM     95  O   UNL A   1      44.315  24.925  37.635  1.00  0.00    -0.744 OA
ENDBRANCH  88  92
ENDBRANCH  62  85
ENDBRANCH  36  37
ENDBRANCH  28  31
ENDBRANCH  26  27
ENDBRANCH  25  26
ENDBRANCH   1  25
TORSDOF 18
ENDMDL
MODEL 2
REMARK VINA RESULT:     -11.7      1.847      7.796
REMARK SMILES O=C(Cc1ccn[nH]1)NC[C@H]1CCCC[C@H]1C(=O)NCCCCNC(=O)c1ccc(-c2c3nc(c(-c4cc(S(=O)(=O)[O-])ccc4F)c4ccc([nH]4)c(-c4cc(S(=O)(=O)[O-])ccc4F)c4nc(c(-c5cc(S(=O)(=O)[O-])ccc5F)c5ccc2[nH]5)C=C4)C=C3)cc1
REMARK SMILES IDX 21 1 20 2 19 3 17 4 18 5 16 7 11 8 12 9 13 10 15 11 14 12
REMARK SMILES IDX 10 13 9 14 1 15 2 16 3 18 4 19 5 20 8 21 6 22 7 23 22 25
REMARK SMILES IDX 23 26 24 27 25 28 26 30 27 31 28 32 89 33 29 34 88 35 30 36
REMARK SMILES IDX 31 37 32 38 82 39 33 40 87 41 81 42 83 43 34 44 86 45 80 46
REMARK SMILES IDX 79 47 35 49 67 50 47 51 66 52 48 53 51 54 65 55 84 56 49 57
REMARK SMILES IDX 50 58 64 60 85 61 52 62 36 63 37 64 45 65 38 66 44 67 46 68
REMARK SMILES IDX 43 69 39 70 40 71 41 72 42 73 68 74 69 75 77 76 70 77 76 78
REMARK SMILES IDX 78 79 75 80 71 81 72 82 73 83 74 84 53 85 54 86 62 87 55 88
REMARK SMILES IDX 61 89 63 90 60 91 56 92 57 93 58 94 59 95
REMARK H PARENT 19 6 9 17 8 24 24 29 83 48 51 59
REMARK Flexibility Score: inf
ROOT
ATOM      1  C   UNL A   1      32.149  27.828  27.363  1.00  0.00     0.023 C 
ENDROOT
BRANCH   1   2
ATOM      2  C   UNL A   1      32.310  26.545  26.525  1.00  0.00     0.116 C 
BRANCH   2   3
ATOM      3  N   UNL A   1      31.443  25.418  26.790  1.00  0.00    -0.356 N 
ATOM      4  C   UNL A   1      31.504  24.071  26.642  1.00  0.00     0.223 C 
ATOM      5  O   UNL A   1      30.670  23.387  27.250  1.00  0.00    -0.275 OA
ATOM      6  H   UNL A   1      30.585  25.702  27.179  1.00  0.00     0.163 HD
BRANCH   4   7
ATOM      7  C   UNL A   1      32.490  23.365  25.726  1.00  0.00     0.083 C 
ATOM      8  C   UNL A   1      32.050  23.283  24.236  1.00  0.00     0.021 C 
ATOM      9  C   UNL A   1      33.124  23.750  23.223  1.00  0.00     0.006 C 
ATOM     10  C   UNL A   1      34.212  24.656  23.776  1.00  0.00     0.000 C 
ATOM     11  C   UNL A   1      33.942  23.703  26.099  1.00  0.00     0.014 C 
ATOM     12  C   UNL A   1      34.898  24.018  24.963  1.00  0.00     0.001 C 
BRANCH   8  13
ATOM     13  C   UNL A   1      30.657  23.872  23.854  1.00  0.00     0.120 C 
BRANCH  13  14
ATOM     14  N   UNL A   1      30.606  25.168  23.178  1.00  0.00    -0.355 N 
ATOM     15  O   UNL A   1      29.373  26.301  24.772  1.00  0.00    -0.275 OA
ATOM     16  C   UNL A   1      30.062  26.306  23.755  1.00  0.00     0.226 C 
ATOM     17  H   UNL A   1      30.976  25.235  22.269  1.00  0.00     0.163 HD
BRANCH  16  18
ATOM     18  C   UNL A   1      30.405  27.639  23.122  1.00  0.00     0.155 C 
BRANCH  18  19
ATOM     19  C   UNL A   1      29.199  28.528  23.118  1.00  0.00     0.044 A 
ATOM     20  C   UNL A   1      29.030  29.900  23.168  1.00  0.00     0.045 A 
ATOM     21  N   UNL A   1      27.929  28.018  23.126  1.00  0.00    -0.282 N 
ATOM     22  C   UNL A   1      27.642  30.104  23.120  1.00  0.00     0.135 A 
ATOM     23  N   UNL A   1      26.973  28.954  23.044  1.00  0.00    -0.184 NA
ATOM     24  H   UNL A   1      27.734  27.054  23.187  1.00  0.00     0.190 HD
ENDBRANCH  18  19
ENDBRANCH  16  18
ENDBRANCH  13  14
ENDBRANCH   8  13
ENDBRANCH   4   7
ENDBRANCH   2   3
ENDBRANCH   1   2
BRANCH   1  25
ATOM     25  C   UNL A   1      31.592  29.144  26.784  1.00  0.00     0.023 C 
BRANCH  25  26
ATOM     26  C   UNL A   1      32.506  30.017  25.913  1.00  0.00     0.116 C 
BRANCH  26  27
ATOM     27  N   UNL A   1      32.470  31.400  26.361  1.00  0.00    -0.352 N 
ATOM     28  C   UNL A   1      33.225  32.103  27.267  1.00  0.00     0.251 C 
ATOM     29  H   UNL A   1      31.768  31.938  25.928  1.00  0.00     0.163 HD
ATOM     30  O   UNL A   1      32.763  33.184  27.641  1.00  0.00    -0.269 OA
BRANCH  28  31
ATOM     31  C   UNL A   1      34.547  31.661  27.813  1.00  0.00     0.039 A 
ATOM     32  C   UNL A   1      34.605  30.373  28.372  1.00  0.00     0.014 A 
ATOM     33  C   UNL A   1      35.671  32.482  27.942  1.00  0.00     0.014 A 
ATOM     34  C   UNL A   1      35.746  29.922  29.054  1.00  0.00     0.010 A 
ATOM     35  C   UNL A   1      36.835  32.011  28.591  1.00  0.00     0.010 A 
ATOM     36  C   UNL A   1      36.882  30.734  29.175  1.00  0.00    -0.014 A 
BRANCH  36  37
ATOM     37  C   UNL A   1      38.072  30.243  29.946  1.00  0.00     0.031 A 
ATOM     38  C   UNL A   1      39.024  29.230  29.349  1.00  0.00     0.074 A 
ATOM     39  C   UNL A   1      38.343  30.738  31.172  1.00  0.00     0.049 A 
ATOM     40  N   UNL A   1      40.120  28.718  29.859  1.00  0.00    -0.248 NA
ATOM     41  C   UNL A   1      38.697  28.724  28.010  1.00  0.00     0.031 C 
ATOM     42  C   UNL A   1      37.520  31.717  31.881  1.00  0.00     0.029 A 
ATOM     43  N   UNL A   1      39.385  30.496  32.039  1.00  0.00    -0.354 N 
ATOM     44  C   UNL A   1      40.618  27.839  28.900  1.00  0.00     0.074 A 
ATOM     45  C   UNL A   1      39.669  27.847  27.805  1.00  0.00     0.031 C 
ATOM     46  C   UNL A   1      38.096  32.008  33.060  1.00  0.00     0.029 A 
ATOM     47  C   UNL A   1      39.308  31.208  33.216  1.00  0.00     0.049 A 
ATOM     48  H   UNL A   1      40.118  29.871  31.837  1.00  0.00     0.167 HD
ATOM     49  C   UNL A   1      41.766  27.113  28.915  1.00  0.00     0.034 A 
ATOM     50  C   UNL A   1      40.107  31.213  34.305  1.00  0.00     0.034 A 
ATOM     51  C   UNL A   1      42.714  27.096  30.007  1.00  0.00     0.049 A 
ATOM     52  C   UNL A   1      41.343  30.343  34.326  1.00  0.00     0.074 A 
ATOM     53  C   UNL A   1      43.906  26.396  30.104  1.00  0.00     0.029 A 
ATOM     54  N   UNL A   1      42.580  27.805  31.194  1.00  0.00    -0.354 N 
ATOM     55  N   UNL A   1      41.805  29.538  33.397  1.00  0.00    -0.248 NA
ATOM     56  C   UNL A   1      42.172  30.393  35.540  1.00  0.00     0.031 C 
ATOM     57  C   UNL A   1      44.457  26.630  31.369  1.00  0.00     0.029 A 
ATOM     58  C   UNL A   1      43.651  27.537  32.034  1.00  0.00     0.049 A 
ATOM     59  H   UNL A   1      41.833  28.410  31.407  1.00  0.00     0.167 HD
ATOM     60  C   UNL A   1      42.993  29.017  33.904  1.00  0.00     0.074 A 
ATOM     61  C   UNL A   1      43.188  29.610  35.209  1.00  0.00     0.031 C 
ATOM     62  C   UNL A   1      43.847  28.126  33.338  1.00  0.00     0.034 A 
BRANCH  49  63
ATOM     63  C   UNL A   1      42.057  26.248  27.708  1.00  0.00     0.023 A 
ATOM     64  C   UNL A   1      41.657  24.901  27.655  1.00  0.00     0.031 A 
ATOM     65  C   UNL A   1      42.736  26.775  26.594  1.00  0.00     0.131 A 
ATOM     66  C   UNL A   1      41.993  24.113  26.545  1.00  0.00     0.055 A 
ATOM     67  C   UNL A   1      43.000  26.005  25.459  1.00  0.00     0.041 A 
ATOM     68  F   UNL A   1      43.156  28.051  26.590  1.00  0.00    -0.206 F 
ATOM     69  C   UNL A   1      42.640  24.662  25.436  1.00  0.00     0.022 A 
BRANCH  66  70
ATOM     70  S   UNL A   1      41.687  22.326  26.624  1.00  0.00     0.124 S 
ATOM     71  O   UNL A   1      42.285  21.869  25.372  1.00  0.00    -0.237 OA
ATOM     72  O   UNL A   1      42.383  21.939  27.845  1.00  0.00    -0.237 OA
ATOM     73  O   UNL A   1      40.229  22.231  26.680  1.00  0.00    -0.744 OA
ENDBRANCH  66  70
ENDBRANCH  49  63
BRANCH  50  74
ATOM     74  C   UNL A   1      39.759  32.040  35.501  1.00  0.00     0.023 A 
ATOM     75  C   UNL A   1      38.936  31.540  36.524  1.00  0.00     0.031 A 
ATOM     76  C   UNL A   1      40.176  33.382  35.591  1.00  0.00     0.131 A 
ATOM     77  C   UNL A   1      38.506  32.389  37.556  1.00  0.00     0.055 A 
ATOM     78  C   UNL A   1      39.801  34.202  36.656  1.00  0.00     0.041 A 
ATOM     79  F   UNL A   1      40.949  33.918  34.633  1.00  0.00    -0.206 F 
ATOM     80  C   UNL A   1      38.947  33.711  37.638  1.00  0.00     0.022 A 
BRANCH  77  81
ATOM     81  S   UNL A   1      37.257  31.779  38.722  1.00  0.00     0.124 S 
ATOM     82  O   UNL A   1      37.031  30.424  38.233  1.00  0.00    -0.237 OA
ATOM     83  O   UNL A   1      37.952  31.893  40.001  1.00  0.00    -0.237 OA
ATOM     84  O   UNL A   1      36.139  32.702  38.539  1.00  0.00    -0.744 OA
ENDBRANCH  77  81
ENDBRANCH  50  74
BRANCH  62  85
ATOM     85  C   UNL A   1      45.101  27.781  34.109  1.00  0.00     0.023 A 
ATOM     86  C   UNL A   1      45.150  26.700  35.008  1.00  0.00     0.031 A 
ATOM     87  C   UNL A   1      46.262  28.559  33.952  1.00  0.00     0.131 A 
ATOM     88  C   UNL A   1      46.315  26.462  35.756  1.00  0.00     0.055 A 
ATOM     89  C   UNL A   1      47.436  28.282  34.655  1.00  0.00     0.041 A 
ATOM     90  F   UNL A   1      46.276  29.605  33.110  1.00  0.00    -0.206 F 
ATOM     91  C   UNL A   1      47.463  27.236  35.573  1.00  0.00     0.022 A 
BRANCH  88  92
ATOM     92  S   UNL A   1      46.285  25.178  37.038  1.00  0.00     0.124 S 
ATOM     93  O   UNL A   1      47.498  25.472  37.792  1.00  0.00    -0.237 OA
ATOM     94  O   UNL A   1      45.026  25.449  37.724  1.00  0.00    -0.237 OA
ATOM     95  O   UNL A   1      46.316  23.930  36.275  1.00  0.00    -0.744 OA
ENDBRANCH  88  92
ENDBRANCH  62  85
ENDBRANCH  36  37
ENDBRANCH  28  31
ENDBRANCH  26  27
ENDBRANCH  25  26
ENDBRANCH   1  25
TORSDOF 18
ENDMDL
MODEL 3
REMARK VINA RESULT:     -11.6      1.953      2.566
REMARK SMILES O=C(Cc1ccn[nH]1)NC[C@H]1CCCC[C@H]1C(=O)NCCCCNC(=O)c1ccc(-c2c3nc(c(-c4cc(S(=O)(=O)[O-])ccc4F)c4ccc([nH]4)c(-c4cc(S(=O)(=O)[O-])ccc4F)c4nc(c(-c5cc(S(=O)(=O)[O-])ccc5F)c5ccc2[nH]5)C=C4)C=C3)cc1
REMARK SMILES IDX 21 1 20 2 19 3 17 4 18 5 16 7 11 8 12 9 13 10 15 11 14 12
REMARK SMILES IDX 10 13 9 14 1 15 2 16 3 18 4 19 5 20 8 21 6 22 7 23 22 25
REMARK SMILES IDX 23 26 24 27 25 28 26 30 27 31 28 32 89 33 29 34 88 35 30 36
REMARK SMILES IDX 31 37 32 38 82 39 33 40 87 41 81 42 83 43 34 44 86 45 80 46
REMARK SMILES IDX 79 47 35 49 67 50 47 51 66 52 48 53 51 54 65 55 84 56 49 57
REMARK SMILES IDX 50 58 64 60 85 61 52 62 36 63 37 64 45 65 38 66 44 67 46 68
REMARK SMILES IDX 43 69 39 70 40 71 41 72 42 73 68 74 69 75 77 76 70 77 76 78
REMARK SMILES IDX 78 79 75 80 71 81 72 82 73 83 74 84 53 85 54 86 62 87 55 88
REMARK SMILES IDX 61 89 63 90 60 91 56 92 57 93 58 94 59 95
REMARK H PARENT 19 6 9 17 8 24 24 29 83 48 51 59
REMARK Flexibility Score: inf
ROOT
ATOM      1  C   UNL A   1      31.573  27.880  27.331  1.00  0.00     0.023 C 
ENDROOT
BRANCH   1   2
ATOM      2  C   UNL A   1      31.178  26.621  26.536  1.00  0.00     0.116 C 
BRANCH   2   3
ATOM      3  N   UNL A   1      31.787  25.354  26.877  1.00  0.00    -0.356 N 
ATOM      4  C   UNL A   1      32.274  24.282  26.205  1.00  0.00     0.223 C 
ATOM      5  O   UNL A   1      32.989  23.487  26.830  1.00  0.00    -0.275 OA
ATOM      6  H   UNL A   1      31.868  25.239  27.852  1.00  0.00     0.163 HD
BRANCH   4   7
ATOM      7  C   UNL A   1      31.941  23.969  24.756  1.00  0.00     0.083 C 
ATOM      8  C   UNL A   1      32.882  24.639  23.713  1.00  0.00     0.021 C 
ATOM      9  C   UNL A   1      33.454  23.671  22.648  1.00  0.00     0.006 C 
ATOM     10  C   UNL A   1      33.451  22.197  23.018  1.00  0.00     0.000 C 
ATOM     11  C   UNL A   1      31.496  22.507  24.586  1.00  0.00     0.014 C 
ATOM     12  C   UNL A   1      32.064  21.737  23.408  1.00  0.00     0.001 C 
BRANCH   8  13
ATOM     13  C   UNL A   1      34.006  25.580  24.245  1.00  0.00     0.120 C 
BRANCH  13  14
ATOM     14  N   UNL A   1      33.826  27.026  24.123  1.00  0.00    -0.355 N 
ATOM     15  O   UNL A   1      33.824  27.144  21.814  1.00  0.00    -0.275 OA
ATOM     16  C   UNL A   1      33.635  27.669  22.909  1.00  0.00     0.226 C 
ATOM     17  H   UNL A   1      33.841  27.569  24.944  1.00  0.00     0.163 HD
BRANCH  16  18
ATOM     18  C   UNL A   1      33.092  29.083  22.948  1.00  0.00     0.155 C 
BRANCH  18  19
ATOM     19  C   UNL A   1      31.617  29.069  22.689  1.00  0.00     0.044 A 
ATOM     20  C   UNL A   1      30.556  28.403  23.276  1.00  0.00     0.045 A 
ATOM     21  N   UNL A   1      31.061  29.770  21.653  1.00  0.00    -0.282 N 
ATOM     22  C   UNL A   1      29.417  28.832  22.576  1.00  0.00     0.135 A 
ATOM     23  N   UNL A   1      29.722  29.705  21.617  1.00  0.00    -0.184 NA
ATOM     24  H   UNL A   1      31.593  30.273  20.995  1.00  0.00     0.190 HD
ENDBRANCH  18  19
ENDBRANCH  16  18
ENDBRANCH  13  14
ENDBRANCH   8  13
ENDBRANCH   4   7
ENDBRANCH   2   3
ENDBRANCH   1   2
BRANCH   1  25
ATOM     25  C   UNL A   1      31.524  29.300  26.732  1.00  0.00     0.023 C 
BRANCH  25  26
ATOM     26  C   UNL A   1      32.836  29.965  26.291  1.00  0.00     0.116 C 
BRANCH  26  27
ATOM     27  N   UNL A   1      32.876  31.352  26.726  1.00  0.00    -0.352 N 
ATOM     28  C   UNL A   1      33.733  32.043  27.547  1.00  0.00     0.251 C 
ATOM     29  H   UNL A   1      32.148  31.904  26.360  1.00  0.00     0.163 HD
ATOM     30  O   UNL A   1      33.335  33.138  27.953  1.00  0.00    -0.269 OA
BRANCH  28  31
ATOM     31  C   UNL A   1      35.091  31.573  27.965  1.00  0.00     0.039 A 
ATOM     32  C   UNL A   1      35.178  30.277  28.500  1.00  0.00     0.014 A 
ATOM     33  C   UNL A   1      36.236  32.375  28.000  1.00  0.00     0.014 A 
ATOM     34  C   UNL A   1      36.369  29.800  29.070  1.00  0.00     0.010 A 
ATOM     35  C   UNL A   1      37.447  31.878  28.534  1.00  0.00     0.010 A 
ATOM     36  C   UNL A   1      37.526  30.592  29.097  1.00  0.00    -0.014 A 
BRANCH  36  37
ATOM     37  C   UNL A   1      38.773  30.072  29.749  1.00  0.00     0.031 A 
ATOM     38  C   UNL A   1      39.183  30.536  31.129  1.00  0.00     0.074 A 
ATOM     39  C   UNL A   1      39.527  29.137  29.132  1.00  0.00     0.049 A 
ATOM     40  N   UNL A   1      40.211  30.170  31.858  1.00  0.00    -0.248 NA
ATOM     41  C   UNL A   1      38.330  31.548  31.766  1.00  0.00     0.031 C 
ATOM     42  C   UNL A   1      39.262  28.591  27.802  1.00  0.00     0.029 A 
ATOM     43  N   UNL A   1      40.662  28.473  29.540  1.00  0.00    -0.354 N 
ATOM     44  C   UNL A   1      40.124  30.897  33.043  1.00  0.00     0.074 A 
ATOM     45  C   UNL A   1      38.973  31.767  32.905  1.00  0.00     0.031 C 
ATOM     46  C   UNL A   1      40.192  27.665  27.511  1.00  0.00     0.029 A 
ATOM     47  C   UNL A   1      41.145  27.575  28.614  1.00  0.00     0.049 A 
ATOM     48  H   UNL A   1      41.089  28.626  30.413  1.00  0.00     0.167 HD
ATOM     49  C   UNL A   1      40.908  30.832  34.150  1.00  0.00     0.034 A 
ATOM     50  C   UNL A   1      42.236  26.778  28.634  1.00  0.00     0.034 A 
ATOM     51  C   UNL A   1      42.060  29.971  34.291  1.00  0.00     0.049 A 
ATOM     52  C   UNL A   1      43.133  26.774  29.851  1.00  0.00     0.074 A 
ATOM     53  C   UNL A   1      42.907  29.834  35.380  1.00  0.00     0.029 A 
ATOM     54  N   UNL A   1      42.534  29.102  33.316  1.00  0.00    -0.354 N 
ATOM     55  N   UNL A   1      43.015  27.454  30.969  1.00  0.00    -0.248 NA
ATOM     56  C   UNL A   1      44.304  25.885  29.813  1.00  0.00     0.031 C 
ATOM     57  C   UNL A   1      43.926  28.936  35.041  1.00  0.00     0.029 A 
ATOM     58  C   UNL A   1      43.674  28.451  33.769  1.00  0.00     0.049 A 
ATOM     59  H   UNL A   1      42.122  28.969  32.432  1.00  0.00     0.167 HD
ATOM     60  C   UNL A   1      44.076  27.046  31.774  1.00  0.00     0.074 A 
ATOM     61  C   UNL A   1      44.811  26.050  31.026  1.00  0.00     0.031 C 
ATOM     62  C   UNL A   1      44.411  27.459  33.023  1.00  0.00     0.034 A 
BRANCH  49  63
ATOM     63  C   UNL A   1      40.554  31.742  35.306  1.00  0.00     0.023 A 
ATOM     64  C   UNL A   1      39.519  31.422  36.203  1.00  0.00     0.031 A 
ATOM     65  C   UNL A   1      41.262  32.938  35.521  1.00  0.00     0.131 A 
ATOM     66  C   UNL A   1      39.179  32.315  37.229  1.00  0.00     0.055 A 
ATOM     67  C   UNL A   1      40.969  33.786  36.592  1.00  0.00     0.041 A 
ATOM     68  F   UNL A   1      42.253  33.305  34.692  1.00  0.00    -0.206 F 
ATOM     69  C   UNL A   1      39.913  33.483  37.445  1.00  0.00     0.022 A 
BRANCH  66  70
ATOM     70  S   UNL A   1      37.681  31.993  38.201  1.00  0.00     0.124 S 
ATOM     71  O   UNL A   1      38.176  32.151  39.566  1.00  0.00    -0.237 OA
ATOM     72  O   UNL A   1      36.768  33.027  37.728  1.00  0.00    -0.237 OA
ATOM     73  O   UNL A   1      37.320  30.625  37.831  1.00  0.00    -0.744 OA
ENDBRANCH  66  70
ENDBRANCH  49  63
BRANCH  50  74
ATOM     74  C   UNL A   1      42.583  25.931  27.452  1.00  0.00     0.023 A 
ATOM     75  C   UNL A   1      42.264  24.564  27.412  1.00  0.00     0.031 A 
ATOM     76  C   UNL A   1      43.324  26.464  26.381  1.00  0.00     0.131 A 
ATOM     77  C   UNL A   1      42.734  23.765  26.358  1.00  0.00     0.055 A 
ATOM     78  C   UNL A   1      43.730  25.679  25.301  1.00  0.00     0.041 A 
ATOM     79  F   UNL A   1      43.672  27.761  26.374  1.00  0.00    -0.206 F 
ATOM     80  C   UNL A   1      43.450  24.317  25.294  1.00  0.00     0.022 A 
BRANCH  77  81
ATOM     81  S   UNL A   1      42.509  21.967  26.460  1.00  0.00     0.124 S 
ATOM     82  O   UNL A   1      42.313  21.773  27.892  1.00  0.00    -0.237 OA
ATOM     83  O   UNL A   1      41.336  21.758  25.618  1.00  0.00    -0.237 OA
ATOM     84  O   UNL A   1      43.761  21.436  25.924  1.00  0.00    -0.744 OA
ENDBRANCH  77  81
ENDBRANCH  50  74
BRANCH  62  85
ATOM     85  C   UNL A   1      45.598  26.791  33.680  1.00  0.00     0.023 A 
ATOM     86  C   UNL A   1      45.455  25.659  34.503  1.00  0.00     0.031 A 
ATOM     87  C   UNL A   1      46.892  27.307  33.491  1.00  0.00     0.131 A 
ATOM     88  C   UNL A   1      46.576  25.116  35.151  1.00  0.00     0.055 A 
ATOM     89  C   UNL A   1      48.012  26.728  34.090  1.00  0.00     0.041 A 
ATOM     90  F   UNL A   1      47.092  28.387  32.718  1.00  0.00    -0.206 F 
ATOM     91  C   UNL A   1      47.856  25.633  34.936  1.00  0.00     0.022 A 
BRANCH  88  92
ATOM     92  S   UNL A   1      46.332  23.774  36.347  1.00  0.00     0.124 S 
ATOM     93  O   UNL A   1      47.704  23.443  36.718  1.00  0.00    -0.237 OA
ATOM     94  O   UNL A   1      45.530  24.419  37.382  1.00  0.00    -0.237 OA
ATOM     95  O   UNL A   1      45.633  22.747  35.575  1.00  0.00    -0.744 OA
ENDBRANCH  88  92
ENDBRANCH  62  85
ENDBRANCH  36  37
ENDBRANCH  28  31
ENDBRANCH  26  27
ENDBRANCH  25  26
ENDBRANCH   1  25
TORSDOF 18
ENDMDL
