MODEL 1
REMARK VINA RESULT:     -13.3      0.000      0.000
REMARK SMILES COc1ccc(C2=NN(C(=O)CCC(=O)NCCCCNC(=O)c3ccc(-c4c5nc(c(-c6cc(S(=O)(=O)[O-])ccc6F)c6ccc([nH]6)c(-c6cc(S(=O)(=O)[O-])ccc6F)c6nc(c(-c7cc(S(=O)(=O)[O-])ccc7F)c7ccc4[nH]7)C=C6)C=C5)cc3)[C@H](c3ccc(Cl)cc3Cl)C2)cc1
REMARK SMILES IDX 17 1 16 2 14 3 15 4 13 6 12 7 10 8 11 9 9 10 7 11 8 12 96 13
REMARK SMILES IDX 87 14 6 15 3 16 4 17 98 18 5 19 97 20 2 21 1 22 88 23 89 24
REMARK SMILES IDX 94 25 90 26 93 27 95 28 91 29 92 30 18 31 19 32 20 33 21 34
REMARK SMILES IDX 22 35 23 37 24 38 25 39 86 40 26 41 85 42 27 43 28 44 29 45
REMARK SMILES IDX 79 46 30 47 84 48 78 49 80 50 31 51 83 52 77 53 76 54 32 56
REMARK SMILES IDX 64 57 44 58 63 59 45 60 48 61 62 62 81 63 46 64 47 65 61 67
REMARK SMILES IDX 82 68 49 69 33 70 34 71 42 72 35 73 41 74 43 75 40 76 36 77
REMARK SMILES IDX 37 78 38 79 39 80 65 81 66 82 74 83 67 84 73 85 75 86 72 87
REMARK SMILES IDX 68 88 69 89 70 90 71 91 50 92 51 93 59 94 52 95 58 96 60 97
REMARK SMILES IDX 57 98 53 99 54 100 55 101 56 102
REMARK H PARENT 16 5 21 36 80 55 48 66
REMARK Flexibility Score: inf
ROOT
ATOM      1  C   UNL A   1      34.312  32.719  28.576  1.00  0.00     0.116 C 
ENDROOT
BRANCH   1   2
ATOM      2  N   UNL A   1      35.641  31.814  28.511  1.00  0.00    -0.356 N 
ATOM      3  C   UNL A   1      36.031  30.541  28.211  1.00  0.00     0.220 C 
ATOM      4  O   UNL A   1      37.260  30.368  28.223  1.00  0.00    -0.275 OA
ATOM      5  H   UNL A   1      36.424  32.351  28.771  1.00  0.00     0.163 HD
BRANCH   3   6
ATOM      6  C   UNL A   1      35.159  29.344  27.818  1.00  0.00     0.110 C 
BRANCH   6   7
ATOM      7  C   UNL A   1      34.628  29.157  26.410  1.00  0.00     0.112 C 
BRANCH   7   8
ATOM      8  C   UNL A   1      33.543  28.170  26.533  1.00  0.00     0.243 C 
ATOM      9  O   UNL A   1      32.840  28.097  27.535  1.00  0.00    -0.273 OA
BRANCH   8  10
ATOM     10  N   UNL A   1      33.526  27.323  25.457  1.00  0.00    -0.225 N 
ATOM     11  C   UNL A   1      34.240  24.645  24.410  1.00  0.00     0.071 C 
ATOM     12  N   UNL A   1      34.447  25.633  25.674  1.00  0.00    -0.174 NA
ATOM     13  C   UNL A   1      33.434  25.594  22.902  1.00  0.00     0.091 C 
ATOM     14  C   UNL A   1      32.811  27.320  23.612  1.00  0.00     0.149 C 
BRANCH  11  15
ATOM     15  C   UNL A   1      33.855  23.107  24.424  1.00  0.00    -0.002 A 
ATOM     16  C   UNL A   1      33.304  20.271  24.351  1.00  0.00     0.118 A 
ATOM     17  C   UNL A   1      34.358  20.714  25.058  1.00  0.00     0.047 A 
ATOM     18  C   UNL A   1      32.383  21.268  23.932  1.00  0.00     0.047 A 
ATOM     19  C   UNL A   1      34.556  22.092  25.129  1.00  0.00     0.014 A 
ATOM     20  C   UNL A   1      32.648  22.669  23.950  1.00  0.00     0.014 A 
BRANCH  16  21
ATOM     21  O   UNL A   1      33.119  18.931  24.184  1.00  0.00    -0.497 OA
ATOM     22  C   UNL A   1      32.444  18.398  23.034  1.00  0.00     0.278 C 
ENDBRANCH  16  21
ENDBRANCH  11  15
BRANCH  14  23
ATOM     23  C   UNL A   1      31.382  27.716  23.117  1.00  0.00    -0.004 A 
ATOM     24  C   UNL A   1      31.223  28.967  22.475  1.00  0.00     0.009 A 
ATOM     25  C   UNL A   1      30.183  27.176  23.656  1.00  0.00     0.047 A 
ATOM     26  C   UNL A   1      29.986  29.622  22.368  1.00  0.00     0.021 A 
ATOM     27  C   UNL A   1      28.924  27.766  23.430  1.00  0.00     0.041 A 
ATOM     28  Cl  UNL A   1      30.124  25.968  24.893  1.00  0.00    -0.084 Cl
ATOM     29  C   UNL A   1      28.835  29.001  22.814  1.00  0.00     0.042 A 
ATOM     30  Cl  UNL A   1      27.317  29.800  22.699  1.00  0.00    -0.084 Cl
ENDBRANCH  14  23
ENDBRANCH   8  10
ENDBRANCH   7   8
ENDBRANCH   6   7
ENDBRANCH   3   6
ENDBRANCH   1   2
BRANCH   1  31
ATOM     31  C   UNL A   1      33.772  34.579  29.714  1.00  0.00     0.023 C 
BRANCH  31  32
ATOM     32  C   UNL A   1      34.335  34.732  31.561  1.00  0.00     0.023 C 
BRANCH  32  33
ATOM     33  C   UNL A   1      34.168  33.352  32.722  1.00  0.00     0.116 C 
BRANCH  33  34
ATOM     34  N   UNL A   1      35.248  32.661  33.479  1.00  0.00    -0.352 N 
ATOM     35  C   UNL A   1      36.583  33.190  33.553  1.00  0.00     0.251 C 
ATOM     36  H   UNL A   1      35.041  31.817  33.942  1.00  0.00     0.163 HD
ATOM     37  O   UNL A   1      36.913  33.738  34.609  1.00  0.00    -0.269 OA
BRANCH  35  38
ATOM     38  C   UNL A   1      37.718  32.842  32.570  1.00  0.00     0.039 A 
ATOM     39  C   UNL A   1      38.643  31.872  32.984  1.00  0.00     0.014 A 
ATOM     40  C   UNL A   1      38.058  33.476  31.367  1.00  0.00     0.014 A 
ATOM     41  C   UNL A   1      39.674  31.355  32.134  1.00  0.00     0.010 A 
ATOM     42  C   UNL A   1      39.104  32.946  30.499  1.00  0.00     0.010 A 
ATOM     43  C   UNL A   1      39.855  31.782  30.817  1.00  0.00    -0.014 A 
BRANCH  43  44
ATOM     44  C   UNL A   1      40.919  31.084  29.932  1.00  0.00     0.031 A 
ATOM     45  C   UNL A   1      42.209  31.820  29.701  1.00  0.00     0.074 A 
ATOM     46  C   UNL A   1      40.909  29.798  29.455  1.00  0.00     0.049 A 
ATOM     47  N   UNL A   1      43.307  31.399  29.127  1.00  0.00    -0.248 NA
ATOM     48  C   UNL A   1      42.281  33.185  30.229  1.00  0.00     0.031 C 
ATOM     49  C   UNL A   1      39.864  28.835  29.678  1.00  0.00     0.029 A 
ATOM     50  N   UNL A   1      41.794  29.026  28.706  1.00  0.00    -0.354 N 
ATOM     51  C   UNL A   1      44.223  32.429  29.270  1.00  0.00     0.074 A 
ATOM     52  C   UNL A   1      43.522  33.519  29.920  1.00  0.00     0.031 C 
ATOM     53  C   UNL A   1      40.080  27.659  29.092  1.00  0.00     0.029 A 
ATOM     54  C   UNL A   1      41.354  27.729  28.429  1.00  0.00     0.049 A 
ATOM     55  H   UNL A   1      42.664  29.368  28.394  1.00  0.00     0.167 HD
ATOM     56  C   UNL A   1      45.533  32.457  28.923  1.00  0.00     0.034 A 
ATOM     57  C   UNL A   1      41.864  26.667  27.764  1.00  0.00     0.034 A 
ATOM     58  C   UNL A   1      46.232  31.394  28.243  1.00  0.00     0.049 A 
ATOM     59  C   UNL A   1      43.257  26.793  27.238  1.00  0.00     0.074 A 
ATOM     60  C   UNL A   1      47.547  31.383  27.807  1.00  0.00     0.029 A 
ATOM     61  N   UNL A   1      45.687  30.170  27.875  1.00  0.00    -0.354 N 
ATOM     62  N   UNL A   1      44.081  27.800  27.380  1.00  0.00    -0.248 NA
ATOM     63  C   UNL A   1      43.803  25.650  26.499  1.00  0.00     0.031 C 
ATOM     64  C   UNL A   1      47.767  30.201  27.094  1.00  0.00     0.029 A 
ATOM     65  C   UNL A   1      46.627  29.421  27.176  1.00  0.00     0.049 A 
ATOM     66  H   UNL A   1      44.771  29.876  28.081  1.00  0.00     0.167 HD
ATOM     67  C   UNL A   1      45.264  27.393  26.785  1.00  0.00     0.074 A 
ATOM     68  C   UNL A   1      45.051  26.045  26.300  1.00  0.00     0.031 C 
ATOM     69  C   UNL A   1      46.422  28.087  26.665  1.00  0.00     0.034 A 
BRANCH  56  70
ATOM     70  C   UNL A   1      46.263  33.742  29.212  1.00  0.00     0.023 A 
ATOM     71  C   UNL A   1      46.352  34.770  28.258  1.00  0.00     0.031 A 
ATOM     72  C   UNL A   1      46.957  33.896  30.424  1.00  0.00     0.131 A 
ATOM     73  C   UNL A   1      47.203  35.858  28.491  1.00  0.00     0.055 A 
ATOM     74  C   UNL A   1      47.719  35.031  30.691  1.00  0.00     0.041 A 
ATOM     75  F   UNL A   1      46.931  32.929  31.354  1.00  0.00    -0.206 F 
ATOM     76  C   UNL A   1      47.864  36.011  29.712  1.00  0.00     0.022 A 
BRANCH  73  77
ATOM     77  S   UNL A   1      47.598  36.957  27.103  1.00  0.00     0.124 S 
ATOM     78  O   UNL A   1      47.818  38.228  27.791  1.00  0.00    -0.237 OA
ATOM     79  O   UNL A   1      48.781  36.328  26.528  1.00  0.00    -0.237 OA
ATOM     80  O   UNL A   1      46.396  36.905  26.274  1.00  0.00    -0.744 OA
ENDBRANCH  73  77
ENDBRANCH  56  70
BRANCH  57  81
ATOM     81  C   UNL A   1      41.078  25.398  27.536  1.00  0.00     0.023 A 
ATOM     82  C   UNL A   1      41.631  24.118  27.740  1.00  0.00     0.031 A 
ATOM     83  C   UNL A   1      39.773  25.455  27.006  1.00  0.00     0.131 A 
ATOM     84  C   UNL A   1      40.914  22.965  27.359  1.00  0.00     0.055 A 
ATOM     85  C   UNL A   1      39.042  24.305  26.688  1.00  0.00     0.041 A 
ATOM     86  F   UNL A   1      39.185  26.640  26.777  1.00  0.00    -0.206 F 
ATOM     87  C   UNL A   1      39.618  23.051  26.848  1.00  0.00     0.022 A 
BRANCH  84  88
ATOM     88  S   UNL A   1      41.741  21.346  27.418  1.00  0.00     0.124 S 
ATOM     89  O   UNL A   1      40.683  20.491  27.945  1.00  0.00    -0.237 OA
ATOM     90  O   UNL A   1      42.100  21.137  26.019  1.00  0.00    -0.237 OA
ATOM     91  O   UNL A   1      42.869  21.569  28.320  1.00  0.00    -0.744 OA
ENDBRANCH  84  88
ENDBRANCH  57  81
BRANCH  69  92
ATOM     92  C   UNL A   1      47.570  27.373  26.003  1.00  0.00     0.023 A 
ATOM     93  C   UNL A   1      48.502  26.628  26.746  1.00  0.00     0.031 A 
ATOM     94  C   UNL A   1      47.755  27.470  24.614  1.00  0.00     0.131 A 
ATOM     95  C   UNL A   1      49.618  26.074  26.106  1.00  0.00     0.055 A 
ATOM     96  C   UNL A   1      48.820  26.841  23.971  1.00  0.00     0.041 A 
ATOM     97  F   UNL A   1      46.906  28.184  23.857  1.00  0.00    -0.206 F 
ATOM     98  C   UNL A   1      49.770  26.152  24.720  1.00  0.00     0.022 A 
BRANCH  95  99
ATOM     99  S   UNL A   1      50.937  25.369  27.131  1.00  0.00     0.124 S 
ATOM    100  O   UNL A   1      51.763  24.692  26.137  1.00  0.00    -0.237 OA
ATOM    101  O   UNL A   1      51.525  26.557  27.743  1.00  0.00    -0.237 OA
ATOM    102  O   UNL A   1      50.221  24.487  28.051  1.00  0.00    -0.744 OA
ENDBRANCH  95  99
ENDBRANCH  69  92
ENDBRANCH  43  44
ENDBRANCH  35  38
ENDBRANCH  33  34
ENDBRANCH  32  33
ENDBRANCH  31  32
ENDBRANCH   1  31
TORSDOF 20
ENDMDL
MODEL 2
REMARK VINA RESULT:     -13.3      5.433     10.114
REMARK SMILES COc1ccc(C2=NN(C(=O)CCC(=O)NCCCCNC(=O)c3ccc(-c4c5nc(c(-c6cc(S(=O)(=O)[O-])ccc6F)c6ccc([nH]6)c(-c6cc(S(=O)(=O)[O-])ccc6F)c6nc(c(-c7cc(S(=O)(=O)[O-])ccc7F)c7ccc4[nH]7)C=C6)C=C5)cc3)[C@H](c3ccc(Cl)cc3Cl)C2)cc1
REMARK SMILES IDX 17 1 16 2 14 3 15 4 13 6 12 7 10 8 11 9 9 10 7 11 8 12 96 13
REMARK SMILES IDX 87 14 6 15 3 16 4 17 98 18 5 19 97 20 2 21 1 22 88 23 89 24
REMARK SMILES IDX 94 25 90 26 93 27 95 28 91 29 92 30 18 31 19 32 20 33 21 34
REMARK SMILES IDX 22 35 23 37 24 38 25 39 86 40 26 41 85 42 27 43 28 44 29 45
REMARK SMILES IDX 79 46 30 47 84 48 78 49 80 50 31 51 83 52 77 53 76 54 32 56
REMARK SMILES IDX 64 57 44 58 63 59 45 60 48 61 62 62 81 63 46 64 47 65 61 67
REMARK SMILES IDX 82 68 49 69 33 70 34 71 42 72 35 73 41 74 43 75 40 76 36 77
REMARK SMILES IDX 37 78 38 79 39 80 65 81 66 82 74 83 67 84 73 85 75 86 72 87
REMARK SMILES IDX 68 88 69 89 70 90 71 91 50 92 51 93 59 94 52 95 58 96 60 97
REMARK SMILES IDX 57 98 53 99 54 100 55 101 56 102
REMARK H PARENT 16 5 21 36 80 55 48 66
REMARK Flexibility Score: inf
ROOT
ATOM      1  C   UNL A   1      38.112  34.452  30.265  1.00  0.00     0.116 C 
ENDROOT
BRANCH   1   2
ATOM      2  N   UNL A   1      39.588  33.932  29.890  1.00  0.00    -0.356 N 
ATOM      3  C   UNL A   1      40.863  33.950  30.376  1.00  0.00     0.220 C 
ATOM      4  O   UNL A   1      41.670  33.276  29.716  1.00  0.00    -0.275 OA
ATOM      5  H   UNL A   1      39.562  33.444  29.036  1.00  0.00     0.163 HD
BRANCH   3   6
ATOM      6  C   UNL A   1      41.392  34.638  31.638  1.00  0.00     0.110 C 
BRANCH   6   7
ATOM      7  C   UNL A   1      42.219  33.904  32.675  1.00  0.00     0.112 C 
BRANCH   7   8
ATOM      8  C   UNL A   1      43.414  34.740  32.880  1.00  0.00     0.243 C 
ATOM      9  O   UNL A   1      43.630  35.318  33.940  1.00  0.00    -0.273 OA
BRANCH   8  10
ATOM     10  N   UNL A   1      44.141  34.849  31.724  1.00  0.00    -0.225 N 
ATOM     11  C   UNL A   1      45.898  33.479  29.773  1.00  0.00     0.071 C 
ATOM     12  N   UNL A   1      45.203  33.309  31.223  1.00  0.00    -0.174 NA
ATOM     13  C   UNL A   1      45.754  35.321  29.136  1.00  0.00     0.091 C 
ATOM     14  C   UNL A   1      44.467  36.213  30.329  1.00  0.00     0.149 C 
BRANCH  11  15
ATOM     15  C   UNL A   1      45.939  32.434  28.581  1.00  0.00    -0.002 A 
ATOM     16  C   UNL A   1      46.137  30.638  26.325  1.00  0.00     0.118 A 
ATOM     17  C   UNL A   1      47.182  30.755  27.162  1.00  0.00     0.047 A 
ATOM     18  C   UNL A   1      44.915  31.198  26.787  1.00  0.00     0.047 A 
ATOM     19  C   UNL A   1      47.030  31.577  28.277  1.00  0.00     0.014 A 
ATOM     20  C   UNL A   1      44.807  32.096  27.889  1.00  0.00     0.014 A 
BRANCH  16  21
ATOM     21  O   UNL A   1      46.268  29.912  25.179  1.00  0.00    -0.497 OA
ATOM     22  C   UNL A   1      46.706  28.545  25.195  1.00  0.00     0.278 C 
ENDBRANCH  16  21
ENDBRANCH  11  15
BRANCH  14  23
ATOM     23  C   UNL A   1      43.429  37.102  29.569  1.00  0.00    -0.004 A 
ATOM     24  C   UNL A   1      42.694  36.512  28.513  1.00  0.00     0.009 A 
ATOM     25  C   UNL A   1      43.493  38.520  29.520  1.00  0.00     0.047 A 
ATOM     26  C   UNL A   1      42.070  37.261  27.503  1.00  0.00     0.021 A 
ATOM     27  C   UNL A   1      42.755  39.274  28.586  1.00  0.00     0.041 A 
ATOM     28  Cl  UNL A   1      44.687  39.475  30.331  1.00  0.00    -0.084 Cl
ATOM     29  C   UNL A   1      42.073  38.641  27.564  1.00  0.00     0.042 A 
ATOM     30  Cl  UNL A   1      41.322  39.566  26.325  1.00  0.00    -0.084 Cl
ENDBRANCH  14  23
ENDBRANCH   8  10
ENDBRANCH   7   8
ENDBRANCH   6   7
ENDBRANCH   3   6
ENDBRANCH   1   2
BRANCH   1  31
ATOM     31  C   UNL A   1      36.333  33.473  31.225  1.00  0.00     0.023 C 
BRANCH  31  32
ATOM     32  C   UNL A   1      34.591  34.288  30.997  1.00  0.00     0.023 C 
BRANCH  32  33
ATOM     33  C   UNL A   1      33.804  34.408  29.370  1.00  0.00     0.116 C 
BRANCH  33  34
ATOM     34  N   UNL A   1      34.186  33.698  28.118  1.00  0.00    -0.352 N 
ATOM     35  C   UNL A   1      34.156  32.265  28.018  1.00  0.00     0.251 C 
ATOM     36  H   UNL A   1      34.467  34.227  27.336  1.00  0.00     0.163 HD
ATOM     37  O   UNL A   1      33.216  31.764  27.394  1.00  0.00    -0.269 OA
BRANCH  35  38
ATOM     38  C   UNL A   1      35.350  31.340  28.328  1.00  0.00     0.039 A 
ATOM     39  C   UNL A   1      36.634  31.877  28.151  1.00  0.00     0.014 A 
ATOM     40  C   UNL A   1      35.342  29.969  28.618  1.00  0.00     0.014 A 
ATOM     41  C   UNL A   1      37.833  31.185  28.518  1.00  0.00     0.010 A 
ATOM     42  C   UNL A   1      36.563  29.265  28.996  1.00  0.00     0.010 A 
ATOM     43  C   UNL A   1      37.828  29.905  29.076  1.00  0.00    -0.014 A 
BRANCH  43  44
ATOM     44  C   UNL A   1      39.165  29.280  29.553  1.00  0.00     0.031 A 
ATOM     45  C   UNL A   1      39.699  29.733  30.881  1.00  0.00     0.074 A 
ATOM     46  C   UNL A   1      39.854  28.234  28.993  1.00  0.00     0.049 A 
ATOM     47  N   UNL A   1      40.709  29.263  31.569  1.00  0.00    -0.248 NA
ATOM     48  C   UNL A   1      38.969  30.823  31.537  1.00  0.00     0.031 C 
ATOM     49  C   UNL A   1      39.464  27.516  27.810  1.00  0.00     0.029 A 
ATOM     50  N   UNL A   1      41.016  27.541  29.325  1.00  0.00    -0.354 N 
ATOM     51  C   UNL A   1      40.707  29.963  32.765  1.00  0.00     0.074 A 
ATOM     52  C   UNL A   1      39.638  30.939  32.672  1.00  0.00     0.031 C 
ATOM     53  C   UNL A   1      40.313  26.553  27.457  1.00  0.00     0.029 A 
ATOM     54  C   UNL A   1      41.369  26.524  28.433  1.00  0.00     0.049 A 
ATOM     55  H   UNL A   1      41.550  27.751  30.126  1.00  0.00     0.167 HD
ATOM     56  C   UNL A   1      41.497  29.791  33.852  1.00  0.00     0.034 A 
ATOM     57  C   UNL A   1      42.375  25.623  28.359  1.00  0.00     0.034 A 
ATOM     58  C   UNL A   1      42.587  28.851  33.944  1.00  0.00     0.049 A 
ATOM     59  C   UNL A   1      43.339  25.577  29.500  1.00  0.00     0.074 A 
ATOM     60  C   UNL A   1      43.467  28.668  34.997  1.00  0.00     0.029 A 
ATOM     61  N   UNL A   1      42.968  27.953  32.954  1.00  0.00    -0.354 N 
ATOM     62  N   UNL A   1      43.308  26.276  30.606  1.00  0.00    -0.248 NA
ATOM     63  C   UNL A   1      44.442  24.615  29.411  1.00  0.00     0.031 C 
ATOM     64  C   UNL A   1      44.435  27.738  34.609  1.00  0.00     0.029 A 
ATOM     65  C   UNL A   1      44.101  27.254  33.357  1.00  0.00     0.049 A 
ATOM     66  H   UNL A   1      42.504  27.829  32.095  1.00  0.00     0.167 HD
ATOM     67  C   UNL A   1      44.366  25.807  31.368  1.00  0.00     0.074 A 
ATOM     68  C   UNL A   1      45.001  24.753  30.603  1.00  0.00     0.031 C 
ATOM     69  C   UNL A   1      44.760  26.219  32.596  1.00  0.00     0.034 A 
BRANCH  56  70
ATOM     70  C   UNL A   1      41.242  30.727  35.005  1.00  0.00     0.023 A 
ATOM     71  C   UNL A   1      40.041  30.689  35.733  1.00  0.00     0.031 A 
ATOM     72  C   UNL A   1      42.176  31.731  35.311  1.00  0.00     0.131 A 
ATOM     73  C   UNL A   1      39.762  31.702  36.661  1.00  0.00     0.055 A 
ATOM     74  C   UNL A   1      41.936  32.673  36.309  1.00  0.00     0.041 A 
ATOM     75  F   UNL A   1      43.324  31.830  34.622  1.00  0.00    -0.206 F 
ATOM     76  C   UNL A   1      40.713  32.676  36.976  1.00  0.00     0.022 A 
BRANCH  73  77
ATOM     77  S   UNL A   1      38.069  31.850  37.293  1.00  0.00     0.124 S 
ATOM     78  O   UNL A   1      37.631  30.457  37.282  1.00  0.00    -0.237 OA
ATOM     79  O   UNL A   1      38.274  32.446  38.609  1.00  0.00    -0.237 OA
ATOM     80  O   UNL A   1      37.412  32.711  36.312  1.00  0.00    -0.744 OA
ENDBRANCH  73  77
ENDBRANCH  56  70
BRANCH  57  81
ATOM     81  C   UNL A   1      42.550  24.698  27.179  1.00  0.00     0.023 A 
ATOM     82  C   UNL A   1      42.067  23.373  27.176  1.00  0.00     0.031 A 
ATOM     83  C   UNL A   1      43.305  25.105  26.061  1.00  0.00     0.131 A 
ATOM     84  C   UNL A   1      42.395  22.498  26.121  1.00  0.00     0.055 A 
ATOM     85  C   UNL A   1      43.575  24.251  24.986  1.00  0.00     0.041 A 
ATOM     86  F   UNL A   1      43.806  26.349  25.997  1.00  0.00    -0.206 F 
ATOM     87  C   UNL A   1      43.134  22.934  25.019  1.00  0.00     0.022 A 
BRANCH  84  88
ATOM     88  S   UNL A   1      41.955  20.739  26.257  1.00  0.00     0.124 S 
ATOM     89  O   UNL A   1      42.861  20.131  25.288  1.00  0.00    -0.237 OA
ATOM     90  O   UNL A   1      42.235  20.463  27.661  1.00  0.00    -0.237 OA
ATOM     91  O   UNL A   1      40.540  20.710  25.889  1.00  0.00    -0.744 OA
ENDBRANCH  84  88
ENDBRANCH  57  81
BRANCH  69  92
ATOM     92  C   UNL A   1      45.926  25.492  33.209  1.00  0.00     0.023 A 
ATOM     93  C   UNL A   1      45.753  24.316  33.958  1.00  0.00     0.031 A 
ATOM     94  C   UNL A   1      47.228  26.004  33.073  1.00  0.00     0.131 A 
ATOM     95  C   UNL A   1      46.850  23.734  34.605  1.00  0.00     0.055 A 
ATOM     96  C   UNL A   1      48.329  25.370  33.646  1.00  0.00     0.041 A 
ATOM     97  F   UNL A   1      47.450  27.135  32.384  1.00  0.00    -0.206 F 
ATOM     98  C   UNL A   1      48.141  24.237  34.433  1.00  0.00     0.022 A 
BRANCH  95  99
ATOM     99  S   UNL A   1      46.543  22.393  35.786  1.00  0.00     0.124 S 
ATOM    100  O   UNL A   1      45.208  21.950  35.400  1.00  0.00    -0.237 OA
ATOM    101  O   UNL A   1      47.630  21.464  35.494  1.00  0.00    -0.237 OA
ATOM    102  O   UNL A   1      46.627  23.057  37.086  1.00  0.00    -0.744 OA
ENDBRANCH  95  99
ENDBRANCH  69  92
ENDBRANCH  43  44
ENDBRANCH  35  38
ENDBRANCH  33  34
ENDBRANCH  32  33
ENDBRANCH  31  32
ENDBRANCH   1  31
TORSDOF 20
ENDMDL
MODEL 3
REMARK VINA RESULT:     -12.6      3.827      4.757
REMARK SMILES COc1ccc(C2=NN(C(=O)CCC(=O)NCCCCNC(=O)c3ccc(-c4c5nc(c(-c6cc(S(=O)(=O)[O-])ccc6F)c6ccc([nH]6)c(-c6cc(S(=O)(=O)[O-])ccc6F)c6nc(c(-c7cc(S(=O)(=O)[O-])ccc7F)c7ccc4[nH]7)C=C6)C=C5)cc3)[C@H](c3ccc(Cl)cc3Cl)C2)cc1
REMARK SMILES IDX 17 1 16 2 14 3 15 4 13 6 12 7 10 8 11 9 9 10 7 11 8 12 96 13
REMARK SMILES IDX 87 14 6 15 3 16 4 17 98 18 5 19 97 20 2 21 1 22 88 23 89 24
REMARK SMILES IDX 94 25 90 26 93 27 95 28 91 29 92 30 18 31 19 32 20 33 21 34
REMARK SMILES IDX 22 35 23 37 24 38 25 39 86 40 26 41 85 42 27 43 28 44 29 45
REMARK SMILES IDX 79 46 30 47 84 48 78 49 80 50 31 51 83 52 77 53 76 54 32 56
REMARK SMILES IDX 64 57 44 58 63 59 45 60 48 61 62 62 81 63 46 64 47 65 61 67
REMARK SMILES IDX 82 68 49 69 33 70 34 71 42 72 35 73 41 74 43 75 40 76 36 77
REMARK SMILES IDX 37 78 38 79 39 80 65 81 66 82 74 83 67 84 73 85 75 86 72 87
REMARK SMILES IDX 68 88 69 89 70 90 71 91 50 92 51 93 59 94 52 95 58 96 60 97
REMARK SMILES IDX 57 98 53 99 54 100 55 101 56 102
REMARK H PARENT 16 5 21 36 80 55 48 66
REMARK Flexibility Score: inf
ROOT
ATOM      1  C   UNL A   1      34.085  33.071  27.890  1.00  0.00     0.116 C 
ENDROOT
BRANCH   1   2
ATOM      2  N   UNL A   1      35.378  32.195  28.277  1.00  0.00    -0.356 N 
ATOM      3  C   UNL A   1      35.798  30.897  28.304  1.00  0.00     0.220 C 
ATOM      4  O   UNL A   1      36.991  30.752  28.611  1.00  0.00    -0.275 OA
ATOM      5  H   UNL A   1      36.097  32.785  28.598  1.00  0.00     0.163 HD
BRANCH   3   6
ATOM      6  C   UNL A   1      35.006  29.632  27.954  1.00  0.00     0.110 C 
BRANCH   6   7
ATOM      7  C   UNL A   1      34.649  29.269  26.526  1.00  0.00     0.112 C 
BRANCH   7   8
ATOM      8  C   UNL A   1      33.458  28.410  26.631  1.00  0.00     0.243 C 
ATOM      9  O   UNL A   1      32.673  28.498  27.569  1.00  0.00    -0.273 OA
BRANCH   8  10
ATOM     10  N   UNL A   1      33.436  27.476  25.630  1.00  0.00    -0.225 N 
ATOM     11  C   UNL A   1      34.066  24.693  24.834  1.00  0.00     0.071 C 
ATOM     12  N   UNL A   1      34.278  25.775  26.017  1.00  0.00    -0.174 NA
ATOM     13  C   UNL A   1      33.346  25.541  23.226  1.00  0.00     0.091 C 
ATOM     14  C   UNL A   1      32.776  27.345  23.769  1.00  0.00     0.149 C 
BRANCH  11  15
ATOM     15  C   UNL A   1      33.616  23.178  24.965  1.00  0.00    -0.002 A 
ATOM     16  C   UNL A   1      32.657  20.454  25.087  1.00  0.00     0.118 A 
ATOM     17  C   UNL A   1      33.188  20.909  23.940  1.00  0.00     0.047 A 
ATOM     18  C   UNL A   1      32.873  21.271  26.231  1.00  0.00     0.047 A 
ATOM     19  C   UNL A   1      33.703  22.204  23.934  1.00  0.00     0.014 A 
ATOM     20  C   UNL A   1      33.333  22.620  26.182  1.00  0.00     0.014 A 
BRANCH  16  21
ATOM     21  O   UNL A   1      32.066  19.226  25.118  1.00  0.00    -0.497 OA
ATOM     22  C   UNL A   1      32.741  18.051  24.644  1.00  0.00     0.278 C 
ENDBRANCH  16  21
ENDBRANCH  11  15
BRANCH  14  23
ATOM     23  C   UNL A   1      31.380  27.754  23.197  1.00  0.00    -0.004 A 
ATOM     24  C   UNL A   1      31.275  28.994  22.523  1.00  0.00     0.009 A 
ATOM     25  C   UNL A   1      30.147  27.245  23.686  1.00  0.00     0.047 A 
ATOM     26  C   UNL A   1      30.056  29.667  22.342  1.00  0.00     0.021 A 
ATOM     27  C   UNL A   1      28.912  27.850  23.386  1.00  0.00     0.041 A 
ATOM     28  Cl  UNL A   1      30.006  26.063  24.941  1.00  0.00    -0.084 Cl
ATOM     29  C   UNL A   1      28.873  29.074  22.743  1.00  0.00     0.042 A 
ATOM     30  Cl  UNL A   1      27.378  29.895  22.537  1.00  0.00    -0.084 Cl
ENDBRANCH  14  23
ENDBRANCH   8  10
ENDBRANCH   7   8
ENDBRANCH   6   7
ENDBRANCH   3   6
ENDBRANCH   1   2
BRANCH   1  31
ATOM     31  C   UNL A   1      33.021  34.771  28.900  1.00  0.00     0.023 C 
BRANCH  31  32
ATOM     32  C   UNL A   1      33.540  35.249  30.704  1.00  0.00     0.023 C 
BRANCH  32  33
ATOM     33  C   UNL A   1      34.898  34.406  31.556  1.00  0.00     0.116 C 
BRANCH  33  34
ATOM     34  N   UNL A   1      34.825  33.178  32.395  1.00  0.00    -0.352 N 
ATOM     35  C   UNL A   1      35.865  32.829  33.324  1.00  0.00     0.251 C 
ATOM     36  H   UNL A   1      34.041  32.589  32.311  1.00  0.00     0.163 HD
ATOM     37  O   UNL A   1      35.641  33.028  34.521  1.00  0.00    -0.269 OA
BRANCH  35  38
ATOM     38  C   UNL A   1      37.077  31.938  32.986  1.00  0.00     0.039 A 
ATOM     39  C   UNL A   1      37.960  32.409  32.003  1.00  0.00     0.014 A 
ATOM     40  C   UNL A   1      37.347  30.631  33.414  1.00  0.00     0.014 A 
ATOM     41  C   UNL A   1      39.192  31.755  31.674  1.00  0.00     0.010 A 
ATOM     42  C   UNL A   1      38.604  29.968  33.084  1.00  0.00     0.010 A 
ATOM     43  C   UNL A   1      39.617  30.582  32.299  1.00  0.00    -0.014 A 
BRANCH  43  44
ATOM     44  C   UNL A   1      41.019  30.008  31.966  1.00  0.00     0.031 A 
ATOM     45  C   UNL A   1      42.151  30.394  32.874  1.00  0.00     0.074 A 
ATOM     46  C   UNL A   1      41.340  29.054  31.035  1.00  0.00     0.049 A 
ATOM     47  N   UNL A   1      43.378  29.939  32.902  1.00  0.00    -0.248 NA
ATOM     48  C   UNL A   1      41.843  31.382  33.912  1.00  0.00     0.031 C 
ATOM     49  C   UNL A   1      40.410  28.404  30.152  1.00  0.00     0.029 A 
ATOM     50  N   UNL A   1      42.519  28.413  30.659  1.00  0.00    -0.354 N 
ATOM     51  C   UNL A   1      43.978  30.545  33.994  1.00  0.00     0.074 A 
ATOM     52  C   UNL A   1      42.998  31.455  34.553  1.00  0.00     0.031 C 
ATOM     53  C   UNL A   1      40.974  27.526  29.324  1.00  0.00     0.029 A 
ATOM     54  C   UNL A   1      42.381  27.491  29.618  1.00  0.00     0.049 A 
ATOM     55  H   UNL A   1      43.385  28.596  31.093  1.00  0.00     0.167 HD
ATOM     56  C   UNL A   1      45.217  30.343  34.505  1.00  0.00     0.034 A 
ATOM     57  C   UNL A   1      43.221  26.664  28.955  1.00  0.00     0.034 A 
ATOM     58  C   UNL A   1      46.215  29.469  33.937  1.00  0.00     0.049 A 
ATOM     59  C   UNL A   1      44.634  26.594  29.435  1.00  0.00     0.074 A 
ATOM     60  C   UNL A   1      47.513  29.265  34.371  1.00  0.00     0.029 A 
ATOM     61  N   UNL A   1      46.049  28.675  32.809  1.00  0.00    -0.354 N 
ATOM     62  N   UNL A   1      45.164  27.205  30.465  1.00  0.00    -0.248 NA
ATOM     63  C   UNL A   1      45.551  25.714  28.704  1.00  0.00     0.031 C 
ATOM     64  C   UNL A   1      48.160  28.430  33.457  1.00  0.00     0.029 A 
ATOM     65  C   UNL A   1      47.239  28.021  32.509  1.00  0.00     0.049 A 
ATOM     66  H   UNL A   1      45.212  28.587  32.299  1.00  0.00     0.167 HD
ATOM     67  C   UNL A   1      46.470  26.747  30.532  1.00  0.00     0.074 A 
ATOM     68  C   UNL A   1      46.640  25.797  29.452  1.00  0.00     0.031 C 
ATOM     69  C   UNL A   1      47.431  27.090  31.423  1.00  0.00     0.034 A 
BRANCH  56  70
ATOM     70  C   UNL A   1      45.574  31.171  35.711  1.00  0.00     0.023 A 
ATOM     71  C   UNL A   1      45.235  30.763  37.012  1.00  0.00     0.031 A 
ATOM     72  C   UNL A   1      46.175  32.430  35.543  1.00  0.00     0.131 A 
ATOM     73  C   UNL A   1      45.405  31.652  38.083  1.00  0.00     0.055 A 
ATOM     74  C   UNL A   1      46.437  33.265  36.627  1.00  0.00     0.041 A 
ATOM     75  F   UNL A   1      46.488  32.880  34.318  1.00  0.00    -0.206 F 
ATOM     76  C   UNL A   1      46.031  32.888  37.904  1.00  0.00     0.022 A 
BRANCH  73  77
ATOM     77  S   UNL A   1      44.612  31.258  39.665  1.00  0.00     0.124 S 
ATOM     78  O   UNL A   1      43.205  31.502  39.354  1.00  0.00    -0.237 OA
ATOM     79  O   UNL A   1      44.989  29.864  39.870  1.00  0.00    -0.237 OA
ATOM     80  O   UNL A   1      45.212  32.212  40.595  1.00  0.00    -0.744 OA
ENDBRANCH  73  77
ENDBRANCH  56  70
BRANCH  57  81
ATOM     81  C   UNL A   1      42.781  25.843  27.766  1.00  0.00     0.023 A 
ATOM     82  C   UNL A   1      42.323  24.516  27.891  1.00  0.00     0.031 A 
ATOM     83  C   UNL A   1      42.913  26.355  26.460  1.00  0.00     0.131 A 
ATOM     84  C   UNL A   1      42.078  23.737  26.741  1.00  0.00     0.055 A 
ATOM     85  C   UNL A   1      42.609  25.597  25.323  1.00  0.00     0.041 A 
ATOM     86  F   UNL A   1      43.352  27.608  26.263  1.00  0.00    -0.206 F 
ATOM     87  C   UNL A   1      42.205  24.275  25.459  1.00  0.00     0.022 A 
BRANCH  84  88
ATOM     88  S   UNL A   1      41.714  21.965  26.930  1.00  0.00     0.124 S 
ATOM     89  O   UNL A   1      42.161  21.432  25.648  1.00  0.00    -0.237 OA
ATOM     90  O   UNL A   1      42.521  21.611  28.092  1.00  0.00    -0.237 OA
ATOM     91  O   UNL A   1      40.268  21.934  27.147  1.00  0.00    -0.744 OA
ENDBRANCH  84  88
ENDBRANCH  57  81
BRANCH  69  92
ATOM     92  C   UNL A   1      48.759  26.395  31.282  1.00  0.00     0.023 A 
ATOM     93  C   UNL A   1      49.678  26.755  30.282  1.00  0.00     0.031 A 
ATOM     94  C   UNL A   1      49.093  25.332  32.138  1.00  0.00     0.131 A 
ATOM     95  C   UNL A   1      50.851  26.009  30.114  1.00  0.00     0.055 A 
ATOM     96  C   UNL A   1      50.303  24.650  32.021  1.00  0.00     0.041 A 
ATOM     97  F   UNL A   1      48.245  24.932  33.099  1.00  0.00    -0.206 F 
ATOM     98  C   UNL A   1      51.184  24.976  30.994  1.00  0.00     0.022 A 
BRANCH  95  99
ATOM     99  S   UNL A   1      51.868  26.320  28.645  1.00  0.00     0.124 S 
ATOM    100  O   UNL A   1      53.219  26.226  29.188  1.00  0.00    -0.237 OA
ATOM    101  O   UNL A   1      51.465  25.239  27.751  1.00  0.00    -0.237 OA
ATOM    102  O   UNL A   1      51.458  27.659  28.224  1.00  0.00    -0.744 OA
ENDBRANCH  95  99
ENDBRANCH  69  92
ENDBRANCH  43  44
ENDBRANCH  35  38
ENDBRANCH  33  34
ENDBRANCH  32  33
ENDBRANCH  31  32
ENDBRANCH   1  31
TORSDOF 20
ENDMDL
