MODEL 1
REMARK VINA RESULT:     -11.1      0.000      0.000
REMARK SMILES Cc1c(CC(=O)NCCCCNC(=O)c2ccc(-c3c4nc(c(-c5cc(S(=O)(=O)[O-])ccc5F)c5ccc([nH]5)c(-c5cc(S(=O)(=O)[O-])ccc5F)c5nc(c(-c6cc(S(=O)(=O)[O-])ccc6F)c6ccc3[nH]6)C=C5)C=C4)cc2)cc(-c2ccc(S(C)(=O)=O)cc2)n1-c1cccc(F)c1
REMARK SMILES IDX 9 1 8 2 7 3 5 4 6 5 4 7 3 8 1 9 2 10 90 11 78 12 79 13 91 14
REMARK SMILES IDX 92 15 97 16 93 17 95 18 94 19 96 20 80 21 81 22 89 23 82 24
REMARK SMILES IDX 88 25 83 26 84 27 85 28 86 29 87 30 10 31 11 32 12 33 13 34
REMARK SMILES IDX 14 36 15 37 16 38 77 39 17 40 76 41 18 42 19 43 20 44 70 45
REMARK SMILES IDX 21 46 75 47 69 48 71 49 22 50 74 51 68 52 67 53 23 55 55 56
REMARK SMILES IDX 35 57 54 58 36 59 39 60 53 61 72 62 37 63 38 64 52 66 73 67
REMARK SMILES IDX 40 68 24 69 25 70 33 71 26 72 32 73 34 74 31 75 27 76 28 77
REMARK SMILES IDX 29 78 30 79 56 80 57 81 65 82 58 83 64 84 66 85 63 86 59 87
REMARK SMILES IDX 60 88 61 89 62 90 41 91 42 92 50 93 43 94 49 95 51 96 48 97
REMARK SMILES IDX 44 98 45 99 46 100 47 101
REMARK H PARENT 7 6 12 35 71 54 39 65
REMARK Flexibility Score: inf
ROOT
ATOM      1  C   UNL A   1      44.060  19.847  25.563  1.00  0.00     0.023 C 
ENDROOT
BRANCH   1   2
ATOM      2  C   UNL A   1      42.559  19.575  25.670  1.00  0.00     0.116 C 
BRANCH   2   3
ATOM      3  N   UNL A   1      42.019  19.946  26.967  1.00  0.00    -0.356 N 
ATOM      4  C   UNL A   1      41.224  20.995  27.321  1.00  0.00     0.224 C 
ATOM      5  O   UNL A   1      40.883  21.096  28.502  1.00  0.00    -0.275 OA
ATOM      6  H   UNL A   1      42.265  19.345  27.706  1.00  0.00     0.163 HD
BRANCH   4   7
ATOM      7  C   UNL A   1      40.766  21.997  26.278  1.00  0.00     0.137 C 
BRANCH   7   8
ATOM      8  C   UNL A   1      39.286  21.952  26.051  1.00  0.00    -0.017 A 
ATOM      9  C   UNL A   1      38.714  24.476  26.125  1.00  0.00     0.065 C 
ATOM     10  C   UNL A   1      38.411  23.024  25.934  1.00  0.00     0.024 A 
ATOM     11  N   UNL A   1      37.146  22.523  25.647  1.00  0.00    -0.313 N 
ATOM     12  C   UNL A   1      38.514  20.773  25.907  1.00  0.00     0.033 A 
ATOM     13  C   UNL A   1      37.214  21.131  25.602  1.00  0.00     0.053 A 
BRANCH  11  14
ATOM     14  C   UNL A   1      35.972  23.294  25.430  1.00  0.00     0.049 A 
ATOM     15  C   UNL A   1      35.115  23.562  26.506  1.00  0.00     0.027 A 
ATOM     16  C   UNL A   1      35.659  23.742  24.143  1.00  0.00     0.065 A 
ATOM     17  C   UNL A   1      33.941  24.287  26.294  1.00  0.00     0.005 A 
ATOM     18  C   UNL A   1      34.476  24.442  23.949  1.00  0.00     0.125 A 
ATOM     19  C   UNL A   1      33.617  24.721  25.009  1.00  0.00     0.039 A 
ATOM     20  F   UNL A   1      34.143  24.843  22.716  1.00  0.00    -0.207 F 
ENDBRANCH  11  14
BRANCH  13  21
ATOM     21  C   UNL A   1      36.141  20.237  25.156  1.00  0.00    -0.001 A 
ATOM     22  C   UNL A   1      36.432  18.939  24.705  1.00  0.00     0.011 A 
ATOM     23  C   UNL A   1      34.805  20.648  25.233  1.00  0.00     0.011 A 
ATOM     24  C   UNL A   1      35.409  18.074  24.314  1.00  0.00     0.021 A 
ATOM     25  C   UNL A   1      33.774  19.790  24.840  1.00  0.00     0.021 A 
ATOM     26  C   UNL A   1      34.084  18.509  24.376  1.00  0.00     0.067 A 
BRANCH  26  27
ATOM     27  S   UNL A   1      32.778  17.397  23.913  1.00  0.00     0.175 S 
ATOM     28  C   UNL A   1      33.282  15.830  24.569  1.00  0.00     0.163 C 
ATOM     29  O   UNL A   1      31.585  17.823  24.632  1.00  0.00    -0.224 OA
ATOM     30  O   UNL A   1      32.778  17.282  22.472  1.00  0.00    -0.224 OA
ENDBRANCH  26  27
ENDBRANCH  13  21
ENDBRANCH   7   8
ENDBRANCH   4   7
ENDBRANCH   2   3
ENDBRANCH   1   2
BRANCH   1  31
ATOM     31  C   UNL A   1      44.460  21.247  25.069  1.00  0.00     0.023 C 
BRANCH  31  32
ATOM     32  C   UNL A   1      44.512  22.396  26.087  1.00  0.00     0.116 C 
BRANCH  32  33
ATOM     33  N   UNL A   1      45.804  22.989  26.302  1.00  0.00    -0.352 N 
ATOM     34  C   UNL A   1      46.036  24.224  26.895  1.00  0.00     0.251 C 
ATOM     35  H   UNL A   1      46.591  22.477  26.005  1.00  0.00     0.163 HD
ATOM     36  O   UNL A   1      47.179  24.668  26.868  1.00  0.00    -0.269 OA
BRANCH  34  37
ATOM     37  C   UNL A   1      44.887  25.047  27.437  1.00  0.00     0.039 A 
ATOM     38  C   UNL A   1      44.283  25.944  26.583  1.00  0.00     0.014 A 
ATOM     39  C   UNL A   1      44.438  25.065  28.773  1.00  0.00     0.014 A 
ATOM     40  C   UNL A   1      43.225  26.776  27.048  1.00  0.00     0.010 A 
ATOM     41  C   UNL A   1      43.420  26.007  29.264  1.00  0.00     0.010 A 
ATOM     42  C   UNL A   1      42.772  26.925  28.420  1.00  0.00    -0.014 A 
BRANCH  42  43
ATOM     43  C   UNL A   1      41.975  28.339  28.784  1.00  0.00     0.031 A 
ATOM     44  C   UNL A   1      43.063  29.340  28.550  1.00  0.00     0.074 A 
ATOM     45  C   UNL A   1      40.808  28.905  29.338  1.00  0.00     0.049 A 
ATOM     46  N   UNL A   1      44.183  29.188  29.203  1.00  0.00    -0.248 NA
ATOM     47  C   UNL A   1      43.184  30.160  27.340  1.00  0.00     0.031 C 
ATOM     48  C   UNL A   1      39.680  28.213  29.986  1.00  0.00     0.029 A 
ATOM     49  N   UNL A   1      40.332  30.268  29.481  1.00  0.00    -0.354 N 
ATOM     50  C   UNL A   1      45.070  30.102  28.704  1.00  0.00     0.074 A 
ATOM     51  C   UNL A   1      44.481  30.489  27.424  1.00  0.00     0.031 C 
ATOM     52  C   UNL A   1      38.642  29.059  30.282  1.00  0.00     0.029 A 
ATOM     53  C   UNL A   1      38.951  30.450  29.931  1.00  0.00     0.049 A 
ATOM     54  H   UNL A   1      40.913  31.039  29.283  1.00  0.00     0.167 HD
ATOM     55  C   UNL A   1      45.654  30.902  29.644  1.00  0.00     0.034 A 
ATOM     56  C   UNL A   1      38.148  31.600  30.102  1.00  0.00     0.034 A 
ATOM     57  C   UNL A   1      44.947  32.153  29.751  1.00  0.00     0.049 A 
ATOM     58  C   UNL A   1      39.074  32.687  30.403  1.00  0.00     0.074 A 
ATOM     59  C   UNL A   1      44.431  33.024  28.810  1.00  0.00     0.029 A 
ATOM     60  N   UNL A   1      44.227  32.353  30.908  1.00  0.00    -0.354 N 
ATOM     61  N   UNL A   1      39.659  32.798  31.555  1.00  0.00    -0.248 NA
ATOM     62  C   UNL A   1      39.401  33.703  29.413  1.00  0.00     0.031 C 
ATOM     63  C   UNL A   1      43.111  33.265  29.253  1.00  0.00     0.029 A 
ATOM     64  C   UNL A   1      43.024  32.958  30.605  1.00  0.00     0.049 A 
ATOM     65  H   UNL A   1      44.523  32.103  31.812  1.00  0.00     0.167 HD
ATOM     66  C   UNL A   1      40.783  33.494  31.234  1.00  0.00     0.074 A 
ATOM     67  C   UNL A   1      40.453  34.239  30.029  1.00  0.00     0.031 C 
ATOM     68  C   UNL A   1      41.973  32.957  31.601  1.00  0.00     0.034 A 
BRANCH  55  69
ATOM     69  C   UNL A   1      46.220  30.155  30.835  1.00  0.00     0.023 A 
ATOM     70  C   UNL A   1      45.599  28.973  31.259  1.00  0.00     0.031 A 
ATOM     71  C   UNL A   1      47.310  30.627  31.605  1.00  0.00     0.131 A 
ATOM     72  C   UNL A   1      46.019  28.351  32.450  1.00  0.00     0.055 A 
ATOM     73  C   UNL A   1      47.670  30.053  32.823  1.00  0.00     0.041 A 
ATOM     74  F   UNL A   1      48.075  31.642  31.172  1.00  0.00    -0.206 F 
ATOM     75  C   UNL A   1      47.016  28.909  33.257  1.00  0.00     0.022 A 
BRANCH  72  76
ATOM     76  S   UNL A   1      45.284  26.759  32.907  1.00  0.00     0.124 S 
ATOM     77  O   UNL A   1      46.046  25.816  32.093  1.00  0.00    -0.237 OA
ATOM     78  O   UNL A   1      45.541  26.700  34.344  1.00  0.00    -0.237 OA
ATOM     79  O   UNL A   1      43.877  26.902  32.539  1.00  0.00    -0.744 OA
ENDBRANCH  72  76
ENDBRANCH  55  69
BRANCH  56  80
ATOM     80  C   UNL A   1      36.672  32.149  30.245  1.00  0.00     0.023 A 
ATOM     81  C   UNL A   1      36.144  32.777  31.459  1.00  0.00     0.031 A 
ATOM     82  C   UNL A   1      35.932  32.451  29.093  1.00  0.00     0.131 A 
ATOM     83  C   UNL A   1      35.000  33.649  31.457  1.00  0.00     0.055 A 
ATOM     84  C   UNL A   1      34.805  33.313  29.099  1.00  0.00     0.041 A 
ATOM     85  F   UNL A   1      36.344  32.009  27.896  1.00  0.00    -0.206 F 
ATOM     86  C   UNL A   1      34.346  33.925  30.264  1.00  0.00     0.022 A 
BRANCH  83  87
ATOM     87  S   UNL A   1      34.410  34.585  32.953  1.00  0.00     0.124 S 
ATOM     88  O   UNL A   1      35.292  35.744  32.989  1.00  0.00    -0.237 OA
ATOM     89  O   UNL A   1      33.006  34.840  32.645  1.00  0.00    -0.237 OA
ATOM     90  O   UNL A   1      34.614  33.641  34.056  1.00  0.00    -0.744 OA
ENDBRANCH  83  87
ENDBRANCH  56  80
BRANCH  68  91
ATOM     91  C   UNL A   1      42.065  32.283  32.966  1.00  0.00     0.023 A 
ATOM     92  C   UNL A   1      41.791  30.924  33.271  1.00  0.00     0.031 A 
ATOM     93  C   UNL A   1      42.417  33.108  34.050  1.00  0.00     0.131 A 
ATOM     94  C   UNL A   1      41.867  30.455  34.603  1.00  0.00     0.055 A 
ATOM     95  C   UNL A   1      42.540  32.634  35.355  1.00  0.00     0.041 A 
ATOM     96  F   UNL A   1      42.659  34.414  33.851  1.00  0.00    -0.206 F 
ATOM     97  C   UNL A   1      42.256  31.306  35.639  1.00  0.00     0.022 A 
BRANCH  94  98
ATOM     98  S   UNL A   1      41.385  28.743  35.025  1.00  0.00     0.124 S 
ATOM     99  O   UNL A   1      40.554  28.910  36.213  1.00  0.00    -0.237 OA
ATOM    100  O   UNL A   1      40.693  28.297  33.820  1.00  0.00    -0.237 OA
ATOM    101  O   UNL A   1      42.667  28.079  35.274  1.00  0.00    -0.744 OA
ENDBRANCH  94  98
ENDBRANCH  68  91
ENDBRANCH  42  43
ENDBRANCH  34  37
ENDBRANCH  32  33
ENDBRANCH  31  32
ENDBRANCH   1  31
TORSDOF 18
ENDMDL
MODEL 2
REMARK VINA RESULT:     -11.0      4.361      9.356
REMARK SMILES Cc1c(CC(=O)NCCCCNC(=O)c2ccc(-c3c4nc(c(-c5cc(S(=O)(=O)[O-])ccc5F)c5ccc([nH]5)c(-c5cc(S(=O)(=O)[O-])ccc5F)c5nc(c(-c6cc(S(=O)(=O)[O-])ccc6F)c6ccc3[nH]6)C=C5)C=C4)cc2)cc(-c2ccc(S(C)(=O)=O)cc2)n1-c1cccc(F)c1
REMARK SMILES IDX 9 1 8 2 7 3 5 4 6 5 4 7 3 8 1 9 2 10 90 11 78 12 79 13 91 14
REMARK SMILES IDX 92 15 97 16 93 17 95 18 94 19 96 20 80 21 81 22 89 23 82 24
REMARK SMILES IDX 88 25 83 26 84 27 85 28 86 29 87 30 10 31 11 32 12 33 13 34
REMARK SMILES IDX 14 36 15 37 16 38 77 39 17 40 76 41 18 42 19 43 20 44 70 45
REMARK SMILES IDX 21 46 75 47 69 48 71 49 22 50 74 51 68 52 67 53 23 55 55 56
REMARK SMILES IDX 35 57 54 58 36 59 39 60 53 61 72 62 37 63 38 64 52 66 73 67
REMARK SMILES IDX 40 68 24 69 25 70 33 71 26 72 32 73 34 74 31 75 27 76 28 77
REMARK SMILES IDX 29 78 30 79 56 80 57 81 65 82 58 83 64 84 66 85 63 86 59 87
REMARK SMILES IDX 60 88 61 89 62 90 41 91 42 92 50 93 43 94 49 95 51 96 48 97
REMARK SMILES IDX 44 98 45 99 46 100 47 101
REMARK H PARENT 7 6 12 35 71 54 39 65
REMARK Flexibility Score: inf
ROOT
ATOM      1  C   UNL A   1      45.193  24.670  26.614  1.00  0.00     0.023 C 
ENDROOT
BRANCH   1   2
ATOM      2  C   UNL A   1      46.441  25.550  26.672  1.00  0.00     0.116 C 
BRANCH   2   3
ATOM      3  N   UNL A   1      47.656  24.776  26.872  1.00  0.00    -0.356 N 
ATOM      4  C   UNL A   1      48.744  25.035  27.651  1.00  0.00     0.224 C 
ATOM      5  O   UNL A   1      49.661  24.210  27.663  1.00  0.00    -0.275 OA
ATOM      6  H   UNL A   1      47.699  23.933  26.367  1.00  0.00     0.163 HD
BRANCH   4   7
ATOM      7  C   UNL A   1      48.807  26.299  28.487  1.00  0.00     0.137 C 
BRANCH   7   8
ATOM      8  C   UNL A   1      48.953  26.012  29.950  1.00  0.00    -0.017 A 
ATOM      9  C   UNL A   1      46.685  26.888  30.838  1.00  0.00     0.065 C 
ATOM     10  C   UNL A   1      48.018  26.219  30.955  1.00  0.00     0.024 A 
ATOM     11  N   UNL A   1      48.544  25.733  32.147  1.00  0.00    -0.313 N 
ATOM     12  C   UNL A   1      50.103  25.458  30.566  1.00  0.00     0.033 A 
ATOM     13  C   UNL A   1      49.824  25.237  31.901  1.00  0.00     0.053 A 
BRANCH  11  14
ATOM     14  C   UNL A   1      47.894  25.735  33.410  1.00  0.00     0.049 A 
ATOM     15  C   UNL A   1      46.966  24.729  33.710  1.00  0.00     0.027 A 
ATOM     16  C   UNL A   1      48.151  26.761  34.325  1.00  0.00     0.065 A 
ATOM     17  C   UNL A   1      46.296  24.745  34.934  1.00  0.00     0.005 A 
ATOM     18  C   UNL A   1      47.457  26.771  35.528  1.00  0.00     0.125 A 
ATOM     19  C   UNL A   1      46.537  25.775  35.842  1.00  0.00     0.039 A 
ATOM     20  F   UNL A   1      47.663  27.769  36.397  1.00  0.00    -0.207 F 
ENDBRANCH  11  14
BRANCH  13  21
ATOM     21  C   UNL A   1      50.644  24.480  32.854  1.00  0.00    -0.001 A 
ATOM     22  C   UNL A   1      50.234  23.214  33.301  1.00  0.00     0.011 A 
ATOM     23  C   UNL A   1      51.877  24.988  33.280  1.00  0.00     0.011 A 
ATOM     24  C   UNL A   1      51.030  22.476  34.179  1.00  0.00     0.021 A 
ATOM     25  C   UNL A   1      52.679  24.258  34.161  1.00  0.00     0.021 A 
ATOM     26  C   UNL A   1      52.246  23.008  34.612  1.00  0.00     0.067 A 
BRANCH  26  27
ATOM     27  S   UNL A   1      53.278  22.055  35.701  1.00  0.00     0.175 S 
ATOM     28  C   UNL A   1      52.867  20.371  35.332  1.00  0.00     0.163 C 
ATOM     29  O   UNL A   1      54.655  22.285  35.287  1.00  0.00    -0.224 OA
ATOM     30  O   UNL A   1      52.855  22.316  37.059  1.00  0.00    -0.224 OA
ENDBRANCH  26  27
ENDBRANCH  13  21
ENDBRANCH   7   8
ENDBRANCH   4   7
ENDBRANCH   2   3
ENDBRANCH   1   2
BRANCH   1  31
ATOM     31  C   UNL A   1      44.390  24.720  25.303  1.00  0.00     0.023 C 
BRANCH  31  32
ATOM     32  C   UNL A   1      42.870  24.505  25.366  1.00  0.00     0.116 C 
BRANCH  32  33
ATOM     33  N   UNL A   1      42.433  23.284  25.987  1.00  0.00    -0.352 N 
ATOM     34  C   UNL A   1      41.784  23.191  27.212  1.00  0.00     0.251 C 
ATOM     35  H   UNL A   1      42.608  22.444  25.504  1.00  0.00     0.163 HD
ATOM     36  O   UNL A   1      41.613  22.073  27.687  1.00  0.00    -0.269 OA
BRANCH  34  37
ATOM     37  C   UNL A   1      41.421  24.438  27.989  1.00  0.00     0.039 A 
ATOM     38  C   UNL A   1      40.104  24.844  27.969  1.00  0.00     0.014 A 
ATOM     39  C   UNL A   1      42.323  25.295  28.650  1.00  0.00     0.014 A 
ATOM     40  C   UNL A   1      39.710  26.034  28.646  1.00  0.00     0.010 A 
ATOM     41  C   UNL A   1      41.919  26.576  29.251  1.00  0.00     0.010 A 
ATOM     42  C   UNL A   1      40.584  27.016  29.263  1.00  0.00    -0.014 A 
BRANCH  42  43
ATOM     43  C   UNL A   1      39.961  28.548  29.442  1.00  0.00     0.031 A 
ATOM     44  C   UNL A   1      41.215  29.363  29.415  1.00  0.00     0.074 A 
ATOM     45  C   UNL A   1      38.811  29.304  29.747  1.00  0.00     0.049 A 
ATOM     46  N   UNL A   1      42.150  29.075  30.278  1.00  0.00    -0.248 NA
ATOM     47  C   UNL A   1      41.692  30.103  28.242  1.00  0.00     0.031 C 
ATOM     48  C   UNL A   1      37.485  28.817  30.168  1.00  0.00     0.029 A 
ATOM     49  N   UNL A   1      38.533  30.728  29.774  1.00  0.00    -0.354 N 
ATOM     50  C   UNL A   1      43.247  29.824  29.953  1.00  0.00     0.074 A 
ATOM     51  C   UNL A   1      42.984  30.238  28.576  1.00  0.00     0.031 C 
ATOM     52  C   UNL A   1      36.553  29.821  30.242  1.00  0.00     0.029 A 
ATOM     53  C   UNL A   1      37.136  31.133  29.940  1.00  0.00     0.049 A 
ATOM     54  H   UNL A   1      39.252  31.394  29.685  1.00  0.00     0.167 HD
ATOM     55  C   UNL A   1      43.756  30.568  30.978  1.00  0.00     0.034 A 
ATOM     56  C   UNL A   1      36.503  32.396  29.933  1.00  0.00     0.034 A 
ATOM     57  C   UNL A   1      43.243  31.914  30.927  1.00  0.00     0.049 A 
ATOM     58  C   UNL A   1      37.510  33.345  30.397  1.00  0.00     0.074 A 
ATOM     59  C   UNL A   1      43.060  32.810  29.890  1.00  0.00     0.029 A 
ATOM     60  N   UNL A   1      42.353  32.270  31.915  1.00  0.00    -0.354 N 
ATOM     61  N   UNL A   1      37.871  33.418  31.640  1.00  0.00    -0.248 NA
ATOM     62  C   UNL A   1      38.175  34.257  29.477  1.00  0.00     0.031 C 
ATOM     63  C   UNL A   1      41.733  33.264  30.060  1.00  0.00     0.029 A 
ATOM     64  C   UNL A   1      41.340  33.034  31.372  1.00  0.00     0.049 A 
ATOM     65  H   UNL A   1      42.426  32.018  32.863  1.00  0.00     0.167 HD
ATOM     66  C   UNL A   1      39.129  33.924  31.538  1.00  0.00     0.074 A 
ATOM     67  C   UNL A   1      39.158  34.656  30.282  1.00  0.00     0.031 C 
ATOM     68  C   UNL A   1      40.128  33.233  32.141  1.00  0.00     0.034 A 
BRANCH  55  69
ATOM     69  C   UNL A   1      43.958  29.798  32.267  1.00  0.00     0.023 A 
ATOM     70  C   UNL A   1      42.896  29.050  32.791  1.00  0.00     0.031 A 
ATOM     71  C   UNL A   1      45.150  29.851  33.028  1.00  0.00     0.131 A 
ATOM     72  C   UNL A   1      43.020  28.453  34.060  1.00  0.00     0.055 A 
ATOM     73  C   UNL A   1      45.240  29.327  34.317  1.00  0.00     0.041 A 
ATOM     74  F   UNL A   1      46.272  30.388  32.520  1.00  0.00    -0.206 F 
ATOM     75  C   UNL A   1      44.165  28.627  34.844  1.00  0.00     0.022 A 
BRANCH  72  76
ATOM     76  S   UNL A   1      41.681  27.388  34.656  1.00  0.00     0.124 S 
ATOM     77  O   UNL A   1      42.316  26.074  34.689  1.00  0.00    -0.237 OA
ATOM     78  O   UNL A   1      41.377  27.972  35.960  1.00  0.00    -0.237 OA
ATOM     79  O   UNL A   1      40.631  27.546  33.651  1.00  0.00    -0.744 OA
ENDBRANCH  72  76
ENDBRANCH  55  69
BRANCH  56  80
ATOM     80  C   UNL A   1      35.130  33.165  29.774  1.00  0.00     0.023 A 
ATOM     81  C   UNL A   1      34.626  34.153  30.732  1.00  0.00     0.031 A 
ATOM     82  C   UNL A   1      34.533  33.259  28.509  1.00  0.00     0.131 A 
ATOM     83  C   UNL A   1      33.644  35.147  30.390  1.00  0.00     0.055 A 
ATOM     84  C   UNL A   1      33.564  34.243  28.179  1.00  0.00     0.041 A 
ATOM     85  F   UNL A   1      34.951  32.470  27.509  1.00  0.00    -0.206 F 
ATOM     86  C   UNL A   1      33.131  35.193  29.102  1.00  0.00     0.022 A 
BRANCH  83  87
ATOM     87  S   UNL A   1      33.109  36.511  31.537  1.00  0.00     0.124 S 
ATOM     88  O   UNL A   1      33.124  37.689  30.681  1.00  0.00    -0.237 OA
ATOM     89  O   UNL A   1      31.804  36.054  32.001  1.00  0.00    -0.237 OA
ATOM     90  O   UNL A   1      34.142  36.513  32.579  1.00  0.00    -0.744 OA
ENDBRANCH  83  87
ENDBRANCH  56  80
BRANCH  68  91
ATOM     91  C   UNL A   1      39.850  32.613  33.506  1.00  0.00     0.023 A 
ATOM     92  C   UNL A   1      39.792  33.283  34.756  1.00  0.00     0.031 A 
ATOM     93  C   UNL A   1      39.676  31.217  33.537  1.00  0.00     0.131 A 
ATOM     94  C   UNL A   1      39.580  32.560  35.952  1.00  0.00     0.055 A 
ATOM     95  C   UNL A   1      39.416  30.511  34.710  1.00  0.00     0.041 A 
ATOM     96  F   UNL A   1      39.750  30.504  32.400  1.00  0.00    -0.206 F 
ATOM     97  C   UNL A   1      39.377  31.179  35.926  1.00  0.00     0.022 A 
BRANCH  94  98
ATOM     98  S   UNL A   1      39.639  33.393  37.578  1.00  0.00     0.124 S 
ATOM     99  O   UNL A   1      40.372  32.449  38.414  1.00  0.00    -0.237 OA
ATOM    100  O   UNL A   1      40.328  34.644  37.274  1.00  0.00    -0.237 OA
ATOM    101  O   UNL A   1      38.226  33.546  37.935  1.00  0.00    -0.744 OA
ENDBRANCH  94  98
ENDBRANCH  68  91
ENDBRANCH  42  43
ENDBRANCH  34  37
ENDBRANCH  32  33
ENDBRANCH  31  32
ENDBRANCH   1  31
TORSDOF 18
ENDMDL
MODEL 3
REMARK VINA RESULT:     -10.9      5.166     11.589
REMARK SMILES Cc1c(CC(=O)NCCCCNC(=O)c2ccc(-c3c4nc(c(-c5cc(S(=O)(=O)[O-])ccc5F)c5ccc([nH]5)c(-c5cc(S(=O)(=O)[O-])ccc5F)c5nc(c(-c6cc(S(=O)(=O)[O-])ccc6F)c6ccc3[nH]6)C=C5)C=C4)cc2)cc(-c2ccc(S(C)(=O)=O)cc2)n1-c1cccc(F)c1
REMARK SMILES IDX 9 1 8 2 7 3 5 4 6 5 4 7 3 8 1 9 2 10 90 11 78 12 79 13 91 14
REMARK SMILES IDX 92 15 97 16 93 17 95 18 94 19 96 20 80 21 81 22 89 23 82 24
REMARK SMILES IDX 88 25 83 26 84 27 85 28 86 29 87 30 10 31 11 32 12 33 13 34
REMARK SMILES IDX 14 36 15 37 16 38 77 39 17 40 76 41 18 42 19 43 20 44 70 45
REMARK SMILES IDX 21 46 75 47 69 48 71 49 22 50 74 51 68 52 67 53 23 55 55 56
REMARK SMILES IDX 35 57 54 58 36 59 39 60 53 61 72 62 37 63 38 64 52 66 73 67
REMARK SMILES IDX 40 68 24 69 25 70 33 71 26 72 32 73 34 74 31 75 27 76 28 77
REMARK SMILES IDX 29 78 30 79 56 80 57 81 65 82 58 83 64 84 66 85 63 86 59 87
REMARK SMILES IDX 60 88 61 89 62 90 41 91 42 92 50 93 43 94 49 95 51 96 48 97
REMARK SMILES IDX 44 98 45 99 46 100 47 101
REMARK H PARENT 7 6 12 35 71 54 39 65
REMARK Flexibility Score: inf
ROOT
ATOM      1  C   UNL A   1      51.661  26.679  35.308  1.00  0.00     0.023 C 
ENDROOT
BRANCH   1   2
ATOM      2  C   UNL A   1      52.190  25.672  34.286  1.00  0.00     0.116 C 
BRANCH   2   3
ATOM      3  N   UNL A   1      52.542  24.399  34.893  1.00  0.00    -0.356 N 
ATOM      4  C   UNL A   1      52.117  23.138  34.600  1.00  0.00     0.224 C 
ATOM      5  O   UNL A   1      52.572  22.201  35.260  1.00  0.00    -0.275 OA
ATOM      6  H   UNL A   1      53.190  24.457  35.632  1.00  0.00     0.163 HD
BRANCH   4   7
ATOM      7  C   UNL A   1      51.121  22.905  33.480  1.00  0.00     0.137 C 
BRANCH   7   8
ATOM      8  C   UNL A   1      49.745  22.605  33.990  1.00  0.00    -0.017 A 
ATOM      9  C   UNL A   1      49.979  20.087  34.547  1.00  0.00     0.065 C 
ATOM     10  C   UNL A   1      49.269  21.403  34.497  1.00  0.00     0.024 A 
ATOM     11  N   UNL A   1      47.962  21.599  34.929  1.00  0.00    -0.313 N 
ATOM     12  C   UNL A   1      48.672  23.528  34.047  1.00  0.00     0.033 A 
ATOM     13  C   UNL A   1      47.601  22.923  34.676  1.00  0.00     0.053 A 
BRANCH  11  14
ATOM     14  C   UNL A   1      47.125  20.622  35.532  1.00  0.00     0.049 A 
ATOM     15  C   UNL A   1      46.160  19.967  34.755  1.00  0.00     0.027 A 
ATOM     16  C   UNL A   1      47.240  20.352  36.898  1.00  0.00     0.065 A 
ATOM     17  C   UNL A   1      45.310  19.032  35.347  1.00  0.00     0.005 A 
ATOM     18  C   UNL A   1      46.370  19.436  37.474  1.00  0.00     0.125 A 
ATOM     19  C   UNL A   1      45.411  18.772  36.714  1.00  0.00     0.039 A 
ATOM     20  F   UNL A   1      46.442  19.196  38.789  1.00  0.00    -0.207 F 
ENDBRANCH  11  14
BRANCH  13  21
ATOM     21  C   UNL A   1      46.373  23.577  35.141  1.00  0.00    -0.001 A 
ATOM     22  C   UNL A   1      45.322  23.841  34.248  1.00  0.00     0.011 A 
ATOM     23  C   UNL A   1      46.213  23.891  36.496  1.00  0.00     0.011 A 
ATOM     24  C   UNL A   1      44.139  24.431  34.696  1.00  0.00     0.021 A 
ATOM     25  C   UNL A   1      45.034  24.485  36.952  1.00  0.00     0.021 A 
ATOM     26  C   UNL A   1      44.005  24.759  36.046  1.00  0.00     0.067 A 
BRANCH  26  27
ATOM     27  S   UNL A   1      42.486  25.476  36.625  1.00  0.00     0.175 S 
ATOM     28  C   UNL A   1      41.948  26.505  35.286  1.00  0.00     0.163 C 
ATOM     29  O   UNL A   1      41.531  24.386  36.769  1.00  0.00    -0.224 OA
ATOM     30  O   UNL A   1      42.798  26.345  37.738  1.00  0.00    -0.224 OA
ENDBRANCH  26  27
ENDBRANCH  13  21
ENDBRANCH   7   8
ENDBRANCH   4   7
ENDBRANCH   2   3
ENDBRANCH   1   2
BRANCH   1  31
ATOM     31  C   UNL A   1      50.971  26.086  36.547  1.00  0.00     0.023 C 
BRANCH  31  32
ATOM     32  C   UNL A   1      49.480  25.728  36.455  1.00  0.00     0.116 C 
BRANCH  32  33
ATOM     33  N   UNL A   1      48.595  26.496  37.289  1.00  0.00    -0.352 N 
ATOM     34  C   UNL A   1      47.578  27.326  36.836  1.00  0.00     0.251 C 
ATOM     35  H   UNL A   1      48.721  26.427  38.263  1.00  0.00     0.163 HD
ATOM     36  O   UNL A   1      47.009  28.038  37.658  1.00  0.00    -0.269 OA
BRANCH  34  37
ATOM     37  C   UNL A   1      47.276  27.440  35.357  1.00  0.00     0.039 A 
ATOM     38  C   UNL A   1      45.957  27.570  34.982  1.00  0.00     0.014 A 
ATOM     39  C   UNL A   1      48.209  27.316  34.309  1.00  0.00     0.014 A 
ATOM     40  C   UNL A   1      45.607  27.638  33.602  1.00  0.00     0.010 A 
ATOM     41  C   UNL A   1      47.822  27.278  32.890  1.00  0.00     0.010 A 
ATOM     42  C   UNL A   1      46.488  27.423  32.468  1.00  0.00    -0.014 A 
BRANCH  42  43
ATOM     43  C   UNL A   1      45.759  26.970  31.043  1.00  0.00     0.031 A 
ATOM     44  C   UNL A   1      45.969  28.201  30.220  1.00  0.00     0.074 A 
ATOM     45  C   UNL A   1      44.942  26.010  30.411  1.00  0.00     0.049 A 
ATOM     46  N   UNL A   1      45.531  29.336  30.694  1.00  0.00    -0.248 NA
ATOM     47  C   UNL A   1      47.015  28.345  29.201  1.00  0.00     0.031 C 
ATOM     48  C   UNL A   1      44.268  24.848  31.017  1.00  0.00     0.029 A 
ATOM     49  N   UNL A   1      44.485  25.835  29.045  1.00  0.00    -0.354 N 
ATOM     50  C   UNL A   1      45.984  30.324  29.865  1.00  0.00     0.074 A 
ATOM     51  C   UNL A   1      47.069  29.682  29.126  1.00  0.00     0.031 C 
ATOM     52  C   UNL A   1      43.670  24.040  30.083  1.00  0.00     0.029 A 
ATOM     53  C   UNL A   1      43.806  24.578  28.725  1.00  0.00     0.049 A 
ATOM     54  H   UNL A   1      44.625  26.530  28.363  1.00  0.00     0.167 HD
ATOM     55  C   UNL A   1      45.014  31.160  29.389  1.00  0.00     0.034 A 
ATOM     56  C   UNL A   1      43.311  24.045  27.514  1.00  0.00     0.034 A 
ATOM     57  C   UNL A   1      44.576  30.733  28.084  1.00  0.00     0.049 A 
ATOM     58  C   UNL A   1      42.961  25.197  26.689  1.00  0.00     0.074 A 
ATOM     59  C   UNL A   1      45.256  30.297  26.962  1.00  0.00     0.029 A 
ATOM     60  N   UNL A   1      43.307  30.203  28.005  1.00  0.00    -0.354 N 
ATOM     61  N   UNL A   1      41.909  25.919  26.920  1.00  0.00    -0.248 NA
ATOM     62  C   UNL A   1      43.788  25.604  25.563  1.00  0.00     0.031 C 
ATOM     63  C   UNL A   1      44.583  29.110  26.593  1.00  0.00     0.029 A 
ATOM     64  C   UNL A   1      43.311  29.119  27.152  1.00  0.00     0.049 A 
ATOM     65  H   UNL A   1      42.519  30.545  28.484  1.00  0.00     0.167 HD
ATOM     66  C   UNL A   1      42.265  27.115  26.378  1.00  0.00     0.074 A 
ATOM     67  C   UNL A   1      43.251  26.806  25.356  1.00  0.00     0.031 C 
ATOM     68  C   UNL A   1      42.184  28.208  27.177  1.00  0.00     0.034 A 
BRANCH  55  69
ATOM     69  C   UNL A   1      44.077  31.697  30.452  1.00  0.00     0.023 A 
ATOM     70  C   UNL A   1      43.365  30.797  31.255  1.00  0.00     0.031 A 
ATOM     71  C   UNL A   1      43.815  33.076  30.635  1.00  0.00     0.131 A 
ATOM     72  C   UNL A   1      42.382  31.277  32.141  1.00  0.00     0.055 A 
ATOM     73  C   UNL A   1      42.787  33.540  31.454  1.00  0.00     0.041 A 
ATOM     74  F   UNL A   1      44.578  34.010  30.044  1.00  0.00    -0.206 F 
ATOM     75  C   UNL A   1      42.057  32.636  32.210  1.00  0.00     0.022 A 
BRANCH  72  76
ATOM     76  S   UNL A   1      41.567  30.104  33.256  1.00  0.00     0.124 S 
ATOM     77  O   UNL A   1      42.164  28.831  32.864  1.00  0.00    -0.237 OA
ATOM     78  O   UNL A   1      41.958  30.604  34.572  1.00  0.00    -0.237 OA
ATOM     79  O   UNL A   1      40.147  30.247  32.940  1.00  0.00    -0.744 OA
ENDBRANCH  72  76
ENDBRANCH  55  69
BRANCH  56  80
ATOM     80  C   UNL A   1      42.850  22.733  26.759  1.00  0.00     0.023 A 
ATOM     81  C   UNL A   1      43.737  21.903  25.939  1.00  0.00     0.031 A 
ATOM     82  C   UNL A   1      41.690  22.066  27.178  1.00  0.00     0.131 A 
ATOM     83  C   UNL A   1      43.459  20.526  25.631  1.00  0.00     0.055 A 
ATOM     84  C   UNL A   1      41.423  20.706  26.870  1.00  0.00     0.041 A 
ATOM     85  F   UNL A   1      40.825  22.677  27.999  1.00  0.00    -0.206 F 
ATOM     86  C   UNL A   1      42.303  19.931  26.117  1.00  0.00     0.022 A 
BRANCH  83  87
ATOM     87  S   UNL A   1      44.643  19.407  24.733  1.00  0.00     0.124 S 
ATOM     88  O   UNL A   1      45.927  19.724  25.343  1.00  0.00    -0.237 OA
ATOM     89  O   UNL A   1      44.102  18.079  24.998  1.00  0.00    -0.237 OA
ATOM     90  O   UNL A   1      44.524  19.828  23.332  1.00  0.00    -0.744 OA
ENDBRANCH  83  87
ENDBRANCH  56  80
BRANCH  68  91
ATOM     91  C   UNL A   1      40.994  28.320  28.124  1.00  0.00     0.023 A 
ATOM     92  C   UNL A   1      39.739  28.927  27.855  1.00  0.00     0.031 A 
ATOM     93  C   UNL A   1      41.174  27.805  29.420  1.00  0.00     0.131 A 
ATOM     94  C   UNL A   1      38.747  29.004  28.859  1.00  0.00     0.055 A 
ATOM     95  C   UNL A   1      40.177  27.836  30.393  1.00  0.00     0.041 A 
ATOM     96  F   UNL A   1      42.346  27.245  29.765  1.00  0.00    -0.206 F 
ATOM     97  C   UNL A   1      38.961  28.446  30.120  1.00  0.00     0.022 A 
BRANCH  94  98
ATOM     98  S   UNL A   1      37.182  29.902  28.566  1.00  0.00     0.124 S 
ATOM     99  O   UNL A   1      36.286  29.358  29.581  1.00  0.00    -0.237 OA
ATOM    100  O   UNL A   1      37.573  31.297  28.744  1.00  0.00    -0.237 OA
ATOM    101  O   UNL A   1      36.831  29.537  27.192  1.00  0.00    -0.744 OA
ENDBRANCH  94  98
ENDBRANCH  68  91
ENDBRANCH  42  43
ENDBRANCH  34  37
ENDBRANCH  32  33
ENDBRANCH  31  32
ENDBRANCH   1  31
TORSDOF 18
ENDMDL
