MODEL 1
REMARK VINA RESULT:     -12.6      0.000      0.000
REMARK SMILES O=C(NCCCCNC(=O)[C@@H]1CS[C@]2(c3ccccc3)CCC(=O)N12)c1ccc(-c2c3nc(c(-c4cc(S(=O)(=O)[O-])ccc4F)c4ccc([nH]4)c(-c4cc(S(=O)(=O)[O-])ccc4F)c4nc(c(-c5cc(S(=O)(=O)[O-])ccc5F)c5ccc2[nH]5)C=C4)C=C3)cc1
REMARK SMILES IDX 4 1 3 2 1 3 2 4 26 6 27 7 88 8 28 9 87 10 29 11 30 12 31 13
REMARK SMILES IDX 81 14 32 15 86 16 80 17 82 18 33 19 85 20 79 21 78 22 34 24
REMARK SMILES IDX 66 25 46 26 65 27 47 28 50 29 64 30 83 31 48 32 49 33 63 35
REMARK SMILES IDX 84 36 51 37 35 38 36 39 44 40 37 41 43 42 45 43 42 44 38 45
REMARK SMILES IDX 39 46 40 47 41 48 67 49 68 50 76 51 69 52 75 53 77 54 74 55
REMARK SMILES IDX 70 56 71 57 72 58 73 59 52 60 53 61 61 62 54 63 60 64 62 65
REMARK SMILES IDX 59 66 55 67 56 68 57 69 58 70 5 71 6 72 7 73 8 74 9 75 10 77
REMARK SMILES IDX 11 78 12 79 25 80 13 81 14 82 23 83 21 84 22 85 24 86 15 87
REMARK SMILES IDX 16 88 20 89 17 90 19 91 18 92
REMARK H PARENT 3 5 82 23 50 34 8 76
REMARK Flexibility Score: inf
ROOT
ATOM      1  C   UNL A   1      36.349  21.907  25.750  1.00  0.00     0.116 C 
ENDROOT
BRANCH   1   2
ATOM      2  N   UNL A   1      37.388  20.886  25.718  1.00  0.00    -0.352 N 
ATOM      3  O   UNL A   1      39.473  20.031  25.731  1.00  0.00    -0.269 OA
ATOM      4  C   UNL A   1      38.741  20.995  25.937  1.00  0.00     0.251 C 
ATOM      5  H   UNL A   1      37.072  19.977  25.507  1.00  0.00     0.163 HD
BRANCH   4   6
ATOM      6  C   UNL A   1      39.316  22.279  26.393  1.00  0.00     0.039 A 
ATOM      7  C   UNL A   1      38.825  23.492  25.907  1.00  0.00     0.014 A 
ATOM      8  C   UNL A   1      40.364  22.267  27.319  1.00  0.00     0.014 A 
ATOM      9  C   UNL A   1      39.483  24.677  26.218  1.00  0.00     0.010 A 
ATOM     10  C   UNL A   1      40.972  23.470  27.695  1.00  0.00     0.010 A 
ATOM     11  C   UNL A   1      40.562  24.681  27.117  1.00  0.00    -0.014 A 
BRANCH  11  12
ATOM     12  C   UNL A   1      41.221  25.970  27.458  1.00  0.00     0.031 A 
ATOM     13  C   UNL A   1      42.584  26.312  26.918  1.00  0.00     0.074 A 
ATOM     14  C   UNL A   1      40.557  26.852  28.233  1.00  0.00     0.049 A 
ATOM     15  N   UNL A   1      43.299  27.391  27.109  1.00  0.00    -0.248 NA
ATOM     16  C   UNL A   1      43.232  25.309  26.059  1.00  0.00     0.031 C 
ATOM     17  C   UNL A   1      39.230  26.626  28.813  1.00  0.00     0.029 A 
ATOM     18  N   UNL A   1      40.889  28.115  28.651  1.00  0.00    -0.354 N 
ATOM     19  C   UNL A   1      44.488  27.194  26.413  1.00  0.00     0.074 A 
ATOM     20  C   UNL A   1      44.405  25.878  25.815  1.00  0.00     0.031 C 
ATOM     21  C   UNL A   1      38.844  27.727  29.473  1.00  0.00     0.029 A 
ATOM     22  C   UNL A   1      39.919  28.711  29.423  1.00  0.00     0.049 A 
ATOM     23  H   UNL A   1      41.739  28.553  28.420  1.00  0.00     0.167 HD
ATOM     24  C   UNL A   1      45.545  28.035  26.285  1.00  0.00     0.034 A 
ATOM     25  C   UNL A   1      39.904  29.907  30.044  1.00  0.00     0.034 A 
ATOM     26  C   UNL A   1      45.603  29.352  26.878  1.00  0.00     0.049 A 
ATOM     27  C   UNL A   1      41.100  30.809  29.903  1.00  0.00     0.074 A 
ATOM     28  C   UNL A   1      46.610  30.297  26.779  1.00  0.00     0.029 A 
ATOM     29  N   UNL A   1      44.618  29.907  27.684  1.00  0.00    -0.354 N 
ATOM     30  N   UNL A   1      42.210  30.607  29.231  1.00  0.00    -0.248 NA
ATOM     31  C   UNL A   1      41.040  32.098  30.601  1.00  0.00     0.031 C 
ATOM     32  C   UNL A   1      46.262  31.396  27.573  1.00  0.00     0.029 A 
ATOM     33  C   UNL A   1      45.006  31.168  28.113  1.00  0.00     0.049 A 
ATOM     34  H   UNL A   1      43.767  29.469  27.918  1.00  0.00     0.167 HD
ATOM     35  C   UNL A   1      42.975  31.753  29.417  1.00  0.00     0.074 A 
ATOM     36  C   UNL A   1      42.189  32.649  30.239  1.00  0.00     0.031 C 
ATOM     37  C   UNL A   1      44.218  32.039  28.951  1.00  0.00     0.034 A 
BRANCH  24  38
ATOM     38  C   UNL A   1      46.745  27.542  25.514  1.00  0.00     0.023 A 
ATOM     39  C   UNL A   1      46.983  27.919  24.181  1.00  0.00     0.031 A 
ATOM     40  C   UNL A   1      47.676  26.686  26.132  1.00  0.00     0.131 A 
ATOM     41  C   UNL A   1      48.093  27.402  23.494  1.00  0.00     0.055 A 
ATOM     42  C   UNL A   1      48.813  26.227  25.464  1.00  0.00     0.041 A 
ATOM     43  F   UNL A   1      47.492  26.277  27.397  1.00  0.00    -0.206 F 
ATOM     44  C   UNL A   1      49.022  26.578  24.133  1.00  0.00     0.022 A 
BRANCH  41  45
ATOM     45  S   UNL A   1      48.254  27.739  21.718  1.00  0.00     0.124 S 
ATOM     46  O   UNL A   1      49.355  28.698  21.698  1.00  0.00    -0.237 OA
ATOM     47  O   UNL A   1      48.547  26.419  21.172  1.00  0.00    -0.237 OA
ATOM     48  O   UNL A   1      46.950  28.289  21.353  1.00  0.00    -0.744 OA
ENDBRANCH  41  45
ENDBRANCH  24  38
BRANCH  25  49
ATOM     49  C   UNL A   1      38.740  30.299  30.888  1.00  0.00     0.023 A 
ATOM     50  C   UNL A   1      37.670  31.035  30.356  1.00  0.00     0.031 A 
ATOM     51  C   UNL A   1      38.698  29.964  32.254  1.00  0.00     0.131 A 
ATOM     52  C   UNL A   1      36.621  31.445  31.193  1.00  0.00     0.055 A 
ATOM     53  C   UNL A   1      37.625  30.327  33.070  1.00  0.00     0.041 A 
ATOM     54  F   UNL A   1      39.693  29.258  32.812  1.00  0.00    -0.206 F 
ATOM     55  C   UNL A   1      36.585  31.084  32.542  1.00  0.00     0.022 A 
BRANCH  52  56
ATOM     56  S   UNL A   1      35.342  32.535  30.512  1.00  0.00     0.124 S 
ATOM     57  O   UNL A   1      36.089  33.766  30.280  1.00  0.00    -0.237 OA
ATOM     58  O   UNL A   1      34.926  31.803  29.319  1.00  0.00    -0.237 OA
ATOM     59  O   UNL A   1      34.346  32.600  31.580  1.00  0.00    -0.744 OA
ENDBRANCH  52  56
ENDBRANCH  25  49
BRANCH  37  60
ATOM     60  C   UNL A   1      44.775  33.393  29.307  1.00  0.00     0.023 A 
ATOM     61  C   UNL A   1      44.487  34.532  28.534  1.00  0.00     0.031 A 
ATOM     62  C   UNL A   1      45.635  33.539  30.409  1.00  0.00     0.131 A 
ATOM     63  C   UNL A   1      45.100  35.755  28.838  1.00  0.00     0.055 A 
ATOM     64  C   UNL A   1      46.199  34.772  30.741  1.00  0.00     0.041 A 
ATOM     65  F   UNL A   1      45.945  32.483  31.178  1.00  0.00    -0.206 F 
ATOM     66  C   UNL A   1      45.944  35.885  29.945  1.00  0.00     0.022 A 
BRANCH  63  67
ATOM     67  S   UNL A   1      44.856  37.155  27.711  1.00  0.00     0.124 S 
ATOM     68  O   UNL A   1      46.135  37.206  27.009  1.00  0.00    -0.237 OA
ATOM     69  O   UNL A   1      43.711  36.723  26.919  1.00  0.00    -0.237 OA
ATOM     70  O   UNL A   1      44.599  38.279  28.611  1.00  0.00    -0.744 OA
ENDBRANCH  63  67
ENDBRANCH  37  60
ENDBRANCH  11  12
ENDBRANCH   4   6
ENDBRANCH   1   2
BRANCH   1  71
ATOM     71  C   UNL A   1      35.373  21.806  24.583  1.00  0.00     0.023 C 
BRANCH  71  72
ATOM     72  C   UNL A   1      34.135  20.938  24.825  1.00  0.00     0.023 C 
BRANCH  72  73
ATOM     73  C   UNL A   1      32.839  21.470  24.217  1.00  0.00     0.116 C 
BRANCH  73  74
ATOM     74  N   UNL A   1      31.762  21.540  25.181  1.00  0.00    -0.354 N 
ATOM     75  C   UNL A   1      30.971  22.587  25.543  1.00  0.00     0.243 C 
ATOM     76  H   UNL A   1      31.571  20.696  25.651  1.00  0.00     0.163 HD
ATOM     77  O   UNL A   1      30.146  22.390  26.444  1.00  0.00    -0.273 OA
BRANCH  75  78
ATOM     78  C   UNL A   1      31.028  23.966  24.845  1.00  0.00     0.186 C 
ATOM     79  C   UNL A   1      30.823  23.874  23.325  1.00  0.00     0.107 C 
ATOM     80  N   UNL A   1      32.114  24.926  25.111  1.00  0.00    -0.311 N 
ATOM     81  S   UNL A   1      32.237  24.757  22.571  1.00  0.00    -0.126 SA
ATOM     82  C   UNL A   1      32.445  25.845  24.038  1.00  0.00     0.115 C 
ATOM     83  C   UNL A   1      33.210  24.589  25.892  1.00  0.00     0.224 C 
ATOM     84  C   UNL A   1      33.902  26.240  24.325  1.00  0.00     0.055 C 
ATOM     85  C   UNL A   1      34.443  25.197  25.280  1.00  0.00     0.104 C 
ATOM     86  O   UNL A   1      33.232  23.819  26.830  1.00  0.00    -0.275 OA
BRANCH  82  87
ATOM     87  C   UNL A   1      31.555  27.089  23.864  1.00  0.00    -0.012 A 
ATOM     88  C   UNL A   1      30.660  27.267  22.794  1.00  0.00     0.007 A 
ATOM     89  C   UNL A   1      31.681  28.172  24.765  1.00  0.00     0.007 A 
ATOM     90  C   UNL A   1      29.968  28.470  22.606  1.00  0.00     0.000 A 
ATOM     91  C   UNL A   1      30.962  29.360  24.599  1.00  0.00     0.000 A 
ATOM     92  C   UNL A   1      30.118  29.515  23.508  1.00  0.00     0.000 A 
ENDBRANCH  82  87
ENDBRANCH  75  78
ENDBRANCH  73  74
ENDBRANCH  72  73
ENDBRANCH  71  72
ENDBRANCH   1  71
TORSDOF 15
ENDMDL
MODEL 2
REMARK VINA RESULT:     -12.5      5.010     10.291
REMARK SMILES O=C(NCCCCNC(=O)[C@@H]1CS[C@]2(c3ccccc3)CCC(=O)N12)c1ccc(-c2c3nc(c(-c4cc(S(=O)(=O)[O-])ccc4F)c4ccc([nH]4)c(-c4cc(S(=O)(=O)[O-])ccc4F)c4nc(c(-c5cc(S(=O)(=O)[O-])ccc5F)c5ccc2[nH]5)C=C4)C=C3)cc1
REMARK SMILES IDX 4 1 3 2 1 3 2 4 26 6 27 7 88 8 28 9 87 10 29 11 30 12 31 13
REMARK SMILES IDX 81 14 32 15 86 16 80 17 82 18 33 19 85 20 79 21 78 22 34 24
REMARK SMILES IDX 66 25 46 26 65 27 47 28 50 29 64 30 83 31 48 32 49 33 63 35
REMARK SMILES IDX 84 36 51 37 35 38 36 39 44 40 37 41 43 42 45 43 42 44 38 45
REMARK SMILES IDX 39 46 40 47 41 48 67 49 68 50 76 51 69 52 75 53 77 54 74 55
REMARK SMILES IDX 70 56 71 57 72 58 73 59 52 60 53 61 61 62 54 63 60 64 62 65
REMARK SMILES IDX 59 66 55 67 56 68 57 69 58 70 5 71 6 72 7 73 8 74 9 75 10 77
REMARK SMILES IDX 11 78 12 79 25 80 13 81 14 82 23 83 21 84 22 85 24 86 15 87
REMARK SMILES IDX 16 88 20 89 17 90 19 91 18 92
REMARK H PARENT 3 5 82 23 50 34 8 76
REMARK Flexibility Score: inf
ROOT
ATOM      1  C   UNL A   1      32.673  29.678  25.537  1.00  0.00     0.116 C 
ENDROOT
BRANCH   1   2
ATOM      2  N   UNL A   1      32.302  30.994  26.040  1.00  0.00    -0.352 N 
ATOM      3  O   UNL A   1      32.343  32.799  27.388  1.00  0.00    -0.269 OA
ATOM      4  C   UNL A   1      32.892  31.767  27.012  1.00  0.00     0.251 C 
ATOM      5  H   UNL A   1      31.504  31.391  25.619  1.00  0.00     0.163 HD
BRANCH   4   6
ATOM      6  C   UNL A   1      34.169  31.341  27.623  1.00  0.00     0.039 A 
ATOM      7  C   UNL A   1      34.383  30.005  27.966  1.00  0.00     0.014 A 
ATOM      8  C   UNL A   1      35.165  32.294  27.857  1.00  0.00     0.014 A 
ATOM      9  C   UNL A   1      35.520  29.652  28.687  1.00  0.00     0.010 A 
ATOM     10  C   UNL A   1      36.345  31.920  28.510  1.00  0.00     0.010 A 
ATOM     11  C   UNL A   1      36.515  30.603  28.966  1.00  0.00    -0.014 A 
BRANCH  11  12
ATOM     12  C   UNL A   1      37.735  30.185  29.706  1.00  0.00     0.031 A 
ATOM     13  C   UNL A   1      37.957  30.604  31.135  1.00  0.00     0.074 A 
ATOM     14  C   UNL A   1      38.627  29.387  29.086  1.00  0.00     0.049 A 
ATOM     15  N   UNL A   1      38.958  30.324  31.929  1.00  0.00    -0.248 NA
ATOM     16  C   UNL A   1      36.924  31.453  31.750  1.00  0.00     0.031 C 
ATOM     17  C   UNL A   1      38.515  28.921  27.702  1.00  0.00     0.029 A 
ATOM     18  N   UNL A   1      39.789  28.812  29.535  1.00  0.00    -0.354 N 
ATOM     19  C   UNL A   1      38.691  30.976  33.130  1.00  0.00     0.074 A 
ATOM     20  C   UNL A   1      37.442  31.685  32.948  1.00  0.00     0.031 C 
ATOM     21  C   UNL A   1      39.539  28.098  27.429  1.00  0.00     0.029 A 
ATOM     22  C   UNL A   1      40.416  28.033  28.592  1.00  0.00     0.049 A 
ATOM     23  H   UNL A   1      40.138  28.945  30.445  1.00  0.00     0.167 HD
ATOM     24  C   UNL A   1      39.421  30.977  34.274  1.00  0.00     0.034 A 
ATOM     25  C   UNL A   1      41.581  27.357  28.645  1.00  0.00     0.034 A 
ATOM     26  C   UNL A   1      40.658  30.250  34.441  1.00  0.00     0.049 A 
ATOM     27  C   UNL A   1      42.379  27.395  29.921  1.00  0.00     0.074 A 
ATOM     28  C   UNL A   1      41.455  30.154  35.569  1.00  0.00     0.029 A 
ATOM     29  N   UNL A   1      41.283  29.501  33.452  1.00  0.00    -0.354 N 
ATOM     30  N   UNL A   1      42.103  28.009  31.048  1.00  0.00    -0.248 NA
ATOM     31  C   UNL A   1      43.643  26.649  29.931  1.00  0.00     0.031 C 
ATOM     32  C   UNL A   1      42.589  29.400  35.245  1.00  0.00     0.029 A 
ATOM     33  C   UNL A   1      42.468  28.966  33.935  1.00  0.00     0.049 A 
ATOM     34  H   UNL A   1      40.934  29.369  32.541  1.00  0.00     0.167 HD
ATOM     35  C   UNL A   1      43.156  27.711  31.906  1.00  0.00     0.074 A 
ATOM     36  C   UNL A   1      44.055  26.842  31.174  1.00  0.00     0.031 C 
ATOM     37  C   UNL A   1      43.363  28.119  33.184  1.00  0.00     0.034 A 
BRANCH  24  38
ATOM     38  C   UNL A   1      38.926  31.824  35.421  1.00  0.00     0.023 A 
ATOM     39  C   UNL A   1      38.329  31.262  36.563  1.00  0.00     0.031 A 
ATOM     40  C   UNL A   1      39.067  33.224  35.374  1.00  0.00     0.131 A 
ATOM     41  C   UNL A   1      37.850  32.096  37.585  1.00  0.00     0.055 A 
ATOM     42  C   UNL A   1      38.647  34.044  36.423  1.00  0.00     0.041 A 
ATOM     43  F   UNL A   1      39.612  33.820  34.301  1.00  0.00    -0.206 F 
ATOM     44  C   UNL A   1      38.026  33.481  37.534  1.00  0.00     0.022 A 
BRANCH  41  45
ATOM     45  S   UNL A   1      36.899  31.355  38.941  1.00  0.00     0.124 S 
ATOM     46  O   UNL A   1      36.726  29.984  38.467  1.00  0.00    -0.237 OA
ATOM     47  O   UNL A   1      37.790  31.528  40.083  1.00  0.00    -0.237 OA
ATOM     48  O   UNL A   1      35.675  32.152  38.978  1.00  0.00    -0.744 OA
ENDBRANCH  41  45
ENDBRANCH  24  38
BRANCH  25  49
ATOM     49  C   UNL A   1      42.081  26.627  27.447  1.00  0.00     0.023 A 
ATOM     50  C   UNL A   1      41.885  25.245  27.301  1.00  0.00     0.031 A 
ATOM     51  C   UNL A   1      42.790  27.305  26.438  1.00  0.00     0.131 A 
ATOM     52  C   UNL A   1      42.427  24.577  26.191  1.00  0.00     0.055 A 
ATOM     53  C   UNL A   1      43.279  26.645  25.309  1.00  0.00     0.041 A 
ATOM     54  F   UNL A   1      43.002  28.627  26.526  1.00  0.00    -0.206 F 
ATOM     55  C   UNL A   1      43.109  25.270  25.189  1.00  0.00     0.022 A 
BRANCH  52  56
ATOM     56  S   UNL A   1      42.300  22.770  26.120  1.00  0.00     0.124 S 
ATOM     57  O   UNL A   1      42.922  22.476  24.835  1.00  0.00    -0.237 OA
ATOM     58  O   UNL A   1      43.054  22.368  27.304  1.00  0.00    -0.237 OA
ATOM     59  O   UNL A   1      40.860  22.527  26.188  1.00  0.00    -0.744 OA
ENDBRANCH  52  56
ENDBRANCH  25  49
BRANCH  37  60
ATOM     60  C   UNL A   1      44.601  27.597  33.866  1.00  0.00     0.023 A 
ATOM     61  C   UNL A   1      44.589  26.388  34.584  1.00  0.00     0.031 A 
ATOM     62  C   UNL A   1      45.797  28.335  33.828  1.00  0.00     0.131 A 
ATOM     63  C   UNL A   1      45.733  25.982  35.286  1.00  0.00     0.055 A 
ATOM     64  C   UNL A   1      46.949  27.898  34.482  1.00  0.00     0.041 A 
ATOM     65  F   UNL A   1      45.861  29.497  33.158  1.00  0.00    -0.206 F 
ATOM     66  C   UNL A   1      46.917  26.723  35.229  1.00  0.00     0.022 A 
BRANCH  63  67
ATOM     67  S   UNL A   1      45.626  24.521  36.355  1.00  0.00     0.124 S 
ATOM     68  O   UNL A   1      45.498  25.122  37.679  1.00  0.00    -0.237 OA
ATOM     69  O   UNL A   1      44.438  23.846  35.843  1.00  0.00    -0.237 OA
ATOM     70  O   UNL A   1      46.887  23.823  36.110  1.00  0.00    -0.744 OA
ENDBRANCH  63  67
ENDBRANCH  37  60
ENDBRANCH  11  12
ENDBRANCH   4   6
ENDBRANCH   1   2
BRANCH   1  71
ATOM     71  C   UNL A   1      31.477  28.852  25.077  1.00  0.00     0.023 C 
BRANCH  71  72
ATOM     72  C   UNL A   1      31.255  28.789  23.563  1.00  0.00     0.023 C 
BRANCH  72  73
ATOM     73  C   UNL A   1      30.887  27.411  23.017  1.00  0.00     0.116 C 
BRANCH  73  74
ATOM     74  N   UNL A   1      31.695  27.031  21.879  1.00  0.00    -0.354 N 
ATOM     75  C   UNL A   1      32.460  25.923  21.673  1.00  0.00     0.243 C 
ATOM     76  H   UNL A   1      31.694  27.676  21.136  1.00  0.00     0.163 HD
ATOM     77  O   UNL A   1      33.103  25.866  20.618  1.00  0.00    -0.273 OA
BRANCH  75  78
ATOM     78  C   UNL A   1      32.507  24.737  22.663  1.00  0.00     0.186 C 
ATOM     79  C   UNL A   1      31.119  24.143  22.950  1.00  0.00     0.107 C 
ATOM     80  N   UNL A   1      33.250  24.815  23.934  1.00  0.00    -0.311 N 
ATOM     81  S   UNL A   1      30.946  24.119  24.771  1.00  0.00    -0.126 SA
ATOM     82  C   UNL A   1      32.763  23.991  25.024  1.00  0.00     0.115 C 
ATOM     83  C   UNL A   1      33.828  25.999  24.369  1.00  0.00     0.224 C 
ATOM     84  C   UNL A   1      33.273  24.704  26.285  1.00  0.00     0.055 C 
ATOM     85  C   UNL A   1      33.640  26.110  25.857  1.00  0.00     0.104 C 
ATOM     86  O   UNL A   1      34.285  26.888  23.679  1.00  0.00    -0.275 OA
BRANCH  82  87
ATOM     87  C   UNL A   1      33.159  22.504  25.026  1.00  0.00    -0.012 A 
ATOM     88  C   UNL A   1      34.488  22.048  24.962  1.00  0.00     0.007 A 
ATOM     89  C   UNL A   1      32.153  21.511  25.004  1.00  0.00     0.007 A 
ATOM     90  C   UNL A   1      34.795  20.687  24.836  1.00  0.00     0.000 A 
ATOM     91  C   UNL A   1      32.459  20.149  24.915  1.00  0.00     0.000 A 
ATOM     92  C   UNL A   1      33.781  19.738  24.813  1.00  0.00     0.000 A 
ENDBRANCH  82  87
ENDBRANCH  75  78
ENDBRANCH  73  74
ENDBRANCH  72  73
ENDBRANCH  71  72
ENDBRANCH   1  71
TORSDOF 15
ENDMDL
MODEL 3
REMARK VINA RESULT:     -12.5      1.101      1.587
REMARK SMILES O=C(NCCCCNC(=O)[C@@H]1CS[C@]2(c3ccccc3)CCC(=O)N12)c1ccc(-c2c3nc(c(-c4cc(S(=O)(=O)[O-])ccc4F)c4ccc([nH]4)c(-c4cc(S(=O)(=O)[O-])ccc4F)c4nc(c(-c5cc(S(=O)(=O)[O-])ccc5F)c5ccc2[nH]5)C=C4)C=C3)cc1
REMARK SMILES IDX 4 1 3 2 1 3 2 4 26 6 27 7 88 8 28 9 87 10 29 11 30 12 31 13
REMARK SMILES IDX 81 14 32 15 86 16 80 17 82 18 33 19 85 20 79 21 78 22 34 24
REMARK SMILES IDX 66 25 46 26 65 27 47 28 50 29 64 30 83 31 48 32 49 33 63 35
REMARK SMILES IDX 84 36 51 37 35 38 36 39 44 40 37 41 43 42 45 43 42 44 38 45
REMARK SMILES IDX 39 46 40 47 41 48 67 49 68 50 76 51 69 52 75 53 77 54 74 55
REMARK SMILES IDX 70 56 71 57 72 58 73 59 52 60 53 61 61 62 54 63 60 64 62 65
REMARK SMILES IDX 59 66 55 67 56 68 57 69 58 70 5 71 6 72 7 73 8 74 9 75 10 77
REMARK SMILES IDX 11 78 12 79 25 80 13 81 14 82 23 83 21 84 22 85 24 86 15 87
REMARK SMILES IDX 16 88 20 89 17 90 19 91 18 92
REMARK H PARENT 3 5 82 23 50 34 8 76
REMARK Flexibility Score: inf
ROOT
ATOM      1  C   UNL A   1      36.552  21.888  25.577  1.00  0.00     0.116 C 
ENDROOT
BRANCH   1   2
ATOM      2  N   UNL A   1      37.568  20.847  25.676  1.00  0.00    -0.352 N 
ATOM      3  O   UNL A   1      39.625  19.956  25.900  1.00  0.00    -0.269 OA
ATOM      4  C   UNL A   1      38.900  20.942  26.003  1.00  0.00     0.251 C 
ATOM      5  H   UNL A   1      37.251  19.936  25.476  1.00  0.00     0.163 HD
BRANCH   4   6
ATOM      6  C   UNL A   1      39.462  22.233  26.453  1.00  0.00     0.039 A 
ATOM      7  C   UNL A   1      38.945  23.439  25.977  1.00  0.00     0.014 A 
ATOM      8  C   UNL A   1      40.525  22.235  27.361  1.00  0.00     0.014 A 
ATOM      9  C   UNL A   1      39.590  24.633  26.280  1.00  0.00     0.010 A 
ATOM     10  C   UNL A   1      41.121  23.447  27.730  1.00  0.00     0.010 A 
ATOM     11  C   UNL A   1      40.683  24.653  27.162  1.00  0.00    -0.014 A 
BRANCH  11  12
ATOM     12  C   UNL A   1      41.327  25.951  27.495  1.00  0.00     0.031 A 
ATOM     13  C   UNL A   1      42.679  26.312  26.939  1.00  0.00     0.074 A 
ATOM     14  C   UNL A   1      40.660  26.824  28.276  1.00  0.00     0.049 A 
ATOM     15  N   UNL A   1      43.381  27.401  27.122  1.00  0.00    -0.248 NA
ATOM     16  C   UNL A   1      43.332  25.317  26.074  1.00  0.00     0.031 C 
ATOM     17  C   UNL A   1      39.343  26.580  28.871  1.00  0.00     0.029 A 
ATOM     18  N   UNL A   1      40.979  28.092  28.690  1.00  0.00    -0.354 N 
ATOM     19  C   UNL A   1      44.565  27.219  26.413  1.00  0.00     0.074 A 
ATOM     20  C   UNL A   1      44.495  25.902  25.817  1.00  0.00     0.031 C 
ATOM     21  C   UNL A   1      38.949  27.676  29.535  1.00  0.00     0.029 A 
ATOM     22  C   UNL A   1      40.010  28.675  29.473  1.00  0.00     0.049 A 
ATOM     23  H   UNL A   1      41.820  28.541  28.449  1.00  0.00     0.167 HD
ATOM     24  C   UNL A   1      45.609  28.075  26.273  1.00  0.00     0.034 A 
ATOM     25  C   UNL A   1      39.985  29.870  30.093  1.00  0.00     0.034 A 
ATOM     26  C   UNL A   1      45.655  29.393  26.864  1.00  0.00     0.049 A 
ATOM     27  C   UNL A   1      41.166  30.790  29.938  1.00  0.00     0.074 A 
ATOM     28  C   UNL A   1      46.648  30.352  26.753  1.00  0.00     0.029 A 
ATOM     29  N   UNL A   1      44.672  29.935  27.681  1.00  0.00    -0.354 N 
ATOM     30  N   UNL A   1      42.272  30.602  29.254  1.00  0.00    -0.248 NA
ATOM     31  C   UNL A   1      41.096  32.078  30.635  1.00  0.00     0.031 C 
ATOM     32  C   UNL A   1      46.293  31.447  27.550  1.00  0.00     0.029 A 
ATOM     33  C   UNL A   1      45.047  31.201  28.105  1.00  0.00     0.049 A 
ATOM     34  H   UNL A   1      43.829  29.486  27.924  1.00  0.00     0.167 HD
ATOM     35  C   UNL A   1      43.023  31.759  29.430  1.00  0.00     0.074 A 
ATOM     36  C   UNL A   1      42.233  32.645  30.261  1.00  0.00     0.031 C 
ATOM     37  C   UNL A   1      44.256  32.062  28.951  1.00  0.00     0.034 A 
BRANCH  24  38
ATOM     38  C   UNL A   1      46.807  27.598  25.488  1.00  0.00     0.023 A 
ATOM     39  C   UNL A   1      47.009  27.952  24.143  1.00  0.00     0.031 A 
ATOM     40  C   UNL A   1      47.773  26.782  26.105  1.00  0.00     0.131 A 
ATOM     41  C   UNL A   1      48.119  27.451  23.446  1.00  0.00     0.055 A 
ATOM     42  C   UNL A   1      48.910  26.340  25.426  1.00  0.00     0.041 A 
ATOM     43  F   UNL A   1      47.625  26.396  27.383  1.00  0.00    -0.206 F 
ATOM     44  C   UNL A   1      49.083  26.667  24.084  1.00  0.00     0.022 A 
BRANCH  41  45
ATOM     45  S   UNL A   1      48.237  27.753  21.660  1.00  0.00     0.124 S 
ATOM     46  O   UNL A   1      49.324  28.726  21.596  1.00  0.00    -0.237 OA
ATOM     47  O   UNL A   1      48.535  26.426  21.135  1.00  0.00    -0.237 OA
ATOM     48  O   UNL A   1      46.919  28.280  21.313  1.00  0.00    -0.744 OA
ENDBRANCH  41  45
ENDBRANCH  24  38
BRANCH  25  49
ATOM     49  C   UNL A   1      38.825  30.247  30.949  1.00  0.00     0.023 A 
ATOM     50  C   UNL A   1      37.771  31.026  30.447  1.00  0.00     0.031 A 
ATOM     51  C   UNL A   1      38.770  29.853  32.299  1.00  0.00     0.131 A 
ATOM     52  C   UNL A   1      36.726  31.419  31.298  1.00  0.00     0.055 A 
ATOM     53  C   UNL A   1      37.702  30.200  33.127  1.00  0.00     0.041 A 
ATOM     54  F   UNL A   1      39.750  29.105  32.828  1.00  0.00    -0.206 F 
ATOM     55  C   UNL A   1      36.678  30.999  32.629  1.00  0.00     0.022 A 
BRANCH  52  56
ATOM     56  S   UNL A   1      35.471  32.561  30.661  1.00  0.00     0.124 S 
ATOM     57  O   UNL A   1      36.180  33.835  30.693  1.00  0.00    -0.237 OA
ATOM     58  O   UNL A   1      35.205  32.008  29.336  1.00  0.00    -0.237 OA
ATOM     59  O   UNL A   1      34.375  32.431  31.620  1.00  0.00    -0.744 OA
ENDBRANCH  52  56
ENDBRANCH  25  49
BRANCH  37  60
ATOM     60  C   UNL A   1      44.799  33.424  29.300  1.00  0.00     0.023 A 
ATOM     61  C   UNL A   1      44.579  34.536  28.467  1.00  0.00     0.031 A 
ATOM     62  C   UNL A   1      45.575  33.604  30.458  1.00  0.00     0.131 A 
ATOM     63  C   UNL A   1      45.180  35.766  28.774  1.00  0.00     0.055 A 
ATOM     64  C   UNL A   1      46.124  34.843  30.787  1.00  0.00     0.041 A 
ATOM     65  F   UNL A   1      45.816  32.573  31.284  1.00  0.00    -0.206 F 
ATOM     66  C   UNL A   1      45.941  35.929  29.936  1.00  0.00     0.022 A 
BRANCH  63  67
ATOM     67  S   UNL A   1      45.035  37.126  27.584  1.00  0.00     0.124 S 
ATOM     68  O   UNL A   1      43.706  36.899  27.023  1.00  0.00    -0.237 OA
ATOM     69  O   UNL A   1      45.175  38.303  28.435  1.00  0.00    -0.237 OA
ATOM     70  O   UNL A   1      46.145  36.895  26.660  1.00  0.00    -0.744 OA
ENDBRANCH  63  67
ENDBRANCH  37  60
ENDBRANCH  11  12
ENDBRANCH   4   6
ENDBRANCH   1   2
BRANCH   1  71
ATOM     71  C   UNL A   1      35.155  21.399  25.944  1.00  0.00     0.023 C 
BRANCH  71  72
ATOM     72  C   UNL A   1      34.426  22.213  27.017  1.00  0.00     0.023 C 
BRANCH  72  73
ATOM     73  C   UNL A   1      33.732  23.477  26.515  1.00  0.00     0.116 C 
BRANCH  73  74
ATOM     74  N   UNL A   1      32.626  23.187  25.629  1.00  0.00    -0.354 N 
ATOM     75  C   UNL A   1      31.725  24.024  25.043  1.00  0.00     0.243 C 
ATOM     76  H   UNL A   1      32.504  22.234  25.416  1.00  0.00     0.163 HD
ATOM     77  O   UNL A   1      30.832  23.507  24.360  1.00  0.00    -0.273 OA
BRANCH  75  78
ATOM     78  C   UNL A   1      31.810  25.564  25.153  1.00  0.00     0.186 C 
ATOM     79  C   UNL A   1      30.429  26.238  25.161  1.00  0.00     0.107 C 
ATOM     80  N   UNL A   1      32.709  26.355  24.293  1.00  0.00    -0.311 N 
ATOM     81  S   UNL A   1      30.482  27.513  23.850  1.00  0.00    -0.126 SA
ATOM     82  C   UNL A   1      32.302  27.718  24.009  1.00  0.00     0.115 C 
ATOM     83  C   UNL A   1      33.419  25.775  23.252  1.00  0.00     0.224 C 
ATOM     84  C   UNL A   1      33.014  28.051  22.689  1.00  0.00     0.055 C 
ATOM     85  C   UNL A   1      33.425  26.724  22.085  1.00  0.00     0.104 C 
ATOM     86  O   UNL A   1      33.849  24.641  23.201  1.00  0.00    -0.275 OA
BRANCH  82  87
ATOM     87  C   UNL A   1      32.589  28.786  25.081  1.00  0.00    -0.012 A 
ATOM     88  C   UNL A   1      33.725  28.778  25.909  1.00  0.00     0.007 A 
ATOM     89  C   UNL A   1      31.635  29.799  25.333  1.00  0.00     0.007 A 
ATOM     90  C   UNL A   1      33.879  29.695  26.957  1.00  0.00     0.000 A 
ATOM     91  C   UNL A   1      31.805  30.738  26.355  1.00  0.00     0.000 A 
ATOM     92  C   UNL A   1      32.921  30.675  27.179  1.00  0.00     0.000 A 
ENDBRANCH  82  87
ENDBRANCH  75  78
ENDBRANCH  73  74
ENDBRANCH  72  73
ENDBRANCH  71  72
ENDBRANCH   1  71
TORSDOF 15
ENDMDL
