MODEL 1
REMARK VINA RESULT:     -12.2      0.000      0.000
REMARK SMILES C[C@@H](C(=O)NCCCCNC(=O)c1ccc(-c2c3nc(c(-c4cc(S(=O)(=O)[O-])ccc4F)c4ccc([nH]4)c(-c4cc(S(=O)(=O)[O-])ccc4F)c4nc(c(-c5cc(S(=O)(=O)[O-])ccc5F)c5ccc2[nH]5)C=C4)C=C3)cc1)c1ccc(C[C@@H]2CCC[C@@H]2O)cc1Br
REMARK SMILES IDX 7 1 6 2 5 3 3 4 4 5 2 7 1 8 76 9 77 10 88 11 78 12 87 13
REMARK SMILES IDX 89 14 79 15 80 16 81 17 82 18 85 19 83 20 84 21 86 22 8 24
REMARK SMILES IDX 9 25 10 26 11 27 12 29 13 30 14 31 75 32 15 33 74 34 16 35
REMARK SMILES IDX 17 36 18 37 68 38 19 39 73 40 67 41 69 42 20 43 72 44 66 45
REMARK SMILES IDX 65 46 21 48 53 49 33 50 52 51 34 52 37 53 51 54 70 55 35 56
REMARK SMILES IDX 36 57 50 59 71 60 38 61 22 62 23 63 31 64 24 65 30 66 32 67
REMARK SMILES IDX 29 68 25 69 26 70 27 71 28 72 54 73 55 74 63 75 56 76 62 77
REMARK SMILES IDX 64 78 61 79 57 80 58 81 59 82 60 83 39 84 40 85 48 86 41 87
REMARK SMILES IDX 47 88 49 89 46 90 42 91 43 92 44 93 45 94
REMARK H PARENT 5 6 86 23 10 28 69 47 37 58
REMARK Flexibility Score: inf
ROOT
ATOM      1  C   UNL A   1      31.540  29.061  24.033  1.00  0.00     0.023 C 
ENDROOT
BRANCH   1   2
ATOM      2  C   UNL A   1      31.631  28.178  22.789  1.00  0.00     0.116 C 
BRANCH   2   3
ATOM      3  N   UNL A   1      30.737  27.041  22.857  1.00  0.00    -0.356 N 
ATOM      4  C   UNL A   1      30.954  25.758  23.265  1.00  0.00     0.227 C 
ATOM      5  O   UNL A   1      29.948  25.057  23.399  1.00  0.00    -0.274 OA
ATOM      6  H   UNL A   1      29.817  27.225  22.558  1.00  0.00     0.163 HD
BRANCH   4   7
ATOM      7  C   UNL A   1      32.366  25.276  23.639  1.00  0.00     0.106 C 
ATOM      8  C   UNL A   1      33.503  25.767  22.734  1.00  0.00     0.023 C 
BRANCH   7   9
ATOM      9  C   UNL A   1      32.470  23.755  23.791  1.00  0.00    -0.022 A 
ATOM     10  C   UNL A   1      32.699  23.002  22.620  1.00  0.00     0.006 A 
ATOM     11  C   UNL A   1      32.290  23.051  24.996  1.00  0.00     0.022 A 
ATOM     12  C   UNL A   1      32.684  21.605  22.636  1.00  0.00     0.004 A 
ATOM     13  C   UNL A   1      32.281  21.650  25.003  1.00  0.00     0.019 A 
ATOM     14  Br  UNL A   1      31.983  23.878  26.682  1.00  0.00    -0.051 Br
ATOM     15  C   UNL A   1      32.430  20.915  23.821  1.00  0.00    -0.047 A 
BRANCH  15  16
ATOM     16  C   UNL A   1      32.272  19.416  23.844  1.00  0.00     0.041 C 
BRANCH  16  17
ATOM     17  C   UNL A   1      33.481  18.579  24.325  1.00  0.00     0.022 C 
ATOM     18  C   UNL A   1      33.921  17.474  23.357  1.00  0.00     0.007 C 
ATOM     19  C   UNL A   1      33.340  17.822  25.651  1.00  0.00     0.117 C 
ATOM     20  C   UNL A   1      33.346  16.160  23.894  1.00  0.00     0.003 C 
ATOM     21  C   UNL A   1      32.769  16.462  25.272  1.00  0.00     0.032 C 
BRANCH  19  22
ATOM     22  O   UNL A   1      32.559  18.509  26.605  1.00  0.00    -0.393 OA
ATOM     23  H   UNL A   1      33.066  19.257  26.960  1.00  0.00     0.210 HD
ENDBRANCH  19  22
ENDBRANCH  16  17
ENDBRANCH  15  16
ENDBRANCH   7   9
ENDBRANCH   4   7
ENDBRANCH   2   3
ENDBRANCH   1   2
BRANCH   1  24
ATOM     24  C   UNL A   1      32.795  29.074  24.913  1.00  0.00     0.023 C 
BRANCH  24  25
ATOM     25  C   UNL A   1      32.569  29.392  26.389  1.00  0.00     0.116 C 
BRANCH  25  26
ATOM     26  N   UNL A   1      32.330  30.806  26.637  1.00  0.00    -0.352 N 
ATOM     27  C   UNL A   1      33.129  31.722  27.280  1.00  0.00     0.251 C 
ATOM     28  H   UNL A   1      31.476  31.157  26.296  1.00  0.00     0.163 HD
ATOM     29  O   UNL A   1      32.708  32.856  27.493  1.00  0.00    -0.269 OA
BRANCH  27  30
ATOM     30  C   UNL A   1      34.473  31.322  27.753  1.00  0.00     0.039 A 
ATOM     31  C   UNL A   1      35.457  32.305  27.888  1.00  0.00     0.014 A 
ATOM     32  C   UNL A   1      34.748  29.997  28.100  1.00  0.00     0.014 A 
ATOM     33  C   UNL A   1      36.687  31.977  28.465  1.00  0.00     0.010 A 
ATOM     34  C   UNL A   1      35.954  29.684  28.724  1.00  0.00     0.010 A 
ATOM     35  C   UNL A   1      36.924  30.676  28.936  1.00  0.00    -0.014 A 
BRANCH  35  36
ATOM     36  C   UNL A   1      38.147  30.349  29.716  1.00  0.00     0.031 A 
ATOM     37  C   UNL A   1      39.134  29.339  29.199  1.00  0.00     0.074 A 
ATOM     38  C   UNL A   1      38.312  30.895  30.938  1.00  0.00     0.049 A 
ATOM     39  N   UNL A   1      40.191  28.843  29.788  1.00  0.00    -0.248 NA
ATOM     40  C   UNL A   1      38.885  28.802  27.853  1.00  0.00     0.031 C 
ATOM     41  C   UNL A   1      37.399  31.857  31.563  1.00  0.00     0.029 A 
ATOM     42  N   UNL A   1      39.288  30.707  31.886  1.00  0.00    -0.354 N 
ATOM     43  C   UNL A   1      40.728  27.922  28.895  1.00  0.00     0.074 A 
ATOM     44  C   UNL A   1      39.857  27.906  27.737  1.00  0.00     0.031 C 
ATOM     45  C   UNL A   1      37.858  32.171  32.785  1.00  0.00     0.029 A 
ATOM     46  C   UNL A   1      39.068  31.403  33.053  1.00  0.00     0.049 A 
ATOM     47  H   UNL A   1      40.072  30.129  31.743  1.00  0.00     0.167 HD
ATOM     48  C   UNL A   1      41.849  27.172  29.027  1.00  0.00     0.034 A 
ATOM     49  C   UNL A   1      39.745  31.399  34.220  1.00  0.00     0.034 A 
ATOM     50  C   UNL A   1      42.716  27.214  30.178  1.00  0.00     0.049 A 
ATOM     51  C   UNL A   1      40.970  30.529  34.347  1.00  0.00     0.074 A 
ATOM     52  C   UNL A   1      43.927  26.569  30.367  1.00  0.00     0.029 A 
ATOM     53  N   UNL A   1      42.461  27.927  31.342  1.00  0.00    -0.354 N 
ATOM     54  N   UNL A   1      41.506  29.723  33.460  1.00  0.00    -0.248 NA
ATOM     55  C   UNL A   1      41.681  30.568  35.632  1.00  0.00     0.031 C 
ATOM     56  C   UNL A   1      44.367  26.835  31.668  1.00  0.00     0.029 A 
ATOM     57  C   UNL A   1      43.468  27.699  32.269  1.00  0.00     0.049 A 
ATOM     58  H   UNL A   1      41.679  28.507  31.489  1.00  0.00     0.167 HD
ATOM     59  C   UNL A   1      42.629  29.177  34.075  1.00  0.00     0.074 A 
ATOM     60  C   UNL A   1      42.705  29.761  35.398  1.00  0.00     0.031 C 
ATOM     61  C   UNL A   1      43.519  28.274  33.592  1.00  0.00     0.034 A 
BRANCH  48  62
ATOM     62  C   UNL A   1      42.191  26.217  27.912  1.00  0.00     0.023 A 
ATOM     63  C   UNL A   1      41.731  24.889  27.908  1.00  0.00     0.031 A 
ATOM     64  C   UNL A   1      42.969  26.651  26.825  1.00  0.00     0.131 A 
ATOM     65  C   UNL A   1      42.092  24.028  26.860  1.00  0.00     0.055 A 
ATOM     66  C   UNL A   1      43.273  25.808  25.755  1.00  0.00     0.041 A 
ATOM     67  F   UNL A   1      43.450  27.904  26.787  1.00  0.00    -0.206 F 
ATOM     68  C   UNL A   1      42.841  24.485  25.773  1.00  0.00     0.022 A 
BRANCH  65  69
ATOM     69  S   UNL A   1      41.645  22.275  26.982  1.00  0.00     0.124 S 
ATOM     70  O   UNL A   1      42.534  21.818  28.047  1.00  0.00    -0.237 OA
ATOM     71  O   UNL A   1      40.227  22.332  27.314  1.00  0.00    -0.237 OA
ATOM     72  O   UNL A   1      41.955  21.749  25.653  1.00  0.00    -0.744 OA
ENDBRANCH  65  69
ENDBRANCH  48  62
BRANCH  49  73
ATOM     73  C   UNL A   1      39.267  32.203  35.381  1.00  0.00     0.023 A 
ATOM     74  C   UNL A   1      39.679  33.534  35.559  1.00  0.00     0.031 A 
ATOM     75  C   UNL A   1      38.445  31.630  36.369  1.00  0.00     0.131 A 
ATOM     76  C   UNL A   1      39.317  34.228  36.724  1.00  0.00     0.055 A 
ATOM     77  C   UNL A   1      38.042  32.344  37.498  1.00  0.00     0.041 A 
ATOM     78  F   UNL A   1      38.020  30.363  36.247  1.00  0.00    -0.206 F 
ATOM     79  C   UNL A   1      38.492  33.646  37.690  1.00  0.00     0.022 A 
BRANCH  76  80
ATOM     80  S   UNL A   1      40.034  35.869  37.012  1.00  0.00     0.124 S 
ATOM     81  O   UNL A   1      41.450  35.555  37.156  1.00  0.00    -0.237 OA
ATOM     82  O   UNL A   1      39.655  36.581  35.795  1.00  0.00    -0.237 OA
ATOM     83  O   UNL A   1      39.366  36.322  38.231  1.00  0.00    -0.744 OA
ENDBRANCH  76  80
ENDBRANCH  49  73
BRANCH  61  84
ATOM     84  C   UNL A   1      44.659  27.889  34.498  1.00  0.00     0.023 A 
ATOM     85  C   UNL A   1      44.562  26.795  35.375  1.00  0.00     0.031 A 
ATOM     86  C   UNL A   1      45.851  28.635  34.495  1.00  0.00     0.131 A 
ATOM     87  C   UNL A   1      45.620  26.506  36.250  1.00  0.00     0.055 A 
ATOM     88  C   UNL A   1      46.921  28.309  35.328  1.00  0.00     0.041 A 
ATOM     89  F   UNL A   1      45.994  29.691  33.678  1.00  0.00    -0.206 F 
ATOM     90  C   UNL A   1      46.805  27.246  36.221  1.00  0.00     0.022 A 
BRANCH  87  91
ATOM     91  S   UNL A   1      45.399  25.194  37.483  1.00  0.00     0.124 S 
ATOM     92  O   UNL A   1      44.060  25.478  37.990  1.00  0.00    -0.237 OA
ATOM     93  O   UNL A   1      45.533  23.984  36.680  1.00  0.00    -0.237 OA
ATOM     94  O   UNL A   1      46.485  25.429  38.433  1.00  0.00    -0.744 OA
ENDBRANCH  87  91
ENDBRANCH  61  84
ENDBRANCH  35  36
ENDBRANCH  27  30
ENDBRANCH  25  26
ENDBRANCH  24  25
ENDBRANCH   1  24
TORSDOF 18
ENDMDL
MODEL 2
REMARK VINA RESULT:     -12.1      4.991     10.483
REMARK SMILES C[C@@H](C(=O)NCCCCNC(=O)c1ccc(-c2c3nc(c(-c4cc(S(=O)(=O)[O-])ccc4F)c4ccc([nH]4)c(-c4cc(S(=O)(=O)[O-])ccc4F)c4nc(c(-c5cc(S(=O)(=O)[O-])ccc5F)c5ccc2[nH]5)C=C4)C=C3)cc1)c1ccc(C[C@@H]2CCC[C@@H]2O)cc1Br
REMARK SMILES IDX 7 1 6 2 5 3 3 4 4 5 2 7 1 8 76 9 77 10 88 11 78 12 87 13
REMARK SMILES IDX 89 14 79 15 80 16 81 17 82 18 85 19 83 20 84 21 86 22 8 24
REMARK SMILES IDX 9 25 10 26 11 27 12 29 13 30 14 31 75 32 15 33 74 34 16 35
REMARK SMILES IDX 17 36 18 37 68 38 19 39 73 40 67 41 69 42 20 43 72 44 66 45
REMARK SMILES IDX 65 46 21 48 53 49 33 50 52 51 34 52 37 53 51 54 70 55 35 56
REMARK SMILES IDX 36 57 50 59 71 60 38 61 22 62 23 63 31 64 24 65 30 66 32 67
REMARK SMILES IDX 29 68 25 69 26 70 27 71 28 72 54 73 55 74 63 75 56 76 62 77
REMARK SMILES IDX 64 78 61 79 57 80 58 81 59 82 60 83 39 84 40 85 48 86 41 87
REMARK SMILES IDX 47 88 49 89 46 90 42 91 43 92 44 93 45 94
REMARK H PARENT 5 6 86 23 10 28 69 47 37 58
REMARK Flexibility Score: inf
ROOT
ATOM      1  C   UNL A   1      35.224  22.870  23.304  1.00  0.00     0.023 C 
ENDROOT
BRANCH   1   2
ATOM      2  C   UNL A   1      34.125  22.930  24.365  1.00  0.00     0.116 C 
BRANCH   2   3
ATOM      3  N   UNL A   1      32.806  22.744  23.797  1.00  0.00    -0.356 N 
ATOM      4  C   UNL A   1      31.620  23.359  24.074  1.00  0.00     0.227 C 
ATOM      5  O   UNL A   1      30.698  23.130  23.288  1.00  0.00    -0.274 OA
ATOM      6  H   UNL A   1      32.756  22.058  23.093  1.00  0.00     0.163 HD
BRANCH   4   7
ATOM      7  C   UNL A   1      31.502  24.361  25.235  1.00  0.00     0.106 C 
ATOM      8  C   UNL A   1      30.553  23.962  26.371  1.00  0.00     0.023 C 
BRANCH   7   9
ATOM      9  C   UNL A   1      31.163  25.784  24.778  1.00  0.00    -0.022 A 
ATOM     10  C   UNL A   1      29.926  25.977  24.129  1.00  0.00     0.006 A 
ATOM     11  C   UNL A   1      32.019  26.895  24.899  1.00  0.00     0.022 A 
ATOM     12  C   UNL A   1      29.582  27.209  23.566  1.00  0.00     0.004 A 
ATOM     13  C   UNL A   1      31.664  28.127  24.335  1.00  0.00     0.019 A 
ATOM     14  Br  UNL A   1      33.720  26.847  25.749  1.00  0.00    -0.051 Br
ATOM     15  C   UNL A   1      30.467  28.284  23.624  1.00  0.00    -0.047 A 
BRANCH  15  16
ATOM     16  C   UNL A   1      30.184  29.581  22.909  1.00  0.00     0.041 C 
BRANCH  16  17
ATOM     17  C   UNL A   1      28.808  30.245  23.156  1.00  0.00     0.022 C 
ATOM     18  C   UNL A   1      27.887  30.285  21.931  1.00  0.00     0.007 C 
ATOM     19  C   UNL A   1      28.796  31.704  23.628  1.00  0.00     0.117 C 
ATOM     20  C   UNL A   1      27.983  31.698  21.349  1.00  0.00     0.003 C 
ATOM     21  C   UNL A   1      28.774  32.533  22.350  1.00  0.00     0.032 C 
BRANCH  19  22
ATOM     22  O   UNL A   1      29.875  32.023  24.481  1.00  0.00    -0.393 OA
ATOM     23  H   UNL A   1      30.287  32.850  24.185  1.00  0.00     0.210 HD
ENDBRANCH  19  22
ENDBRANCH  16  17
ENDBRANCH  15  16
ENDBRANCH   7   9
ENDBRANCH   4   7
ENDBRANCH   2   3
ENDBRANCH   1   2
BRANCH   1  24
ATOM     24  C   UNL A   1      36.631  22.590  23.842  1.00  0.00     0.023 C 
BRANCH  24  25
ATOM     25  C   UNL A   1      36.699  21.952  25.227  1.00  0.00     0.116 C 
BRANCH  25  26
ATOM     26  N   UNL A   1      37.682  20.883  25.315  1.00  0.00    -0.352 N 
ATOM     27  C   UNL A   1      38.961  20.918  25.821  1.00  0.00     0.251 C 
ATOM     28  H   UNL A   1      37.391  20.011  24.963  1.00  0.00     0.163 HD
ATOM     29  O   UNL A   1      39.688  19.934  25.708  1.00  0.00    -0.269 OA
BRANCH  27  30
ATOM     30  C   UNL A   1      39.468  22.154  26.456  1.00  0.00     0.039 A 
ATOM     31  C   UNL A   1      40.473  22.050  27.421  1.00  0.00     0.014 A 
ATOM     32  C   UNL A   1      38.984  23.408  26.073  1.00  0.00     0.014 A 
ATOM     33  C   UNL A   1      41.064  23.209  27.931  1.00  0.00     0.010 A 
ATOM     34  C   UNL A   1      39.612  24.561  26.542  1.00  0.00     0.010 A 
ATOM     35  C   UNL A   1      40.675  24.471  27.455  1.00  0.00    -0.014 A 
BRANCH  35  36
ATOM     36  C   UNL A   1      41.413  25.703  27.843  1.00  0.00     0.031 A 
ATOM     37  C   UNL A   1      40.701  26.830  28.539  1.00  0.00     0.074 A 
ATOM     38  C   UNL A   1      42.703  25.839  27.476  1.00  0.00     0.049 A 
ATOM     39  N   UNL A   1      41.147  28.020  28.849  1.00  0.00    -0.248 NA
ATOM     40  C   UNL A   1      39.298  26.595  28.914  1.00  0.00     0.031 C 
ATOM     41  C   UNL A   1      43.488  24.828  26.760  1.00  0.00     0.029 A 
ATOM     42  N   UNL A   1      43.580  26.885  27.631  1.00  0.00    -0.354 N 
ATOM     43  C   UNL A   1      40.079  28.684  29.441  1.00  0.00     0.074 A 
ATOM     44  C   UNL A   1      38.953  27.773  29.414  1.00  0.00     0.031 C 
ATOM     45  C   UNL A   1      44.724  25.304  26.540  1.00  0.00     0.029 A 
ATOM     46  C   UNL A   1      44.810  26.667  27.052  1.00  0.00     0.049 A 
ATOM     47  H   UNL A   1      43.349  27.712  28.110  1.00  0.00     0.167 HD
ATOM     48  C   UNL A   1      40.048  29.933  29.967  1.00  0.00     0.034 A 
ATOM     49  C   UNL A   1      45.876  27.482  26.920  1.00  0.00     0.034 A 
ATOM     50  C   UNL A   1      41.184  30.821  30.004  1.00  0.00     0.049 A 
ATOM     51  C   UNL A   1      45.800  28.877  27.487  1.00  0.00     0.074 A 
ATOM     52  C   UNL A   1      41.284  32.066  30.602  1.00  0.00     0.029 A 
ATOM     53  N   UNL A   1      42.411  30.569  29.406  1.00  0.00    -0.354 N 
ATOM     54  N   UNL A   1      44.804  29.459  28.114  1.00  0.00    -0.248 NA
ATOM     55  C   UNL A   1      46.990  29.723  27.330  1.00  0.00     0.031 C 
ATOM     56  C   UNL A   1      42.545  32.594  30.307  1.00  0.00     0.029 A 
ATOM     57  C   UNL A   1      43.257  31.654  29.582  1.00  0.00     0.049 A 
ATOM     58  H   UNL A   1      42.647  29.742  28.926  1.00  0.00     0.167 HD
ATOM     59  C   UNL A   1      45.258  30.733  28.443  1.00  0.00     0.074 A 
ATOM     60  C   UNL A   1      46.623  30.826  27.966  1.00  0.00     0.031 C 
ATOM     61  C   UNL A   1      44.608  31.738  29.082  1.00  0.00     0.034 A 
BRANCH  48  62
ATOM     62  C   UNL A   1      38.737  30.430  30.522  1.00  0.00     0.023 A 
ATOM     63  C   UNL A   1      37.779  31.057  29.707  1.00  0.00     0.031 A 
ATOM     64  C   UNL A   1      38.434  30.251  31.882  1.00  0.00     0.131 A 
ATOM     65  C   UNL A   1      36.581  31.524  30.271  1.00  0.00     0.055 A 
ATOM     66  C   UNL A   1      37.215  30.661  32.425  1.00  0.00     0.041 A 
ATOM     67  F   UNL A   1      39.320  29.674  32.709  1.00  0.00    -0.206 F 
ATOM     68  C   UNL A   1      36.284  31.310  31.619  1.00  0.00     0.022 A 
BRANCH  65  69
ATOM     69  S   UNL A   1      35.455  32.498  29.236  1.00  0.00     0.124 S 
ATOM     70  O   UNL A   1      34.745  31.451  28.506  1.00  0.00    -0.237 OA
ATOM     71  O   UNL A   1      34.672  33.231  30.224  1.00  0.00    -0.237 OA
ATOM     72  O   UNL A   1      36.356  33.314  28.423  1.00  0.00    -0.744 OA
ENDBRANCH  65  69
ENDBRANCH  48  62
BRANCH  49  73
ATOM     73  C   UNL A   1      47.093  27.032  26.185  1.00  0.00     0.023 A 
ATOM     74  C   UNL A   1      48.128  26.353  26.847  1.00  0.00     0.031 A 
ATOM     75  C   UNL A   1      47.269  27.336  24.822  1.00  0.00     0.131 A 
ATOM     76  C   UNL A   1      49.316  26.052  26.163  1.00  0.00     0.055 A 
ATOM     77  C   UNL A   1      48.430  26.985  24.132  1.00  0.00     0.041 A 
ATOM     78  F   UNL A   1      46.310  27.982  24.141  1.00  0.00    -0.206 F 
ATOM     79  C   UNL A   1      49.470  26.354  24.806  1.00  0.00     0.022 A 
BRANCH  76  80
ATOM     80  S   UNL A   1      50.705  25.359  27.101  1.00  0.00     0.124 S 
ATOM     81  O   UNL A   1      51.114  26.498  27.914  1.00  0.00    -0.237 OA
ATOM     82  O   UNL A   1      50.066  24.257  27.815  1.00  0.00    -0.237 OA
ATOM     83  O   UNL A   1      51.653  24.960  26.062  1.00  0.00    -0.744 OA
ENDBRANCH  76  80
ENDBRANCH  49  73
BRANCH  61  84
ATOM     84  C   UNL A   1      45.383  33.009  29.319  1.00  0.00     0.023 A 
ATOM     85  C   UNL A   1      45.479  34.004  28.330  1.00  0.00     0.031 A 
ATOM     86  C   UNL A   1      46.046  33.220  30.540  1.00  0.00     0.131 A 
ATOM     87  C   UNL A   1      46.262  35.145  28.562  1.00  0.00     0.055 A 
ATOM     88  C   UNL A   1      46.778  34.382  30.786  1.00  0.00     0.041 A 
ATOM     89  F   UNL A   1      45.988  32.300  31.516  1.00  0.00    -0.206 F 
ATOM     90  C   UNL A   1      46.899  35.348  29.789  1.00  0.00     0.022 A 
BRANCH  87  91
ATOM     91  S   UNL A   1      46.500  36.329  27.209  1.00  0.00     0.124 S 
ATOM     92  O   UNL A   1      45.635  37.432  27.616  1.00  0.00    -0.237 OA
ATOM     93  O   UNL A   1      47.935  36.589  27.269  1.00  0.00    -0.237 OA
ATOM     94  O   UNL A   1      46.054  35.594  26.027  1.00  0.00    -0.744 OA
ENDBRANCH  87  91
ENDBRANCH  61  84
ENDBRANCH  35  36
ENDBRANCH  27  30
ENDBRANCH  25  26
ENDBRANCH  24  25
ENDBRANCH   1  24
TORSDOF 18
ENDMDL
MODEL 3
REMARK VINA RESULT:     -12.0      5.046      8.378
REMARK SMILES C[C@@H](C(=O)NCCCCNC(=O)c1ccc(-c2c3nc(c(-c4cc(S(=O)(=O)[O-])ccc4F)c4ccc([nH]4)c(-c4cc(S(=O)(=O)[O-])ccc4F)c4nc(c(-c5cc(S(=O)(=O)[O-])ccc5F)c5ccc2[nH]5)C=C4)C=C3)cc1)c1ccc(C[C@@H]2CCC[C@@H]2O)cc1Br
REMARK SMILES IDX 7 1 6 2 5 3 3 4 4 5 2 7 1 8 76 9 77 10 88 11 78 12 87 13
REMARK SMILES IDX 89 14 79 15 80 16 81 17 82 18 85 19 83 20 84 21 86 22 8 24
REMARK SMILES IDX 9 25 10 26 11 27 12 29 13 30 14 31 75 32 15 33 74 34 16 35
REMARK SMILES IDX 17 36 18 37 68 38 19 39 73 40 67 41 69 42 20 43 72 44 66 45
REMARK SMILES IDX 65 46 21 48 53 49 33 50 52 51 34 52 37 53 51 54 70 55 35 56
REMARK SMILES IDX 36 57 50 59 71 60 38 61 22 62 23 63 31 64 24 65 30 66 32 67
REMARK SMILES IDX 29 68 25 69 26 70 27 71 28 72 54 73 55 74 63 75 56 76 62 77
REMARK SMILES IDX 64 78 61 79 57 80 58 81 59 82 60 83 39 84 40 85 48 86 41 87
REMARK SMILES IDX 47 88 49 89 46 90 42 91 43 92 44 93 45 94
REMARK H PARENT 5 6 86 23 10 28 69 47 37 58
REMARK Flexibility Score: inf
ROOT
ATOM      1  C   UNL A   1      34.839  20.930  25.501  1.00  0.00     0.023 C 
ENDROOT
BRANCH   1   2
ATOM      2  C   UNL A   1      33.365  21.291  25.316  1.00  0.00     0.116 C 
BRANCH   2   3
ATOM      3  N   UNL A   1      33.130  22.021  24.088  1.00  0.00    -0.356 N 
ATOM      4  C   UNL A   1      32.528  23.225  23.866  1.00  0.00     0.227 C 
ATOM      5  O   UNL A   1      32.649  23.687  22.729  1.00  0.00    -0.274 OA
ATOM      6  H   UNL A   1      33.459  21.572  23.276  1.00  0.00     0.163 HD
BRANCH   4   7
ATOM      7  C   UNL A   1      31.848  23.991  25.013  1.00  0.00     0.106 C 
ATOM      8  C   UNL A   1      30.628  23.308  25.645  1.00  0.00     0.023 C 
BRANCH   7   9
ATOM      9  C   UNL A   1      31.479  25.433  24.648  1.00  0.00    -0.022 A 
ATOM     10  C   UNL A   1      30.230  25.643  24.029  1.00  0.00     0.006 A 
ATOM     11  C   UNL A   1      32.318  26.548  24.824  1.00  0.00     0.022 A 
ATOM     12  C   UNL A   1      29.857  26.900  23.545  1.00  0.00     0.004 A 
ATOM     13  C   UNL A   1      31.935  27.806  24.339  1.00  0.00     0.019 A 
ATOM     14  Br  UNL A   1      34.033  26.479  25.646  1.00  0.00    -0.051 Br
ATOM     15  C   UNL A   1      30.726  27.986  23.656  1.00  0.00    -0.047 A 
BRANCH  15  16
ATOM     16  C   UNL A   1      30.411  29.318  23.024  1.00  0.00     0.041 C 
BRANCH  16  17
ATOM     17  C   UNL A   1      28.978  29.872  23.207  1.00  0.00     0.022 C 
ATOM     18  C   UNL A   1      28.061  29.691  21.991  1.00  0.00     0.007 C 
ATOM     19  C   UNL A   1      28.827  31.365  23.518  1.00  0.00     0.117 C 
ATOM     20  C   UNL A   1      28.026  31.036  21.259  1.00  0.00     0.003 C 
ATOM     21  C   UNL A   1      28.731  32.046  22.157  1.00  0.00     0.032 C 
BRANCH  19  22
ATOM     22  O   UNL A   1      29.867  31.875  24.324  1.00  0.00    -0.393 OA
ATOM     23  H   UNL A   1      30.084  32.777  24.039  1.00  0.00     0.210 HD
ENDBRANCH  19  22
ENDBRANCH  16  17
ENDBRANCH  15  16
ENDBRANCH   7   9
ENDBRANCH   4   7
ENDBRANCH   2   3
ENDBRANCH   1   2
BRANCH   1  24
ATOM     24  C   UNL A   1      35.797  22.124  25.563  1.00  0.00     0.023 C 
BRANCH  24  25
ATOM     25  C   UNL A   1      37.082  21.989  24.750  1.00  0.00     0.116 C 
BRANCH  25  26
ATOM     26  N   UNL A   1      37.970  20.954  25.257  1.00  0.00    -0.352 N 
ATOM     27  C   UNL A   1      39.108  21.082  26.018  1.00  0.00     0.251 C 
ATOM     28  H   UNL A   1      37.720  20.031  25.023  1.00  0.00     0.163 HD
ATOM     29  O   UNL A   1      39.794  20.092  26.260  1.00  0.00    -0.269 OA
BRANCH  27  30
ATOM     30  C   UNL A   1      39.524  22.417  26.501  1.00  0.00     0.039 A 
ATOM     31  C   UNL A   1      40.614  22.507  27.372  1.00  0.00     0.014 A 
ATOM     32  C   UNL A   1      38.871  23.574  26.067  1.00  0.00     0.014 A 
ATOM     33  C   UNL A   1      41.111  23.763  27.729  1.00  0.00     0.010 A 
ATOM     34  C   UNL A   1      39.402  24.824  26.381  1.00  0.00     0.010 A 
ATOM     35  C   UNL A   1      40.542  24.929  27.193  1.00  0.00    -0.014 A 
BRANCH  35  36
ATOM     36  C   UNL A   1      41.166  26.262  27.409  1.00  0.00     0.031 A 
ATOM     37  C   UNL A   1      42.536  26.559  26.867  1.00  0.00     0.074 A 
ATOM     38  C   UNL A   1      40.530  27.168  28.180  1.00  0.00     0.049 A 
ATOM     39  N   UNL A   1      43.285  27.615  27.052  1.00  0.00    -0.248 NA
ATOM     40  C   UNL A   1      43.154  25.522  26.026  1.00  0.00     0.031 C 
ATOM     41  C   UNL A   1      39.213  26.976  28.795  1.00  0.00     0.029 A 
ATOM     42  N   UNL A   1      40.909  28.419  28.600  1.00  0.00    -0.354 N 
ATOM     43  C   UNL A   1      44.469  27.368  26.366  1.00  0.00     0.074 A 
ATOM     44  C   UNL A   1      44.350  26.044  25.789  1.00  0.00     0.031 C 
ATOM     45  C   UNL A   1      38.897  28.067  29.510  1.00  0.00     0.029 A 
ATOM     46  C   UNL A   1      40.003  29.016  29.447  1.00  0.00     0.049 A 
ATOM     47  H   UNL A   1      41.749  28.848  28.321  1.00  0.00     0.167 HD
ATOM     48  C   UNL A   1      45.547  28.177  26.223  1.00  0.00     0.034 A 
ATOM     49  C   UNL A   1      40.067  30.181  30.124  1.00  0.00     0.034 A 
ATOM     50  C   UNL A   1      45.642  29.500  26.787  1.00  0.00     0.049 A 
ATOM     51  C   UNL A   1      41.294  31.044  29.970  1.00  0.00     0.074 A 
ATOM     52  C   UNL A   1      46.648  30.437  26.618  1.00  0.00     0.029 A 
ATOM     53  N   UNL A   1      44.709  30.071  27.642  1.00  0.00    -0.354 N 
ATOM     54  N   UNL A   1      42.372  30.826  29.252  1.00  0.00    -0.248 NA
ATOM     55  C   UNL A   1      41.314  32.310  30.716  1.00  0.00     0.031 C 
ATOM     56  C   UNL A   1      46.357  31.543  27.423  1.00  0.00     0.029 A 
ATOM     57  C   UNL A   1      45.138  31.327  28.044  1.00  0.00     0.049 A 
ATOM     58  H   UNL A   1      43.866  29.647  27.923  1.00  0.00     0.167 HD
ATOM     59  C   UNL A   1      43.186  31.938  29.445  1.00  0.00     0.074 A 
ATOM     60  C   UNL A   1      42.467  32.834  30.328  1.00  0.00     0.031 C 
ATOM     61  C   UNL A   1      44.418  32.199  28.940  1.00  0.00     0.034 A 
BRANCH  48  62
ATOM     62  C   UNL A   1      46.727  27.645  25.450  1.00  0.00     0.023 A 
ATOM     63  C   UNL A   1      46.956  28.004  24.111  1.00  0.00     0.031 A 
ATOM     64  C   UNL A   1      47.649  26.785  26.071  1.00  0.00     0.131 A 
ATOM     65  C   UNL A   1      48.055  27.468  23.422  1.00  0.00     0.055 A 
ATOM     66  C   UNL A   1      48.775  26.305  25.401  1.00  0.00     0.041 A 
ATOM     67  F   UNL A   1      47.469  26.396  27.343  1.00  0.00    -0.206 F 
ATOM     68  C   UNL A   1      48.978  26.639  24.065  1.00  0.00     0.022 A 
BRANCH  65  69
ATOM     69  S   UNL A   1      48.213  27.796  21.646  1.00  0.00     0.124 S 
ATOM     70  O   UNL A   1      49.208  28.865  21.630  1.00  0.00    -0.237 OA
ATOM     71  O   UNL A   1      48.652  26.507  21.123  1.00  0.00    -0.237 OA
ATOM     72  O   UNL A   1      46.866  28.203  21.251  1.00  0.00    -0.744 OA
ENDBRANCH  65  69
ENDBRANCH  48  62
BRANCH  49  73
ATOM     73  C   UNL A   1      38.969  30.590  31.045  1.00  0.00     0.023 A 
ATOM     74  C   UNL A   1      37.862  31.315  30.575  1.00  0.00     0.031 A 
ATOM     75  C   UNL A   1      39.043  30.321  32.424  1.00  0.00     0.131 A 
ATOM     76  C   UNL A   1      36.906  31.797  31.482  1.00  0.00     0.055 A 
ATOM     77  C   UNL A   1      38.059  30.754  33.314  1.00  0.00     0.041 A 
ATOM     78  F   UNL A   1      40.078  29.629  32.926  1.00  0.00    -0.206 F 
ATOM     79  C   UNL A   1      36.990  31.511  32.848  1.00  0.00     0.022 A 
BRANCH  76  80
ATOM     80  S   UNL A   1      35.604  32.898  30.864  1.00  0.00     0.124 S 
ATOM     81  O   UNL A   1      36.091  34.205  31.290  1.00  0.00    -0.237 OA
ATOM     82  O   UNL A   1      35.642  32.635  29.429  1.00  0.00    -0.237 OA
ATOM     83  O   UNL A   1      34.403  32.425  31.551  1.00  0.00    -0.744 OA
ENDBRANCH  76  80
ENDBRANCH  49  73
BRANCH  61  84
ATOM     84  C   UNL A   1      45.044  33.517  29.317  1.00  0.00     0.023 A 
ATOM     85  C   UNL A   1      44.746  34.698  28.616  1.00  0.00     0.031 A 
ATOM     86  C   UNL A   1      45.963  33.589  30.378  1.00  0.00     0.131 A 
ATOM     87  C   UNL A   1      45.397  35.894  28.952  1.00  0.00     0.055 A 
ATOM     88  C   UNL A   1      46.566  34.792  30.746  1.00  0.00     0.041 A 
ATOM     89  F   UNL A   1      46.285  32.490  31.079  1.00  0.00    -0.206 F 
ATOM     90  C   UNL A   1      46.294  35.952  30.023  1.00  0.00     0.022 A 
BRANCH  87  91
ATOM     91  S   UNL A   1      45.115  37.361  27.924  1.00  0.00     0.124 S 
ATOM     92  O   UNL A   1      46.472  37.705  27.508  1.00  0.00    -0.237 OA
ATOM     93  O   UNL A   1      44.239  36.846  26.877  1.00  0.00    -0.237 OA
ATOM     94  O   UNL A   1      44.489  38.309  28.843  1.00  0.00    -0.744 OA
ENDBRANCH  87  91
ENDBRANCH  61  84
ENDBRANCH  35  36
ENDBRANCH  27  30
ENDBRANCH  25  26
ENDBRANCH  24  25
ENDBRANCH   1  24
TORSDOF 18
ENDMDL
