MODEL 1
REMARK VINA RESULT:     -12.6      0.000      0.000
REMARK SMILES O=C(NCCCCNC(=O)[C@@H]1CCC[N@@H+](Cc2cccc3ccccc23)C1)c1ccc(-c2c3nc(c(-c4cc(S(=O)(=O)[O-])ccc4F)c4ccc([nH]4)c(-c4cc(S(=O)(=O)[O-])ccc4F)c4nc(c(-c5cc(S(=O)(=O)[O-])ccc5F)c5ccc2[nH]5)C=C4)C=C3)cc1
REMARK SMILES IDX 5 1 4 2 3 3 1 4 2 5 28 7 29 8 90 9 30 10 89 11 31 12 32 13
REMARK SMILES IDX 33 14 83 15 34 16 88 17 82 18 84 19 35 20 87 21 81 22 80 23
REMARK SMILES IDX 36 25 68 26 48 27 67 28 49 29 52 30 66 31 85 32 50 33 51 34
REMARK SMILES IDX 65 36 86 37 53 38 37 39 38 40 46 41 39 42 45 43 47 44 44 45
REMARK SMILES IDX 40 46 41 47 42 48 43 49 69 50 70 51 78 52 71 53 77 54 79 55
REMARK SMILES IDX 76 56 72 57 73 58 74 59 75 60 54 61 55 62 63 63 56 64 62 65
REMARK SMILES IDX 64 66 61 67 57 68 58 69 59 70 60 71 6 72 7 73 8 74 9 75
REMARK SMILES IDX 10 77 11 78 12 79 27 80 13 81 15 82 14 83 16 85 17 86 18 87
REMARK SMILES IDX 26 88 19 89 21 90 25 91 20 92 22 93 24 94 23 95
REMARK H PARENT 3 6 84 24 52 35 8 76 15 84
REMARK Flexibility Score: inf
ROOT
ATOM      1  C   UNL A   1      32.090  31.611  26.842  1.00  0.00     0.023 C 
ENDROOT
BRANCH   1   2
ATOM      2  C   UNL A   1      33.112  32.437  27.602  1.00  0.00     0.116 C 
BRANCH   2   3
ATOM      3  N   UNL A   1      32.732  33.839  27.751  1.00  0.00    -0.352 N 
ATOM      4  O   UNL A   1      32.747  35.881  28.733  1.00  0.00    -0.269 OA
ATOM      5  C   UNL A   1      33.223  34.755  28.652  1.00  0.00     0.251 C 
ATOM      6  H   UNL A   1      32.041  34.169  27.132  1.00  0.00     0.163 HD
BRANCH   5   7
ATOM      7  C   UNL A   1      34.316  34.322  29.542  1.00  0.00     0.039 A 
ATOM      8  C   UNL A   1      35.636  34.469  29.118  1.00  0.00     0.014 A 
ATOM      9  C   UNL A   1      34.011  33.644  30.724  1.00  0.00     0.014 A 
ATOM     10  C   UNL A   1      36.636  33.773  29.774  1.00  0.00     0.010 A 
ATOM     11  C   UNL A   1      35.042  33.039  31.446  1.00  0.00     0.010 A 
ATOM     12  C   UNL A   1      36.355  33.056  30.949  1.00  0.00    -0.014 A 
BRANCH  12  13
ATOM     13  C   UNL A   1      37.468  32.355  31.637  1.00  0.00     0.031 A 
ATOM     14  C   UNL A   1      38.263  31.281  30.943  1.00  0.00     0.074 A 
ATOM     15  C   UNL A   1      37.794  32.750  32.883  1.00  0.00     0.049 A 
ATOM     16  N   UNL A   1      39.278  30.588  31.393  1.00  0.00    -0.248 NA
ATOM     17  C   UNL A   1      37.859  30.929  29.574  1.00  0.00     0.031 C 
ATOM     18  C   UNL A   1      37.088  33.785  33.646  1.00  0.00     0.029 A 
ATOM     19  N   UNL A   1      38.815  32.370  33.712  1.00  0.00    -0.354 N 
ATOM     20  C   UNL A   1      39.610  29.691  30.382  1.00  0.00     0.074 A 
ATOM     21  C   UNL A   1      38.673  29.918  29.302  1.00  0.00     0.031 C 
ATOM     22  C   UNL A   1      37.743  34.011  34.793  1.00  0.00     0.029 A 
ATOM     23  C   UNL A   1      38.859  33.081  34.889  1.00  0.00     0.049 A 
ATOM     24  H   UNL A   1      39.456  31.657  33.488  1.00  0.00     0.167 HD
ATOM     25  C   UNL A   1      40.604  28.767  30.363  1.00  0.00     0.034 A 
ATOM     26  C   UNL A   1      39.694  32.984  35.939  1.00  0.00     0.034 A 
ATOM     27  C   UNL A   1      41.543  28.579  31.446  1.00  0.00     0.049 A 
ATOM     28  C   UNL A   1      40.790  31.958  35.888  1.00  0.00     0.074 A 
ATOM     29  C   UNL A   1      42.605  27.694  31.526  1.00  0.00     0.029 A 
ATOM     30  N   UNL A   1      41.535  29.291  32.640  1.00  0.00    -0.354 N 
ATOM     31  N   UNL A   1      41.080  31.109  34.929  1.00  0.00    -0.248 NA
ATOM     32  C   UNL A   1      41.666  31.875  37.060  1.00  0.00     0.031 C 
ATOM     33  C   UNL A   1      43.200  27.830  32.786  1.00  0.00     0.029 A 
ATOM     34  C   UNL A   1      42.555  28.850  33.470  1.00  0.00     0.049 A 
ATOM     35  H   UNL A   1      40.896  30.007  32.865  1.00  0.00     0.167 HD
ATOM     36  C   UNL A   1      42.186  30.398  35.380  1.00  0.00     0.074 A 
ATOM     37  C   UNL A   1      42.524  30.939  36.682  1.00  0.00     0.031 C 
ATOM     38  C   UNL A   1      42.863  29.388  34.775  1.00  0.00     0.034 A 
BRANCH  25  39
ATOM     39  C   UNL A   1      40.686  27.853  29.163  1.00  0.00     0.023 A 
ATOM     40  C   UNL A   1      41.614  28.058  28.125  1.00  0.00     0.031 A 
ATOM     41  C   UNL A   1      39.802  26.765  29.044  1.00  0.00     0.131 A 
ATOM     42  C   UNL A   1      41.588  27.233  26.988  1.00  0.00     0.055 A 
ATOM     43  C   UNL A   1      39.832  25.902  27.946  1.00  0.00     0.041 A 
ATOM     44  F   UNL A   1      38.880  26.529  29.991  1.00  0.00    -0.206 F 
ATOM     45  C   UNL A   1      40.719  26.143  26.902  1.00  0.00     0.022 A 
BRANCH  42  46
ATOM     46  S   UNL A   1      42.609  27.690  25.559  1.00  0.00     0.124 S 
ATOM     47  O   UNL A   1      41.900  28.863  25.052  1.00  0.00    -0.237 OA
ATOM     48  O   UNL A   1      43.909  27.944  26.169  1.00  0.00    -0.237 OA
ATOM     49  O   UNL A   1      42.543  26.511  24.698  1.00  0.00    -0.744 OA
ENDBRANCH  42  46
ENDBRANCH  25  39
BRANCH  26  50
ATOM     50  C   UNL A   1      39.506  33.862  37.126  1.00  0.00     0.023 A 
ATOM     51  C   UNL A   1      38.859  33.393  38.279  1.00  0.00     0.031 A 
ATOM     52  C   UNL A   1      39.967  35.191  37.121  1.00  0.00     0.131 A 
ATOM     53  C   UNL A   1      38.665  34.255  39.368  1.00  0.00     0.055 A 
ATOM     54  C   UNL A   1      39.818  36.028  38.226  1.00  0.00     0.041 A 
ATOM     55  F   UNL A   1      40.600  35.686  36.044  1.00  0.00    -0.206 F 
ATOM     56  C   UNL A   1      39.153  35.564  39.356  1.00  0.00     0.022 A 
BRANCH  53  57
ATOM     57  S   UNL A   1      37.700  33.660  40.783  1.00  0.00     0.124 S 
ATOM     58  O   UNL A   1      37.411  34.901  41.492  1.00  0.00    -0.237 OA
ATOM     59  O   UNL A   1      36.567  33.016  40.128  1.00  0.00    -0.237 OA
ATOM     60  O   UNL A   1      38.621  32.752  41.464  1.00  0.00    -0.744 OA
ENDBRANCH  53  57
ENDBRANCH  26  50
BRANCH  38  61
ATOM     61  C   UNL A   1      44.053  28.840  35.519  1.00  0.00     0.023 A 
ATOM     62  C   UNL A   1      43.934  27.748  36.396  1.00  0.00     0.031 A 
ATOM     63  C   UNL A   1      45.312  29.452  35.386  1.00  0.00     0.131 A 
ATOM     64  C   UNL A   1      45.039  27.345  37.161  1.00  0.00     0.055 A 
ATOM     65  C   UNL A   1      46.422  29.008  36.105  1.00  0.00     0.041 A 
ATOM     66  F   UNL A   1      45.479  30.500  34.564  1.00  0.00    -0.206 F 
ATOM     67  C   UNL A   1      46.285  27.958  37.011  1.00  0.00     0.022 A 
BRANCH  64  68
ATOM     68  S   UNL A   1      44.795  26.081  38.438  1.00  0.00     0.124 S 
ATOM     69  O   UNL A   1      43.984  25.090  37.737  1.00  0.00    -0.237 OA
ATOM     70  O   UNL A   1      46.164  25.682  38.747  1.00  0.00    -0.237 OA
ATOM     71  O   UNL A   1      44.103  26.802  39.506  1.00  0.00    -0.744 OA
ENDBRANCH  64  68
ENDBRANCH  38  61
ENDBRANCH  12  13
ENDBRANCH   5   7
ENDBRANCH   2   3
ENDBRANCH   1   2
BRANCH   1  72
ATOM     72  C   UNL A   1      32.293  30.102  26.960  1.00  0.00     0.023 C 
BRANCH  72  73
ATOM     73  C   UNL A   1      33.591  29.590  26.333  1.00  0.00     0.116 C 
BRANCH  73  74
ATOM     74  N   UNL A   1      33.724  28.155  26.463  1.00  0.00    -0.356 N 
ATOM     75  C   UNL A   1      33.286  27.109  25.715  1.00  0.00     0.228 C 
ATOM     76  H   UNL A   1      34.237  27.880  27.257  1.00  0.00     0.163 HD
ATOM     77  O   UNL A   1      33.673  25.997  26.093  1.00  0.00    -0.275 OA
BRANCH  75  78
ATOM     78  C   UNL A   1      32.512  27.266  24.393  1.00  0.00     0.133 C 
ATOM     79  C   UNL A   1      30.989  27.362  24.413  1.00  0.00     0.025 C 
ATOM     80  C   UNL A   1      32.879  26.111  23.418  1.00  0.00     0.276 C 
ATOM     81  C   UNL A   1      30.383  26.047  24.865  1.00  0.00     0.062 C 
ATOM     82  N   UNL A   1      32.191  24.835  23.691  1.00  0.00    -0.331 N 
ATOM     83  C   UNL A   1      30.743  24.948  23.887  1.00  0.00     0.262 C 
ATOM     84  H   UNL A   1      32.558  24.556  24.601  1.00  0.00     0.348 HD
BRANCH  82  85
ATOM     85  C   UNL A   1      32.549  23.755  22.747  1.00  0.00     0.299 C 
BRANCH  85  86
ATOM     86  C   UNL A   1      33.113  22.492  23.394  1.00  0.00     0.014 A 
ATOM     87  C   UNL A   1      32.199  21.480  23.743  1.00  0.00     0.010 A 
ATOM     88  C   UNL A   1      34.485  22.367  23.784  1.00  0.00    -0.010 A 
ATOM     89  C   UNL A   1      32.587  20.403  24.528  1.00  0.00     0.001 A 
ATOM     90  C   UNL A   1      34.862  21.256  24.582  1.00  0.00    -0.018 A 
ATOM     91  C   UNL A   1      35.503  23.296  23.455  1.00  0.00     0.009 A 
ATOM     92  C   UNL A   1      33.907  20.300  24.955  1.00  0.00     0.009 A 
ATOM     93  C   UNL A   1      36.191  21.114  25.018  1.00  0.00     0.009 A 
ATOM     94  C   UNL A   1      36.824  23.135  23.886  1.00  0.00     0.001 A 
ATOM     95  C   UNL A   1      37.167  22.045  24.670  1.00  0.00     0.001 A 
ENDBRANCH  85  86
ENDBRANCH  82  85
ENDBRANCH  75  78
ENDBRANCH  73  74
ENDBRANCH  72  73
ENDBRANCH   1  72
TORSDOF 16
ENDMDL
MODEL 2
REMARK VINA RESULT:     -12.5      5.518      9.064
REMARK SMILES O=C(NCCCCNC(=O)[C@@H]1CCC[N@@H+](Cc2cccc3ccccc23)C1)c1ccc(-c2c3nc(c(-c4cc(S(=O)(=O)[O-])ccc4F)c4ccc([nH]4)c(-c4cc(S(=O)(=O)[O-])ccc4F)c4nc(c(-c5cc(S(=O)(=O)[O-])ccc5F)c5ccc2[nH]5)C=C4)C=C3)cc1
REMARK SMILES IDX 5 1 4 2 3 3 1 4 2 5 28 7 29 8 90 9 30 10 89 11 31 12 32 13
REMARK SMILES IDX 33 14 83 15 34 16 88 17 82 18 84 19 35 20 87 21 81 22 80 23
REMARK SMILES IDX 36 25 68 26 48 27 67 28 49 29 52 30 66 31 85 32 50 33 51 34
REMARK SMILES IDX 65 36 86 37 53 38 37 39 38 40 46 41 39 42 45 43 47 44 44 45
REMARK SMILES IDX 40 46 41 47 42 48 43 49 69 50 70 51 78 52 71 53 77 54 79 55
REMARK SMILES IDX 76 56 72 57 73 58 74 59 75 60 54 61 55 62 63 63 56 64 62 65
REMARK SMILES IDX 64 66 61 67 57 68 58 69 59 70 60 71 6 72 7 73 8 74 9 75
REMARK SMILES IDX 10 77 11 78 12 79 27 80 13 81 15 82 14 83 16 85 17 86 18 87
REMARK SMILES IDX 26 88 19 89 21 90 25 91 20 92 22 93 24 94 23 95
REMARK H PARENT 3 6 84 24 52 35 8 76 15 84
REMARK Flexibility Score: inf
ROOT
ATOM      1  C   UNL A   1      35.222  21.891  25.212  1.00  0.00     0.023 C 
ENDROOT
BRANCH   1   2
ATOM      2  C   UNL A   1      36.623  22.336  25.590  1.00  0.00     0.116 C 
BRANCH   2   3
ATOM      3  N   UNL A   1      37.605  21.256  25.559  1.00  0.00    -0.352 N 
ATOM      4  O   UNL A   1      39.664  20.339  25.801  1.00  0.00    -0.269 OA
ATOM      5  C   UNL A   1      38.917  21.296  25.970  1.00  0.00     0.251 C 
ATOM      6  H   UNL A   1      37.291  20.395  25.199  1.00  0.00     0.163 HD
BRANCH   5   7
ATOM      7  C   UNL A   1      39.402  22.543  26.588  1.00  0.00     0.039 A 
ATOM      8  C   UNL A   1      38.926  23.766  26.116  1.00  0.00     0.014 A 
ATOM      9  C   UNL A   1      40.431  22.488  27.532  1.00  0.00     0.014 A 
ATOM     10  C   UNL A   1      39.607  24.926  26.440  1.00  0.00     0.010 A 
ATOM     11  C   UNL A   1      41.040  23.675  27.944  1.00  0.00     0.010 A 
ATOM     12  C   UNL A   1      40.667  24.897  27.362  1.00  0.00    -0.014 A 
BRANCH  12  13
ATOM     13  C   UNL A   1      41.344  26.173  27.706  1.00  0.00     0.031 A 
ATOM     14  C   UNL A   1      42.697  26.516  27.143  1.00  0.00     0.074 A 
ATOM     15  C   UNL A   1      40.686  27.051  28.488  1.00  0.00     0.049 A 
ATOM     16  N   UNL A   1      43.415  27.595  27.325  1.00  0.00    -0.248 NA
ATOM     17  C   UNL A   1      43.335  25.513  26.277  1.00  0.00     0.031 C 
ATOM     18  C   UNL A   1      39.367  26.818  29.085  1.00  0.00     0.029 A 
ATOM     19  N   UNL A   1      41.004  28.323  28.882  1.00  0.00    -0.354 N 
ATOM     20  C   UNL A   1      44.604  27.389  26.630  1.00  0.00     0.074 A 
ATOM     21  C   UNL A   1      44.515  26.070  26.040  1.00  0.00     0.031 C 
ATOM     22  C   UNL A   1      38.957  27.935  29.700  1.00  0.00     0.029 A 
ATOM     23  C   UNL A   1      40.015  28.932  29.619  1.00  0.00     0.049 A 
ATOM     24  H   UNL A   1      41.858  28.760  28.660  1.00  0.00     0.167 HD
ATOM     25  C   UNL A   1      45.665  28.225  26.503  1.00  0.00     0.034 A 
ATOM     26  C   UNL A   1      39.970  30.152  30.184  1.00  0.00     0.034 A 
ATOM     27  C   UNL A   1      45.716  29.548  27.082  1.00  0.00     0.049 A 
ATOM     28  C   UNL A   1      41.156  31.059  30.021  1.00  0.00     0.074 A 
ATOM     29  C   UNL A   1      46.727  30.491  26.996  1.00  0.00     0.029 A 
ATOM     30  N   UNL A   1      44.711  30.119  27.855  1.00  0.00    -0.354 N 
ATOM     31  N   UNL A   1      42.277  30.842  29.372  1.00  0.00    -0.248 NA
ATOM     32  C   UNL A   1      41.072  32.372  30.666  1.00  0.00     0.031 C 
ATOM     33  C   UNL A   1      46.359  31.604  27.762  1.00  0.00     0.029 A 
ATOM     34  C   UNL A   1      45.087  31.388  28.271  1.00  0.00     0.049 A 
ATOM     35  H   UNL A   1      43.855  29.685  28.077  1.00  0.00     0.167 HD
ATOM     36  C   UNL A   1      43.029  32.001  29.522  1.00  0.00     0.074 A 
ATOM     37  C   UNL A   1      42.219  32.921  30.297  1.00  0.00     0.031 C 
ATOM     38  C   UNL A   1      44.275  32.282  29.062  1.00  0.00     0.034 A 
BRANCH  25  39
ATOM     39  C   UNL A   1      46.876  27.709  25.760  1.00  0.00     0.023 A 
ATOM     40  C   UNL A   1      47.122  28.027  24.413  1.00  0.00     0.031 A 
ATOM     41  C   UNL A   1      47.792  26.861  26.410  1.00  0.00     0.131 A 
ATOM     42  C   UNL A   1      48.213  27.448  23.743  1.00  0.00     0.055 A 
ATOM     43  C   UNL A   1      48.918  26.349  25.760  1.00  0.00     0.041 A 
ATOM     44  F   UNL A   1      47.602  26.503  27.690  1.00  0.00    -0.206 F 
ATOM     45  C   UNL A   1      49.125  26.630  24.413  1.00  0.00     0.022 A 
BRANCH  42  46
ATOM     46  S   UNL A   1      48.344  27.665  21.946  1.00  0.00     0.124 S 
ATOM     47  O   UNL A   1      49.487  28.570  21.840  1.00  0.00    -0.237 OA
ATOM     48  O   UNL A   1      48.564  26.301  21.479  1.00  0.00    -0.237 OA
ATOM     49  O   UNL A   1      47.058  28.253  21.576  1.00  0.00    -0.744 OA
ENDBRANCH  42  46
ENDBRANCH  25  39
BRANCH  26  50
ATOM     50  C   UNL A   1      38.778  30.566  30.972  1.00  0.00     0.023 A 
ATOM     51  C   UNL A   1      37.695  31.215  30.362  1.00  0.00     0.031 A 
ATOM     52  C   UNL A   1      38.707  30.321  32.356  1.00  0.00     0.131 A 
ATOM     53  C   UNL A   1      36.601  31.626  31.138  1.00  0.00     0.055 A 
ATOM     54  C   UNL A   1      37.594  30.684  33.114  1.00  0.00     0.041 A 
ATOM     55  F   UNL A   1      39.714  29.695  32.988  1.00  0.00    -0.206 F 
ATOM     56  C   UNL A   1      36.536  31.351  32.505  1.00  0.00     0.022 A 
BRANCH  53  57
ATOM     57  S   UNL A   1      35.287  32.589  30.342  1.00  0.00     0.124 S 
ATOM     58  O   UNL A   1      34.350  32.784  31.443  1.00  0.00    -0.237 OA
ATOM     59  O   UNL A   1      36.009  33.775  29.895  1.00  0.00    -0.237 OA
ATOM     60  O   UNL A   1      34.819  31.707  29.273  1.00  0.00    -0.744 OA
ENDBRANCH  53  57
ENDBRANCH  26  50
BRANCH  38  61
ATOM     61  C   UNL A   1      44.806  33.658  29.370  1.00  0.00     0.023 A 
ATOM     62  C   UNL A   1      44.500  34.764  28.557  1.00  0.00     0.031 A 
ATOM     63  C   UNL A   1      45.670  33.854  30.462  1.00  0.00     0.131 A 
ATOM     64  C   UNL A   1      45.110  36.002  28.807  1.00  0.00     0.055 A 
ATOM     65  C   UNL A   1      46.226  35.103  30.741  1.00  0.00     0.041 A 
ATOM     66  F   UNL A   1      45.997  32.832  31.267  1.00  0.00    -0.206 F 
ATOM     67  C   UNL A   1      45.960  36.182  29.901  1.00  0.00     0.022 A 
BRANCH  64  68
ATOM     68  S   UNL A   1      44.866  37.346  27.613  1.00  0.00     0.124 S 
ATOM     69  O   UNL A   1      46.077  37.259  26.803  1.00  0.00    -0.237 OA
ATOM     70  O   UNL A   1      43.627  36.954  26.951  1.00  0.00    -0.237 OA
ATOM     71  O   UNL A   1      44.769  38.538  28.455  1.00  0.00    -0.744 OA
ENDBRANCH  64  68
ENDBRANCH  38  61
ENDBRANCH  12  13
ENDBRANCH   5   7
ENDBRANCH   2   3
ENDBRANCH   1   2
BRANCH   1  72
ATOM     72  C   UNL A   1      34.359  21.467  26.399  1.00  0.00     0.023 C 
BRANCH  72  73
ATOM     73  C   UNL A   1      32.860  21.696  26.201  1.00  0.00     0.116 C 
BRANCH  73  74
ATOM     74  N   UNL A   1      32.503  23.090  26.348  1.00  0.00    -0.356 N 
ATOM     75  C   UNL A   1      31.920  23.993  25.518  1.00  0.00     0.228 C 
ATOM     76  H   UNL A   1      32.729  23.461  27.232  1.00  0.00     0.163 HD
ATOM     77  O   UNL A   1      31.685  25.096  26.026  1.00  0.00    -0.275 OA
BRANCH  75  78
ATOM     78  C   UNL A   1      31.416  23.655  24.103  1.00  0.00     0.133 C 
ATOM     79  C   UNL A   1      32.407  23.209  23.031  1.00  0.00     0.025 C 
ATOM     80  C   UNL A   1      30.626  24.858  23.514  1.00  0.00     0.276 C 
ATOM     81  C   UNL A   1      33.336  24.350  22.664  1.00  0.00     0.062 C 
ATOM     82  N   UNL A   1      31.470  25.942  22.975  1.00  0.00    -0.331 N 
ATOM     83  C   UNL A   1      32.541  25.498  22.079  1.00  0.00     0.262 C 
ATOM     84  H   UNL A   1      31.950  26.303  23.800  1.00  0.00     0.348 HD
BRANCH  82  85
ATOM     85  C   UNL A   1      30.697  27.071  22.414  1.00  0.00     0.299 C 
BRANCH  85  86
ATOM     86  C   UNL A   1      30.792  28.375  23.204  1.00  0.00     0.014 A 
ATOM     87  C   UNL A   1      31.777  28.452  24.207  1.00  0.00     0.010 A 
ATOM     88  C   UNL A   1      29.843  29.437  23.064  1.00  0.00    -0.010 A 
ATOM     89  C   UNL A   1      31.793  29.503  25.115  1.00  0.00     0.001 A 
ATOM     90  C   UNL A   1      29.881  30.504  23.998  1.00  0.00    -0.018 A 
ATOM     91  C   UNL A   1      28.837  29.492  22.067  1.00  0.00     0.009 A 
ATOM     92  C   UNL A   1      30.842  30.513  25.019  1.00  0.00     0.009 A 
ATOM     93  C   UNL A   1      28.943  31.549  23.920  1.00  0.00     0.009 A 
ATOM     94  C   UNL A   1      27.920  30.544  21.994  1.00  0.00     0.001 A 
ATOM     95  C   UNL A   1      27.971  31.572  22.923  1.00  0.00     0.001 A 
ENDBRANCH  85  86
ENDBRANCH  82  85
ENDBRANCH  75  78
ENDBRANCH  73  74
ENDBRANCH  72  73
ENDBRANCH   1  72
TORSDOF 16
ENDMDL
MODEL 3
REMARK VINA RESULT:     -12.4      0.556      7.741
REMARK SMILES O=C(NCCCCNC(=O)[C@@H]1CCC[N@@H+](Cc2cccc3ccccc23)C1)c1ccc(-c2c3nc(c(-c4cc(S(=O)(=O)[O-])ccc4F)c4ccc([nH]4)c(-c4cc(S(=O)(=O)[O-])ccc4F)c4nc(c(-c5cc(S(=O)(=O)[O-])ccc5F)c5ccc2[nH]5)C=C4)C=C3)cc1
REMARK SMILES IDX 5 1 4 2 3 3 1 4 2 5 28 7 29 8 90 9 30 10 89 11 31 12 32 13
REMARK SMILES IDX 33 14 83 15 34 16 88 17 82 18 84 19 35 20 87 21 81 22 80 23
REMARK SMILES IDX 36 25 68 26 48 27 67 28 49 29 52 30 66 31 85 32 50 33 51 34
REMARK SMILES IDX 65 36 86 37 53 38 37 39 38 40 46 41 39 42 45 43 47 44 44 45
REMARK SMILES IDX 40 46 41 47 42 48 43 49 69 50 70 51 78 52 71 53 77 54 79 55
REMARK SMILES IDX 76 56 72 57 73 58 74 59 75 60 54 61 55 62 63 63 56 64 62 65
REMARK SMILES IDX 64 66 61 67 57 68 58 69 59 70 60 71 6 72 7 73 8 74 9 75
REMARK SMILES IDX 10 77 11 78 12 79 27 80 13 81 15 82 14 83 16 85 17 86 18 87
REMARK SMILES IDX 26 88 19 89 21 90 25 91 20 92 22 93 24 94 23 95
REMARK H PARENT 3 6 84 24 52 35 8 76 15 84
REMARK Flexibility Score: inf
ROOT
ATOM      1  C   UNL A   1      32.125  31.506  26.885  1.00  0.00     0.023 C 
ENDROOT
BRANCH   1   2
ATOM      2  C   UNL A   1      33.180  32.460  27.414  1.00  0.00     0.116 C 
BRANCH   2   3
ATOM      3  N   UNL A   1      32.677  33.810  27.650  1.00  0.00    -0.352 N 
ATOM      4  O   UNL A   1      32.527  35.788  28.747  1.00  0.00    -0.269 OA
ATOM      5  C   UNL A   1      33.102  34.716  28.594  1.00  0.00     0.251 C 
ATOM      6  H   UNL A   1      31.944  34.108  27.063  1.00  0.00     0.163 HD
BRANCH   5   7
ATOM      7  C   UNL A   1      34.249  34.337  29.438  1.00  0.00     0.039 A 
ATOM      8  C   UNL A   1      35.542  34.545  28.959  1.00  0.00     0.014 A 
ATOM      9  C   UNL A   1      34.026  33.651  30.633  1.00  0.00     0.014 A 
ATOM     10  C   UNL A   1      36.601  33.898  29.574  1.00  0.00     0.010 A 
ATOM     11  C   UNL A   1      35.112  33.097  31.313  1.00  0.00     0.010 A 
ATOM     12  C   UNL A   1      36.402  33.173  30.761  1.00  0.00    -0.014 A 
BRANCH  12  13
ATOM     13  C   UNL A   1      37.574  32.527  31.404  1.00  0.00     0.031 A 
ATOM     14  C   UNL A   1      38.023  32.921  32.785  1.00  0.00     0.074 A 
ATOM     15  C   UNL A   1      38.190  31.527  30.743  1.00  0.00     0.049 A 
ATOM     16  N   UNL A   1      39.011  32.441  33.497  1.00  0.00    -0.248 NA
ATOM     17  C   UNL A   1      37.280  34.003  33.448  1.00  0.00     0.031 C 
ATOM     18  C   UNL A   1      37.831  31.065  29.398  1.00  0.00     0.029 A 
ATOM     19  N   UNL A   1      39.210  30.693  31.116  1.00  0.00    -0.354 N 
ATOM     20  C   UNL A   1      39.035  33.186  34.674  1.00  0.00     0.074 A 
ATOM     21  C   UNL A   1      37.971  34.162  34.567  1.00  0.00     0.031 C 
ATOM     22  C   UNL A   1      38.562  29.985  29.094  1.00  0.00     0.029 A 
ATOM     23  C   UNL A   1      39.500  29.730  30.178  1.00  0.00     0.049 A 
ATOM     24  H   UNL A   1      39.688  30.775  31.972  1.00  0.00     0.167 HD
ATOM     25  C   UNL A   1      39.869  33.060  35.737  1.00  0.00     0.034 A 
ATOM     26  C   UNL A   1      40.431  28.759  30.180  1.00  0.00     0.034 A 
ATOM     27  C   UNL A   1      40.907  32.058  35.827  1.00  0.00     0.049 A 
ATOM     28  C   UNL A   1      41.336  28.639  31.373  1.00  0.00     0.074 A 
ATOM     29  C   UNL A   1      41.792  31.822  36.866  1.00  0.00     0.029 A 
ATOM     30  N   UNL A   1      41.199  31.122  34.842  1.00  0.00    -0.354 N 
ATOM     31  N   UNL A   1      41.353  29.361  32.470  1.00  0.00    -0.248 NA
ATOM     32  C   UNL A   1      42.346  27.579  31.327  1.00  0.00     0.031 C 
ATOM     33  C   UNL A   1      42.653  30.785  36.485  1.00  0.00     0.029 A 
ATOM     34  C   UNL A   1      42.263  30.325  35.237  1.00  0.00     0.049 A 
ATOM     35  H   UNL A   1      40.719  31.038  33.985  1.00  0.00     0.167 HD
ATOM     36  C   UNL A   1      42.371  28.829  33.253  1.00  0.00     0.074 A 
ATOM     37  C   UNL A   1      42.922  27.711  32.512  1.00  0.00     0.031 C 
ATOM     38  C   UNL A   1      42.812  29.228  34.474  1.00  0.00     0.034 A 
BRANCH  25  39
ATOM     39  C   UNL A   1      39.731  34.068  36.855  1.00  0.00     0.023 A 
ATOM     40  C   UNL A   1      39.251  33.715  38.129  1.00  0.00     0.031 A 
ATOM     41  C   UNL A   1      40.068  35.416  36.634  1.00  0.00     0.131 A 
ATOM     42  C   UNL A   1      39.056  34.705  39.105  1.00  0.00     0.055 A 
ATOM     43  C   UNL A   1      39.944  36.384  37.633  1.00  0.00     0.041 A 
ATOM     44  F   UNL A   1      40.512  35.821  35.433  1.00  0.00    -0.206 F 
ATOM     45  C   UNL A   1      39.420  36.034  38.874  1.00  0.00     0.022 A 
BRANCH  42  46
ATOM     46  S   UNL A   1      38.186  34.260  40.634  1.00  0.00     0.124 S 
ATOM     47  O   UNL A   1      37.081  33.452  40.122  1.00  0.00    -0.237 OA
ATOM     48  O   UNL A   1      39.210  33.540  41.382  1.00  0.00    -0.237 OA
ATOM     49  O   UNL A   1      37.794  35.552  41.195  1.00  0.00    -0.744 OA
ENDBRANCH  42  46
ENDBRANCH  25  39
BRANCH  26  50
ATOM     50  C   UNL A   1      40.566  27.852  29.008  1.00  0.00     0.023 A 
ATOM     51  C   UNL A   1      41.475  28.130  27.977  1.00  0.00     0.031 A 
ATOM     52  C   UNL A   1      39.779  26.690  28.901  1.00  0.00     0.131 A 
ATOM     53  C   UNL A   1      41.553  27.274  26.867  1.00  0.00     0.055 A 
ATOM     54  C   UNL A   1      39.899  25.815  27.822  1.00  0.00     0.041 A 
ATOM     55  F   UNL A   1      38.900  26.374  29.866  1.00  0.00    -0.206 F 
ATOM     56  C   UNL A   1      40.784  26.112  26.791  1.00  0.00     0.022 A 
BRANCH  53  57
ATOM     57  S   UNL A   1      42.633  27.741  25.488  1.00  0.00     0.124 S 
ATOM     58  O   UNL A   1      42.546  26.566  24.629  1.00  0.00    -0.237 OA
ATOM     59  O   UNL A   1      41.984  28.949  24.990  1.00  0.00    -0.237 OA
ATOM     60  O   UNL A   1      43.930  27.952  26.128  1.00  0.00    -0.744 OA
ENDBRANCH  53  57
ENDBRANCH  26  50
BRANCH  38  61
ATOM     61  C   UNL A   1      43.926  28.415  35.080  1.00  0.00     0.023 A 
ATOM     62  C   UNL A   1      43.664  27.310  35.909  1.00  0.00     0.031 A 
ATOM     63  C   UNL A   1      45.267  28.781  34.865  1.00  0.00     0.131 A 
ATOM     64  C   UNL A   1      44.725  26.653  36.550  1.00  0.00     0.055 A 
ATOM     65  C   UNL A   1      46.321  28.086  35.458  1.00  0.00     0.041 A 
ATOM     66  F   UNL A   1      45.571  29.830  34.085  1.00  0.00    -0.206 F 
ATOM     67  C   UNL A   1      46.052  27.025  36.319  1.00  0.00     0.022 A 
BRANCH  64  68
ATOM     68  S   UNL A   1      44.339  25.377  37.780  1.00  0.00     0.124 S 
ATOM     69  O   UNL A   1      43.002  24.955  37.372  1.00  0.00    -0.237 OA
ATOM     70  O   UNL A   1      45.406  24.405  37.567  1.00  0.00    -0.237 OA
ATOM     71  O   UNL A   1      44.400  26.097  39.051  1.00  0.00    -0.744 OA
ENDBRANCH  64  68
ENDBRANCH  38  61
ENDBRANCH  12  13
ENDBRANCH   5   7
ENDBRANCH   2   3
ENDBRANCH   1   2
BRANCH   1  72
ATOM     72  C   UNL A   1      32.395  30.036  27.200  1.00  0.00     0.023 C 
BRANCH  72  73
ATOM     73  C   UNL A   1      33.815  29.571  26.870  1.00  0.00     0.116 C 
BRANCH  73  74
ATOM     74  N   UNL A   1      33.911  28.128  26.814  1.00  0.00    -0.356 N 
ATOM     75  C   UNL A   1      33.697  27.220  25.827  1.00  0.00     0.228 C 
ATOM     76  H   UNL A   1      34.189  27.722  27.666  1.00  0.00     0.163 HD
ATOM     77  O   UNL A   1      33.969  26.050  26.125  1.00  0.00    -0.275 OA
BRANCH  75  78
ATOM     78  C   UNL A   1      33.313  27.596  24.385  1.00  0.00     0.133 C 
ATOM     79  C   UNL A   1      31.894  28.067  24.075  1.00  0.00     0.025 C 
ATOM     80  C   UNL A   1      33.615  26.411  23.424  1.00  0.00     0.276 C 
ATOM     81  C   UNL A   1      30.907  26.932  24.274  1.00  0.00     0.062 C 
ATOM     82  N   UNL A   1      32.601  25.339  23.434  1.00  0.00    -0.331 N 
ATOM     83  C   UNL A   1      31.216  25.803  23.315  1.00  0.00     0.262 C 
ATOM     84  H   UNL A   1      32.669  24.956  24.377  1.00  0.00     0.348 HD
BRANCH  82  85
ATOM     85  C   UNL A   1      32.905  24.227  22.508  1.00  0.00     0.299 C 
BRANCH  85  86
ATOM     86  C   UNL A   1      33.227  22.895  23.182  1.00  0.00     0.014 A 
ATOM     87  C   UNL A   1      32.149  22.031  23.454  1.00  0.00     0.010 A 
ATOM     88  C   UNL A   1      34.533  22.567  23.667  1.00  0.00    -0.010 A 
ATOM     89  C   UNL A   1      32.315  20.909  24.255  1.00  0.00     0.001 A 
ATOM     90  C   UNL A   1      34.682  21.412  24.478  1.00  0.00    -0.018 A 
ATOM     91  C   UNL A   1      35.699  23.333  23.420  1.00  0.00     0.009 A 
ATOM     92  C   UNL A   1      33.571  20.611  24.774  1.00  0.00     0.009 A 
ATOM     93  C   UNL A   1      35.940  21.075  25.007  1.00  0.00     0.009 A 
ATOM     94  C   UNL A   1      36.946  22.978  23.943  1.00  0.00     0.001 A 
ATOM     95  C   UNL A   1      37.066  21.850  24.739  1.00  0.00     0.001 A 
ENDBRANCH  85  86
ENDBRANCH  82  85
ENDBRANCH  75  78
ENDBRANCH  73  74
ENDBRANCH  72  73
ENDBRANCH   1  72
TORSDOF 16
ENDMDL
