MODEL 1
REMARK VINA RESULT:     -10.6      0.000      0.000
REMARK SMILES CC(C)[C@H]([NH2+]Cc1ccc(N(C)C)cc1)C(=O)NCCCCNC(=O)c1ccc(-c2c3nc(c(-c4cc(S(=O)(=O)[O-])ccc4F)c4ccc([nH]4)c(-c4cc(S(=O)(=O)[O-])ccc4F)c4nc(c(-c5cc(S(=O)(=O)[O-])ccc5F)c5ccc2[nH]5)C=C4)C=C3)cc1
REMARK SMILES IDX 20 1 19 2 18 3 16 4 17 5 4 7 2 8 1 9 3 10 5 11 6 14 7 15
REMARK SMILES IDX 8 16 15 17 9 18 14 19 10 20 11 21 12 22 13 23 21 24 22 25
REMARK SMILES IDX 23 26 24 27 25 29 26 30 27 31 88 32 28 33 87 34 29 35 30 36
REMARK SMILES IDX 31 37 81 38 32 39 86 40 80 41 82 42 33 43 85 44 79 45 78 46
REMARK SMILES IDX 34 48 66 49 46 50 65 51 47 52 50 53 64 54 83 55 48 56 49 57
REMARK SMILES IDX 63 59 84 60 51 61 35 62 36 63 44 64 37 65 43 66 45 67 42 68
REMARK SMILES IDX 38 69 39 70 40 71 41 72 67 73 68 74 76 75 69 76 75 77 77 78
REMARK SMILES IDX 74 79 70 80 71 81 72 82 73 83 52 84 53 85 61 86 54 87 60 88
REMARK SMILES IDX 62 89 59 90 55 91 56 92 57 93 58 94
REMARK H PARENT 18 6 5 12 5 13 23 28 82 47 50 58
REMARK Flexibility Score: inf
ROOT
ATOM      1  C   UNL A   1      33.660  27.333  26.357  1.00  0.00     0.023 C 
ENDROOT
BRANCH   1   2
ATOM      2  C   UNL A   1      33.379  26.087  25.522  1.00  0.00     0.116 C 
BRANCH   2   3
ATOM      3  N   UNL A   1      33.843  26.240  24.158  1.00  0.00    -0.351 N 
ATOM      4  C   UNL A   1      33.490  25.554  23.032  1.00  0.00     0.278 C 
ATOM      5  O   UNL A   1      33.938  25.944  21.951  1.00  0.00    -0.268 OA
ATOM      6  H   UNL A   1      34.516  26.946  24.023  1.00  0.00     0.163 HD
BRANCH   4   7
ATOM      7  C   UNL A   1      32.539  24.333  23.119  1.00  0.00     0.275 C 
BRANCH   7   8
ATOM      8  C   UNL A   1      33.147  23.032  22.504  1.00  0.00     0.051 C 
ATOM      9  C   UNL A   1      34.499  22.613  23.099  1.00  0.00     0.014 C 
ATOM     10  C   UNL A   1      32.173  21.857  22.683  1.00  0.00     0.014 C 
ENDBRANCH   7   8
BRANCH   7  11
ATOM     11  N   UNL A   1      31.174  24.778  22.732  1.00  0.00    -0.332 N 
ATOM     12  H   UNL A   1      30.715  23.984  22.286  1.00  0.00     0.347 HD
ATOM     13  H   UNL A   1      31.338  25.596  22.146  1.00  0.00     0.347 HD
BRANCH  11  14
ATOM     14  C   UNL A   1      30.277  25.262  23.767  1.00  0.00     0.297 C 
BRANCH  14  15
ATOM     15  C   UNL A   1      29.781  26.656  23.440  1.00  0.00     0.006 A 
ATOM     16  C   UNL A   1      28.427  26.977  23.565  1.00  0.00     0.012 A 
ATOM     17  C   UNL A   1      30.644  27.648  22.981  1.00  0.00     0.012 A 
ATOM     18  C   UNL A   1      27.954  28.261  23.249  1.00  0.00     0.026 A 
ATOM     19  C   UNL A   1      30.157  28.930  22.671  1.00  0.00     0.026 A 
ATOM     20  C   UNL A   1      28.799  29.282  22.789  1.00  0.00     0.036 A 
BRANCH  20  21
ATOM     21  N   UNL A   1      28.337  30.547  22.453  1.00  0.00    -0.378 N 
ATOM     22  C   UNL A   1      28.026  30.961  21.088  1.00  0.00     0.143 C 
ATOM     23  C   UNL A   1      28.014  31.519  23.493  1.00  0.00     0.143 C 
ENDBRANCH  20  21
ENDBRANCH  14  15
ENDBRANCH  11  14
ENDBRANCH   7  11
ENDBRANCH   4   7
ENDBRANCH   2   3
ENDBRANCH   1   2
BRANCH   1  24
ATOM     24  C   UNL A   1      32.680  28.486  26.129  1.00  0.00     0.023 C 
BRANCH  24  25
ATOM     25  C   UNL A   1      33.279  29.732  25.483  1.00  0.00     0.116 C 
BRANCH  25  26
ATOM     26  N   UNL A   1      32.826  30.964  26.107  1.00  0.00    -0.352 N 
ATOM     27  C   UNL A   1      33.342  31.619  27.199  1.00  0.00     0.251 C 
ATOM     28  H   UNL A   1      32.041  31.389  25.691  1.00  0.00     0.163 HD
ATOM     29  O   UNL A   1      32.739  32.574  27.681  1.00  0.00    -0.269 OA
BRANCH  27  30
ATOM     30  C   UNL A   1      34.603  31.141  27.805  1.00  0.00     0.039 A 
ATOM     31  C   UNL A   1      35.693  32.012  27.876  1.00  0.00     0.014 A 
ATOM     32  C   UNL A   1      34.697  29.848  28.328  1.00  0.00     0.014 A 
ATOM     33  C   UNL A   1      36.855  31.610  28.538  1.00  0.00     0.010 A 
ATOM     34  C   UNL A   1      35.829  29.476  29.048  1.00  0.00     0.010 A 
ATOM     35  C   UNL A   1      36.919  30.353  29.164  1.00  0.00    -0.014 A 
BRANCH  35  36
ATOM     36  C   UNL A   1      38.115  29.937  29.941  1.00  0.00     0.031 A 
ATOM     37  C   UNL A   1      38.358  30.513  31.311  1.00  0.00     0.074 A 
ATOM     38  C   UNL A   1      39.013  29.095  29.392  1.00  0.00     0.049 A 
ATOM     39  N   UNL A   1      39.384  30.352  32.106  1.00  0.00    -0.248 NA
ATOM     40  C   UNL A   1      37.322  31.412  31.838  1.00  0.00     0.031 C 
ATOM     41  C   UNL A   1      38.904  28.498  28.058  1.00  0.00     0.029 A 
ATOM     42  N   UNL A   1      40.198  28.603  29.877  1.00  0.00    -0.354 N 
ATOM     43  C   UNL A   1      39.123  31.138  33.224  1.00  0.00     0.074 A 
ATOM     44  C   UNL A   1      37.871  31.821  32.971  1.00  0.00     0.031 C 
ATOM     45  C   UNL A   1      39.967  27.704  27.843  1.00  0.00     0.029 A 
ATOM     46  C   UNL A   1      40.856  27.771  28.999  1.00  0.00     0.049 A 
ATOM     47  H   UNL A   1      40.546  28.824  30.772  1.00  0.00     0.167 HD
ATOM     48  C   UNL A   1      39.847  31.259  34.364  1.00  0.00     0.034 A 
ATOM     49  C   UNL A   1      42.045  27.145  29.108  1.00  0.00     0.034 A 
ATOM     50  C   UNL A   1      41.086  30.562  34.606  1.00  0.00     0.049 A 
ATOM     51  C   UNL A   1      42.846  27.320  30.375  1.00  0.00     0.074 A 
ATOM     52  C   UNL A   1      41.878  30.579  35.742  1.00  0.00     0.029 A 
ATOM     53  N   UNL A   1      41.719  29.725  33.696  1.00  0.00    -0.354 N 
ATOM     54  N   UNL A   1      42.564  28.035  31.440  1.00  0.00    -0.248 NA
ATOM     55  C   UNL A   1      44.120  26.595  30.457  1.00  0.00     0.031 C 
ATOM     56  C   UNL A   1      43.017  29.804  35.495  1.00  0.00     0.029 A 
ATOM     57  C   UNL A   1      42.902  29.243  34.234  1.00  0.00     0.049 A 
ATOM     58  H   UNL A   1      41.377  29.507  32.798  1.00  0.00     0.167 HD
ATOM     59  C   UNL A   1      43.610  27.814  32.331  1.00  0.00     0.074 A 
ATOM     60  C   UNL A   1      44.520  26.892  31.685  1.00  0.00     0.031 C 
ATOM     61  C   UNL A   1      43.801  28.325  33.574  1.00  0.00     0.034 A 
BRANCH  48  62
ATOM     62  C   UNL A   1      39.320  32.198  35.424  1.00  0.00     0.023 A 
ATOM     63  C   UNL A   1      39.737  33.540  35.492  1.00  0.00     0.031 A 
ATOM     64  C   UNL A   1      38.409  31.744  36.393  1.00  0.00     0.131 A 
ATOM     65  C   UNL A   1      39.304  34.357  36.546  1.00  0.00     0.055 A 
ATOM     66  C   UNL A   1      37.916  32.586  37.393  1.00  0.00     0.041 A 
ATOM     67  F   UNL A   1      37.990  30.468  36.393  1.00  0.00    -0.206 F 
ATOM     68  C   UNL A   1      38.376  33.897  37.484  1.00  0.00     0.022 A 
BRANCH  65  69
ATOM     69  S   UNL A   1      40.078  35.982  36.757  1.00  0.00     0.124 S 
ATOM     70  O   UNL A   1      39.686  36.658  35.521  1.00  0.00    -0.237 OA
ATOM     71  O   UNL A   1      39.452  36.475  37.978  1.00  0.00    -0.237 OA
ATOM     72  O   UNL A   1      41.503  35.674  36.864  1.00  0.00    -0.744 OA
ENDBRANCH  65  69
ENDBRANCH  48  62
BRANCH  49  73
ATOM     73  C   UNL A   1      42.566  26.304  27.992  1.00  0.00     0.023 A 
ATOM     74  C   UNL A   1      42.227  24.946  27.894  1.00  0.00     0.031 A 
ATOM     75  C   UNL A   1      43.458  26.831  27.041  1.00  0.00     0.131 A 
ATOM     76  C   UNL A   1      42.818  24.146  26.902  1.00  0.00     0.055 A 
ATOM     77  C   UNL A   1      43.999  26.045  26.022  1.00  0.00     0.041 A 
ATOM     78  F   UNL A   1      43.813  28.125  27.086  1.00  0.00    -0.206 F 
ATOM     79  C   UNL A   1      43.693  24.690  25.959  1.00  0.00     0.022 A 
BRANCH  76  80
ATOM     80  S   UNL A   1      42.502  22.361  26.926  1.00  0.00     0.124 S 
ATOM     81  O   UNL A   1      42.441  22.089  28.358  1.00  0.00    -0.237 OA
ATOM     82  O   UNL A   1      41.240  22.267  26.201  1.00  0.00    -0.237 OA
ATOM     83  O   UNL A   1      43.660  21.801  26.233  1.00  0.00    -0.744 OA
ENDBRANCH  76  80
ENDBRANCH  49  73
BRANCH  61  84
ATOM     84  C   UNL A   1      45.016  27.848  34.333  1.00  0.00     0.023 A 
ATOM     85  C   UNL A   1      44.968  26.729  35.184  1.00  0.00     0.031 A 
ATOM     86  C   UNL A   1      46.237  28.533  34.208  1.00  0.00     0.131 A 
ATOM     87  C   UNL A   1      46.105  26.363  35.920  1.00  0.00     0.055 A 
ATOM     88  C   UNL A   1      47.380  28.128  34.897  1.00  0.00     0.041 A 
ATOM     89  F   UNL A   1      46.340  29.609  33.411  1.00  0.00    -0.206 F 
ATOM     90  C   UNL A   1      47.315  27.045  35.769  1.00  0.00     0.022 A 
BRANCH  87  91
ATOM     91  S   UNL A   1      45.958  25.035  37.146  1.00  0.00     0.124 S 
ATOM     92  O   UNL A   1      44.532  24.726  37.091  1.00  0.00    -0.237 OA
ATOM     93  O   UNL A   1      46.853  24.014  36.610  1.00  0.00    -0.237 OA
ATOM     94  O   UNL A   1      46.409  25.663  38.387  1.00  0.00    -0.744 OA
ENDBRANCH  87  91
ENDBRANCH  61  84
ENDBRANCH  35  36
ENDBRANCH  27  30
ENDBRANCH  25  26
ENDBRANCH  24  25
ENDBRANCH   1  24
TORSDOF 19
ENDMDL
MODEL 2
REMARK VINA RESULT:     -10.5      5.548      8.547
REMARK SMILES CC(C)[C@H]([NH2+]Cc1ccc(N(C)C)cc1)C(=O)NCCCCNC(=O)c1ccc(-c2c3nc(c(-c4cc(S(=O)(=O)[O-])ccc4F)c4ccc([nH]4)c(-c4cc(S(=O)(=O)[O-])ccc4F)c4nc(c(-c5cc(S(=O)(=O)[O-])ccc5F)c5ccc2[nH]5)C=C4)C=C3)cc1
REMARK SMILES IDX 20 1 19 2 18 3 16 4 17 5 4 7 2 8 1 9 3 10 5 11 6 14 7 15
REMARK SMILES IDX 8 16 15 17 9 18 14 19 10 20 11 21 12 22 13 23 21 24 22 25
REMARK SMILES IDX 23 26 24 27 25 29 26 30 27 31 88 32 28 33 87 34 29 35 30 36
REMARK SMILES IDX 31 37 81 38 32 39 86 40 80 41 82 42 33 43 85 44 79 45 78 46
REMARK SMILES IDX 34 48 66 49 46 50 65 51 47 52 50 53 64 54 83 55 48 56 49 57
REMARK SMILES IDX 63 59 84 60 51 61 35 62 36 63 44 64 37 65 43 66 45 67 42 68
REMARK SMILES IDX 38 69 39 70 40 71 41 72 67 73 68 74 76 75 69 76 75 77 77 78
REMARK SMILES IDX 74 79 70 80 71 81 72 82 73 83 52 84 53 85 61 86 54 87 60 88
REMARK SMILES IDX 62 89 59 90 55 91 56 92 57 93 58 94
REMARK H PARENT 18 6 5 12 5 13 23 28 82 47 50 58
REMARK Flexibility Score: inf
ROOT
ATOM      1  C   UNL A   1      37.245  21.578  24.766  1.00  0.00     0.023 C 
ENDROOT
BRANCH   1   2
ATOM      2  C   UNL A   1      36.142  21.881  25.775  1.00  0.00     0.116 C 
BRANCH   2   3
ATOM      3  N   UNL A   1      35.070  20.908  25.706  1.00  0.00    -0.351 N 
ATOM      4  C   UNL A   1      33.758  21.074  25.367  1.00  0.00     0.278 C 
ATOM      5  O   UNL A   1      33.054  20.067  25.266  1.00  0.00    -0.268 OA
ATOM      6  H   UNL A   1      35.328  19.986  25.939  1.00  0.00     0.163 HD
BRANCH   4   7
ATOM      7  C   UNL A   1      33.186  22.491  25.104  1.00  0.00     0.275 C 
BRANCH   7   8
ATOM      8  C   UNL A   1      33.231  23.418  26.360  1.00  0.00     0.051 C 
ATOM      9  C   UNL A   1      33.407  24.912  26.048  1.00  0.00     0.014 C 
ATOM     10  C   UNL A   1      31.941  23.261  27.179  1.00  0.00     0.014 C 
ENDBRANCH   7   8
BRANCH   7  11
ATOM     11  N   UNL A   1      31.929  22.346  24.323  1.00  0.00    -0.332 N 
ATOM     12  H   UNL A   1      31.187  22.785  24.868  1.00  0.00     0.347 HD
ATOM     13  H   UNL A   1      31.847  21.341  24.171  1.00  0.00     0.347 HD
BRANCH  11  14
ATOM     14  C   UNL A   1      31.867  22.909  22.986  1.00  0.00     0.297 C 
BRANCH  14  15
ATOM     15  C   UNL A   1      31.556  24.391  23.040  1.00  0.00     0.006 A 
ATOM     16  C   UNL A   1      32.273  25.297  22.255  1.00  0.00     0.012 A 
ATOM     17  C   UNL A   1      30.573  24.900  23.886  1.00  0.00     0.012 A 
ATOM     18  C   UNL A   1      32.004  26.675  22.309  1.00  0.00     0.026 A 
ATOM     19  C   UNL A   1      30.312  26.280  23.928  1.00  0.00     0.026 A 
ATOM     20  C   UNL A   1      31.017  27.217  23.148  1.00  0.00     0.036 A 
BRANCH  20  21
ATOM     21  N   UNL A   1      30.760  28.579  23.224  1.00  0.00    -0.378 N 
ATOM     22  C   UNL A   1      30.090  29.337  22.172  1.00  0.00     0.143 C 
ATOM     23  C   UNL A   1      31.046  29.320  24.448  1.00  0.00     0.143 C 
ENDBRANCH  20  21
ENDBRANCH  14  15
ENDBRANCH  11  14
ENDBRANCH   7  11
ENDBRANCH   4   7
ENDBRANCH   2   3
ENDBRANCH   1   2
BRANCH   1  24
ATOM     24  C   UNL A   1      38.089  20.345  25.097  1.00  0.00     0.023 C 
BRANCH  24  25
ATOM     25  C   UNL A   1      39.302  20.605  25.985  1.00  0.00     0.116 C 
BRANCH  25  26
ATOM     26  N   UNL A   1      40.237  19.492  26.002  1.00  0.00    -0.352 N 
ATOM     27  C   UNL A   1      41.605  19.517  26.131  1.00  0.00     0.251 C 
ATOM     28  H   UNL A   1      39.837  18.598  25.909  1.00  0.00     0.163 HD
ATOM     29  O   UNL A   1      42.252  18.486  25.974  1.00  0.00    -0.269 OA
BRANCH  27  30
ATOM     30  C   UNL A   1      42.286  20.797  26.420  1.00  0.00     0.039 A 
ATOM     31  C   UNL A   1      42.622  21.640  25.358  1.00  0.00     0.014 A 
ATOM     32  C   UNL A   1      42.564  21.174  27.737  1.00  0.00     0.014 A 
ATOM     33  C   UNL A   1      43.171  22.897  25.624  1.00  0.00     0.010 A 
ATOM     34  C   UNL A   1      43.046  22.454  28.001  1.00  0.00     0.010 A 
ATOM     35  C   UNL A   1      43.351  23.330  26.948  1.00  0.00    -0.014 A 
BRANCH  35  36
ATOM     36  C   UNL A   1      43.859  24.693  27.253  1.00  0.00     0.031 A 
ATOM     37  C   UNL A   1      42.919  25.745  27.776  1.00  0.00     0.074 A 
ATOM     38  C   UNL A   1      45.147  25.001  26.999  1.00  0.00     0.049 A 
ATOM     39  N   UNL A   1      43.143  27.012  28.013  1.00  0.00    -0.248 NA
ATOM     40  C   UNL A   1      41.536  25.319  28.037  1.00  0.00     0.031 C 
ATOM     41  C   UNL A   1      46.147  24.076  26.459  1.00  0.00     0.029 A 
ATOM     42  N   UNL A   1      45.836  26.178  27.149  1.00  0.00    -0.354 N 
ATOM     43  C   UNL A   1      41.928  27.537  28.441  1.00  0.00     0.074 A 
ATOM     44  C   UNL A   1      40.959  26.463  28.368  1.00  0.00     0.031 C 
ATOM     45  C   UNL A   1      47.323  24.715  26.345  1.00  0.00     0.029 A 
ATOM     46  C   UNL A   1      47.153  26.106  26.756  1.00  0.00     0.049 A 
ATOM     47  H   UNL A   1      45.425  27.000  27.505  1.00  0.00     0.167 HD
ATOM     48  C   UNL A   1      41.652  28.792  28.875  1.00  0.00     0.034 A 
ATOM     49  C   UNL A   1      48.111  27.054  26.719  1.00  0.00     0.034 A 
ATOM     50  C   UNL A   1      42.630  29.848  28.952  1.00  0.00     0.049 A 
ATOM     51  C   UNL A   1      47.770  28.450  27.180  1.00  0.00     0.074 A 
ATOM     52  C   UNL A   1      42.469  31.142  29.418  1.00  0.00     0.029 A 
ATOM     53  N   UNL A   1      43.956  29.736  28.550  1.00  0.00    -0.354 N 
ATOM     54  N   UNL A   1      46.625  28.920  27.620  1.00  0.00    -0.248 NA
ATOM     55  C   UNL A   1      48.855  29.440  27.147  1.00  0.00     0.031 C 
ATOM     56  C   UNL A   1      43.676  31.828  29.239  1.00  0.00     0.029 A 
ATOM     57  C   UNL A   1      44.613  30.943  28.732  1.00  0.00     0.049 A 
ATOM     58  H   UNL A   1      44.368  28.918  28.187  1.00  0.00     0.167 HD
ATOM     59  C   UNL A   1      46.866  30.251  27.951  1.00  0.00     0.074 A 
ATOM     60  C   UNL A   1      48.264  30.504  27.672  1.00  0.00     0.031 C 
ATOM     61  C   UNL A   1      46.009  31.180  28.445  1.00  0.00     0.034 A 
BRANCH  48  62
ATOM     62  C   UNL A   1      40.227  29.088  29.279  1.00  0.00     0.023 A 
ATOM     63  C   UNL A   1      39.822  29.067  30.626  1.00  0.00     0.031 A 
ATOM     64  C   UNL A   1      39.253  29.373  28.306  1.00  0.00     0.131 A 
ATOM     65  C   UNL A   1      38.473  29.250  30.956  1.00  0.00     0.055 A 
ATOM     66  C   UNL A   1      37.925  29.637  28.648  1.00  0.00     0.041 A 
ATOM     67  F   UNL A   1      39.573  29.388  27.002  1.00  0.00    -0.206 F 
ATOM     68  C   UNL A   1      37.524  29.561  29.979  1.00  0.00     0.022 A 
BRANCH  65  69
ATOM     69  S   UNL A   1      37.949  28.938  32.663  1.00  0.00     0.124 S 
ATOM     70  O   UNL A   1      36.692  29.682  32.727  1.00  0.00    -0.237 OA
ATOM     71  O   UNL A   1      37.832  27.485  32.697  1.00  0.00    -0.237 OA
ATOM     72  O   UNL A   1      39.036  29.496  33.465  1.00  0.00    -0.744 OA
ENDBRANCH  65  69
ENDBRANCH  48  62
BRANCH  49  73
ATOM     73  C   UNL A   1      49.479  26.733  26.220  1.00  0.00     0.023 A 
ATOM     74  C   UNL A   1      49.914  27.186  24.965  1.00  0.00     0.031 A 
ATOM     75  C   UNL A   1      50.352  25.921  26.966  1.00  0.00     0.131 A 
ATOM     76  C   UNL A   1      51.162  26.780  24.467  1.00  0.00     0.055 A 
ATOM     77  C   UNL A   1      51.616  25.566  26.491  1.00  0.00     0.041 A 
ATOM     78  F   UNL A   1      49.989  25.464  28.175  1.00  0.00    -0.206 F 
ATOM     79  C   UNL A   1      52.021  25.983  25.227  1.00  0.00     0.022 A 
BRANCH  76  80
ATOM     80  S   UNL A   1      51.605  27.229  22.767  1.00  0.00     0.124 S 
ATOM     81  O   UNL A   1      51.921  28.645  22.906  1.00  0.00    -0.237 OA
ATOM     82  O   UNL A   1      52.734  26.342  22.505  1.00  0.00    -0.237 OA
ATOM     83  O   UNL A   1      50.392  26.931  22.009  1.00  0.00    -0.744 OA
ENDBRANCH  76  80
ENDBRANCH  49  73
BRANCH  61  84
ATOM     84  C   UNL A   1      46.582  32.540  28.765  1.00  0.00     0.023 A 
ATOM     85  C   UNL A   1      46.567  33.590  27.831  1.00  0.00     0.031 A 
ATOM     86  C   UNL A   1      47.162  32.780  30.023  1.00  0.00     0.131 A 
ATOM     87  C   UNL A   1      47.170  34.816  28.149  1.00  0.00     0.055 A 
ATOM     88  C   UNL A   1      47.708  34.020  30.355  1.00  0.00     0.041 A 
ATOM     89  F   UNL A   1      47.206  31.812  30.952  1.00  0.00    -0.206 F 
ATOM     90  C   UNL A   1      47.726  35.043  29.410  1.00  0.00     0.022 A 
BRANCH  87  91
ATOM     91  S   UNL A   1      47.299  36.084  26.859  1.00  0.00     0.124 S 
ATOM     92  O   UNL A   1      48.281  35.496  25.952  1.00  0.00    -0.237 OA
ATOM     93  O   UNL A   1      45.931  36.160  26.357  1.00  0.00    -0.237 OA
ATOM     94  O   UNL A   1      47.758  37.267  27.586  1.00  0.00    -0.744 OA
ENDBRANCH  87  91
ENDBRANCH  61  84
ENDBRANCH  35  36
ENDBRANCH  27  30
ENDBRANCH  25  26
ENDBRANCH  24  25
ENDBRANCH   1  24
TORSDOF 19
ENDMDL
MODEL 3
REMARK VINA RESULT:     -10.3      2.123      8.467
REMARK SMILES CC(C)[C@H]([NH2+]Cc1ccc(N(C)C)cc1)C(=O)NCCCCNC(=O)c1ccc(-c2c3nc(c(-c4cc(S(=O)(=O)[O-])ccc4F)c4ccc([nH]4)c(-c4cc(S(=O)(=O)[O-])ccc4F)c4nc(c(-c5cc(S(=O)(=O)[O-])ccc5F)c5ccc2[nH]5)C=C4)C=C3)cc1
REMARK SMILES IDX 20 1 19 2 18 3 16 4 17 5 4 7 2 8 1 9 3 10 5 11 6 14 7 15
REMARK SMILES IDX 8 16 15 17 9 18 14 19 10 20 11 21 12 22 13 23 21 24 22 25
REMARK SMILES IDX 23 26 24 27 25 29 26 30 27 31 88 32 28 33 87 34 29 35 30 36
REMARK SMILES IDX 31 37 81 38 32 39 86 40 80 41 82 42 33 43 85 44 79 45 78 46
REMARK SMILES IDX 34 48 66 49 46 50 65 51 47 52 50 53 64 54 83 55 48 56 49 57
REMARK SMILES IDX 63 59 84 60 51 61 35 62 36 63 44 64 37 65 43 66 45 67 42 68
REMARK SMILES IDX 38 69 39 70 40 71 41 72 67 73 68 74 76 75 69 76 75 77 77 78
REMARK SMILES IDX 74 79 70 80 71 81 72 82 73 83 52 84 53 85 61 86 54 87 60 88
REMARK SMILES IDX 62 89 59 90 55 91 56 92 57 93 58 94
REMARK H PARENT 18 6 5 12 5 13 23 28 82 47 50 58
REMARK Flexibility Score: inf
ROOT
ATOM      1  C   UNL A   1      32.012  30.086  26.945  1.00  0.00     0.023 C 
ENDROOT
BRANCH   1   2
ATOM      2  C   UNL A   1      31.741  29.282  25.677  1.00  0.00     0.116 C 
BRANCH   2   3
ATOM      3  N   UNL A   1      32.850  29.356  24.748  1.00  0.00    -0.351 N 
ATOM      4  C   UNL A   1      32.917  28.989  23.435  1.00  0.00     0.278 C 
ATOM      5  O   UNL A   1      33.945  29.257  22.810  1.00  0.00    -0.268 OA
ATOM      6  H   UNL A   1      33.682  29.728  25.121  1.00  0.00     0.163 HD
BRANCH   4   7
ATOM      7  C   UNL A   1      31.722  28.271  22.756  1.00  0.00     0.275 C 
BRANCH   7   8
ATOM      8  C   UNL A   1      30.349  28.960  23.034  1.00  0.00     0.051 C 
ATOM      9  C   UNL A   1      29.908  29.966  21.960  1.00  0.00     0.014 C 
ATOM     10  C   UNL A   1      29.243  27.902  23.166  1.00  0.00     0.014 C 
ENDBRANCH   7   8
BRANCH   7  11
ATOM     11  N   UNL A   1      31.881  26.806  22.964  1.00  0.00    -0.332 N 
ATOM     12  H   UNL A   1      31.039  26.360  22.601  1.00  0.00     0.347 HD
ATOM     13  H   UNL A   1      32.048  26.716  23.966  1.00  0.00     0.347 HD
BRANCH  11  14
ATOM     14  C   UNL A   1      33.016  26.133  22.357  1.00  0.00     0.297 C 
BRANCH  14  15
ATOM     15  C   UNL A   1      33.596  25.100  23.301  1.00  0.00     0.006 A 
ATOM     16  C   UNL A   1      33.656  23.754  22.932  1.00  0.00     0.012 A 
ATOM     17  C   UNL A   1      34.059  25.447  24.568  1.00  0.00     0.012 A 
ATOM     18  C   UNL A   1      34.177  22.785  23.804  1.00  0.00     0.026 A 
ATOM     19  C   UNL A   1      34.580  24.468  25.431  1.00  0.00     0.026 A 
ATOM     20  C   UNL A   1      34.655  23.104  25.085  1.00  0.00     0.036 A 
BRANCH  20  21
ATOM     21  N   UNL A   1      35.151  22.150  25.963  1.00  0.00    -0.378 N 
ATOM     22  C   UNL A   1      34.434  21.691  27.150  1.00  0.00     0.143 C 
ATOM     23  C   UNL A   1      36.396  21.449  25.670  1.00  0.00     0.143 C 
ENDBRANCH  20  21
ENDBRANCH  14  15
ENDBRANCH  11  14
ENDBRANCH   7  11
ENDBRANCH   4   7
ENDBRANCH   2   3
ENDBRANCH   1   2
BRANCH   1  24
ATOM     24  C   UNL A   1      31.568  31.549  26.878  1.00  0.00     0.023 C 
BRANCH  24  25
ATOM     25  C   UNL A   1      32.687  32.560  26.646  1.00  0.00     0.116 C 
BRANCH  25  26
ATOM     26  N   UNL A   1      32.473  33.811  27.354  1.00  0.00    -0.352 N 
ATOM     27  C   UNL A   1      33.145  34.311  28.444  1.00  0.00     0.251 C 
ATOM     28  H   UNL A   1      31.748  34.379  27.007  1.00  0.00     0.163 HD
ATOM     29  O   UNL A   1      32.731  35.321  29.006  1.00  0.00    -0.269 OA
BRANCH  27  30
ATOM     30  C   UNL A   1      34.340  33.604  28.950  1.00  0.00     0.039 A 
ATOM     31  C   UNL A   1      35.605  34.132  28.680  1.00  0.00     0.014 A 
ATOM     32  C   UNL A   1      34.209  32.440  29.714  1.00  0.00     0.014 A 
ATOM     33  C   UNL A   1      36.735  33.533  29.240  1.00  0.00     0.010 A 
ATOM     34  C   UNL A   1      35.330  31.887  30.326  1.00  0.00     0.010 A 
ATOM     35  C   UNL A   1      36.605  32.429  30.099  1.00  0.00    -0.014 A 
BRANCH  35  36
ATOM     36  C   UNL A   1      37.788  31.826  30.767  1.00  0.00     0.031 A 
ATOM     37  C   UNL A   1      38.588  30.765  30.061  1.00  0.00     0.074 A 
ATOM     38  C   UNL A   1      38.101  32.184  32.028  1.00  0.00     0.049 A 
ATOM     39  N   UNL A   1      39.591  30.053  30.505  1.00  0.00    -0.248 NA
ATOM     40  C   UNL A   1      38.185  30.446  28.684  1.00  0.00     0.031 C 
ATOM     41  C   UNL A   1      37.379  33.177  32.828  1.00  0.00     0.029 A 
ATOM     42  N   UNL A   1      39.099  31.751  32.864  1.00  0.00    -0.354 N 
ATOM     43  C   UNL A   1      39.933  29.192  29.466  1.00  0.00     0.074 A 
ATOM     44  C   UNL A   1      38.987  29.433  28.396  1.00  0.00     0.031 C 
ATOM     45  C   UNL A   1      37.972  33.290  34.029  1.00  0.00     0.029 A 
ATOM     46  C   UNL A   1      39.084  32.347  34.104  1.00  0.00     0.049 A 
ATOM     47  H   UNL A   1      39.765  31.074  32.600  1.00  0.00     0.167 HD
ATOM     48  C   UNL A   1      40.954  28.302  29.402  1.00  0.00     0.034 A 
ATOM     49  C   UNL A   1      39.868  32.148  35.183  1.00  0.00     0.034 A 
ATOM     50  C   UNL A   1      41.895  28.082  30.472  1.00  0.00     0.049 A 
ATOM     51  C   UNL A   1      40.979  31.130  35.096  1.00  0.00     0.074 A 
ATOM     52  C   UNL A   1      42.992  27.237  30.497  1.00  0.00     0.029 A 
ATOM     53  N   UNL A   1      41.851  28.708  31.712  1.00  0.00    -0.354 N 
ATOM     54  N   UNL A   1      41.314  30.354  34.091  1.00  0.00    -0.248 NA
ATOM     55  C   UNL A   1      41.823  30.970  36.288  1.00  0.00     0.031 C 
ATOM     56  C   UNL A   1      43.571  27.306  31.769  1.00  0.00     0.029 A 
ATOM     57  C   UNL A   1      42.883  28.249  32.516  1.00  0.00     0.049 A 
ATOM     58  H   UNL A   1      41.183  29.380  31.981  1.00  0.00     0.167 HD
ATOM     59  C   UNL A   1      42.430  29.641  34.520  1.00  0.00     0.074 A 
ATOM     60  C   UNL A   1      42.719  30.089  35.867  1.00  0.00     0.031 C 
ATOM     61  C   UNL A   1      43.156  28.703  33.859  1.00  0.00     0.034 A 
BRANCH  48  62
ATOM     62  C   UNL A   1      41.086  27.487  28.137  1.00  0.00     0.023 A 
ATOM     63  C   UNL A   1      40.718  26.130  28.093  1.00  0.00     0.031 A 
ATOM     64  C   UNL A   1      41.608  28.065  26.966  1.00  0.00     0.131 A 
ATOM     65  C   UNL A   1      40.945  25.379  26.931  1.00  0.00     0.055 A 
ATOM     66  C   UNL A   1      41.755  27.332  25.787  1.00  0.00     0.041 A 
ATOM     67  F   UNL A   1      41.997  29.350  26.953  1.00  0.00    -0.206 F 
ATOM     68  C   UNL A   1      41.438  25.977  25.768  1.00  0.00     0.022 A 
BRANCH  65  69
ATOM     69  S   UNL A   1      40.721  23.582  27.003  1.00  0.00     0.124 S 
ATOM     70  O   UNL A   1      41.594  23.132  25.921  1.00  0.00    -0.237 OA
ATOM     71  O   UNL A   1      41.165  23.262  28.355  1.00  0.00    -0.237 OA
ATOM     72  O   UNL A   1      39.292  23.403  26.756  1.00  0.00    -0.744 OA
ENDBRANCH  65  69
ENDBRANCH  48  62
BRANCH  49  73
ATOM     73  C   UNL A   1      39.635  32.911  36.443  1.00  0.00     0.023 A 
ATOM     74  C   UNL A   1      38.783  32.412  37.441  1.00  0.00     0.031 A 
ATOM     75  C   UNL A   1      40.216  34.175  36.644  1.00  0.00     0.131 A 
ATOM     76  C   UNL A   1      38.490  33.196  38.568  1.00  0.00     0.055 A 
ATOM     77  C   UNL A   1      39.967  34.927  37.794  1.00  0.00     0.041 A 
ATOM     78  F   UNL A   1      41.043  34.697  35.725  1.00  0.00    -0.206 F 
ATOM     79  C   UNL A   1      39.086  34.445  38.757  1.00  0.00     0.022 A 
BRANCH  76  80
ATOM     80  S   UNL A   1      37.239  32.600  39.738  1.00  0.00     0.124 S 
ATOM     81  O   UNL A   1      37.808  31.325  40.157  1.00  0.00    -0.237 OA
ATOM     82  O   UNL A   1      37.233  33.661  40.740  1.00  0.00    -0.237 OA
ATOM     83  O   UNL A   1      36.029  32.508  38.923  1.00  0.00    -0.744 OA
ENDBRANCH  76  80
ENDBRANCH  49  73
BRANCH  61  84
ATOM     84  C   UNL A   1      44.363  28.144  34.570  1.00  0.00     0.023 A 
ATOM     85  C   UNL A   1      44.336  26.891  35.208  1.00  0.00     0.031 A 
ATOM     86  C   UNL A   1      45.558  28.885  34.619  1.00  0.00     0.131 A 
ATOM     87  C   UNL A   1      45.462  26.441  35.913  1.00  0.00     0.055 A 
ATOM     88  C   UNL A   1      46.693  28.406  35.272  1.00  0.00     0.041 A 
ATOM     89  F   UNL A   1      45.640  30.089  34.030  1.00  0.00    -0.206 F 
ATOM     90  C   UNL A   1      46.645  27.183  35.935  1.00  0.00     0.022 A 
BRANCH  87  91
ATOM     91  S   UNL A   1      45.332  24.911  36.878  1.00  0.00     0.124 S 
ATOM     92  O   UNL A   1      46.700  24.734  37.354  1.00  0.00    -0.237 OA
ATOM     93  O   UNL A   1      44.344  25.265  37.893  1.00  0.00    -0.237 OA
ATOM     94  O   UNL A   1      44.884  23.924  35.897  1.00  0.00    -0.744 OA
ENDBRANCH  87  91
ENDBRANCH  61  84
ENDBRANCH  35  36
ENDBRANCH  27  30
ENDBRANCH  25  26
ENDBRANCH  24  25
ENDBRANCH   1  24
TORSDOF 19
ENDMDL
