MODEL 1
REMARK VINA RESULT:     -11.8      0.000      0.000
REMARK SMILES O=C(Cc1ccccc1[C@H]1CCC[NH2+]1)NCCCCNC(=O)c1ccc(-c2c3nc(c(-c4cc(S(=O)(=O)[O-])ccc4F)c4ccc([nH]4)c(-c4cc(S(=O)(=O)[O-])ccc4F)c4nc(c(-c5cc(S(=O)(=O)[O-])ccc5F)c5ccc2[nH]5)C=C4)C=C3)cc1
REMARK SMILES IDX 18 1 17 2 16 3 15 4 1 5 2 6 3 8 4 9 5 10 9 11 6 12 8 13 7 14
REMARK SMILES IDX 10 15 11 16 14 17 12 18 13 19 19 22 20 23 21 24 22 26 23 27
REMARK SMILES IDX 24 28 85 29 25 30 84 31 26 32 27 33 28 34 78 35 29 36 83 37
REMARK SMILES IDX 77 38 79 39 30 40 82 41 76 42 75 43 31 45 63 46 43 47 62 48
REMARK SMILES IDX 44 49 47 50 61 51 80 52 45 53 46 54 60 56 81 57 48 58 32 59
REMARK SMILES IDX 33 60 41 61 34 62 40 63 42 64 39 65 35 66 36 67 37 68 38 69
REMARK SMILES IDX 64 70 65 71 73 72 66 73 72 74 74 75 71 76 67 77 68 78 69 79
REMARK SMILES IDX 70 80 49 81 50 82 58 83 51 84 57 85 59 86 56 87 52 88 53 89
REMARK SMILES IDX 54 90 55 91
REMARK H PARENT 15 7 14 20 14 21 20 25 79 44 47 55
REMARK Flexibility Score: inf
ROOT
ATOM      1  C   UNL A   1      31.673  31.777  26.830  1.00  0.00     0.023 C 
ENDROOT
BRANCH   1   2
ATOM      2  C   UNL A   1      31.818  30.258  26.677  1.00  0.00     0.023 C 
BRANCH   2   3
ATOM      3  C   UNL A   1      32.841  29.806  25.633  1.00  0.00     0.116 C 
BRANCH   3   4
ATOM      4  N   UNL A   1      32.211  29.077  24.553  1.00  0.00    -0.356 N 
ATOM      5  O   UNL A   1      33.947  29.184  23.044  1.00  0.00    -0.275 OA
ATOM      6  C   UNL A   1      32.797  28.862  23.326  1.00  0.00     0.224 C 
ATOM      7  H   UNL A   1      31.308  28.714  24.706  1.00  0.00     0.163 HD
BRANCH   6   8
ATOM      8  C   UNL A   1      31.860  28.238  22.307  1.00  0.00     0.136 C 
BRANCH   8   9
ATOM      9  C   UNL A   1      30.535  27.795  22.888  1.00  0.00    -0.030 A 
ATOM     10  C   UNL A   1      30.559  26.515  23.506  1.00  0.00     0.005 A 
ATOM     11  C   UNL A   1      29.312  28.509  22.820  1.00  0.00     0.013 A 
ATOM     12  C   UNL A   1      29.416  25.923  24.030  1.00  0.00     0.000 A 
ATOM     13  C   UNL A   1      28.166  27.858  23.353  1.00  0.00     0.010 A 
ATOM     14  C   UNL A   1      28.214  26.598  23.954  1.00  0.00     0.001 A 
BRANCH  11  15
ATOM     15  C   UNL A   1      29.032  29.849  22.120  1.00  0.00     0.214 C 
ATOM     16  C   UNL A   1      27.613  30.406  22.336  1.00  0.00     0.076 C 
ATOM     17  N   UNL A   1      29.778  31.038  22.512  1.00  0.00    -0.340 N 
ATOM     18  C   UNL A   1      27.712  31.245  23.604  1.00  0.00     0.068 C 
ATOM     19  C   UNL A   1      29.189  31.586  23.721  1.00  0.00     0.261 C 
ATOM     20  H   UNL A   1      29.734  31.732  21.766  1.00  0.00     0.346 HD
ATOM     21  H   UNL A   1      30.753  30.793  22.684  1.00  0.00     0.346 HD
ENDBRANCH  11  15
ENDBRANCH   8   9
ENDBRANCH   6   8
ENDBRANCH   3   4
ENDBRANCH   2   3
ENDBRANCH   1   2
BRANCH   1  22
ATOM     22  C   UNL A   1      32.926  32.516  27.294  1.00  0.00     0.116 C 
BRANCH  22  23
ATOM     23  N   UNL A   1      32.653  33.889  27.680  1.00  0.00    -0.352 N 
ATOM     24  C   UNL A   1      33.212  34.644  28.685  1.00  0.00     0.251 C 
ATOM     25  H   UNL A   1      31.967  34.347  27.143  1.00  0.00     0.163 HD
ATOM     26  O   UNL A   1      32.718  35.730  28.967  1.00  0.00    -0.269 OA
BRANCH  24  27
ATOM     27  C   UNL A   1      34.381  34.137  29.442  1.00  0.00     0.039 A 
ATOM     28  C   UNL A   1      34.161  33.279  30.522  1.00  0.00     0.014 A 
ATOM     29  C   UNL A   1      35.685  34.507  29.102  1.00  0.00     0.014 A 
ATOM     30  C   UNL A   1      35.248  32.741  31.217  1.00  0.00     0.010 A 
ATOM     31  C   UNL A   1      36.769  33.912  29.748  1.00  0.00     0.010 A 
ATOM     32  C   UNL A   1      36.563  33.020  30.813  1.00  0.00    -0.014 A 
BRANCH  32  33
ATOM     33  C   UNL A   1      37.728  32.383  31.488  1.00  0.00     0.031 A 
ATOM     34  C   UNL A   1      38.462  31.246  30.828  1.00  0.00     0.074 A 
ATOM     35  C   UNL A   1      38.094  32.794  32.719  1.00  0.00     0.049 A 
ATOM     36  N   UNL A   1      39.449  30.519  31.288  1.00  0.00    -0.248 NA
ATOM     37  C   UNL A   1      38.005  30.858  29.486  1.00  0.00     0.031 C 
ATOM     38  C   UNL A   1      37.443  33.863  33.479  1.00  0.00     0.029 A 
ATOM     39  N   UNL A   1      39.095  32.359  33.553  1.00  0.00    -0.354 N 
ATOM     40  C   UNL A   1      39.730  29.587  30.294  1.00  0.00     0.074 A 
ATOM     41  C   UNL A   1      38.760  29.798  29.240  1.00  0.00     0.031 C 
ATOM     42  C   UNL A   1      38.076  34.017  34.653  1.00  0.00     0.029 A 
ATOM     43  C   UNL A   1      39.141  33.025  34.758  1.00  0.00     0.049 A 
ATOM     44  H   UNL A   1      39.720  31.638  33.313  1.00  0.00     0.167 HD
ATOM     45  C   UNL A   1      40.718  28.658  30.254  1.00  0.00     0.034 A 
ATOM     46  C   UNL A   1      39.937  32.848  35.832  1.00  0.00     0.034 A 
ATOM     47  C   UNL A   1      41.678  28.459  31.314  1.00  0.00     0.049 A 
ATOM     48  C   UNL A   1      40.998  31.777  35.785  1.00  0.00     0.074 A 
ATOM     49  C   UNL A   1      42.742  27.575  31.358  1.00  0.00     0.029 A 
ATOM     50  N   UNL A   1      41.685  29.144  32.523  1.00  0.00    -0.354 N 
ATOM     51  N   UNL A   1      41.277  30.932  34.819  1.00  0.00    -0.248 NA
ATOM     52  C   UNL A   1      41.859  31.644  36.967  1.00  0.00     0.031 C 
ATOM     53  C   UNL A   1      43.342  27.670  32.618  1.00  0.00     0.029 A 
ATOM     54  C   UNL A   1      42.712  28.677  33.330  1.00  0.00     0.049 A 
ATOM     55  H   UNL A   1      41.054  29.858  32.770  1.00  0.00     0.167 HD
ATOM     56  C   UNL A   1      42.367  30.189  35.267  1.00  0.00     0.074 A 
ATOM     57  C   UNL A   1      42.703  30.699  36.581  1.00  0.00     0.031 C 
ATOM     58  C   UNL A   1      43.033  29.182  34.645  1.00  0.00     0.034 A 
BRANCH  45  59
ATOM     59  C   UNL A   1      40.789  27.771  29.031  1.00  0.00     0.023 A 
ATOM     60  C   UNL A   1      41.719  28.004  28.003  1.00  0.00     0.031 A 
ATOM     61  C   UNL A   1      39.900  26.691  28.878  1.00  0.00     0.131 A 
ATOM     62  C   UNL A   1      41.685  27.226  26.836  1.00  0.00     0.055 A 
ATOM     63  C   UNL A   1      39.932  25.863  27.753  1.00  0.00     0.041 A 
ATOM     64  F   UNL A   1      38.974  26.429  29.814  1.00  0.00    -0.206 F 
ATOM     65  C   UNL A   1      40.817  26.139  26.715  1.00  0.00     0.022 A 
BRANCH  62  66
ATOM     66  S   UNL A   1      42.679  27.757  25.414  1.00  0.00     0.124 S 
ATOM     67  O   UNL A   1      42.791  26.515  24.654  1.00  0.00    -0.237 OA
ATOM     68  O   UNL A   1      41.848  28.798  24.820  1.00  0.00    -0.237 OA
ATOM     69  O   UNL A   1      43.924  28.221  26.021  1.00  0.00    -0.744 OA
ENDBRANCH  62  66
ENDBRANCH  45  59
BRANCH  46  70
ATOM     70  C   UNL A   1      39.752  33.683  37.054  1.00  0.00     0.023 A 
ATOM     71  C   UNL A   1      39.263  33.130  38.248  1.00  0.00     0.031 A 
ATOM     72  C   UNL A   1      40.024  35.064  37.032  1.00  0.00     0.131 A 
ATOM     73  C   UNL A   1      39.013  33.960  39.353  1.00  0.00     0.055 A 
ATOM     74  C   UNL A   1      39.830  35.874  38.153  1.00  0.00     0.041 A 
ATOM     75  F   UNL A   1      40.494  35.646  35.918  1.00  0.00    -0.206 F 
ATOM     76  C   UNL A   1      39.308  35.324  39.318  1.00  0.00     0.022 A 
BRANCH  73  77
ATOM     77  S   UNL A   1      38.201  33.244  40.809  1.00  0.00     0.124 S 
ATOM     78  O   UNL A   1      36.804  33.587  40.568  1.00  0.00    -0.237 OA
ATOM     79  O   UNL A   1      38.548  31.832  40.686  1.00  0.00    -0.237 OA
ATOM     80  O   UNL A   1      38.833  33.943  41.927  1.00  0.00    -0.744 OA
ENDBRANCH  73  77
ENDBRANCH  46  70
BRANCH  58  81
ATOM     81  C   UNL A   1      44.226  28.597  35.365  1.00  0.00     0.023 A 
ATOM     82  C   UNL A   1      44.088  27.600  36.347  1.00  0.00     0.031 A 
ATOM     83  C   UNL A   1      45.523  29.054  35.067  1.00  0.00     0.131 A 
ATOM     84  C   UNL A   1      45.219  27.136  37.037  1.00  0.00     0.055 A 
ATOM     85  C   UNL A   1      46.651  28.538  35.708  1.00  0.00     0.041 A 
ATOM     86  F   UNL A   1      45.717  30.007  34.141  1.00  0.00    -0.206 F 
ATOM     87  C   UNL A   1      46.502  27.584  36.708  1.00  0.00     0.022 A 
BRANCH  84  88
ATOM     88  S   UNL A   1      44.983  26.012  38.440  1.00  0.00     0.124 S 
ATOM     89  O   UNL A   1      46.135  26.329  39.279  1.00  0.00    -0.237 OA
ATOM     90  O   UNL A   1      43.684  26.426  38.958  1.00  0.00    -0.237 OA
ATOM     91  O   UNL A   1      45.010  24.685  37.826  1.00  0.00    -0.744 OA
ENDBRANCH  84  88
ENDBRANCH  58  81
ENDBRANCH  32  33
ENDBRANCH  24  27
ENDBRANCH  22  23
ENDBRANCH   1  22
TORSDOF 16
ENDMDL
MODEL 2
REMARK VINA RESULT:     -11.6      4.295      9.463
REMARK SMILES O=C(Cc1ccccc1[C@H]1CCC[NH2+]1)NCCCCNC(=O)c1ccc(-c2c3nc(c(-c4cc(S(=O)(=O)[O-])ccc4F)c4ccc([nH]4)c(-c4cc(S(=O)(=O)[O-])ccc4F)c4nc(c(-c5cc(S(=O)(=O)[O-])ccc5F)c5ccc2[nH]5)C=C4)C=C3)cc1
REMARK SMILES IDX 18 1 17 2 16 3 15 4 1 5 2 6 3 8 4 9 5 10 9 11 6 12 8 13 7 14
REMARK SMILES IDX 10 15 11 16 14 17 12 18 13 19 19 22 20 23 21 24 22 26 23 27
REMARK SMILES IDX 24 28 85 29 25 30 84 31 26 32 27 33 28 34 78 35 29 36 83 37
REMARK SMILES IDX 77 38 79 39 30 40 82 41 76 42 75 43 31 45 63 46 43 47 62 48
REMARK SMILES IDX 44 49 47 50 61 51 80 52 45 53 46 54 60 56 81 57 48 58 32 59
REMARK SMILES IDX 33 60 41 61 34 62 40 63 42 64 39 65 35 66 36 67 37 68 38 69
REMARK SMILES IDX 64 70 65 71 73 72 66 73 72 74 74 75 71 76 67 77 68 78 69 79
REMARK SMILES IDX 70 80 49 81 50 82 58 83 51 84 57 85 59 86 56 87 52 88 53 89
REMARK SMILES IDX 54 90 55 91
REMARK H PARENT 15 7 14 20 14 21 20 25 79 44 47 55
REMARK Flexibility Score: inf
ROOT
ATOM      1  C   UNL A   1      33.638  27.902  26.803  1.00  0.00     0.023 C 
ENDROOT
BRANCH   1   2
ATOM      2  C   UNL A   1      32.115  27.732  26.865  1.00  0.00     0.023 C 
BRANCH   2   3
ATOM      3  C   UNL A   1      31.580  26.440  26.243  1.00  0.00     0.116 C 
BRANCH   3   4
ATOM      4  N   UNL A   1      32.555  25.374  26.315  1.00  0.00    -0.356 N 
ATOM      5  O   UNL A   1      31.195  23.765  27.246  1.00  0.00    -0.275 OA
ATOM      6  C   UNL A   1      32.298  24.132  26.853  1.00  0.00     0.224 C 
ATOM      7  H   UNL A   1      33.457  25.547  25.958  1.00  0.00     0.163 HD
BRANCH   6   8
ATOM      8  C   UNL A   1      33.534  23.259  26.981  1.00  0.00     0.136 C 
BRANCH   8   9
ATOM      9  C   UNL A   1      34.295  23.084  25.686  1.00  0.00    -0.030 A 
ATOM     10  C   UNL A   1      35.582  23.687  25.670  1.00  0.00     0.005 A 
ATOM     11  C   UNL A   1      33.820  22.433  24.519  1.00  0.00     0.013 A 
ATOM     12  C   UNL A   1      36.389  23.684  24.539  1.00  0.00     0.000 A 
ATOM     13  C   UNL A   1      34.671  22.469  23.381  1.00  0.00     0.010 A 
ATOM     14  C   UNL A   1      35.932  23.070  23.389  1.00  0.00     0.001 A 
BRANCH  11  15
ATOM     15  C   UNL A   1      32.438  21.805  24.277  1.00  0.00     0.214 C 
ATOM     16  C   UNL A   1      32.391  20.762  23.145  1.00  0.00     0.076 C 
ATOM     17  N   UNL A   1      31.819  20.997  25.321  1.00  0.00    -0.340 N 
ATOM     18  C   UNL A   1      32.724  19.438  23.821  1.00  0.00     0.068 C 
ATOM     19  C   UNL A   1      32.393  19.664  25.287  1.00  0.00     0.261 C 
ATOM     20  H   UNL A   1      30.813  20.941  25.160  1.00  0.00     0.346 HD
ATOM     21  H   UNL A   1      31.989  21.423  26.233  1.00  0.00     0.346 HD
ENDBRANCH  11  15
ENDBRANCH   8   9
ENDBRANCH   6   8
ENDBRANCH   3   4
ENDBRANCH   2   3
ENDBRANCH   1   2
BRANCH   1  22
ATOM     22  C   UNL A   1      34.136  29.073  25.961  1.00  0.00     0.116 C 
BRANCH  22  23
ATOM     23  N   UNL A   1      33.754  30.360  26.515  1.00  0.00    -0.352 N 
ATOM     24  C   UNL A   1      34.319  31.071  27.549  1.00  0.00     0.251 C 
ATOM     25  H   UNL A   1      32.977  30.788  26.087  1.00  0.00     0.163 HD
ATOM     26  O   UNL A   1      33.740  32.059  27.987  1.00  0.00    -0.269 OA
BRANCH  24  27
ATOM     27  C   UNL A   1      35.599  30.629  28.151  1.00  0.00     0.039 A 
ATOM     28  C   UNL A   1      35.562  29.811  29.284  1.00  0.00     0.014 A 
ATOM     29  C   UNL A   1      36.829  31.022  27.617  1.00  0.00     0.014 A 
ATOM     30  C   UNL A   1      36.753  29.334  29.837  1.00  0.00     0.010 A 
ATOM     31  C   UNL A   1      38.013  30.485  28.125  1.00  0.00     0.010 A 
ATOM     32  C   UNL A   1      37.989  29.633  29.240  1.00  0.00    -0.014 A 
BRANCH  32  33
ATOM     33  C   UNL A   1      39.258  29.059  29.767  1.00  0.00     0.031 A 
ATOM     34  C   UNL A   1      39.953  29.696  30.941  1.00  0.00     0.074 A 
ATOM     35  C   UNL A   1      39.814  27.993  29.155  1.00  0.00     0.049 A 
ATOM     36  N   UNL A   1      41.098  29.387  31.494  1.00  0.00    -0.248 NA
ATOM     37  C   UNL A   1      39.282  30.852  31.554  1.00  0.00     0.031 C 
ATOM     38  C   UNL A   1      39.257  27.306  27.989  1.00  0.00     0.029 A 
ATOM     39  N   UNL A   1      40.973  27.306  29.421  1.00  0.00    -0.354 N 
ATOM     40  C   UNL A   1      41.288  30.310  32.518  1.00  0.00     0.074 A 
ATOM     41  C   UNL A   1      40.173  31.231  32.459  1.00  0.00     0.031 C 
ATOM     42  C   UNL A   1      40.060  26.281  27.657  1.00  0.00     0.029 A 
ATOM     43  C   UNL A   1      41.216  26.269  28.547  1.00  0.00     0.049 A 
ATOM     44  H   UNL A   1      41.574  27.532  30.166  1.00  0.00     0.167 HD
ATOM     45  C   UNL A   1      42.286  30.368  33.436  1.00  0.00     0.034 A 
ATOM     46  C   UNL A   1      42.257  25.417  28.459  1.00  0.00     0.034 A 
ATOM     47  C   UNL A   1      43.391  29.441  33.481  1.00  0.00     0.049 A 
ATOM     48  C   UNL A   1      43.379  25.530  29.461  1.00  0.00     0.074 A 
ATOM     49  C   UNL A   1      44.433  29.388  34.392  1.00  0.00     0.029 A 
ATOM     50  N   UNL A   1      43.609  28.413  32.572  1.00  0.00    -0.354 N 
ATOM     51  N   UNL A   1      43.521  26.384  30.449  1.00  0.00    -0.248 NA
ATOM     52  C   UNL A   1      44.475  24.561  29.342  1.00  0.00     0.031 C 
ATOM     53  C   UNL A   1      45.318  28.381  33.990  1.00  0.00     0.029 A 
ATOM     54  C   UNL A   1      44.785  27.744  32.881  1.00  0.00     0.049 A 
ATOM     55  H   UNL A   1      43.015  28.191  31.819  1.00  0.00     0.167 HD
ATOM     56  C   UNL A   1      44.707  26.030  31.089  1.00  0.00     0.074 A 
ATOM     57  C   UNL A   1      45.229  24.878  30.383  1.00  0.00     0.031 C 
ATOM     58  C   UNL A   1      45.306  26.603  32.165  1.00  0.00     0.034 A 
BRANCH  45  59
ATOM     59  C   UNL A   1      42.234  31.491  34.447  1.00  0.00     0.023 A 
ATOM     60  C   UNL A   1      41.342  31.466  35.534  1.00  0.00     0.031 A 
ATOM     61  C   UNL A   1      43.070  32.615  34.312  1.00  0.00     0.131 A 
ATOM     62  C   UNL A   1      41.248  32.572  36.391  1.00  0.00     0.055 A 
ATOM     63  C   UNL A   1      43.035  33.674  35.223  1.00  0.00     0.041 A 
ATOM     64  F   UNL A   1      43.929  32.710  33.284  1.00  0.00    -0.206 F 
ATOM     65  C   UNL A   1      42.107  33.665  36.260  1.00  0.00     0.022 A 
BRANCH  62  66
ATOM     66  S   UNL A   1      39.876  32.633  37.576  1.00  0.00     0.124 S 
ATOM     67  O   UNL A   1      40.560  32.338  38.833  1.00  0.00    -0.237 OA
ATOM     68  O   UNL A   1      39.384  33.997  37.420  1.00  0.00    -0.237 OA
ATOM     69  O   UNL A   1      38.972  31.585  37.108  1.00  0.00    -0.744 OA
ENDBRANCH  62  66
ENDBRANCH  45  59
BRANCH  46  70
ATOM     70  C   UNL A   1      42.306  24.394  27.374  1.00  0.00     0.023 A 
ATOM     71  C   UNL A   1      41.533  23.224  27.441  1.00  0.00     0.031 A 
ATOM     72  C   UNL A   1      43.164  24.553  26.270  1.00  0.00     0.131 A 
ATOM     73  C   UNL A   1      41.669  22.237  26.451  1.00  0.00     0.055 A 
ATOM     74  C   UNL A   1      43.251  23.596  25.257  1.00  0.00     0.041 A 
ATOM     75  F   UNL A   1      43.926  25.652  26.155  1.00  0.00    -0.206 F 
ATOM     76  C   UNL A   1      42.510  22.423  25.353  1.00  0.00     0.022 A 
BRANCH  73  77
ATOM     77  S   UNL A   1      40.800  20.661  26.672  1.00  0.00     0.124 S 
ATOM     78  O   UNL A   1      41.655  19.744  25.926  1.00  0.00    -0.237 OA
ATOM     79  O   UNL A   1      40.809  20.511  28.124  1.00  0.00    -0.237 OA
ATOM     80  O   UNL A   1      39.486  20.912  26.083  1.00  0.00    -0.744 OA
ENDBRANCH  73  77
ENDBRANCH  46  70
BRANCH  58  81
ATOM     81  C   UNL A   1      46.574  25.957  32.673  1.00  0.00     0.023 A 
ATOM     82  C   UNL A   1      47.826  26.206  32.084  1.00  0.00     0.031 A 
ATOM     83  C   UNL A   1      46.524  25.067  33.763  1.00  0.00     0.131 A 
ATOM     84  C   UNL A   1      48.965  25.531  32.548  1.00  0.00     0.055 A 
ATOM     85  C   UNL A   1      47.672  24.451  34.264  1.00  0.00     0.041 A 
ATOM     86  F   UNL A   1      45.356  24.786  34.364  1.00  0.00    -0.206 F 
ATOM     87  C   UNL A   1      48.899  24.671  33.648  1.00  0.00     0.022 A 
BRANCH  84  88
ATOM     88  S   UNL A   1      50.519  25.712  31.631  1.00  0.00     0.124 S 
ATOM     89  O   UNL A   1      50.315  26.981  30.938  1.00  0.00    -0.237 OA
ATOM     90  O   UNL A   1      51.513  25.721  32.698  1.00  0.00    -0.237 OA
ATOM     91  O   UNL A   1      50.549  24.532  30.767  1.00  0.00    -0.744 OA
ENDBRANCH  84  88
ENDBRANCH  58  81
ENDBRANCH  32  33
ENDBRANCH  24  27
ENDBRANCH  22  23
ENDBRANCH   1  22
TORSDOF 16
ENDMDL
MODEL 3
REMARK VINA RESULT:     -11.6      3.359      8.963
REMARK SMILES O=C(Cc1ccccc1[C@H]1CCC[NH2+]1)NCCCCNC(=O)c1ccc(-c2c3nc(c(-c4cc(S(=O)(=O)[O-])ccc4F)c4ccc([nH]4)c(-c4cc(S(=O)(=O)[O-])ccc4F)c4nc(c(-c5cc(S(=O)(=O)[O-])ccc5F)c5ccc2[nH]5)C=C4)C=C3)cc1
REMARK SMILES IDX 18 1 17 2 16 3 15 4 1 5 2 6 3 8 4 9 5 10 9 11 6 12 8 13 7 14
REMARK SMILES IDX 10 15 11 16 14 17 12 18 13 19 19 22 20 23 21 24 22 26 23 27
REMARK SMILES IDX 24 28 85 29 25 30 84 31 26 32 27 33 28 34 78 35 29 36 83 37
REMARK SMILES IDX 77 38 79 39 30 40 82 41 76 42 75 43 31 45 63 46 43 47 62 48
REMARK SMILES IDX 44 49 47 50 61 51 80 52 45 53 46 54 60 56 81 57 48 58 32 59
REMARK SMILES IDX 33 60 41 61 34 62 40 63 42 64 39 65 35 66 36 67 37 68 38 69
REMARK SMILES IDX 64 70 65 71 73 72 66 73 72 74 74 75 71 76 67 77 68 78 69 79
REMARK SMILES IDX 70 80 49 81 50 82 58 83 51 84 57 85 59 86 56 87 52 88 53 89
REMARK SMILES IDX 54 90 55 91
REMARK H PARENT 15 7 14 20 14 21 20 25 79 44 47 55
REMARK Flexibility Score: inf
ROOT
ATOM      1  C   UNL A   1      31.666  28.919  26.168  1.00  0.00     0.023 C 
ENDROOT
BRANCH   1   2
ATOM      2  C   UNL A   1      31.952  27.599  26.894  1.00  0.00     0.023 C 
BRANCH   2   3
ATOM      3  C   UNL A   1      31.482  26.341  26.161  1.00  0.00     0.116 C 
BRANCH   3   4
ATOM      4  N   UNL A   1      32.442  25.265  26.285  1.00  0.00    -0.356 N 
ATOM      5  O   UNL A   1      31.048  23.708  27.251  1.00  0.00    -0.275 OA
ATOM      6  C   UNL A   1      32.161  24.046  26.862  1.00  0.00     0.224 C 
ATOM      7  H   UNL A   1      33.351  25.414  25.936  1.00  0.00     0.163 HD
BRANCH   6   8
ATOM      8  C   UNL A   1      33.383  23.163  27.040  1.00  0.00     0.136 C 
BRANCH   8   9
ATOM      9  C   UNL A   1      34.202  22.994  25.780  1.00  0.00    -0.030 A 
ATOM     10  C   UNL A   1      35.450  23.675  25.791  1.00  0.00     0.005 A 
ATOM     11  C   UNL A   1      33.814  22.278  24.619  1.00  0.00     0.013 A 
ATOM     12  C   UNL A   1      36.299  23.686  24.690  1.00  0.00     0.000 A 
ATOM     13  C   UNL A   1      34.705  22.331  23.513  1.00  0.00     0.010 A 
ATOM     14  C   UNL A   1      35.925  23.009  23.547  1.00  0.00     0.001 A 
BRANCH  11  15
ATOM     15  C   UNL A   1      32.482  21.559  24.349  1.00  0.00     0.214 C 
ATOM     16  C   UNL A   1      32.528  20.524  23.209  1.00  0.00     0.076 C 
ATOM     17  N   UNL A   1      31.903  20.702  25.376  1.00  0.00    -0.340 N 
ATOM     18  C   UNL A   1      32.939  19.220  23.882  1.00  0.00     0.068 C 
ATOM     19  C   UNL A   1      32.569  19.412  25.343  1.00  0.00     0.261 C 
ATOM     20  H   UNL A   1      30.907  20.577  25.196  1.00  0.00     0.346 HD
ATOM     21  H   UNL A   1      32.027  21.130  26.293  1.00  0.00     0.346 HD
ENDBRANCH  11  15
ENDBRANCH   8   9
ENDBRANCH   6   8
ENDBRANCH   3   4
ENDBRANCH   2   3
ENDBRANCH   1   2
BRANCH   1  22
ATOM     22  C   UNL A   1      32.882  29.800  25.897  1.00  0.00     0.116 C 
BRANCH  22  23
ATOM     23  N   UNL A   1      32.692  31.168  26.345  1.00  0.00    -0.352 N 
ATOM     24  C   UNL A   1      33.400  31.891  27.277  1.00  0.00     0.251 C 
ATOM     25  H   UNL A   1      31.946  31.649  25.919  1.00  0.00     0.163 HD
ATOM     26  O   UNL A   1      32.971  32.978  27.648  1.00  0.00    -0.269 OA
BRANCH  24  27
ATOM     27  C   UNL A   1      34.654  31.348  27.852  1.00  0.00     0.039 A 
ATOM     28  C   UNL A   1      35.750  32.202  28.000  1.00  0.00     0.014 A 
ATOM     29  C   UNL A   1      34.759  30.007  28.233  1.00  0.00     0.014 A 
ATOM     30  C   UNL A   1      36.925  31.730  28.592  1.00  0.00     0.010 A 
ATOM     31  C   UNL A   1      35.906  29.559  28.891  1.00  0.00     0.010 A 
ATOM     32  C   UNL A   1      37.001  30.415  29.079  1.00  0.00    -0.014 A 
BRANCH  32  33
ATOM     33  C   UNL A   1      38.215  29.927  29.792  1.00  0.00     0.031 A 
ATOM     34  C   UNL A   1      38.550  30.442  31.166  1.00  0.00     0.074 A 
ATOM     35  C   UNL A   1      39.046  29.059  29.179  1.00  0.00     0.049 A 
ATOM     36  N   UNL A   1      39.596  30.193  31.913  1.00  0.00    -0.248 NA
ATOM     37  C   UNL A   1      37.594  31.383  31.767  1.00  0.00     0.031 C 
ATOM     38  C   UNL A   1      38.851  28.511  27.835  1.00  0.00     0.029 A 
ATOM     39  N   UNL A   1      40.223  28.490  29.600  1.00  0.00    -0.354 N 
ATOM     40  C   UNL A   1      39.427  30.947  33.069  1.00  0.00     0.074 A 
ATOM     41  C   UNL A   1      38.213  31.715  32.890  1.00  0.00     0.031 C 
ATOM     42  C   UNL A   1      39.857  27.668  27.554  1.00  0.00     0.029 A 
ATOM     43  C   UNL A   1      40.799  27.655  28.669  1.00  0.00     0.049 A 
ATOM     44  H   UNL A   1      40.619  28.663  30.484  1.00  0.00     0.167 HD
ATOM     45  C   UNL A   1      40.198  30.978  34.185  1.00  0.00     0.034 A 
ATOM     46  C   UNL A   1      41.960  26.969  28.699  1.00  0.00     0.034 A 
ATOM     47  C   UNL A   1      41.406  30.206  34.349  1.00  0.00     0.049 A 
ATOM     48  C   UNL A   1      42.826  27.055  29.931  1.00  0.00     0.074 A 
ATOM     49  C   UNL A   1      42.239  30.133  35.452  1.00  0.00     0.029 A 
ATOM     50  N   UNL A   1      41.963  29.381  33.379  1.00  0.00    -0.354 N 
ATOM     51  N   UNL A   1      42.629  27.742  31.033  1.00  0.00    -0.248 NA
ATOM     52  C   UNL A   1      44.065  26.267  29.927  1.00  0.00     0.031 C 
ATOM     53  C   UNL A   1      43.337  29.329  35.123  1.00  0.00     0.029 A 
ATOM     54  C   UNL A   1      43.145  28.825  33.847  1.00  0.00     0.049 A 
ATOM     55  H   UNL A   1      41.575  29.214  32.490  1.00  0.00     0.167 HD
ATOM     56  C   UNL A   1      43.704  27.440  31.866  1.00  0.00     0.074 A 
ATOM     57  C   UNL A   1      44.535  26.499  31.143  1.00  0.00     0.031 C 
ATOM     58  C   UNL A   1      43.976  27.896  33.116  1.00  0.00     0.034 A 
BRANCH  45  59
ATOM     59  C   UNL A   1      39.766  31.900  35.303  1.00  0.00     0.023 A 
ATOM     60  C   UNL A   1      39.010  31.434  36.394  1.00  0.00     0.031 A 
ATOM     61  C   UNL A   1      40.091  33.268  35.270  1.00  0.00     0.131 A 
ATOM     62  C   UNL A   1      38.536  32.337  37.357  1.00  0.00     0.055 A 
ATOM     63  C   UNL A   1      39.694  34.146  36.281  1.00  0.00     0.041 A 
ATOM     64  F   UNL A   1      40.792  33.780  34.245  1.00  0.00    -0.206 F 
ATOM     65  C   UNL A   1      38.897  33.686  37.324  1.00  0.00     0.022 A 
BRANCH  62  66
ATOM     66  S   UNL A   1      37.311  31.753  38.561  1.00  0.00     0.124 S 
ATOM     67  O   UNL A   1      38.056  31.859  39.813  1.00  0.00    -0.237 OA
ATOM     68  O   UNL A   1      36.219  32.703  38.384  1.00  0.00    -0.237 OA
ATOM     69  O   UNL A   1      37.028  30.387  38.126  1.00  0.00    -0.744 OA
ENDBRANCH  62  66
ENDBRANCH  45  59
BRANCH  46  70
ATOM     70  C   UNL A   1      42.388  26.158  27.522  1.00  0.00     0.023 A 
ATOM     71  C   UNL A   1      42.011  24.812  27.390  1.00  0.00     0.031 A 
ATOM     72  C   UNL A   1      43.222  26.707  26.531  1.00  0.00     0.131 A 
ATOM     73  C   UNL A   1      42.505  24.048  26.320  1.00  0.00     0.055 A 
ATOM     74  C   UNL A   1      43.662  25.960  25.436  1.00  0.00     0.041 A 
ATOM     75  F   UNL A   1      43.613  27.989  26.606  1.00  0.00    -0.206 F 
ATOM     76  C   UNL A   1      43.314  24.617  25.335  1.00  0.00     0.022 A 
BRANCH  73  77
ATOM     77  S   UNL A   1      42.153  22.269  26.289  1.00  0.00     0.124 S 
ATOM     78  O   UNL A   1      40.702  22.257  26.136  1.00  0.00    -0.237 OA
ATOM     79  O   UNL A   1      42.925  21.828  25.131  1.00  0.00    -0.237 OA
ATOM     80  O   UNL A   1      42.651  21.802  27.581  1.00  0.00    -0.744 OA
ENDBRANCH  73  77
ENDBRANCH  46  70
BRANCH  58  81
ATOM     81  C   UNL A   1      45.203  27.341  33.800  1.00  0.00     0.023 A 
ATOM     82  C   UNL A   1      45.149  26.197  34.615  1.00  0.00     0.031 A 
ATOM     83  C   UNL A   1      46.448  27.977  33.639  1.00  0.00     0.131 A 
ATOM     84  C   UNL A   1      46.302  25.759  35.285  1.00  0.00     0.055 A 
ATOM     85  C   UNL A   1      47.606  27.495  34.253  1.00  0.00     0.041 A 
ATOM     86  F   UNL A   1      46.562  29.077  32.877  1.00  0.00    -0.206 F 
ATOM     87  C   UNL A   1      47.534  26.389  35.092  1.00  0.00     0.022 A 
BRANCH  84  88
ATOM     88  S   UNL A   1      46.150  24.413  36.492  1.00  0.00     0.124 S 
ATOM     89  O   UNL A   1      45.016  24.856  37.297  1.00  0.00    -0.237 OA
ATOM     90  O   UNL A   1      45.913  23.254  35.640  1.00  0.00    -0.237 OA
ATOM     91  O   UNL A   1      47.440  24.423  37.181  1.00  0.00    -0.744 OA
ENDBRANCH  84  88
ENDBRANCH  58  81
ENDBRANCH  32  33
ENDBRANCH  24  27
ENDBRANCH  22  23
ENDBRANCH   1  22
TORSDOF 16
ENDMDL
