MODEL 1
REMARK VINA RESULT:     -11.5      0.000      0.000
REMARK SMILES O=C(CC1=c2ccccc2=NC1)NCCCCNC(=O)c1ccc(-c2c3nc(c(-c4cc(S(=O)(=O)[O-])ccc4F)c4ccc([nH]4)c(-c4cc(S(=O)(=O)[O-])ccc4F)c4nc(c(-c5cc(S(=O)(=O)[O-])ccc5F)c5ccc2[nH]5)C=C4)C=C3)cc1
REMARK SMILES IDX 16 1 15 2 14 3 13 4 1 5 2 6 3 8 4 9 5 10 12 11 6 12 10 13
REMARK SMILES IDX 11 14 7 15 9 16 8 17 17 18 18 19 19 20 20 22 21 23 22 24
REMARK SMILES IDX 83 25 23 26 82 27 24 28 25 29 26 30 76 31 27 32 81 33 75 34
REMARK SMILES IDX 77 35 28 36 80 37 74 38 73 39 29 41 61 42 41 43 60 44 42 45
REMARK SMILES IDX 45 46 59 47 78 48 43 49 44 50 58 52 79 53 46 54 30 55 31 56
REMARK SMILES IDX 39 57 32 58 38 59 40 60 37 61 33 62 34 63 35 64 36 65 62 66
REMARK SMILES IDX 63 67 71 68 64 69 70 70 72 71 69 72 65 73 66 74 67 75 68 76
REMARK SMILES IDX 47 77 48 78 56 79 49 80 55 81 57 82 54 83 50 84 51 85 52 86
REMARK SMILES IDX 53 87
REMARK H PARENT 13 7 18 21 77 40 45 51
REMARK Flexibility Score: inf
ROOT
ATOM      1  C   UNL A   1      32.416  29.829  25.284  1.00  0.00     0.023 C 
ENDROOT
BRANCH   1   2
ATOM      2  C   UNL A   1      33.320  28.599  25.188  1.00  0.00     0.023 C 
BRANCH   2   3
ATOM      3  C   UNL A   1      33.342  27.705  26.423  1.00  0.00     0.116 C 
BRANCH   3   4
ATOM      4  N   UNL A   1      33.222  26.296  26.107  1.00  0.00    -0.356 N 
ATOM      5  O   UNL A   1      31.035  26.070  26.786  1.00  0.00    -0.275 OA
ATOM      6  C   UNL A   1      32.040  25.600  26.261  1.00  0.00     0.224 C 
ATOM      7  H   UNL A   1      34.014  25.817  25.770  1.00  0.00     0.163 HD
BRANCH   6   8
ATOM      8  C   UNL A   1      32.069  24.194  25.674  1.00  0.00     0.133 C 
BRANCH   8   9
ATOM      9  C   UNL A   1      33.161  23.952  24.675  1.00  0.00    -0.030 C 
ATOM     10  C   UNL A   1      34.432  23.576  24.818  1.00  0.00     0.001 A 
ATOM     11  C   UNL A   1      32.834  24.130  23.218  1.00  0.00     0.175 C 
ATOM     12  C   UNL A   1      35.309  23.291  25.912  1.00  0.00     0.010 A 
ATOM     13  C   UNL A   1      34.895  23.449  23.423  1.00  0.00     0.065 A 
ATOM     14  N   UNL A   1      34.060  23.756  22.480  1.00  0.00    -0.280 NA
ATOM     15  C   UNL A   1      36.552  22.852  25.656  1.00  0.00     0.001 A 
ATOM     16  C   UNL A   1      36.274  22.954  23.222  1.00  0.00     0.028 A 
ATOM     17  C   UNL A   1      37.026  22.667  24.297  1.00  0.00     0.002 A 
ENDBRANCH   8   9
ENDBRANCH   6   8
ENDBRANCH   3   4
ENDBRANCH   2   3
ENDBRANCH   1   2
BRANCH   1  18
ATOM     18  C   UNL A   1      32.012  30.247  26.695  1.00  0.00     0.116 C 
BRANCH  18  19
ATOM     19  N   UNL A   1      31.957  31.689  26.876  1.00  0.00    -0.352 N 
ATOM     20  C   UNL A   1      32.887  32.536  27.439  1.00  0.00     0.251 C 
ATOM     21  H   UNL A   1      31.137  32.124  26.548  1.00  0.00     0.163 HD
ATOM     22  O   UNL A   1      32.610  33.720  27.610  1.00  0.00    -0.269 OA
BRANCH  20  23
ATOM     23  C   UNL A   1      34.198  32.006  27.882  1.00  0.00     0.039 A 
ATOM     24  C   UNL A   1      34.351  30.660  28.215  1.00  0.00     0.014 A 
ATOM     25  C   UNL A   1      35.281  32.882  28.003  1.00  0.00     0.014 A 
ATOM     26  C   UNL A   1      35.516  30.234  28.849  1.00  0.00     0.010 A 
ATOM     27  C   UNL A   1      36.484  32.430  28.559  1.00  0.00     0.010 A 
ATOM     28  C   UNL A   1      36.590  31.119  29.046  1.00  0.00    -0.014 A 
BRANCH  28  29
ATOM     29  C   UNL A   1      37.801  30.650  29.774  1.00  0.00     0.031 A 
ATOM     30  C   UNL A   1      38.058  31.064  31.199  1.00  0.00     0.074 A 
ATOM     31  C   UNL A   1      38.647  29.797  29.164  1.00  0.00     0.049 A 
ATOM     32  N   UNL A   1      39.021  30.691  32.003  1.00  0.00    -0.248 NA
ATOM     33  C   UNL A   1      37.120  32.024  31.802  1.00  0.00     0.031 C 
ATOM     34  C   UNL A   1      38.505  29.328  27.787  1.00  0.00     0.029 A 
ATOM     35  N   UNL A   1      39.771  29.155  29.622  1.00  0.00    -0.354 N 
ATOM     36  C   UNL A   1      38.819  31.382  33.193  1.00  0.00     0.074 A 
ATOM     37  C   UNL A   1      37.660  32.222  32.997  1.00  0.00     0.031 C 
ATOM     38  C   UNL A   1      39.464  28.428  27.530  1.00  0.00     0.029 A 
ATOM     39  C   UNL A   1      40.331  28.300  28.699  1.00  0.00     0.049 A 
ATOM     40  H   UNL A   1      40.141  29.292  30.523  1.00  0.00     0.167 HD
ATOM     41  C   UNL A   1      39.528  31.309  34.346  1.00  0.00     0.034 A 
ATOM     42  C   UNL A   1      41.417  27.505  28.778  1.00  0.00     0.034 A 
ATOM     43  C   UNL A   1      40.662  30.443  34.541  1.00  0.00     0.049 A 
ATOM     44  C   UNL A   1      42.198  27.453  30.065  1.00  0.00     0.074 A 
ATOM     45  C   UNL A   1      41.399  30.253  35.698  1.00  0.00     0.029 A 
ATOM     46  N   UNL A   1      41.227  29.628  33.571  1.00  0.00    -0.354 N 
ATOM     47  N   UNL A   1      41.950  28.061  31.202  1.00  0.00    -0.248 NA
ATOM     48  C   UNL A   1      43.403  26.614  30.086  1.00  0.00     0.031 C 
ATOM     49  C   UNL A   1      42.445  29.374  35.410  1.00  0.00     0.029 A 
ATOM     50  C   UNL A   1      42.324  28.962  34.093  1.00  0.00     0.049 A 
ATOM     51  H   UNL A   1      40.896  29.536  32.647  1.00  0.00     0.167 HD
ATOM     52  C   UNL A   1      42.959  27.668  32.075  1.00  0.00     0.074 A 
ATOM     53  C   UNL A   1      43.806  26.748  31.343  1.00  0.00     0.031 C 
ATOM     54  C   UNL A   1      43.165  28.042  33.363  1.00  0.00     0.034 A 
BRANCH  41  55
ATOM     55  C   UNL A   1      39.109  32.175  35.509  1.00  0.00     0.023 A 
ATOM     56  C   UNL A   1      39.632  33.474  35.639  1.00  0.00     0.031 A 
ATOM     57  C   UNL A   1      38.302  31.674  36.546  1.00  0.00     0.131 A 
ATOM     58  C   UNL A   1      39.364  34.221  36.794  1.00  0.00     0.055 A 
ATOM     59  C   UNL A   1      38.009  32.436  37.679  1.00  0.00     0.041 A 
ATOM     60  F   UNL A   1      37.781  30.440  36.469  1.00  0.00    -0.206 F 
ATOM     61  C   UNL A   1      38.552  33.711  37.812  1.00  0.00     0.022 A 
BRANCH  58  62
ATOM     62  S   UNL A   1      40.109  35.854  37.051  1.00  0.00     0.124 S 
ATOM     63  O   UNL A   1      39.653  36.579  35.865  1.00  0.00    -0.237 OA
ATOM     64  O   UNL A   1      39.500  36.275  38.309  1.00  0.00    -0.237 OA
ATOM     65  O   UNL A   1      41.541  35.585  37.102  1.00  0.00    -0.744 OA
ENDBRANCH  58  62
ENDBRANCH  41  55
BRANCH  42  66
ATOM     66  C   UNL A   1      41.773  26.658  27.603  1.00  0.00     0.023 A 
ATOM     67  C   UNL A   1      41.362  25.315  27.530  1.00  0.00     0.031 A 
ATOM     68  C   UNL A   1      42.643  27.139  26.611  1.00  0.00     0.131 A 
ATOM     69  C   UNL A   1      41.892  24.477  26.539  1.00  0.00     0.055 A 
ATOM     70  C   UNL A   1      43.108  26.321  25.580  1.00  0.00     0.041 A 
ATOM     71  F   UNL A   1      43.071  28.411  26.645  1.00  0.00    -0.206 F 
ATOM     72  C   UNL A   1      42.749  24.976  25.554  1.00  0.00     0.022 A 
BRANCH  69  73
ATOM     73  S   UNL A   1      41.605  22.686  26.588  1.00  0.00     0.124 S 
ATOM     74  O   UNL A   1      40.148  22.610  26.566  1.00  0.00    -0.237 OA
ATOM     75  O   UNL A   1      42.279  22.246  25.369  1.00  0.00    -0.237 OA
ATOM     76  O   UNL A   1      42.240  22.270  27.833  1.00  0.00    -0.744 OA
ENDBRANCH  69  73
ENDBRANCH  42  66
BRANCH  54  77
ATOM     77  C   UNL A   1      44.358  27.480  34.098  1.00  0.00     0.023 A 
ATOM     78  C   UNL A   1      44.241  26.275  34.819  1.00  0.00     0.031 A 
ATOM     79  C   UNL A   1      45.552  28.212  34.216  1.00  0.00     0.131 A 
ATOM     80  C   UNL A   1      45.282  25.863  35.660  1.00  0.00     0.055 A 
ATOM     81  C   UNL A   1      46.605  27.773  35.020  1.00  0.00     0.041 A 
ATOM     82  F   UNL A   1      45.709  29.371  33.555  1.00  0.00    -0.206 F 
ATOM     83  C   UNL A   1      46.465  26.601  35.759  1.00  0.00     0.022 A 
BRANCH  80  84
ATOM     84  S   UNL A   1      45.104  24.404  36.726  1.00  0.00     0.124 S 
ATOM     85  O   UNL A   1      46.485  24.153  37.126  1.00  0.00    -0.237 OA
ATOM     86  O   UNL A   1      44.228  24.901  37.784  1.00  0.00    -0.237 OA
ATOM     87  O   UNL A   1      44.517  23.397  35.848  1.00  0.00    -0.744 OA
ENDBRANCH  80  84
ENDBRANCH  54  77
ENDBRANCH  28  29
ENDBRANCH  20  23
ENDBRANCH  18  19
ENDBRANCH   1  18
TORSDOF 15
ENDMDL
MODEL 2
REMARK VINA RESULT:     -11.4      4.992     10.449
REMARK SMILES O=C(CC1=c2ccccc2=NC1)NCCCCNC(=O)c1ccc(-c2c3nc(c(-c4cc(S(=O)(=O)[O-])ccc4F)c4ccc([nH]4)c(-c4cc(S(=O)(=O)[O-])ccc4F)c4nc(c(-c5cc(S(=O)(=O)[O-])ccc5F)c5ccc2[nH]5)C=C4)C=C3)cc1
REMARK SMILES IDX 16 1 15 2 14 3 13 4 1 5 2 6 3 8 4 9 5 10 12 11 6 12 10 13
REMARK SMILES IDX 11 14 7 15 9 16 8 17 17 18 18 19 19 20 20 22 21 23 22 24
REMARK SMILES IDX 83 25 23 26 82 27 24 28 25 29 26 30 76 31 27 32 81 33 75 34
REMARK SMILES IDX 77 35 28 36 80 37 74 38 73 39 29 41 61 42 41 43 60 44 42 45
REMARK SMILES IDX 45 46 59 47 78 48 43 49 44 50 58 52 79 53 46 54 30 55 31 56
REMARK SMILES IDX 39 57 32 58 38 59 40 60 37 61 33 62 34 63 35 64 36 65 62 66
REMARK SMILES IDX 63 67 71 68 64 69 70 70 72 71 69 72 65 73 66 74 67 75 68 76
REMARK SMILES IDX 47 77 48 78 56 79 49 80 55 81 57 82 54 83 50 84 51 85 52 86
REMARK SMILES IDX 53 87
REMARK H PARENT 13 7 18 21 77 40 45 51
REMARK Flexibility Score: inf
ROOT
ATOM      1  C   UNL A   1      36.095  21.615  25.755  1.00  0.00     0.023 C 
ENDROOT
BRANCH   1   2
ATOM      2  C   UNL A   1      34.882  20.857  25.214  1.00  0.00     0.023 C 
BRANCH   2   3
ATOM      3  C   UNL A   1      33.688  21.724  24.827  1.00  0.00     0.116 C 
BRANCH   3   4
ATOM      4  N   UNL A   1      34.051  23.098  24.542  1.00  0.00    -0.356 N 
ATOM      5  O   UNL A   1      33.093  24.010  26.425  1.00  0.00    -0.275 OA
ATOM      6  C   UNL A   1      33.771  24.134  25.410  1.00  0.00     0.224 C 
ATOM      7  H   UNL A   1      34.516  23.299  23.697  1.00  0.00     0.163 HD
BRANCH   6   8
ATOM      8  C   UNL A   1      34.424  25.457  25.025  1.00  0.00     0.133 C 
BRANCH   8   9
ATOM      9  C   UNL A   1      33.464  26.583  24.781  1.00  0.00    -0.030 C 
ATOM     10  C   UNL A   1      33.029  27.569  25.567  1.00  0.00     0.001 A 
ATOM     11  C   UNL A   1      32.849  26.700  23.414  1.00  0.00     0.175 C 
ATOM     12  C   UNL A   1      33.219  27.965  26.928  1.00  0.00     0.010 A 
ATOM     13  C   UNL A   1      32.178  28.360  24.659  1.00  0.00     0.065 A 
ATOM     14  N   UNL A   1      32.022  27.926  23.446  1.00  0.00    -0.280 NA
ATOM     15  C   UNL A   1      32.652  29.102  27.363  1.00  0.00     0.001 A 
ATOM     16  C   UNL A   1      31.593  29.603  25.208  1.00  0.00     0.028 A 
ATOM     17  C   UNL A   1      31.849  29.933  26.484  1.00  0.00     0.002 A 
ENDBRANCH   8   9
ENDBRANCH   6   8
ENDBRANCH   3   4
ENDBRANCH   2   3
ENDBRANCH   1   2
BRANCH   1  18
ATOM     18  C   UNL A   1      37.346  21.573  24.883  1.00  0.00     0.116 C 
BRANCH  18  19
ATOM     19  N   UNL A   1      38.290  20.539  25.278  1.00  0.00    -0.352 N 
ATOM     20  C   UNL A   1      39.458  20.652  26.003  1.00  0.00     0.251 C 
ATOM     21  H   UNL A   1      38.063  19.626  24.987  1.00  0.00     0.163 HD
ATOM     22  O   UNL A   1      40.189  19.675  26.138  1.00  0.00    -0.269 OA
BRANCH  20  23
ATOM     23  C   UNL A   1      39.851  21.962  26.572  1.00  0.00     0.039 A 
ATOM     24  C   UNL A   1      39.301  23.149  26.086  1.00  0.00     0.014 A 
ATOM     25  C   UNL A   1      40.818  22.004  27.582  1.00  0.00     0.014 A 
ATOM     26  C   UNL A   1      39.851  24.371  26.465  1.00  0.00     0.010 A 
ATOM     27  C   UNL A   1      41.308  23.237  28.026  1.00  0.00     0.010 A 
ATOM     28  C   UNL A   1      40.875  24.429  27.426  1.00  0.00    -0.014 A 
BRANCH  28  29
ATOM     29  C   UNL A   1      41.481  25.745  27.772  1.00  0.00     0.031 A 
ATOM     30  C   UNL A   1      42.841  26.132  27.253  1.00  0.00     0.074 A 
ATOM     31  C   UNL A   1      40.776  26.621  28.513  1.00  0.00     0.049 A 
ATOM     32  N   UNL A   1      43.484  27.263  27.395  1.00  0.00    -0.248 NA
ATOM     33  C   UNL A   1      43.580  25.122  26.478  1.00  0.00     0.031 C 
ATOM     34  C   UNL A   1      39.451  26.357  29.074  1.00  0.00     0.029 A 
ATOM     35  N   UNL A   1      41.052  27.909  28.900  1.00  0.00    -0.354 N 
ATOM     36  C   UNL A   1      44.705  27.096  26.752  1.00  0.00     0.074 A 
ATOM     37  C   UNL A   1      44.728  25.743  26.243  1.00  0.00     0.031 C 
ATOM     38  C   UNL A   1      39.004  27.466  29.678  1.00  0.00     0.029 A 
ATOM     39  C   UNL A   1      40.032  28.502  29.608  1.00  0.00     0.049 A 
ATOM     40  H   UNL A   1      41.899  28.364  28.690  1.00  0.00     0.167 HD
ATOM     41  C   UNL A   1      45.706  27.995  26.587  1.00  0.00     0.034 A 
ATOM     42  C   UNL A   1      39.930  29.736  30.144  1.00  0.00     0.034 A 
ATOM     43  C   UNL A   1      45.659  29.351  27.070  1.00  0.00     0.049 A 
ATOM     44  C   UNL A   1      41.063  30.711  29.961  1.00  0.00     0.074 A 
ATOM     45  C   UNL A   1      46.598  30.352  26.890  1.00  0.00     0.029 A 
ATOM     46  N   UNL A   1      44.631  29.901  27.821  1.00  0.00    -0.354 N 
ATOM     47  N   UNL A   1      42.180  30.557  29.288  1.00  0.00    -0.248 NA
ATOM     48  C   UNL A   1      40.929  32.023  30.607  1.00  0.00     0.031 C 
ATOM     49  C   UNL A   1      46.169  31.484  27.585  1.00  0.00     0.029 A 
ATOM     50  C   UNL A   1      44.930  31.215  28.144  1.00  0.00     0.049 A 
ATOM     51  H   UNL A   1      43.808  29.427  28.086  1.00  0.00     0.167 HD
ATOM     52  C   UNL A   1      42.874  31.756  29.420  1.00  0.00     0.074 A 
ATOM     53  C   UNL A   1      42.039  32.635  30.213  1.00  0.00     0.031 C 
ATOM     54  C   UNL A   1      44.095  32.091  28.931  1.00  0.00     0.034 A 
BRANCH  41  55
ATOM     55  C   UNL A   1      46.950  27.565  25.848  1.00  0.00     0.023 A 
ATOM     56  C   UNL A   1      47.105  27.892  24.488  1.00  0.00     0.031 A 
ATOM     57  C   UNL A   1      47.911  26.731  26.446  1.00  0.00     0.131 A 
ATOM     58  C   UNL A   1      48.182  27.367  23.764  1.00  0.00     0.055 A 
ATOM     59  C   UNL A   1      49.002  26.238  25.728  1.00  0.00     0.041 A 
ATOM     60  F   UNL A   1      47.806  26.389  27.740  1.00  0.00    -0.206 F 
ATOM     61  C   UNL A   1      49.134  26.546  24.377  1.00  0.00     0.022 A 
BRANCH  58  62
ATOM     62  S   UNL A   1      48.357  27.674  21.985  1.00  0.00     0.124 S 
ATOM     63  O   UNL A   1      47.074  28.298  21.663  1.00  0.00    -0.237 OA
ATOM     64  O   UNL A   1      49.512  28.566  21.939  1.00  0.00    -0.237 OA
ATOM     65  O   UNL A   1      48.562  26.346  21.417  1.00  0.00    -0.744 OA
ENDBRANCH  58  62
ENDBRANCH  41  55
BRANCH  42  66
ATOM     66  C   UNL A   1      38.670  30.110  30.849  1.00  0.00     0.023 A 
ATOM     67  C   UNL A   1      37.623  30.753  30.164  1.00  0.00     0.031 A 
ATOM     68  C   UNL A   1      38.555  29.956  32.240  1.00  0.00     0.131 A 
ATOM     69  C   UNL A   1      36.551  31.297  30.883  1.00  0.00     0.055 A 
ATOM     70  C   UNL A   1      37.448  30.433  32.944  1.00  0.00     0.041 A 
ATOM     71  F   UNL A   1      39.534  29.359  32.937  1.00  0.00    -0.206 F 
ATOM     72  C   UNL A   1      36.449  31.126  32.267  1.00  0.00     0.022 A 
BRANCH  69  73
ATOM     73  S   UNL A   1      35.337  32.371  30.068  1.00  0.00     0.124 S 
ATOM     74  O   UNL A   1      36.147  33.530  29.710  1.00  0.00    -0.237 OA
ATOM     75  O   UNL A   1      34.903  31.534  28.952  1.00  0.00    -0.237 OA
ATOM     76  O   UNL A   1      34.331  32.598  31.099  1.00  0.00    -0.744 OA
ENDBRANCH  69  73
ENDBRANCH  42  66
BRANCH  54  77
ATOM     77  C   UNL A   1      44.642  33.466  29.231  1.00  0.00     0.023 A 
ATOM     78  C   UNL A   1      44.427  34.525  28.328  1.00  0.00     0.031 A 
ATOM     79  C   UNL A   1      45.504  33.685  30.320  1.00  0.00     0.131 A 
ATOM     80  C   UNL A   1      45.101  35.740  28.505  1.00  0.00     0.055 A 
ATOM     81  C   UNL A   1      46.137  34.913  30.518  1.00  0.00     0.041 A 
ATOM     82  F   UNL A   1      45.747  32.703  31.204  1.00  0.00    -0.206 F 
ATOM     83  C   UNL A   1      45.949  35.942  29.599  1.00  0.00     0.022 A 
BRANCH  80  84
ATOM     84  S   UNL A   1      44.975  37.070  27.277  1.00  0.00     0.124 S 
ATOM     85  O   UNL A   1      46.118  36.791  26.412  1.00  0.00    -0.237 OA
ATOM     86  O   UNL A   1      43.665  36.817  26.681  1.00  0.00    -0.237 OA
ATOM     87  O   UNL A   1      45.077  38.291  28.069  1.00  0.00    -0.744 OA
ENDBRANCH  80  84
ENDBRANCH  54  77
ENDBRANCH  28  29
ENDBRANCH  20  23
ENDBRANCH  18  19
ENDBRANCH   1  18
TORSDOF 15
ENDMDL
MODEL 3
REMARK VINA RESULT:     -11.4      1.637      2.032
REMARK SMILES O=C(CC1=c2ccccc2=NC1)NCCCCNC(=O)c1ccc(-c2c3nc(c(-c4cc(S(=O)(=O)[O-])ccc4F)c4ccc([nH]4)c(-c4cc(S(=O)(=O)[O-])ccc4F)c4nc(c(-c5cc(S(=O)(=O)[O-])ccc5F)c5ccc2[nH]5)C=C4)C=C3)cc1
REMARK SMILES IDX 16 1 15 2 14 3 13 4 1 5 2 6 3 8 4 9 5 10 12 11 6 12 10 13
REMARK SMILES IDX 11 14 7 15 9 16 8 17 17 18 18 19 19 20 20 22 21 23 22 24
REMARK SMILES IDX 83 25 23 26 82 27 24 28 25 29 26 30 76 31 27 32 81 33 75 34
REMARK SMILES IDX 77 35 28 36 80 37 74 38 73 39 29 41 61 42 41 43 60 44 42 45
REMARK SMILES IDX 45 46 59 47 78 48 43 49 44 50 58 52 79 53 46 54 30 55 31 56
REMARK SMILES IDX 39 57 32 58 38 59 40 60 37 61 33 62 34 63 35 64 36 65 62 66
REMARK SMILES IDX 63 67 71 68 64 69 70 70 72 71 69 72 65 73 66 74 67 75 68 76
REMARK SMILES IDX 47 77 48 78 56 79 49 80 55 81 57 82 54 83 50 84 51 85 52 86
REMARK SMILES IDX 53 87
REMARK H PARENT 13 7 18 21 77 40 45 51
REMARK Flexibility Score: inf
ROOT
ATOM      1  C   UNL A   1      31.305  30.459  25.371  1.00  0.00     0.023 C 
ENDROOT
BRANCH   1   2
ATOM      2  C   UNL A   1      31.372  29.005  24.903  1.00  0.00     0.023 C 
BRANCH   2   3
ATOM      3  C   UNL A   1      31.828  27.999  25.955  1.00  0.00     0.116 C 
BRANCH   3   4
ATOM      4  N   UNL A   1      31.671  26.622  25.531  1.00  0.00    -0.356 N 
ATOM      5  O   UNL A   1      33.776  26.392  24.632  1.00  0.00    -0.275 OA
ATOM      6  C   UNL A   1      32.696  25.904  24.950  1.00  0.00     0.224 C 
ATOM      7  H   UNL A   1      30.799  26.183  25.662  1.00  0.00     0.163 HD
BRANCH   6   8
ATOM      8  C   UNL A   1      32.391  24.420  24.777  1.00  0.00     0.133 C 
BRANCH   8   9
ATOM      9  C   UNL A   1      33.465  23.497  25.271  1.00  0.00    -0.030 C 
ATOM     10  C   UNL A   1      34.616  23.099  24.729  1.00  0.00     0.001 A 
ATOM     11  C   UNL A   1      33.290  22.878  26.630  1.00  0.00     0.175 C 
ATOM     12  C   UNL A   1      35.304  23.310  23.492  1.00  0.00     0.010 A 
ATOM     13  C   UNL A   1      35.210  22.269  25.794  1.00  0.00     0.065 A 
ATOM     14  N   UNL A   1      34.518  22.092  26.877  1.00  0.00    -0.280 NA
ATOM     15  C   UNL A   1      36.528  22.783  23.328  1.00  0.00     0.001 A 
ATOM     16  C   UNL A   1      36.563  21.729  25.541  1.00  0.00     0.028 A 
ATOM     17  C   UNL A   1      37.164  22.002  24.373  1.00  0.00     0.002 A 
ENDBRANCH   8   9
ENDBRANCH   6   8
ENDBRANCH   3   4
ENDBRANCH   2   3
ENDBRANCH   1   2
BRANCH   1  18
ATOM     18  C   UNL A   1      32.160  30.805  26.586  1.00  0.00     0.116 C 
BRANCH  18  19
ATOM     19  N   UNL A   1      32.110  32.214  26.944  1.00  0.00    -0.352 N 
ATOM     20  C   UNL A   1      33.036  32.976  27.625  1.00  0.00     0.251 C 
ATOM     21  H   UNL A   1      31.299  32.694  26.658  1.00  0.00     0.163 HD
ATOM     22  O   UNL A   1      32.763  34.132  27.937  1.00  0.00    -0.269 OA
BRANCH  20  23
ATOM     23  C   UNL A   1      34.335  32.384  28.021  1.00  0.00     0.039 A 
ATOM     24  C   UNL A   1      34.430  31.037  28.376  1.00  0.00     0.014 A 
ATOM     25  C   UNL A   1      35.468  33.201  28.076  1.00  0.00     0.014 A 
ATOM     26  C   UNL A   1      35.597  30.560  28.966  1.00  0.00     0.010 A 
ATOM     27  C   UNL A   1      36.668  32.695  28.589  1.00  0.00     0.010 A 
ATOM     28  C   UNL A   1      36.725  31.389  29.098  1.00  0.00    -0.014 A 
BRANCH  28  29
ATOM     29  C   UNL A   1      37.940  30.868  29.782  1.00  0.00     0.031 A 
ATOM     30  C   UNL A   1      38.230  31.215  31.219  1.00  0.00     0.074 A 
ATOM     31  C   UNL A   1      38.760  30.029  29.120  1.00  0.00     0.049 A 
ATOM     32  N   UNL A   1      39.200  30.790  31.988  1.00  0.00    -0.248 NA
ATOM     33  C   UNL A   1      37.319  32.163  31.881  1.00  0.00     0.031 C 
ATOM     34  C   UNL A   1      38.585  29.623  27.726  1.00  0.00     0.029 A 
ATOM     35  N   UNL A   1      39.881  29.348  29.528  1.00  0.00    -0.354 N 
ATOM     36  C   UNL A   1      39.032  31.431  33.210  1.00  0.00     0.074 A 
ATOM     37  C   UNL A   1      37.884  32.299  33.073  1.00  0.00     0.031 C 
ATOM     38  C   UNL A   1      39.523  28.719  27.413  1.00  0.00     0.029 A 
ATOM     39  C   UNL A   1      40.408  28.526  28.559  1.00  0.00     0.049 A 
ATOM     40  H   UNL A   1      40.269  29.439  30.428  1.00  0.00     0.167 HD
ATOM     41  C   UNL A   1      39.760  31.296  34.346  1.00  0.00     0.034 A 
ATOM     42  C   UNL A   1      41.482  27.710  28.583  1.00  0.00     0.034 A 
ATOM     43  C   UNL A   1      40.882  30.403  34.482  1.00  0.00     0.049 A 
ATOM     44  C   UNL A   1      42.284  27.588  29.852  1.00  0.00     0.074 A 
ATOM     45  C   UNL A   1      41.636  30.150  35.615  1.00  0.00     0.029 A 
ATOM     46  N   UNL A   1      41.414  29.623  33.467  1.00  0.00    -0.354 N 
ATOM     47  N   UNL A   1      42.067  28.149  31.018  1.00  0.00    -0.248 NA
ATOM     48  C   UNL A   1      43.474  26.728  29.813  1.00  0.00     0.031 C 
ATOM     49  C   UNL A   1      42.661  29.267  35.270  1.00  0.00     0.029 A 
ATOM     50  C   UNL A   1      42.509  28.915  33.938  1.00  0.00     0.049 A 
ATOM     51  H   UNL A   1      41.066  29.577  32.546  1.00  0.00     0.167 HD
ATOM     52  C   UNL A   1      43.085  27.701  31.855  1.00  0.00     0.074 A 
ATOM     53  C   UNL A   1      43.902  26.800  31.068  1.00  0.00     0.031 C 
ATOM     54  C   UNL A   1      43.320  28.014  33.154  1.00  0.00     0.034 A 
BRANCH  41  55
ATOM     55  C   UNL A   1      39.377  32.117  35.553  1.00  0.00     0.023 A 
ATOM     56  C   UNL A   1      38.613  31.536  36.582  1.00  0.00     0.031 A 
ATOM     57  C   UNL A   1      39.653  33.494  35.624  1.00  0.00     0.131 A 
ATOM     58  C   UNL A   1      38.130  32.334  37.627  1.00  0.00     0.055 A 
ATOM     59  C   UNL A   1      39.198  34.278  36.685  1.00  0.00     0.041 A 
ATOM     60  F   UNL A   1      40.376  34.095  34.666  1.00  0.00    -0.206 F 
ATOM     61  C   UNL A   1      38.422  33.701  37.687  1.00  0.00     0.022 A 
BRANCH  58  62
ATOM     62  S   UNL A   1      37.051  31.648  38.913  1.00  0.00     0.124 S 
ATOM     63  O   UNL A   1      37.884  31.789  40.106  1.00  0.00    -0.237 OA
ATOM     64  O   UNL A   1      35.896  32.538  38.852  1.00  0.00    -0.237 OA
ATOM     65  O   UNL A   1      36.815  30.276  38.479  1.00  0.00    -0.744 OA
ENDBRANCH  58  62
ENDBRANCH  41  55
BRANCH  42  66
ATOM     66  C   UNL A   1      41.802  26.909  27.366  1.00  0.00     0.023 A 
ATOM     67  C   UNL A   1      41.543  25.527  27.321  1.00  0.00     0.031 A 
ATOM     68  C   UNL A   1      42.496  27.487  26.290  1.00  0.00     0.131 A 
ATOM     69  C   UNL A   1      42.053  24.756  26.268  1.00  0.00     0.055 A 
ATOM     70  C   UNL A   1      42.937  26.728  25.205  1.00  0.00     0.041 A 
ATOM     71  F   UNL A   1      42.776  28.800  26.294  1.00  0.00    -0.206 F 
ATOM     72  C   UNL A   1      42.734  25.351  25.202  1.00  0.00     0.022 A 
BRANCH  69  73
ATOM     73  S   UNL A   1      41.982  22.944  26.326  1.00  0.00     0.124 S 
ATOM     74  O   UNL A   1      42.775  22.645  27.513  1.00  0.00    -0.237 OA
ATOM     75  O   UNL A   1      40.545  22.709  26.451  1.00  0.00    -0.237 OA
ATOM     76  O   UNL A   1      42.569  22.536  25.055  1.00  0.00    -0.744 OA
ENDBRANCH  69  73
ENDBRANCH  42  66
BRANCH  54  77
ATOM     77  C   UNL A   1      44.516  27.401  33.841  1.00  0.00     0.023 A 
ATOM     78  C   UNL A   1      44.416  26.124  34.428  1.00  0.00     0.031 A 
ATOM     79  C   UNL A   1      45.693  28.139  34.053  1.00  0.00     0.131 A 
ATOM     80  C   UNL A   1      45.455  25.644  35.234  1.00  0.00     0.055 A 
ATOM     81  C   UNL A   1      46.745  27.637  34.821  1.00  0.00     0.041 A 
ATOM     82  F   UNL A   1      45.833  29.365  33.522  1.00  0.00    -0.206 F 
ATOM     83  C   UNL A   1      46.622  26.391  35.429  1.00  0.00     0.022 A 
BRANCH  80  84
ATOM     84  S   UNL A   1      45.295  24.077  36.135  1.00  0.00     0.124 S 
ATOM     85  O   UNL A   1      43.922  23.689  35.824  1.00  0.00    -0.237 OA
ATOM     86  O   UNL A   1      46.332  23.256  35.514  1.00  0.00    -0.237 OA
ATOM     87  O   UNL A   1      45.538  24.445  37.527  1.00  0.00    -0.744 OA
ENDBRANCH  80  84
ENDBRANCH  54  77
ENDBRANCH  28  29
ENDBRANCH  20  23
ENDBRANCH  18  19
ENDBRANCH   1  18
TORSDOF 15
ENDMDL
