MODEL 1
REMARK VINA RESULT:     -11.6      0.000      0.000
REMARK SMILES C[C@@H]1CC[C@@]1(SC1CCCCC1)C(=O)NCCCCNC(=O)c1ccc(-c2c3nc(c(-c4cc(S(=O)(=O)[O-])ccc4F)c4ccc([nH]4)c(-c4cc(S(=O)(=O)[O-])ccc4F)c4nc(c(-c5cc(S(=O)(=O)[O-])ccc5F)c5ccc2[nH]5)C=C4)C=C3)cc1
REMARK SMILES IDX 18 1 17 2 16 3 15 4 13 5 14 6 5 8 1 9 2 10 3 11 4 12 6 13
REMARK SMILES IDX 7 14 8 15 12 16 9 17 11 18 10 19 19 20 20 21 21 22 22 24
REMARK SMILES IDX 23 25 24 26 85 27 25 28 84 29 26 30 27 31 28 32 78 33 29 34
REMARK SMILES IDX 83 35 77 36 79 37 30 38 82 39 76 40 75 41 31 43 63 44 43 45
REMARK SMILES IDX 62 46 44 47 47 48 61 49 80 50 45 51 46 52 60 54 81 55 48 56
REMARK SMILES IDX 32 57 33 58 41 59 34 60 40 61 42 62 39 63 35 64 36 65 37 66
REMARK SMILES IDX 38 67 64 68 65 69 73 70 66 71 72 72 74 73 71 74 67 75 68 76
REMARK SMILES IDX 69 77 70 78 49 79 50 80 58 81 51 82 57 83 59 84 56 85 52 86
REMARK SMILES IDX 53 87 54 88 55 89
REMARK H PARENT 15 7 20 23 79 42 47 53
REMARK Flexibility Score: inf
ROOT
ATOM      1  C   UNL A   1      31.426  31.877  26.563  1.00  0.00     0.023 C 
ENDROOT
BRANCH   1   2
ATOM      2  C   UNL A   1      31.643  30.545  25.842  1.00  0.00     0.023 C 
BRANCH   2   3
ATOM      3  C   UNL A   1      32.998  29.911  26.129  1.00  0.00     0.116 C 
BRANCH   3   4
ATOM      4  N   UNL A   1      33.677  29.557  24.901  1.00  0.00    -0.355 N 
ATOM      5  C   UNL A   1      33.607  28.417  24.134  1.00  0.00     0.236 C 
ATOM      6  O   UNL A   1      34.238  28.466  23.068  1.00  0.00    -0.273 OA
ATOM      7  H   UNL A   1      34.289  30.246  24.557  1.00  0.00     0.163 HD
BRANCH   5   8
ATOM      8  C   UNL A   1      32.806  27.140  24.604  1.00  0.00     0.097 C 
ATOM      9  C   UNL A   1      34.149  24.845  23.844  1.00  0.00     0.009 C 
ATOM     10  C   UNL A   1      33.826  25.922  24.863  1.00  0.00     0.012 C 
ATOM     11  C   UNL A   1      32.936  25.472  26.033  1.00  0.00     0.007 C 
ATOM     12  C   UNL A   1      32.358  26.890  26.079  1.00  0.00     0.028 C 
BRANCH   8  13
ATOM     13  S   UNL A   1      31.509  26.611  23.354  1.00  0.00    -0.141 SA
BRANCH  13  14
ATOM     14  C   UNL A   1      30.230  27.922  23.318  1.00  0.00     0.047 C 
ATOM     15  C   UNL A   1      30.534  29.016  22.291  1.00  0.00     0.014 C 
ATOM     16  C   UNL A   1      28.772  27.454  23.288  1.00  0.00     0.014 C 
ATOM     17  C   UNL A   1      29.532  30.165  22.382  1.00  0.00     0.001 C 
ATOM     18  C   UNL A   1      27.776  28.617  23.297  1.00  0.00     0.001 C 
ATOM     19  C   UNL A   1      28.103  29.657  22.229  1.00  0.00     0.000 C 
ENDBRANCH  13  14
ENDBRANCH   8  13
ENDBRANCH   5   8
ENDBRANCH   3   4
ENDBRANCH   2   3
ENDBRANCH   1   2
BRANCH   1  20
ATOM     20  C   UNL A   1      32.665  32.443  27.251  1.00  0.00     0.116 C 
BRANCH  20  21
ATOM     21  N   UNL A   1      32.532  33.856  27.564  1.00  0.00    -0.352 N 
ATOM     22  C   UNL A   1      33.196  34.587  28.517  1.00  0.00     0.251 C 
ATOM     23  H   UNL A   1      31.879  34.355  27.022  1.00  0.00     0.163 HD
ATOM     24  O   UNL A   1      32.830  35.733  28.768  1.00  0.00    -0.269 OA
BRANCH  22  25
ATOM     25  C   UNL A   1      34.327  33.980  29.251  1.00  0.00     0.039 A 
ATOM     26  C   UNL A   1      34.056  33.092  30.293  1.00  0.00     0.014 A 
ATOM     27  C   UNL A   1      35.650  34.285  28.912  1.00  0.00     0.014 A 
ATOM     28  C   UNL A   1      35.113  32.482  30.971  1.00  0.00     0.010 A 
ATOM     29  C   UNL A   1      36.698  33.613  29.533  1.00  0.00     0.010 A 
ATOM     30  C   UNL A   1      36.442  32.720  30.585  1.00  0.00    -0.014 A 
BRANCH  30  31
ATOM     31  C   UNL A   1      37.573  32.073  31.305  1.00  0.00     0.031 A 
ATOM     32  C   UNL A   1      38.366  30.983  30.628  1.00  0.00     0.074 A 
ATOM     33  C   UNL A   1      37.866  32.446  32.566  1.00  0.00     0.049 A 
ATOM     34  N   UNL A   1      39.374  30.288  31.089  1.00  0.00    -0.248 NA
ATOM     35  C   UNL A   1      37.955  30.603  29.266  1.00  0.00     0.031 C 
ATOM     36  C   UNL A   1      37.139  33.458  33.340  1.00  0.00     0.029 A 
ATOM     37  N   UNL A   1      38.851  32.023  33.424  1.00  0.00    -0.354 N 
ATOM     38  C   UNL A   1      39.704  29.382  30.085  1.00  0.00     0.074 A 
ATOM     39  C   UNL A   1      38.754  29.577  29.013  1.00  0.00     0.031 C 
ATOM     40  C   UNL A   1      37.724  33.598  34.541  1.00  0.00     0.029 A 
ATOM     41  C   UNL A   1      38.836  32.659  34.646  1.00  0.00     0.049 A 
ATOM     42  H   UNL A   1      39.508  31.329  33.188  1.00  0.00     0.167 HD
ATOM     43  C   UNL A   1      40.718  28.484  30.054  1.00  0.00     0.034 A 
ATOM     44  C   UNL A   1      39.625  32.497  35.728  1.00  0.00     0.034 A 
ATOM     45  C   UNL A   1      41.677  28.323  31.119  1.00  0.00     0.049 A 
ATOM     46  C   UNL A   1      40.752  31.493  35.657  1.00  0.00     0.074 A 
ATOM     47  C   UNL A   1      42.785  27.494  31.159  1.00  0.00     0.029 A 
ATOM     48  N   UNL A   1      41.642  28.996  32.333  1.00  0.00    -0.354 N 
ATOM     49  N   UNL A   1      41.094  30.700  34.666  1.00  0.00    -0.248 NA
ATOM     50  C   UNL A   1      41.615  31.382  36.839  1.00  0.00     0.031 C 
ATOM     51  C   UNL A   1      43.371  27.606  32.423  1.00  0.00     0.029 A 
ATOM     52  C   UNL A   1      42.689  28.577  33.138  1.00  0.00     0.049 A 
ATOM     53  H   UNL A   1      40.971  29.671  32.584  1.00  0.00     0.167 HD
ATOM     54  C   UNL A   1      42.243  30.036  35.094  1.00  0.00     0.074 A 
ATOM     55  C   UNL A   1      42.544  30.541  36.416  1.00  0.00     0.031 C 
ATOM     56  C   UNL A   1      42.984  29.096  34.453  1.00  0.00     0.034 A 
BRANCH  43  57
ATOM     57  C   UNL A   1      40.832  27.584  28.847  1.00  0.00     0.023 A 
ATOM     58  C   UNL A   1      41.841  27.750  27.882  1.00  0.00     0.031 A 
ATOM     59  C   UNL A   1      39.925  26.523  28.675  1.00  0.00     0.131 A 
ATOM     60  C   UNL A   1      41.892  26.897  26.768  1.00  0.00     0.055 A 
ATOM     61  C   UNL A   1      40.026  25.633  27.604  1.00  0.00     0.041 A 
ATOM     62  F   UNL A   1      38.925  26.330  29.548  1.00  0.00    -0.206 F 
ATOM     63  C   UNL A   1      41.009  25.822  26.638  1.00  0.00     0.022 A 
BRANCH  60  64
ATOM     64  S   UNL A   1      43.060  27.275  25.433  1.00  0.00     0.124 S 
ATOM     65  O   UNL A   1      42.247  28.116  24.559  1.00  0.00    -0.237 OA
ATOM     66  O   UNL A   1      44.142  27.949  26.141  1.00  0.00    -0.237 OA
ATOM     67  O   UNL A   1      43.395  25.962  24.888  1.00  0.00    -0.744 OA
ENDBRANCH  60  64
ENDBRANCH  43  57
BRANCH  44  68
ATOM     68  C   UNL A   1      39.391  33.280  36.980  1.00  0.00     0.023 A 
ATOM     69  C   UNL A   1      38.726  32.710  38.078  1.00  0.00     0.031 A 
ATOM     70  C   UNL A   1      39.733  34.641  37.058  1.00  0.00     0.131 A 
ATOM     71  C   UNL A   1      38.344  33.515  39.164  1.00  0.00     0.055 A 
ATOM     72  C   UNL A   1      39.421  35.420  38.174  1.00  0.00     0.041 A 
ATOM     73  F   UNL A   1      40.374  35.241  36.042  1.00  0.00    -0.206 F 
ATOM     74  C   UNL A   1      38.700  34.864  39.225  1.00  0.00     0.022 A 
BRANCH  71  75
ATOM     75  S   UNL A   1      37.241  32.809  40.421  1.00  0.00     0.124 S 
ATOM     76  O   UNL A   1      37.365  33.781  41.501  1.00  0.00    -0.237 OA
ATOM     77  O   UNL A   1      35.962  32.787  39.720  1.00  0.00    -0.237 OA
ATOM     78  O   UNL A   1      37.827  31.497  40.689  1.00  0.00    -0.744 OA
ENDBRANCH  71  75
ENDBRANCH  44  68
BRANCH  56  79
ATOM     79  C   UNL A   1      44.238  28.616  35.148  1.00  0.00     0.023 A 
ATOM     80  C   UNL A   1      44.223  27.545  36.058  1.00  0.00     0.031 A 
ATOM     81  C   UNL A   1      45.460  29.274  34.925  1.00  0.00     0.131 A 
ATOM     82  C   UNL A   1      45.384  27.223  36.778  1.00  0.00     0.055 A 
ATOM     83  C   UNL A   1      46.632  28.895  35.582  1.00  0.00     0.041 A 
ATOM     84  F   UNL A   1      45.538  30.304  34.067  1.00  0.00    -0.206 F 
ATOM     85  C   UNL A   1      46.592  27.879  36.532  1.00  0.00     0.022 A 
BRANCH  82  86
ATOM     86  S   UNL A   1      45.256  26.038  38.145  1.00  0.00     0.124 S 
ATOM     87  O   UNL A   1      44.654  24.882  37.489  1.00  0.00    -0.237 OA
ATOM     88  O   UNL A   1      46.648  25.886  38.555  1.00  0.00    -0.237 OA
ATOM     89  O   UNL A   1      44.397  26.721  39.110  1.00  0.00    -0.744 OA
ENDBRANCH  82  86
ENDBRANCH  56  79
ENDBRANCH  30  31
ENDBRANCH  22  25
ENDBRANCH  20  21
ENDBRANCH   1  20
TORSDOF 16
ENDMDL
MODEL 2
REMARK VINA RESULT:     -11.4      3.680      9.096
REMARK SMILES C[C@@H]1CC[C@@]1(SC1CCCCC1)C(=O)NCCCCNC(=O)c1ccc(-c2c3nc(c(-c4cc(S(=O)(=O)[O-])ccc4F)c4ccc([nH]4)c(-c4cc(S(=O)(=O)[O-])ccc4F)c4nc(c(-c5cc(S(=O)(=O)[O-])ccc5F)c5ccc2[nH]5)C=C4)C=C3)cc1
REMARK SMILES IDX 18 1 17 2 16 3 15 4 13 5 14 6 5 8 1 9 2 10 3 11 4 12 6 13
REMARK SMILES IDX 7 14 8 15 12 16 9 17 11 18 10 19 19 20 20 21 21 22 22 24
REMARK SMILES IDX 23 25 24 26 85 27 25 28 84 29 26 30 27 31 28 32 78 33 29 34
REMARK SMILES IDX 83 35 77 36 79 37 30 38 82 39 76 40 75 41 31 43 63 44 43 45
REMARK SMILES IDX 62 46 44 47 47 48 61 49 80 50 45 51 46 52 60 54 81 55 48 56
REMARK SMILES IDX 32 57 33 58 41 59 34 60 40 61 42 62 39 63 35 64 36 65 37 66
REMARK SMILES IDX 38 67 64 68 65 69 73 70 66 71 72 72 74 73 71 74 67 75 68 76
REMARK SMILES IDX 69 77 70 78 49 79 50 80 58 81 51 82 57 83 59 84 56 85 52 86
REMARK SMILES IDX 53 87 54 88 55 89
REMARK H PARENT 15 7 20 23 79 42 47 53
REMARK Flexibility Score: inf
ROOT
ATOM      1  C   UNL A   1      33.455  28.339  26.968  1.00  0.00     0.023 C 
ENDROOT
BRANCH   1   2
ATOM      2  C   UNL A   1      31.937  28.466  27.120  1.00  0.00     0.023 C 
BRANCH   2   3
ATOM      3  C   UNL A   1      31.155  27.455  26.291  1.00  0.00     0.116 C 
BRANCH   3   4
ATOM      4  N   UNL A   1      31.142  26.158  26.930  1.00  0.00    -0.355 N 
ATOM      5  C   UNL A   1      31.669  24.953  26.523  1.00  0.00     0.236 C 
ATOM      6  O   UNL A   1      31.582  24.039  27.357  1.00  0.00    -0.273 OA
ATOM      7  H   UNL A   1      30.681  26.132  27.799  1.00  0.00     0.163 HD
BRANCH   5   8
ATOM      8  C   UNL A   1      32.302  24.756  25.091  1.00  0.00     0.097 C 
ATOM      9  C   UNL A   1      30.303  24.414  23.209  1.00  0.00     0.009 C 
ATOM     10  C   UNL A   1      31.283  25.292  23.967  1.00  0.00     0.012 C 
ATOM     11  C   UNL A   1      32.493  25.779  23.152  1.00  0.00     0.007 C 
ATOM     12  C   UNL A   1      33.314  25.754  24.445  1.00  0.00     0.028 C 
BRANCH   8  13
ATOM     13  S   UNL A   1      32.729  22.962  24.739  1.00  0.00    -0.141 SA
BRANCH  13  14
ATOM     14  C   UNL A   1      34.547  22.801  24.894  1.00  0.00     0.047 C 
ATOM     15  C   UNL A   1      35.275  23.012  23.564  1.00  0.00     0.014 C 
ATOM     16  C   UNL A   1      35.201  23.542  26.064  1.00  0.00     0.014 C 
ATOM     17  C   UNL A   1      36.771  22.731  23.692  1.00  0.00     0.001 C 
ATOM     18  C   UNL A   1      36.715  23.319  26.135  1.00  0.00     0.001 C 
ATOM     19  C   UNL A   1      37.394  23.581  24.793  1.00  0.00     0.000 C 
ENDBRANCH  13  14
ENDBRANCH   8  13
ENDBRANCH   5   8
ENDBRANCH   3   4
ENDBRANCH   2   3
ENDBRANCH   1   2
BRANCH   1  20
ATOM     20  C   UNL A   1      34.137  29.543  26.325  1.00  0.00     0.116 C 
BRANCH  20  21
ATOM     21  N   UNL A   1      33.806  30.792  26.990  1.00  0.00    -0.352 N 
ATOM     22  C   UNL A   1      34.442  31.393  28.047  1.00  0.00     0.251 C 
ATOM     23  H   UNL A   1      33.021  31.270  26.637  1.00  0.00     0.163 HD
ATOM     24  O   UNL A   1      33.919  32.358  28.601  1.00  0.00    -0.269 OA
BRANCH  22  25
ATOM     25  C   UNL A   1      35.734  30.858  28.526  1.00  0.00     0.039 A 
ATOM     26  C   UNL A   1      35.731  29.838  29.478  1.00  0.00     0.014 A 
ATOM     27  C   UNL A   1      36.944  31.361  28.037  1.00  0.00     0.014 A 
ATOM     28  C   UNL A   1      36.942  29.298  29.913  1.00  0.00     0.010 A 
ATOM     29  C   UNL A   1      38.145  30.764  28.409  1.00  0.00     0.010 A 
ATOM     30  C   UNL A   1      38.159  29.740  29.368  1.00  0.00    -0.014 A 
BRANCH  30  31
ATOM     31  C   UNL A   1      39.453  29.167  29.828  1.00  0.00     0.031 A 
ATOM     32  C   UNL A   1      40.180  29.796  30.991  1.00  0.00     0.074 A 
ATOM     33  C   UNL A   1      39.982  28.105  29.189  1.00  0.00     0.049 A 
ATOM     34  N   UNL A   1      41.321  29.457  31.533  1.00  0.00    -0.248 NA
ATOM     35  C   UNL A   1      39.557  30.979  31.608  1.00  0.00     0.031 C 
ATOM     36  C   UNL A   1      39.392  27.440  28.022  1.00  0.00     0.029 A 
ATOM     37  N   UNL A   1      41.133  27.394  29.423  1.00  0.00    -0.354 N 
ATOM     38  C   UNL A   1      41.560  30.390  32.537  1.00  0.00     0.074 A 
ATOM     39  C   UNL A   1      40.473  31.342  32.494  1.00  0.00     0.031 C 
ATOM     40  C   UNL A   1      40.167  26.402  27.668  1.00  0.00     0.029 A 
ATOM     41  C   UNL A   1      41.332  26.350  28.546  1.00  0.00     0.049 A 
ATOM     42  H   UNL A   1      41.758  27.610  30.152  1.00  0.00     0.167 HD
ATOM     43  C   UNL A   1      42.582  30.436  33.426  1.00  0.00     0.034 A 
ATOM     44  C   UNL A   1      42.341  25.460  28.458  1.00  0.00     0.034 A 
ATOM     45  C   UNL A   1      43.642  29.461  33.476  1.00  0.00     0.049 A 
ATOM     46  C   UNL A   1      43.461  25.534  29.470  1.00  0.00     0.074 A 
ATOM     47  C   UNL A   1      44.686  29.373  34.381  1.00  0.00     0.029 A 
ATOM     48  N   UNL A   1      43.802  28.408  32.585  1.00  0.00    -0.354 N 
ATOM     49  N   UNL A   1      43.627  26.381  30.462  1.00  0.00    -0.248 NA
ATOM     50  C   UNL A   1      44.514  24.517  29.367  1.00  0.00     0.031 C 
ATOM     51  C   UNL A   1      45.518  28.319  33.990  1.00  0.00     0.029 A 
ATOM     52  C   UNL A   1      44.942  27.687  32.901  1.00  0.00     0.049 A 
ATOM     53  H   UNL A   1      43.193  28.204  31.838  1.00  0.00     0.167 HD
ATOM     54  C   UNL A   1      44.777  25.961  31.127  1.00  0.00     0.074 A 
ATOM     55  C   UNL A   1      45.244  24.777  30.439  1.00  0.00     0.031 C 
ATOM     56  C   UNL A   1      45.393  26.502  32.210  1.00  0.00     0.034 A 
BRANCH  43  57
ATOM     57  C   UNL A   1      42.625  31.590  34.398  1.00  0.00     0.023 A 
ATOM     58  C   UNL A   1      41.971  31.545  35.642  1.00  0.00     0.031 A 
ATOM     59  C   UNL A   1      43.358  32.748  34.082  1.00  0.00     0.131 A 
ATOM     60  C   UNL A   1      42.026  32.653  36.503  1.00  0.00     0.055 A 
ATOM     61  C   UNL A   1      43.471  33.817  34.973  1.00  0.00     0.041 A 
ATOM     62  F   UNL A   1      43.981  32.860  32.899  1.00  0.00    -0.206 F 
ATOM     63  C   UNL A   1      42.796  33.776  36.189  1.00  0.00     0.022 A 
BRANCH  60  64
ATOM     64  S   UNL A   1      40.993  32.652  37.993  1.00  0.00     0.124 S 
ATOM     65  O   UNL A   1      40.882  34.082  38.275  1.00  0.00    -0.237 OA
ATOM     66  O   UNL A   1      39.774  31.998  37.532  1.00  0.00    -0.237 OA
ATOM     67  O   UNL A   1      41.782  31.892  38.959  1.00  0.00    -0.744 OA
ENDBRANCH  60  64
ENDBRANCH  43  57
BRANCH  44  68
ATOM     68  C   UNL A   1      42.366  24.425  27.380  1.00  0.00     0.023 A 
ATOM     69  C   UNL A   1      41.665  23.216  27.518  1.00  0.00     0.031 A 
ATOM     70  C   UNL A   1      43.176  24.585  26.242  1.00  0.00     0.131 A 
ATOM     71  C   UNL A   1      41.857  22.182  26.588  1.00  0.00     0.055 A 
ATOM     72  C   UNL A   1      43.304  23.582  25.278  1.00  0.00     0.041 A 
ATOM     73  F   UNL A   1      43.867  25.720  26.051  1.00  0.00    -0.206 F 
ATOM     74  C   UNL A   1      42.662  22.362  25.461  1.00  0.00     0.022 A 
BRANCH  71  75
ATOM     75  S   UNL A   1      41.165  20.545  26.956  1.00  0.00     0.124 S 
ATOM     76  O   UNL A   1      40.030  20.492  26.041  1.00  0.00    -0.237 OA
ATOM     77  O   UNL A   1      42.286  19.666  26.640  1.00  0.00    -0.237 OA
ATOM     78  O   UNL A   1      40.822  20.632  28.374  1.00  0.00    -0.744 OA
ENDBRANCH  71  75
ENDBRANCH  44  68
BRANCH  56  79
ATOM     79  C   UNL A   1      46.593  25.765  32.760  1.00  0.00     0.023 A 
ATOM     80  C   UNL A   1      47.873  25.895  32.193  1.00  0.00     0.031 A 
ATOM     81  C   UNL A   1      46.440  24.883  33.844  1.00  0.00     0.131 A 
ATOM     82  C   UNL A   1      48.926  25.090  32.653  1.00  0.00     0.055 A 
ATOM     83  C   UNL A   1      47.511  24.146  34.352  1.00  0.00     0.041 A 
ATOM     84  F   UNL A   1      45.242  24.716  34.428  1.00  0.00    -0.206 F 
ATOM     85  C   UNL A   1      48.758  24.231  33.741  1.00  0.00     0.022 A 
BRANCH  82  86
ATOM     86  S   UNL A   1      50.478  25.073  31.713  1.00  0.00     0.124 S 
ATOM     87  O   UNL A   1      51.284  26.048  32.441  1.00  0.00    -0.237 OA
ATOM     88  O   UNL A   1      50.898  23.681  31.834  1.00  0.00    -0.237 OA
ATOM     89  O   UNL A   1      50.070  25.484  30.371  1.00  0.00    -0.744 OA
ENDBRANCH  82  86
ENDBRANCH  56  79
ENDBRANCH  30  31
ENDBRANCH  22  25
ENDBRANCH  20  21
ENDBRANCH   1  20
TORSDOF 16
ENDMDL
MODEL 3
REMARK VINA RESULT:     -11.3      6.141     12.125
REMARK SMILES C[C@@H]1CC[C@@]1(SC1CCCCC1)C(=O)NCCCCNC(=O)c1ccc(-c2c3nc(c(-c4cc(S(=O)(=O)[O-])ccc4F)c4ccc([nH]4)c(-c4cc(S(=O)(=O)[O-])ccc4F)c4nc(c(-c5cc(S(=O)(=O)[O-])ccc5F)c5ccc2[nH]5)C=C4)C=C3)cc1
REMARK SMILES IDX 18 1 17 2 16 3 15 4 13 5 14 6 5 8 1 9 2 10 3 11 4 12 6 13
REMARK SMILES IDX 7 14 8 15 12 16 9 17 11 18 10 19 19 20 20 21 21 22 22 24
REMARK SMILES IDX 23 25 24 26 85 27 25 28 84 29 26 30 27 31 28 32 78 33 29 34
REMARK SMILES IDX 83 35 77 36 79 37 30 38 82 39 76 40 75 41 31 43 63 44 43 45
REMARK SMILES IDX 62 46 44 47 47 48 61 49 80 50 45 51 46 52 60 54 81 55 48 56
REMARK SMILES IDX 32 57 33 58 41 59 34 60 40 61 42 62 39 63 35 64 36 65 37 66
REMARK SMILES IDX 38 67 64 68 65 69 73 70 66 71 72 72 74 73 71 74 67 75 68 76
REMARK SMILES IDX 69 77 70 78 49 79 50 80 58 81 51 82 57 83 59 84 56 85 52 86
REMARK SMILES IDX 53 87 54 88 55 89
REMARK H PARENT 15 7 20 23 79 42 47 53
REMARK Flexibility Score: inf
ROOT
ATOM      1  C   UNL A   1      38.210  19.696  24.981  1.00  0.00     0.023 C 
ENDROOT
BRANCH   1   2
ATOM      2  C   UNL A   1      36.882  20.439  25.150  1.00  0.00     0.023 C 
BRANCH   2   3
ATOM      3  C   UNL A   1      37.027  21.955  25.136  1.00  0.00     0.116 C 
BRANCH   3   4
ATOM      4  N   UNL A   1      36.212  22.564  26.164  1.00  0.00    -0.355 N 
ATOM      5  C   UNL A   1      34.855  22.791  26.215  1.00  0.00     0.236 C 
ATOM      6  O   UNL A   1      34.443  23.240  27.295  1.00  0.00    -0.273 OA
ATOM      7  H   UNL A   1      36.708  22.866  26.958  1.00  0.00     0.163 HD
BRANCH   5   8
ATOM      8  C   UNL A   1      33.914  22.525  24.976  1.00  0.00     0.097 C 
ATOM      9  C   UNL A   1      31.698  24.176  25.096  1.00  0.00     0.009 C 
ATOM     10  C   UNL A   1      33.102  23.865  24.610  1.00  0.00     0.012 C 
ATOM     11  C   UNL A   1      33.214  23.486  23.125  1.00  0.00     0.007 C 
ATOM     12  C   UNL A   1      34.395  22.583  23.492  1.00  0.00     0.028 C 
BRANCH   8  13
ATOM     13  S   UNL A   1      32.699  21.127  25.289  1.00  0.00    -0.141 SA
BRANCH  13  14
ATOM     14  C   UNL A   1      33.204  19.726  24.223  1.00  0.00     0.047 C 
ATOM     15  C   UNL A   1      33.883  18.601  25.008  1.00  0.00     0.014 C 
ATOM     16  C   UNL A   1      32.162  19.220  23.222  1.00  0.00     0.014 C 
ATOM     17  C   UNL A   1      34.421  17.514  24.079  1.00  0.00     0.001 C 
ATOM     18  C   UNL A   1      32.685  18.075  22.350  1.00  0.00     0.001 C 
ATOM     19  C   UNL A   1      33.316  16.964  23.185  1.00  0.00     0.000 C 
ENDBRANCH  13  14
ENDBRANCH   8  13
ENDBRANCH   5   8
ENDBRANCH   3   4
ENDBRANCH   2   3
ENDBRANCH   1   2
BRANCH   1  20
ATOM     20  C   UNL A   1      39.353  20.224  25.843  1.00  0.00     0.116 C 
BRANCH  20  21
ATOM     21  N   UNL A   1      40.403  19.239  26.040  1.00  0.00    -0.352 N 
ATOM     22  C   UNL A   1      41.744  19.447  26.244  1.00  0.00     0.251 C 
ATOM     23  H   UNL A   1      40.115  18.298  26.025  1.00  0.00     0.163 HD
ATOM     24  O   UNL A   1      42.519  18.494  26.211  1.00  0.00    -0.269 OA
BRANCH  22  25
ATOM     25  C   UNL A   1      42.247  20.819  26.472  1.00  0.00     0.039 A 
ATOM     26  C   UNL A   1      42.458  21.652  25.372  1.00  0.00     0.014 A 
ATOM     27  C   UNL A   1      42.509  21.281  27.766  1.00  0.00     0.014 A 
ATOM     28  C   UNL A   1      42.898  22.961  25.574  1.00  0.00     0.010 A 
ATOM     29  C   UNL A   1      42.865  22.611  27.968  1.00  0.00     0.010 A 
ATOM     30  C   UNL A   1      43.086  23.461  26.873  1.00  0.00    -0.014 A 
BRANCH  30  31
ATOM     31  C   UNL A   1      43.554  24.856  27.094  1.00  0.00     0.031 A 
ATOM     32  C   UNL A   1      42.604  25.885  27.652  1.00  0.00     0.074 A 
ATOM     33  C   UNL A   1      44.817  25.198  26.770  1.00  0.00     0.049 A 
ATOM     34  N   UNL A   1      42.814  27.152  27.904  1.00  0.00    -0.248 NA
ATOM     35  C   UNL A   1      41.229  25.442  27.940  1.00  0.00     0.031 C 
ATOM     36  C   UNL A   1      45.813  24.298  26.180  1.00  0.00     0.029 A 
ATOM     37  N   UNL A   1      45.485  26.391  26.890  1.00  0.00    -0.354 N 
ATOM     38  C   UNL A   1      41.600  27.657  28.359  1.00  0.00     0.074 A 
ATOM     39  C   UNL A   1      40.643  26.575  28.297  1.00  0.00     0.031 C 
ATOM     40  C   UNL A   1      46.969  24.963  26.022  1.00  0.00     0.029 A 
ATOM     41  C   UNL A   1      46.790  26.346  26.453  1.00  0.00     0.049 A 
ATOM     42  H   UNL A   1      45.068  27.206  27.255  1.00  0.00     0.167 HD
ATOM     43  C   UNL A   1      41.315  28.905  28.806  1.00  0.00     0.034 A 
ATOM     44  C   UNL A   1      47.731  27.310  26.401  1.00  0.00     0.034 A 
ATOM     45  C   UNL A   1      42.288  29.965  28.891  1.00  0.00     0.049 A 
ATOM     46  C   UNL A   1      47.383  28.688  26.915  1.00  0.00     0.074 A 
ATOM     47  C   UNL A   1      42.123  31.243  29.396  1.00  0.00     0.029 A 
ATOM     48  N   UNL A   1      43.604  29.877  28.457  1.00  0.00    -0.354 N 
ATOM     49  N   UNL A   1      46.248  29.124  27.414  1.00  0.00    -0.248 NA
ATOM     50  C   UNL A   1      48.451  29.695  26.883  1.00  0.00     0.031 C 
ATOM     51  C   UNL A   1      43.311  31.952  29.194  1.00  0.00     0.029 A 
ATOM     52  C   UNL A   1      44.250  31.087  28.654  1.00  0.00     0.049 A 
ATOM     53  H   UNL A   1      44.017  29.073  28.067  1.00  0.00     0.167 HD
ATOM     54  C   UNL A   1      46.488  30.442  27.801  1.00  0.00     0.074 A 
ATOM     55  C   UNL A   1      47.876  30.715  27.499  1.00  0.00     0.031 C 
ATOM     56  C   UNL A   1      45.639  31.345  28.357  1.00  0.00     0.034 A 
BRANCH  43  57
ATOM     57  C   UNL A   1      39.892  29.205  29.211  1.00  0.00     0.023 A 
ATOM     58  C   UNL A   1      39.498  29.284  30.558  1.00  0.00     0.031 A 
ATOM     59  C   UNL A   1      38.917  29.444  28.225  1.00  0.00     0.131 A 
ATOM     60  C   UNL A   1      38.157  29.548  30.882  1.00  0.00     0.055 A 
ATOM     61  C   UNL A   1      37.603  29.780  28.553  1.00  0.00     0.041 A 
ATOM     62  F   UNL A   1      39.227  29.358  26.923  1.00  0.00    -0.206 F 
ATOM     63  C   UNL A   1      37.214  29.825  29.889  1.00  0.00     0.022 A 
BRANCH  60  64
ATOM     64  S   UNL A   1      37.636  29.419  32.614  1.00  0.00     0.124 S 
ATOM     65  O   UNL A   1      36.273  29.941  32.551  1.00  0.00    -0.237 OA
ATOM     66  O   UNL A   1      37.760  27.990  32.876  1.00  0.00    -0.237 OA
ATOM     67  O   UNL A   1      38.589  30.268  33.324  1.00  0.00    -0.744 OA
ENDBRANCH  60  64
ENDBRANCH  43  57
BRANCH  44  68
ATOM     68  C   UNL A   1      49.089  27.036  25.837  1.00  0.00     0.023 A 
ATOM     69  C   UNL A   1      49.441  27.474  24.550  1.00  0.00     0.031 A 
ATOM     70  C   UNL A   1      50.016  26.243  26.535  1.00  0.00     0.131 A 
ATOM     71  C   UNL A   1      50.643  27.042  23.966  1.00  0.00     0.055 A 
ATOM     72  C   UNL A   1      51.245  25.880  25.980  1.00  0.00     0.041 A 
ATOM     73  F   UNL A   1      49.738  25.798  27.771  1.00  0.00    -0.206 F 
ATOM     74  C   UNL A   1      51.554  26.258  24.677  1.00  0.00     0.022 A 
BRANCH  71  75
ATOM     75  S   UNL A   1      50.925  27.389  22.207  1.00  0.00     0.124 S 
ATOM     76  O   UNL A   1      49.795  26.708  21.586  1.00  0.00    -0.237 OA
ATOM     77  O   UNL A   1      50.891  28.847  22.179  1.00  0.00    -0.237 OA
ATOM     78  O   UNL A   1      52.235  26.792  21.949  1.00  0.00    -0.744 OA
ENDBRANCH  71  75
ENDBRANCH  44  68
BRANCH  56  79
ATOM     79  C   UNL A   1      46.220  32.686  28.746  1.00  0.00     0.023 A 
ATOM     80  C   UNL A   1      46.209  33.785  27.870  1.00  0.00     0.031 A 
ATOM     81  C   UNL A   1      46.831  32.849  30.001  1.00  0.00     0.131 A 
ATOM     82  C   UNL A   1      46.878  34.967  28.226  1.00  0.00     0.055 A 
ATOM     83  C   UNL A   1      47.422  34.055  30.383  1.00  0.00     0.041 A 
ATOM     84  F   UNL A   1      46.872  31.834  30.881  1.00  0.00    -0.206 F 
ATOM     85  C   UNL A   1      47.467  35.115  29.484  1.00  0.00     0.022 A 
BRANCH  82  86
ATOM     86  S   UNL A   1      47.095  36.253  26.965  1.00  0.00     0.124 S 
ATOM     87  O   UNL A   1      48.373  36.843  27.351  1.00  0.00    -0.237 OA
ATOM     88  O   UNL A   1      47.096  35.479  25.729  1.00  0.00    -0.237 OA
ATOM     89  O   UNL A   1      45.931  37.117  27.155  1.00  0.00    -0.744 OA
ENDBRANCH  82  86
ENDBRANCH  56  79
ENDBRANCH  30  31
ENDBRANCH  22  25
ENDBRANCH  20  21
ENDBRANCH   1  20
TORSDOF 16
ENDMDL
