MODEL 1
REMARK VINA RESULT:     -11.8      0.000      0.000
REMARK SMILES O=C(NCCCCNC(=O)[C@@H]1C=C[C@@H](NS(=O)(=O)c2ccc(F)c(F)c2F)C1)c1ccc(-c2c3nc(c(-c4cc(S(=O)(=O)[O-])ccc4F)c4ccc([nH]4)c(-c4cc(S(=O)(=O)[O-])ccc4F)c4nc(c(-c5cc(S(=O)(=O)[O-])ccc5F)c5ccc2[nH]5)C=C4)C=C3)cc1
REMARK SMILES IDX 5 1 4 2 3 3 1 4 2 5 29 7 30 8 91 9 31 10 90 11 32 12 33 13
REMARK SMILES IDX 34 14 84 15 35 16 89 17 83 18 85 19 36 20 88 21 82 22 81 23
REMARK SMILES IDX 37 25 69 26 49 27 68 28 50 29 53 30 67 31 86 32 51 33 52 34
REMARK SMILES IDX 66 36 87 37 54 38 38 39 39 40 47 41 40 42 46 43 48 44 45 45
REMARK SMILES IDX 41 46 42 47 43 48 44 49 70 50 71 51 79 52 72 53 78 54 80 55
REMARK SMILES IDX 77 56 73 57 74 58 75 59 76 60 55 61 56 62 64 63 57 64 63 65
REMARK SMILES IDX 65 66 62 67 58 68 59 69 60 70 61 71 6 72 7 73 8 74 9 75
REMARK SMILES IDX 10 77 11 78 12 79 28 80 13 81 14 82 15 83 16 85 17 86 18 87
REMARK SMILES IDX 19 88 20 89 26 90 21 91 24 92 27 93 22 94 25 95 23 96
REMARK H PARENT 3 6 85 24 53 35 8 76 15 84
REMARK Flexibility Score: inf
ROOT
ATOM      1  C   UNL A   1      31.427  32.793  26.616  1.00  0.00     0.023 C 
ENDROOT
BRANCH   1   2
ATOM      2  C   UNL A   1      32.698  33.206  27.346  1.00  0.00     0.116 C 
BRANCH   2   3
ATOM      3  N   UNL A   1      32.630  34.540  27.927  1.00  0.00    -0.352 N 
ATOM      4  O   UNL A   1      33.153  36.178  29.398  1.00  0.00    -0.269 OA
ATOM      5  C   UNL A   1      33.400  35.067  28.941  1.00  0.00     0.251 C 
ATOM      6  H   UNL A   1      31.949  35.142  27.547  1.00  0.00     0.163 HD
BRANCH   5   7
ATOM      7  C   UNL A   1      34.508  34.254  29.490  1.00  0.00     0.039 A 
ATOM      8  C   UNL A   1      34.248  33.313  30.486  1.00  0.00     0.014 A 
ATOM      9  C   UNL A   1      35.817  34.478  29.055  1.00  0.00     0.014 A 
ATOM     10  C   UNL A   1      35.305  32.726  31.165  1.00  0.00     0.010 A 
ATOM     11  C   UNL A   1      36.876  33.798  29.669  1.00  0.00     0.010 A 
ATOM     12  C   UNL A   1      36.631  32.941  30.753  1.00  0.00    -0.014 A 
BRANCH  12  13
ATOM     13  C   UNL A   1      37.713  32.188  31.442  1.00  0.00     0.031 A 
ATOM     14  C   UNL A   1      38.426  31.041  30.778  1.00  0.00     0.074 A 
ATOM     15  C   UNL A   1      38.100  32.616  32.661  1.00  0.00     0.049 A 
ATOM     16  N   UNL A   1      39.435  30.336  31.222  1.00  0.00    -0.248 NA
ATOM     17  C   UNL A   1      37.942  30.625  29.455  1.00  0.00     0.031 C 
ATOM     18  C   UNL A   1      37.467  33.712  33.401  1.00  0.00     0.029 A 
ATOM     19  N   UNL A   1      39.129  32.223  33.473  1.00  0.00    -0.354 N 
ATOM     20  C   UNL A   1      39.708  29.390  30.239  1.00  0.00     0.074 A 
ATOM     21  C   UNL A   1      38.728  29.589  29.192  1.00  0.00     0.031 C 
ATOM     22  C   UNL A   1      38.162  33.948  34.521  1.00  0.00     0.029 A 
ATOM     23  C   UNL A   1      39.235  32.968  34.625  1.00  0.00     0.049 A 
ATOM     24  H   UNL A   1      39.735  31.478  33.256  1.00  0.00     0.167 HD
ATOM     25  C   UNL A   1      40.690  28.453  30.214  1.00  0.00     0.034 A 
ATOM     26  C   UNL A   1      40.085  32.867  35.664  1.00  0.00     0.034 A 
ATOM     27  C   UNL A   1      41.656  28.269  31.274  1.00  0.00     0.049 A 
ATOM     28  C   UNL A   1      41.147  31.801  35.617  1.00  0.00     0.074 A 
ATOM     29  C   UNL A   1      42.690  27.351  31.350  1.00  0.00     0.029 A 
ATOM     30  N   UNL A   1      41.705  29.012  32.448  1.00  0.00    -0.354 N 
ATOM     31  N   UNL A   1      41.389  30.920  34.673  1.00  0.00    -0.248 NA
ATOM     32  C   UNL A   1      42.051  31.723  36.768  1.00  0.00     0.031 C 
ATOM     33  C   UNL A   1      43.323  27.498  32.589  1.00  0.00     0.029 A 
ATOM     34  C   UNL A   1      42.736  28.559  33.259  1.00  0.00     0.049 A 
ATOM     35  H   UNL A   1      41.097  29.754  32.670  1.00  0.00     0.167 HD
ATOM     36  C   UNL A   1      42.482  30.186  35.119  1.00  0.00     0.074 A 
ATOM     37  C   UNL A   1      42.876  30.759  36.390  1.00  0.00     0.031 C 
ATOM     38  C   UNL A   1      43.098  29.124  34.539  1.00  0.00     0.034 A 
BRANCH  25  39
ATOM     39  C   UNL A   1      40.751  27.534  29.015  1.00  0.00     0.023 A 
ATOM     40  C   UNL A   1      41.687  27.722  27.983  1.00  0.00     0.031 A 
ATOM     41  C   UNL A   1      39.865  26.446  28.907  1.00  0.00     0.131 A 
ATOM     42  C   UNL A   1      41.683  26.871  26.867  1.00  0.00     0.055 A 
ATOM     43  C   UNL A   1      39.913  25.561  27.828  1.00  0.00     0.041 A 
ATOM     44  F   UNL A   1      38.935  26.225  29.849  1.00  0.00    -0.206 F 
ATOM     45  C   UNL A   1      40.818  25.776  26.794  1.00  0.00     0.022 A 
BRANCH  42  46
ATOM     46  S   UNL A   1      42.746  27.283  25.456  1.00  0.00     0.124 S 
ATOM     47  O   UNL A   1      44.022  27.551  26.115  1.00  0.00    -0.237 OA
ATOM     48  O   UNL A   1      42.686  26.070  24.650  1.00  0.00    -0.237 OA
ATOM     49  O   UNL A   1      42.098  28.455  24.869  1.00  0.00    -0.744 OA
ENDBRANCH  42  46
ENDBRANCH  25  39
BRANCH  26  50
ATOM     50  C   UNL A   1      39.937  33.760  36.848  1.00  0.00     0.023 A 
ATOM     51  C   UNL A   1      39.314  33.318  38.024  1.00  0.00     0.031 A 
ATOM     52  C   UNL A   1      40.384  35.094  36.801  1.00  0.00     0.131 A 
ATOM     53  C   UNL A   1      39.109  34.214  39.085  1.00  0.00     0.055 A 
ATOM     54  C   UNL A   1      40.240  35.961  37.883  1.00  0.00     0.041 A 
ATOM     55  F   UNL A   1      40.989  35.570  35.700  1.00  0.00    -0.206 F 
ATOM     56  C   UNL A   1      39.582  35.528  39.029  1.00  0.00     0.022 A 
BRANCH  53  57
ATOM     57  S   UNL A   1      38.116  33.670  40.500  1.00  0.00     0.124 S 
ATOM     58  O   UNL A   1      37.806  34.938  41.152  1.00  0.00    -0.237 OA
ATOM     59  O   UNL A   1      37.000  32.998  39.844  1.00  0.00    -0.237 OA
ATOM     60  O   UNL A   1      39.024  32.794  41.237  1.00  0.00    -0.744 OA
ENDBRANCH  53  57
ENDBRANCH  26  50
BRANCH  38  61
ATOM     61  C   UNL A   1      44.274  28.542  35.284  1.00  0.00     0.023 A 
ATOM     62  C   UNL A   1      44.106  27.512  36.228  1.00  0.00     0.031 A 
ATOM     63  C   UNL A   1      45.566  29.062  35.096  1.00  0.00     0.131 A 
ATOM     64  C   UNL A   1      45.195  27.093  37.006  1.00  0.00     0.055 A 
ATOM     65  C   UNL A   1      46.660  28.591  35.823  1.00  0.00     0.041 A 
ATOM     66  F   UNL A   1      45.784  30.047  34.210  1.00  0.00    -0.206 F 
ATOM     67  C   UNL A   1      46.474  27.614  36.799  1.00  0.00     0.022 A 
BRANCH  64  68
ATOM     68  S   UNL A   1      44.888  25.951  38.382  1.00  0.00     0.124 S 
ATOM     69  O   UNL A   1      44.193  24.854  37.715  1.00  0.00    -0.237 OA
ATOM     70  O   UNL A   1      46.239  25.659  38.850  1.00  0.00    -0.237 OA
ATOM     71  O   UNL A   1      44.068  26.736  39.303  1.00  0.00    -0.744 OA
ENDBRANCH  64  68
ENDBRANCH  38  61
ENDBRANCH  12  13
ENDBRANCH   5   7
ENDBRANCH   2   3
ENDBRANCH   1   2
BRANCH   1  72
ATOM     72  C   UNL A   1      31.357  31.319  26.216  1.00  0.00     0.023 C 
BRANCH  72  73
ATOM     73  C   UNL A   1      32.359  30.423  26.939  1.00  0.00     0.116 C 
BRANCH  73  74
ATOM     74  N   UNL A   1      31.755  29.179  27.377  1.00  0.00    -0.356 N 
ATOM     75  C   UNL A   1      31.925  27.912  26.904  1.00  0.00     0.226 C 
ATOM     76  H   UNL A   1      31.126  29.262  28.130  1.00  0.00     0.163 HD
ATOM     77  O   UNL A   1      31.318  26.990  27.455  1.00  0.00    -0.274 OA
BRANCH  75  78
ATOM     78  C   UNL A   1      32.888  27.660  25.747  1.00  0.00     0.103 C 
ATOM     79  C   UNL A   1      32.186  27.692  24.428  1.00  0.00    -0.016 C 
ATOM     80  C   UNL A   1      33.428  26.224  25.819  1.00  0.00     0.042 C 
ATOM     81  C   UNL A   1      32.078  26.474  23.891  1.00  0.00    -0.011 C 
ATOM     82  C   UNL A   1      32.632  25.415  24.780  1.00  0.00     0.093 C 
BRANCH  82  83
ATOM     83  N   UNL A   1      33.522  24.517  24.066  1.00  0.00    -0.204 NA
ATOM     84  H   UNL A   1      34.464  24.872  24.232  1.00  0.00     0.142 HD
BRANCH  83  85
ATOM     85  S   UNL A   1      33.605  22.875  24.334  1.00  0.00     0.244 S 
ATOM     86  O   UNL A   1      32.829  22.544  25.508  1.00  0.00    -0.207 OA
ATOM     87  O   UNL A   1      33.299  22.256  23.064  1.00  0.00    -0.207 OA
BRANCH  85  88
ATOM     88  C   UNL A   1      35.299  22.597  24.731  1.00  0.00     0.121 A 
ATOM     89  C   UNL A   1      36.094  23.702  25.085  1.00  0.00     0.028 A 
ATOM     90  C   UNL A   1      35.826  21.313  24.780  1.00  0.00     0.181 A 
ATOM     91  C   UNL A   1      37.428  23.513  25.448  1.00  0.00     0.044 A 
ATOM     92  C   UNL A   1      37.151  21.130  25.162  1.00  0.00     0.195 A 
ATOM     93  F   UNL A   1      35.096  20.237  24.460  1.00  0.00    -0.202 F 
ATOM     94  C   UNL A   1      37.946  22.223  25.488  1.00  0.00     0.161 A 
ATOM     95  F   UNL A   1      37.664  19.892  25.222  1.00  0.00    -0.200 F 
ATOM     96  F   UNL A   1      39.222  22.043  25.856  1.00  0.00    -0.204 F 
ENDBRANCH  85  88
ENDBRANCH  83  85
ENDBRANCH  82  83
ENDBRANCH  75  78
ENDBRANCH  73  74
ENDBRANCH  72  73
ENDBRANCH   1  72
TORSDOF 17
ENDMDL
MODEL 2
REMARK VINA RESULT:     -11.5      1.596      2.256
REMARK SMILES O=C(NCCCCNC(=O)[C@@H]1C=C[C@@H](NS(=O)(=O)c2ccc(F)c(F)c2F)C1)c1ccc(-c2c3nc(c(-c4cc(S(=O)(=O)[O-])ccc4F)c4ccc([nH]4)c(-c4cc(S(=O)(=O)[O-])ccc4F)c4nc(c(-c5cc(S(=O)(=O)[O-])ccc5F)c5ccc2[nH]5)C=C4)C=C3)cc1
REMARK SMILES IDX 5 1 4 2 3 3 1 4 2 5 29 7 30 8 91 9 31 10 90 11 32 12 33 13
REMARK SMILES IDX 34 14 84 15 35 16 89 17 83 18 85 19 36 20 88 21 82 22 81 23
REMARK SMILES IDX 37 25 69 26 49 27 68 28 50 29 53 30 67 31 86 32 51 33 52 34
REMARK SMILES IDX 66 36 87 37 54 38 38 39 39 40 47 41 40 42 46 43 48 44 45 45
REMARK SMILES IDX 41 46 42 47 43 48 44 49 70 50 71 51 79 52 72 53 78 54 80 55
REMARK SMILES IDX 77 56 73 57 74 58 75 59 76 60 55 61 56 62 64 63 57 64 63 65
REMARK SMILES IDX 65 66 62 67 58 68 59 69 60 70 61 71 6 72 7 73 8 74 9 75
REMARK SMILES IDX 10 77 11 78 12 79 28 80 13 81 14 82 15 83 16 85 17 86 18 87
REMARK SMILES IDX 19 88 20 89 26 90 21 91 24 92 27 93 22 94 25 95 23 96
REMARK H PARENT 3 6 85 24 53 35 8 76 15 84
REMARK Flexibility Score: inf
ROOT
ATOM      1  C   UNL A   1      31.778  32.071  26.902  1.00  0.00     0.023 C 
ENDROOT
BRANCH   1   2
ATOM      2  C   UNL A   1      33.035  32.795  27.366  1.00  0.00     0.116 C 
BRANCH   2   3
ATOM      3  N   UNL A   1      32.809  34.191  27.715  1.00  0.00    -0.352 N 
ATOM      4  O   UNL A   1      33.035  36.069  28.957  1.00  0.00    -0.269 OA
ATOM      5  C   UNL A   1      33.407  34.925  28.717  1.00  0.00     0.251 C 
ATOM      6  H   UNL A   1      32.147  34.672  27.167  1.00  0.00     0.163 HD
BRANCH   5   7
ATOM      7  C   UNL A   1      34.483  34.297  29.515  1.00  0.00     0.039 A 
ATOM      8  C   UNL A   1      35.815  34.471  29.139  1.00  0.00     0.014 A 
ATOM      9  C   UNL A   1      34.157  33.482  30.602  1.00  0.00     0.014 A 
ATOM     10  C   UNL A   1      36.800  33.698  29.735  1.00  0.00     0.010 A 
ATOM     11  C   UNL A   1      35.170  32.788  31.275  1.00  0.00     0.010 A 
ATOM     12  C   UNL A   1      36.497  32.863  30.825  1.00  0.00    -0.014 A 
BRANCH  12  13
ATOM     13  C   UNL A   1      37.616  32.153  31.500  1.00  0.00     0.031 A 
ATOM     14  C   UNL A   1      38.381  31.052  30.817  1.00  0.00     0.074 A 
ATOM     15  C   UNL A   1      37.985  32.580  32.725  1.00  0.00     0.049 A 
ATOM     16  N   UNL A   1      39.425  30.389  31.248  1.00  0.00    -0.248 NA
ATOM     17  C   UNL A   1      37.914  30.633  29.488  1.00  0.00     0.031 C 
ATOM     18  C   UNL A   1      37.302  33.633  33.484  1.00  0.00     0.029 A 
ATOM     19  N   UNL A   1      39.034  32.225  33.529  1.00  0.00    -0.354 N 
ATOM     20  C   UNL A   1      39.739  29.473  30.250  1.00  0.00     0.074 A 
ATOM     21  C   UNL A   1      38.748  29.640  29.208  1.00  0.00     0.031 C 
ATOM     22  C   UNL A   1      37.988  33.885  34.605  1.00  0.00     0.029 A 
ATOM     23  C   UNL A   1      39.107  32.957  34.692  1.00  0.00     0.049 A 
ATOM     24  H   UNL A   1      39.674  31.513  33.299  1.00  0.00     0.167 HD
ATOM     25  C   UNL A   1      40.766  28.585  30.208  1.00  0.00     0.034 A 
ATOM     26  C   UNL A   1      39.964  32.880  35.727  1.00  0.00     0.034 A 
ATOM     27  C   UNL A   1      41.742  28.431  31.263  1.00  0.00     0.049 A 
ATOM     28  C   UNL A   1      41.076  31.868  35.662  1.00  0.00     0.074 A 
ATOM     29  C   UNL A   1      42.820  27.563  31.322  1.00  0.00     0.029 A 
ATOM     30  N   UNL A   1      41.759  29.158  32.448  1.00  0.00    -0.354 N 
ATOM     31  N   UNL A   1      41.357  31.014  34.703  1.00  0.00    -0.248 NA
ATOM     32  C   UNL A   1      41.986  31.816  36.809  1.00  0.00     0.031 C 
ATOM     33  C   UNL A   1      43.448  27.722  32.563  1.00  0.00     0.029 A 
ATOM     34  C   UNL A   1      42.813  28.743  33.251  1.00  0.00     0.049 A 
ATOM     35  H   UNL A   1      41.117  29.866  32.684  1.00  0.00     0.167 HD
ATOM     36  C   UNL A   1      42.486  30.326  35.135  1.00  0.00     0.074 A 
ATOM     37  C   UNL A   1      42.855  30.899  36.415  1.00  0.00     0.031 C 
ATOM     38  C   UNL A   1      43.151  29.305  34.538  1.00  0.00     0.034 A 
BRANCH  25  39
ATOM     39  C   UNL A   1      40.867  27.689  28.995  1.00  0.00     0.023 A 
ATOM     40  C   UNL A   1      41.856  27.877  28.015  1.00  0.00     0.031 A 
ATOM     41  C   UNL A   1      39.966  26.622  28.821  1.00  0.00     0.131 A 
ATOM     42  C   UNL A   1      41.891  27.048  26.882  1.00  0.00     0.055 A 
ATOM     43  C   UNL A   1      40.049  25.757  27.727  1.00  0.00     0.041 A 
ATOM     44  F   UNL A   1      38.986  26.403  29.712  1.00  0.00    -0.206 F 
ATOM     45  C   UNL A   1      41.008  25.973  26.745  1.00  0.00     0.022 A 
BRANCH  42  46
ATOM     46  S   UNL A   1      43.031  27.465  25.535  1.00  0.00     0.124 S 
ATOM     47  O   UNL A   1      43.398  26.142  25.037  1.00  0.00    -0.237 OA
ATOM     48  O   UNL A   1      42.195  28.270  24.652  1.00  0.00    -0.237 OA
ATOM     49  O   UNL A   1      44.107  28.190  26.208  1.00  0.00    -0.744 OA
ENDBRANCH  42  46
ENDBRANCH  25  39
BRANCH  26  50
ATOM     50  C   UNL A   1      39.777  33.747  36.926  1.00  0.00     0.023 A 
ATOM     51  C   UNL A   1      39.126  33.275  38.074  1.00  0.00     0.031 A 
ATOM     52  C   UNL A   1      40.214  35.085  36.918  1.00  0.00     0.131 A 
ATOM     53  C   UNL A   1      38.885  34.147  39.148  1.00  0.00     0.055 A 
ATOM     54  C   UNL A   1      40.033  35.928  38.014  1.00  0.00     0.041 A 
ATOM     55  F   UNL A   1      40.845  35.589  35.845  1.00  0.00    -0.206 F 
ATOM     56  C   UNL A   1      39.348  35.465  39.132  1.00  0.00     0.022 A 
BRANCH  53  57
ATOM     57  S   UNL A   1      37.858  33.566  40.524  1.00  0.00     0.124 S 
ATOM     58  O   UNL A   1      36.740  32.947  39.821  1.00  0.00    -0.237 OA
ATOM     59  O   UNL A   1      38.766  32.654  41.212  1.00  0.00    -0.237 OA
ATOM     60  O   UNL A   1      37.538  34.792  41.252  1.00  0.00    -0.744 OA
ENDBRANCH  53  57
ENDBRANCH  26  50
BRANCH  38  61
ATOM     61  C   UNL A   1      44.355  28.768  35.272  1.00  0.00     0.023 A 
ATOM     62  C   UNL A   1      44.238  27.725  36.208  1.00  0.00     0.031 A 
ATOM     63  C   UNL A   1      45.622  29.346  35.080  1.00  0.00     0.131 A 
ATOM     64  C   UNL A   1      45.349  27.348  36.976  1.00  0.00     0.055 A 
ATOM     65  C   UNL A   1      46.741  28.917  35.798  1.00  0.00     0.041 A 
ATOM     66  F   UNL A   1      45.792  30.347  34.202  1.00  0.00    -0.206 F 
ATOM     67  C   UNL A   1      46.603  27.925  36.766  1.00  0.00     0.022 A 
BRANCH  64  68
ATOM     68  S   UNL A   1      45.101  26.182  38.344  1.00  0.00     0.124 S 
ATOM     69  O   UNL A   1      45.308  27.035  39.510  1.00  0.00    -0.237 OA
ATOM     70  O   UNL A   1      43.733  25.726  38.121  1.00  0.00    -0.237 OA
ATOM     71  O   UNL A   1      46.135  25.172  38.125  1.00  0.00    -0.744 OA
ENDBRANCH  64  68
ENDBRANCH  38  61
ENDBRANCH  12  13
ENDBRANCH   5   7
ENDBRANCH   2   3
ENDBRANCH   1   2
BRANCH   1  72
ATOM     72  C   UNL A   1      31.942  30.570  26.667  1.00  0.00     0.023 C 
BRANCH  72  73
ATOM     73  C   UNL A   1      31.496  30.097  25.286  1.00  0.00     0.116 C 
BRANCH  73  74
ATOM     74  N   UNL A   1      32.617  29.664  24.473  1.00  0.00    -0.356 N 
ATOM     75  C   UNL A   1      33.167  28.425  24.334  1.00  0.00     0.226 C 
ATOM     76  H   UNL A   1      33.046  30.373  23.943  1.00  0.00     0.163 HD
ATOM     77  O   UNL A   1      34.114  28.284  23.556  1.00  0.00    -0.274 OA
BRANCH  75  78
ATOM     78  C   UNL A   1      32.574  27.244  25.098  1.00  0.00     0.103 C 
ATOM     79  C   UNL A   1      33.524  26.720  26.127  1.00  0.00    -0.016 C 
ATOM     80  C   UNL A   1      32.391  26.048  24.152  1.00  0.00     0.042 C 
ATOM     81  C   UNL A   1      34.036  25.538  25.775  1.00  0.00    -0.011 C 
ATOM     82  C   UNL A   1      33.567  25.097  24.432  1.00  0.00     0.093 C 
BRANCH  82  83
ATOM     83  N   UNL A   1      33.099  23.722  24.444  1.00  0.00    -0.204 NA
ATOM     84  H   UNL A   1      32.397  23.676  25.182  1.00  0.00     0.142 HD
BRANCH  83  85
ATOM     85  S   UNL A   1      32.423  22.953  23.130  1.00  0.00     0.244 S 
ATOM     86  O   UNL A   1      31.021  23.297  23.047  1.00  0.00    -0.207 OA
ATOM     87  O   UNL A   1      33.305  23.231  22.018  1.00  0.00    -0.207 OA
BRANCH  85  88
ATOM     88  C   UNL A   1      32.520  21.244  23.545  1.00  0.00     0.121 A 
ATOM     89  C   UNL A   1      32.829  20.893  24.871  1.00  0.00     0.028 A 
ATOM     90  C   UNL A   1      32.216  20.259  22.614  1.00  0.00     0.181 A 
ATOM     91  C   UNL A   1      32.870  19.550  25.245  1.00  0.00     0.044 A 
ATOM     92  C   UNL A   1      32.240  18.922  22.998  1.00  0.00     0.195 A 
ATOM     93  F   UNL A   1      31.908  20.556  21.345  1.00  0.00    -0.202 F 
ATOM     94  C   UNL A   1      32.569  18.572  24.303  1.00  0.00     0.161 A 
ATOM     95  F   UNL A   1      31.938  17.966  22.108  1.00  0.00    -0.200 F 
ATOM     96  F   UNL A   1      32.591  17.283  24.669  1.00  0.00    -0.204 F 
ENDBRANCH  85  88
ENDBRANCH  83  85
ENDBRANCH  82  83
ENDBRANCH  75  78
ENDBRANCH  73  74
ENDBRANCH  72  73
ENDBRANCH   1  72
TORSDOF 17
ENDMDL
MODEL 3
REMARK VINA RESULT:     -11.5      1.709      7.959
REMARK SMILES O=C(NCCCCNC(=O)[C@@H]1C=C[C@@H](NS(=O)(=O)c2ccc(F)c(F)c2F)C1)c1ccc(-c2c3nc(c(-c4cc(S(=O)(=O)[O-])ccc4F)c4ccc([nH]4)c(-c4cc(S(=O)(=O)[O-])ccc4F)c4nc(c(-c5cc(S(=O)(=O)[O-])ccc5F)c5ccc2[nH]5)C=C4)C=C3)cc1
REMARK SMILES IDX 5 1 4 2 3 3 1 4 2 5 29 7 30 8 91 9 31 10 90 11 32 12 33 13
REMARK SMILES IDX 34 14 84 15 35 16 89 17 83 18 85 19 36 20 88 21 82 22 81 23
REMARK SMILES IDX 37 25 69 26 49 27 68 28 50 29 53 30 67 31 86 32 51 33 52 34
REMARK SMILES IDX 66 36 87 37 54 38 38 39 39 40 47 41 40 42 46 43 48 44 45 45
REMARK SMILES IDX 41 46 42 47 43 48 44 49 70 50 71 51 79 52 72 53 78 54 80 55
REMARK SMILES IDX 77 56 73 57 74 58 75 59 76 60 55 61 56 62 64 63 57 64 63 65
REMARK SMILES IDX 65 66 62 67 58 68 59 69 60 70 61 71 6 72 7 73 8 74 9 75
REMARK SMILES IDX 10 77 11 78 12 79 28 80 13 81 14 82 15 83 16 85 17 86 18 87
REMARK SMILES IDX 19 88 20 89 26 90 21 91 24 92 27 93 22 94 25 95 23 96
REMARK H PARENT 3 6 85 24 53 35 8 76 15 84
REMARK Flexibility Score: inf
ROOT
ATOM      1  C   UNL A   1      31.515  32.022  26.688  1.00  0.00     0.023 C 
ENDROOT
BRANCH   1   2
ATOM      2  C   UNL A   1      32.770  32.708  27.213  1.00  0.00     0.116 C 
BRANCH   2   3
ATOM      3  N   UNL A   1      32.512  33.998  27.839  1.00  0.00    -0.352 N 
ATOM      4  O   UNL A   1      32.834  35.666  29.334  1.00  0.00    -0.269 OA
ATOM      5  C   UNL A   1      33.237  34.623  28.830  1.00  0.00     0.251 C 
ATOM      6  H   UNL A   1      31.720  34.485  27.514  1.00  0.00     0.163 HD
BRANCH   5   7
ATOM      7  C   UNL A   1      34.494  33.995  29.297  1.00  0.00     0.039 A 
ATOM      8  C   UNL A   1      34.448  32.986  30.258  1.00  0.00     0.014 A 
ATOM      9  C   UNL A   1      35.722  34.461  28.821  1.00  0.00     0.014 A 
ATOM     10  C   UNL A   1      35.621  32.567  30.866  1.00  0.00     0.010 A 
ATOM     11  C   UNL A   1      36.911  33.953  29.359  1.00  0.00     0.010 A 
ATOM     12  C   UNL A   1      36.869  33.026  30.412  1.00  0.00    -0.014 A 
BRANCH  12  13
ATOM     13  C   UNL A   1      38.097  32.449  31.022  1.00  0.00     0.031 A 
ATOM     14  C   UNL A   1      38.666  32.980  32.310  1.00  0.00     0.074 A 
ATOM     15  C   UNL A   1      38.648  31.371  30.428  1.00  0.00     0.049 A 
ATOM     16  N   UNL A   1      39.685  32.535  33.001  1.00  0.00    -0.248 NA
ATOM     17  C   UNL A   1      38.018  34.163  32.893  1.00  0.00     0.031 C 
ATOM     18  C   UNL A   1      38.183  30.783  29.167  1.00  0.00     0.029 A 
ATOM     19  N   UNL A   1      39.679  30.555  30.809  1.00  0.00    -0.354 N 
ATOM     20  C   UNL A   1      39.807  33.382  34.097  1.00  0.00     0.074 A 
ATOM     21  C   UNL A   1      38.779  34.392  33.956  1.00  0.00     0.031 C 
ATOM     22  C   UNL A   1      38.877  29.665  28.919  1.00  0.00     0.029 A 
ATOM     23  C   UNL A   1      39.893  29.502  29.950  1.00  0.00     0.049 A 
ATOM     24  H   UNL A   1      40.216  30.707  31.620  1.00  0.00     0.167 HD
ATOM     25  C   UNL A   1      40.689  33.313  35.127  1.00  0.00     0.034 A 
ATOM     26  C   UNL A   1      40.817  28.523  29.971  1.00  0.00     0.034 A 
ATOM     27  C   UNL A   1      41.712  32.298  35.246  1.00  0.00     0.049 A 
ATOM     28  C   UNL A   1      41.797  28.490  31.112  1.00  0.00     0.074 A 
ATOM     29  C   UNL A   1      42.656  32.137  36.246  1.00  0.00     0.029 A 
ATOM     30  N   UNL A   1      41.930  31.273  34.333  1.00  0.00    -0.354 N 
ATOM     31  N   UNL A   1      41.889  29.300  32.143  1.00  0.00    -0.248 NA
ATOM     32  C   UNL A   1      42.787  27.409  31.098  1.00  0.00     0.031 C 
ATOM     33  C   UNL A   1      43.480  31.057  35.908  1.00  0.00     0.029 A 
ATOM     34  C   UNL A   1      43.005  30.493  34.736  1.00  0.00     0.049 A 
ATOM     35  H   UNL A   1      41.398  31.122  33.518  1.00  0.00     0.167 HD
ATOM     36  C   UNL A   1      42.949  28.818  32.903  1.00  0.00     0.074 A 
ATOM     37  C   UNL A   1      43.429  27.624  32.235  1.00  0.00     0.031 C 
ATOM     38  C   UNL A   1      43.489  29.321  34.043  1.00  0.00     0.034 A 
BRANCH  25  39
ATOM     39  C   UNL A   1      40.608  34.383  36.192  1.00  0.00     0.023 A 
ATOM     40  C   UNL A   1      40.065  34.125  37.463  1.00  0.00     0.031 A 
ATOM     41  C   UNL A   1      41.089  35.681  35.936  1.00  0.00     0.131 A 
ATOM     42  C   UNL A   1      39.970  35.157  38.410  1.00  0.00     0.055 A 
ATOM     43  C   UNL A   1      41.056  36.685  36.907  1.00  0.00     0.041 A 
ATOM     44  F   UNL A   1      41.599  35.996  34.736  1.00  0.00    -0.206 F 
ATOM     45  C   UNL A   1      40.484  36.429  38.148  1.00  0.00     0.022 A 
BRANCH  42  46
ATOM     46  S   UNL A   1      39.058  34.844  39.947  1.00  0.00     0.124 S 
ATOM     47  O   UNL A   1      40.106  34.301  40.808  1.00  0.00    -0.237 OA
ATOM     48  O   UNL A   1      38.567  36.171  40.298  1.00  0.00    -0.237 OA
ATOM     49  O   UNL A   1      38.031  33.884  39.546  1.00  0.00    -0.744 OA
ENDBRANCH  42  46
ENDBRANCH  25  39
BRANCH  26  50
ATOM     50  C   UNL A   1      40.890  27.533  28.859  1.00  0.00     0.023 A 
ATOM     51  C   UNL A   1      41.844  27.648  27.838  1.00  0.00     0.031 A 
ATOM     52  C   UNL A   1      39.967  26.472  28.782  1.00  0.00     0.131 A 
ATOM     53  C   UNL A   1      41.824  26.751  26.759  1.00  0.00     0.055 A 
ATOM     54  C   UNL A   1      39.995  25.542  27.744  1.00  0.00     0.041 A 
ATOM     55  F   UNL A   1      39.033  26.313  29.734  1.00  0.00    -0.206 F 
ATOM     56  C   UNL A   1      40.916  25.689  26.713  1.00  0.00     0.022 A 
BRANCH  53  57
ATOM     57  S   UNL A   1      42.931  27.056  25.356  1.00  0.00     0.124 S 
ATOM     58  O   UNL A   1      44.170  27.429  26.029  1.00  0.00    -0.237 OA
ATOM     59  O   UNL A   1      42.930  25.760  24.686  1.00  0.00    -0.237 OA
ATOM     60  O   UNL A   1      42.267  28.134  24.627  1.00  0.00    -0.744 OA
ENDBRANCH  53  57
ENDBRANCH  26  50
BRANCH  38  61
ATOM     61  C   UNL A   1      44.647  28.554  34.632  1.00  0.00     0.023 A 
ATOM     62  C   UNL A   1      44.443  27.391  35.397  1.00  0.00     0.031 A 
ATOM     63  C   UNL A   1      45.964  29.023  34.480  1.00  0.00     0.131 A 
ATOM     64  C   UNL A   1      45.526  26.785  36.048  1.00  0.00     0.055 A 
ATOM     65  C   UNL A   1      47.047  28.374  35.073  1.00  0.00     0.041 A 
ATOM     66  F   UNL A   1      46.217  30.130  33.763  1.00  0.00    -0.206 F 
ATOM     67  C   UNL A   1      46.830  27.258  35.878  1.00  0.00     0.022 A 
BRANCH  64  68
ATOM     68  S   UNL A   1      45.191  25.446  37.225  1.00  0.00     0.124 S 
ATOM     69  O   UNL A   1      46.523  25.162  37.749  1.00  0.00    -0.237 OA
ATOM     70  O   UNL A   1      44.259  26.075  38.155  1.00  0.00    -0.237 OA
ATOM     71  O   UNL A   1      44.617  24.392  36.391  1.00  0.00    -0.744 OA
ENDBRANCH  64  68
ENDBRANCH  38  61
ENDBRANCH  12  13
ENDBRANCH   5   7
ENDBRANCH   2   3
ENDBRANCH   1   2
BRANCH   1  72
ATOM     72  C   UNL A   1      31.650  30.519  26.445  1.00  0.00     0.023 C 
BRANCH  72  73
ATOM     73  C   UNL A   1      31.315  30.079  25.022  1.00  0.00     0.116 C 
BRANCH  73  74
ATOM     74  N   UNL A   1      32.498  29.670  24.290  1.00  0.00    -0.356 N 
ATOM     75  C   UNL A   1      33.117  28.456  24.239  1.00  0.00     0.226 C 
ATOM     76  H   UNL A   1      32.919  30.376  23.748  1.00  0.00     0.163 HD
ATOM     77  O   UNL A   1      34.110  28.330  23.518  1.00  0.00    -0.274 OA
BRANCH  75  78
ATOM     78  C   UNL A   1      32.543  27.282  25.028  1.00  0.00     0.103 C 
ATOM     79  C   UNL A   1      33.508  26.785  26.055  1.00  0.00    -0.016 C 
ATOM     80  C   UNL A   1      32.364  26.069  24.103  1.00  0.00     0.042 C 
ATOM     81  C   UNL A   1      34.029  25.602  25.718  1.00  0.00    -0.011 C 
ATOM     82  C   UNL A   1      33.552  25.135  24.387  1.00  0.00     0.093 C 
BRANCH  82  83
ATOM     83  N   UNL A   1      33.099  23.756  24.425  1.00  0.00    -0.204 NA
ATOM     84  H   UNL A   1      32.418  23.710  25.183  1.00  0.00     0.142 HD
BRANCH  83  85
ATOM     85  S   UNL A   1      32.396  22.966  23.138  1.00  0.00     0.244 S 
ATOM     86  O   UNL A   1      30.990  23.299  23.086  1.00  0.00    -0.207 OA
ATOM     87  O   UNL A   1      33.249  23.236  22.001  1.00  0.00    -0.207 OA
BRANCH  85  88
ATOM     88  C   UNL A   1      32.515  21.263  23.571  1.00  0.00     0.121 A 
ATOM     89  C   UNL A   1      32.836  20.930  24.899  1.00  0.00     0.028 A 
ATOM     90  C   UNL A   1      32.218  20.264  22.653  1.00  0.00     0.181 A 
ATOM     91  C   UNL A   1      32.894  19.592  25.288  1.00  0.00     0.044 A 
ATOM     92  C   UNL A   1      32.259  18.932  23.051  1.00  0.00     0.195 A 
ATOM     93  F   UNL A   1      31.899  20.544  21.383  1.00  0.00    -0.202 F 
ATOM     94  C   UNL A   1      32.600  18.600  24.358  1.00  0.00     0.161 A 
ATOM     95  F   UNL A   1      31.963  17.963  22.174  1.00  0.00    -0.200 F 
ATOM     96  F   UNL A   1      32.639  17.316  24.739  1.00  0.00    -0.204 F 
ENDBRANCH  85  88
ENDBRANCH  83  85
ENDBRANCH  82  83
ENDBRANCH  75  78
ENDBRANCH  73  74
ENDBRANCH  72  73
ENDBRANCH   1  72
TORSDOF 17
ENDMDL
