MODEL 1
REMARK VINA RESULT:     -12.5      0.000      0.000
REMARK SMILES CC[N@@H+](C)Cc1cc2c(cc1Cl)C=C(C(=O)NCCCCNC(=O)c1ccc(-c3c4nc(c(-c5cc(S(=O)(=O)[O-])ccc5F)c5ccc([nH]5)c(-c5cc(S(=O)(=O)[O-])ccc5F)c5nc(c(-c6cc(S(=O)(=O)[O-])ccc6F)c6ccc3[nH]6)C=C5)C=C4)cc1)[C@@H](C(F)(F)F)O2
REMARK SMILES IDX 19 1 18 2 17 3 15 4 16 5 14 7 6 8 7 9 11 10 8 11 10 12 12 13
REMARK SMILES IDX 9 14 93 15 13 16 88 17 5 18 3 19 4 20 2 22 1 23 89 24 90 25
REMARK SMILES IDX 91 26 92 27 20 28 21 29 22 30 23 31 24 33 25 34 26 35 87 36
REMARK SMILES IDX 27 37 86 38 28 39 29 40 30 41 80 42 31 43 85 44 79 45 81 46
REMARK SMILES IDX 32 47 84 48 78 49 77 50 33 52 65 53 45 54 64 55 46 56 49 57
REMARK SMILES IDX 63 58 82 59 47 60 48 61 62 63 83 64 50 65 34 66 35 67 43 68
REMARK SMILES IDX 36 69 42 70 44 71 41 72 37 73 38 74 39 75 40 76 66 77 67 78
REMARK SMILES IDX 75 79 68 80 74 81 76 82 73 83 69 84 70 85 71 86 72 87 51 88
REMARK SMILES IDX 52 89 60 90 53 91 59 92 61 93 58 94 54 95 55 96 56 97 57 98
REMARK H PARENT 17 6 3 21 22 32 81 51 49 62
REMARK Flexibility Score: inf
ROOT
ATOM      1  C   UNL A   1      35.409  22.654  26.222  1.00  0.00     0.023 C 
ENDROOT
BRANCH   1   2
ATOM      2  C   UNL A   1      34.553  23.878  25.918  1.00  0.00     0.116 C 
BRANCH   2   3
ATOM      3  N   UNL A   1      33.216  23.745  26.465  1.00  0.00    -0.352 N 
ATOM      4  C   UNL A   1      32.012  24.330  26.267  1.00  0.00     0.251 C 
ATOM      5  O   UNL A   1      31.097  23.917  26.986  1.00  0.00    -0.270 OA
ATOM      6  H   UNL A   1      33.173  23.049  27.160  1.00  0.00     0.163 HD
BRANCH   4   7
ATOM      7  C   UNL A   1      31.732  25.401  25.269  1.00  0.00     0.067 C 
ATOM      8  C   UNL A   1      29.582  29.079  22.562  1.00  0.00     0.029 A 
ATOM      9  C   UNL A   1      30.912  28.674  22.795  1.00  0.00     0.058 A 
ATOM     10  C   UNL A   1      28.559  28.386  23.233  1.00  0.00     0.050 A 
ATOM     11  C   UNL A   1      31.196  27.630  23.670  1.00  0.00     0.128 A 
ATOM     12  C   UNL A   1      28.859  27.397  24.179  1.00  0.00     0.033 A 
ATOM     13  Cl  UNL A   1      26.882  28.627  22.895  1.00  0.00    -0.084 Cl
ATOM     14  C   UNL A   1      30.179  27.020  24.402  1.00  0.00     0.019 A 
ATOM     15  O   UNL A   1      32.499  27.228  23.778  1.00  0.00    -0.475 OA
ATOM     16  C   UNL A   1      30.527  25.992  25.374  1.00  0.00     0.025 C 
ATOM     17  C   UNL A   1      32.659  25.825  24.163  1.00  0.00     0.314 C 
BRANCH   8  18
ATOM     18  C   UNL A   1      29.346  30.212  21.580  1.00  0.00     0.300 C 
BRANCH  18  19
ATOM     19  N   UNL A   1      28.355  31.242  21.946  1.00  0.00    -0.334 N 
ATOM     20  C   UNL A   1      28.087  32.193  20.867  1.00  0.00     0.333 C 
ATOM     21  H   UNL A   1      27.509  30.694  22.104  1.00  0.00     0.348 HD
BRANCH  19  22
ATOM     22  C   UNL A   1      28.609  31.944  23.206  1.00  0.00     0.258 C 
ATOM     23  C   UNL A   1      28.971  33.415  23.016  1.00  0.00     0.071 C 
ENDBRANCH  19  22
ENDBRANCH  18  19
ENDBRANCH   8  18
BRANCH  17  24
ATOM     24  C   UNL A   1      32.543  24.912  22.922  1.00  0.00     0.429 C 
ATOM     25  F   UNL A   1      33.553  24.006  22.903  1.00  0.00    -0.167 F 
ATOM     26  F   UNL A   1      31.389  24.204  22.907  1.00  0.00    -0.167 F 
ATOM     27  F   UNL A   1      32.594  25.594  21.755  1.00  0.00    -0.167 F 
ENDBRANCH  17  24
ENDBRANCH   4   7
ENDBRANCH   2   3
ENDBRANCH   1   2
BRANCH   1  28
ATOM     28  C   UNL A   1      35.924  21.927  24.979  1.00  0.00     0.023 C 
BRANCH  28  29
ATOM     29  C   UNL A   1      37.417  22.085  24.705  1.00  0.00     0.116 C 
BRANCH  29  30
ATOM     30  N   UNL A   1      38.220  20.933  25.093  1.00  0.00    -0.352 N 
ATOM     31  C   UNL A   1      39.293  20.903  25.963  1.00  0.00     0.251 C 
ATOM     32  H   UNL A   1      37.969  20.073  24.685  1.00  0.00     0.163 HD
ATOM     33  O   UNL A   1      39.920  19.877  26.146  1.00  0.00    -0.269 OA
BRANCH  31  34
ATOM     34  C   UNL A   1      39.684  22.171  26.614  1.00  0.00     0.039 A 
ATOM     35  C   UNL A   1      39.136  23.375  26.174  1.00  0.00     0.014 A 
ATOM     36  C   UNL A   1      40.699  22.155  27.573  1.00  0.00     0.014 A 
ATOM     37  C   UNL A   1      39.733  24.569  26.551  1.00  0.00     0.010 A 
ATOM     38  C   UNL A   1      41.239  23.363  28.019  1.00  0.00     0.010 A 
ATOM     39  C   UNL A   1      40.803  24.577  27.464  1.00  0.00    -0.014 A 
BRANCH  39  40
ATOM     40  C   UNL A   1      41.446  25.870  27.810  1.00  0.00     0.031 A 
ATOM     41  C   UNL A   1      42.808  26.224  27.276  1.00  0.00     0.074 A 
ATOM     42  C   UNL A   1      40.756  26.757  28.551  1.00  0.00     0.049 A 
ATOM     43  N   UNL A   1      43.484  27.334  27.424  1.00  0.00    -0.248 NA
ATOM     44  C   UNL A   1      43.507  25.204  26.476  1.00  0.00     0.031 C 
ATOM     45  C   UNL A   1      39.428  26.515  29.113  1.00  0.00     0.029 A 
ATOM     46  N   UNL A   1      41.051  28.041  28.931  1.00  0.00    -0.354 N 
ATOM     47  C   UNL A   1      44.688  27.144  26.755  1.00  0.00     0.074 A 
ATOM     48  C   UNL A   1      44.666  25.797  26.227  1.00  0.00     0.031 C 
ATOM     49  C   UNL A   1      38.992  27.634  29.704  1.00  0.00     0.029 A 
ATOM     50  C   UNL A   1      40.037  28.652  29.632  1.00  0.00     0.049 A 
ATOM     51  H   UNL A   1      41.905  28.485  28.722  1.00  0.00     0.167 HD
ATOM     52  C   UNL A   1      45.708  28.018  26.585  1.00  0.00     0.034 A 
ATOM     53  C   UNL A   1      39.954  29.888  30.162  1.00  0.00     0.034 A 
ATOM     54  C   UNL A   1      45.703  29.365  27.099  1.00  0.00     0.049 A 
ATOM     55  C   UNL A   1      41.110  30.834  29.977  1.00  0.00     0.074 A 
ATOM     56  C   UNL A   1      46.677  30.338  26.956  1.00  0.00     0.029 A 
ATOM     57  N   UNL A   1      44.680  29.933  27.847  1.00  0.00    -0.354 N 
ATOM     58  N   UNL A   1      42.225  30.650  29.309  1.00  0.00    -0.248 NA
ATOM     59  C   UNL A   1      41.005  32.152  30.617  1.00  0.00     0.031 C 
ATOM     60  C   UNL A   1      46.268  31.472  27.660  1.00  0.00     0.029 A 
ATOM     61  C   UNL A   1      45.011  31.232  28.191  1.00  0.00     0.049 A 
ATOM     62  H   UNL A   1      43.842  29.478  28.094  1.00  0.00     0.167 HD
ATOM     63  C   UNL A   1      42.952  31.828  29.443  1.00  0.00     0.074 A 
ATOM     64  C   UNL A   1      42.133  32.731  30.227  1.00  0.00     0.031 C 
ATOM     65  C   UNL A   1      44.188  32.127  28.971  1.00  0.00     0.034 A 
BRANCH  52  66
ATOM     66  C   UNL A   1      46.921  27.575  25.805  1.00  0.00     0.023 A 
ATOM     67  C   UNL A   1      47.053  27.925  24.447  1.00  0.00     0.031 A 
ATOM     68  C   UNL A   1      47.876  26.708  26.364  1.00  0.00     0.131 A 
ATOM     69  C   UNL A   1      48.101  27.387  23.688  1.00  0.00     0.055 A 
ATOM     70  C   UNL A   1      48.939  26.202  25.611  1.00  0.00     0.041 A 
ATOM     71  F   UNL A   1      47.795  26.346  27.654  1.00  0.00    -0.206 F 
ATOM     72  C   UNL A   1      49.047  26.532  24.265  1.00  0.00     0.022 A 
BRANCH  69  73
ATOM     73  S   UNL A   1      48.246  27.726  21.912  1.00  0.00     0.124 S 
ATOM     74  O   UNL A   1      46.951  28.337  21.619  1.00  0.00    -0.237 OA
ATOM     75  O   UNL A   1      49.388  28.635  21.866  1.00  0.00    -0.237 OA
ATOM     76  O   UNL A   1      48.460  26.411  21.319  1.00  0.00    -0.744 OA
ENDBRANCH  69  73
ENDBRANCH  52  66
BRANCH  53  77
ATOM     77  C   UNL A   1      38.703  30.288  30.870  1.00  0.00     0.023 A 
ATOM     78  C   UNL A   1      37.662  30.938  30.180  1.00  0.00     0.031 A 
ATOM     79  C   UNL A   1      38.588  30.148  32.262  1.00  0.00     0.131 A 
ATOM     80  C   UNL A   1      36.598  31.501  30.896  1.00  0.00     0.055 A 
ATOM     81  C   UNL A   1      37.485  30.643  32.961  1.00  0.00     0.041 A 
ATOM     82  F   UNL A   1      39.560  29.547  32.963  1.00  0.00    -0.206 F 
ATOM     83  C   UNL A   1      36.495  31.344  32.280  1.00  0.00     0.022 A 
BRANCH  80  84
ATOM     84  S   UNL A   1      35.404  32.592  30.072  1.00  0.00     0.124 S 
ATOM     85  O   UNL A   1      34.311  32.633  31.040  1.00  0.00    -0.237 OA
ATOM     86  O   UNL A   1      36.172  33.828  29.936  1.00  0.00    -0.237 OA
ATOM     87  O   UNL A   1      35.114  31.903  28.819  1.00  0.00    -0.744 OA
ENDBRANCH  80  84
ENDBRANCH  53  77
BRANCH  65  88
ATOM     88  C   UNL A   1      44.767  33.483  29.293  1.00  0.00     0.023 A 
ATOM     89  C   UNL A   1      44.617  34.549  28.387  1.00  0.00     0.031 A 
ATOM     90  C   UNL A   1      45.586  33.674  30.419  1.00  0.00     0.131 A 
ATOM     91  C   UNL A   1      45.308  35.747  28.603  1.00  0.00     0.055 A 
ATOM     92  C   UNL A   1      46.237  34.885  30.653  1.00  0.00     0.041 A 
ATOM     93  F   UNL A   1      45.765  32.683  31.307  1.00  0.00    -0.206 F 
ATOM     94  C   UNL A   1      46.111  35.924  29.735  1.00  0.00     0.022 A 
BRANCH  91  95
ATOM     95  S   UNL A   1      45.261  37.089  27.382  1.00  0.00     0.124 S 
ATOM     96  O   UNL A   1      43.868  37.048  26.944  1.00  0.00    -0.237 OA
ATOM     97  O   UNL A   1      45.628  38.250  28.188  1.00  0.00    -0.237 OA
ATOM     98  O   UNL A   1      46.241  36.686  26.378  1.00  0.00    -0.744 OA
ENDBRANCH  91  95
ENDBRANCH  65  88
ENDBRANCH  39  40
ENDBRANCH  31  34
ENDBRANCH  29  30
ENDBRANCH  28  29
ENDBRANCH   1  28
TORSDOF 18
ENDMDL
MODEL 2
REMARK VINA RESULT:     -12.4      2.356      2.747
REMARK SMILES CC[N@@H+](C)Cc1cc2c(cc1Cl)C=C(C(=O)NCCCCNC(=O)c1ccc(-c3c4nc(c(-c5cc(S(=O)(=O)[O-])ccc5F)c5ccc([nH]5)c(-c5cc(S(=O)(=O)[O-])ccc5F)c5nc(c(-c6cc(S(=O)(=O)[O-])ccc6F)c6ccc3[nH]6)C=C5)C=C4)cc1)[C@@H](C(F)(F)F)O2
REMARK SMILES IDX 19 1 18 2 17 3 15 4 16 5 14 7 6 8 7 9 11 10 8 11 10 12 12 13
REMARK SMILES IDX 9 14 93 15 13 16 88 17 5 18 3 19 4 20 2 22 1 23 89 24 90 25
REMARK SMILES IDX 91 26 92 27 20 28 21 29 22 30 23 31 24 33 25 34 26 35 87 36
REMARK SMILES IDX 27 37 86 38 28 39 29 40 30 41 80 42 31 43 85 44 79 45 81 46
REMARK SMILES IDX 32 47 84 48 78 49 77 50 33 52 65 53 45 54 64 55 46 56 49 57
REMARK SMILES IDX 63 58 82 59 47 60 48 61 62 63 83 64 50 65 34 66 35 67 43 68
REMARK SMILES IDX 36 69 42 70 44 71 41 72 37 73 38 74 39 75 40 76 66 77 67 78
REMARK SMILES IDX 75 79 68 80 74 81 76 82 73 83 69 84 70 85 71 86 72 87 51 88
REMARK SMILES IDX 52 89 60 90 53 91 59 92 61 93 58 94 54 95 55 96 56 97 57 98
REMARK H PARENT 17 6 3 21 22 32 81 51 49 62
REMARK Flexibility Score: inf
ROOT
ATOM      1  C   UNL A   1      33.980  23.451  26.397  1.00  0.00     0.023 C 
ENDROOT
BRANCH   1   2
ATOM      2  C   UNL A   1      34.274  24.739  25.636  1.00  0.00     0.116 C 
BRANCH   2   3
ATOM      3  N   UNL A   1      34.337  24.512  24.205  1.00  0.00    -0.352 N 
ATOM      4  C   UNL A   1      33.704  24.987  23.108  1.00  0.00     0.251 C 
ATOM      5  O   UNL A   1      34.062  24.493  22.034  1.00  0.00    -0.270 OA
ATOM      6  H   UNL A   1      35.017  23.839  23.971  1.00  0.00     0.163 HD
BRANCH   4   7
ATOM      7  C   UNL A   1      32.642  26.033  23.115  1.00  0.00     0.067 C 
ATOM      8  C   UNL A   1      30.011  30.282  23.820  1.00  0.00     0.029 A 
ATOM      9  C   UNL A   1      29.927  29.209  22.910  1.00  0.00     0.058 A 
ATOM     10  C   UNL A   1      31.065  30.271  24.750  1.00  0.00     0.050 A 
ATOM     11  C   UNL A   1      30.868  28.184  22.928  1.00  0.00     0.128 A 
ATOM     12  C   UNL A   1      32.057  29.283  24.703  1.00  0.00     0.033 A 
ATOM     13  Cl  UNL A   1      31.181  31.398  26.054  1.00  0.00    -0.084 Cl
ATOM     14  C   UNL A   1      31.962  28.239  23.789  1.00  0.00     0.019 A 
ATOM     15  O   UNL A   1      30.673  27.129  22.080  1.00  0.00    -0.475 OA
ATOM     16  C   UNL A   1      32.971  27.192  23.715  1.00  0.00     0.025 C 
ATOM     17  C   UNL A   1      31.257  25.872  22.549  1.00  0.00     0.314 C 
BRANCH   8  18
ATOM     18  C   UNL A   1      28.940  31.355  23.756  1.00  0.00     0.300 C 
BRANCH  18  19
ATOM     19  N   UNL A   1      29.116  32.445  22.776  1.00  0.00    -0.334 N 
ATOM     20  C   UNL A   1      29.383  33.741  23.398  1.00  0.00     0.333 C 
ATOM     21  H   UNL A   1      29.953  32.156  22.268  1.00  0.00     0.348 HD
BRANCH  19  22
ATOM     22  C   UNL A   1      28.063  32.560  21.764  1.00  0.00     0.258 C 
ATOM     23  C   UNL A   1      28.189  31.533  20.642  1.00  0.00     0.071 C 
ENDBRANCH  19  22
ENDBRANCH  18  19
ENDBRANCH   8  18
BRANCH  17  24
ATOM     24  C   UNL A   1      30.300  25.173  23.541  1.00  0.00     0.429 C 
ATOM     25  F   UNL A   1      30.848  25.132  24.781  1.00  0.00    -0.167 F 
ATOM     26  F   UNL A   1      29.118  25.821  23.662  1.00  0.00    -0.167 F 
ATOM     27  F   UNL A   1      30.010  23.899  23.188  1.00  0.00    -0.167 F 
ENDBRANCH  17  24
ENDBRANCH   4   7
ENDBRANCH   2   3
ENDBRANCH   1   2
BRANCH   1  28
ATOM     28  C   UNL A   1      35.036  22.360  26.213  1.00  0.00     0.023 C 
BRANCH  28  29
ATOM     29  C   UNL A   1      36.482  22.847  26.223  1.00  0.00     0.116 C 
BRANCH  29  30
ATOM     30  N   UNL A   1      37.465  21.805  25.957  1.00  0.00    -0.352 N 
ATOM     31  C   UNL A   1      38.827  21.847  26.185  1.00  0.00     0.251 C 
ATOM     32  H   UNL A   1      37.116  20.971  25.568  1.00  0.00     0.163 HD
ATOM     33  O   UNL A   1      39.545  20.924  25.851  1.00  0.00    -0.269 OA
BRANCH  31  34
ATOM     34  C   UNL A   1      39.383  23.074  26.793  1.00  0.00     0.039 A 
ATOM     35  C   UNL A   1      39.023  24.323  26.288  1.00  0.00     0.014 A 
ATOM     36  C   UNL A   1      40.366  22.956  27.777  1.00  0.00     0.014 A 
ATOM     37  C   UNL A   1      39.778  25.435  26.630  1.00  0.00     0.010 A 
ATOM     38  C   UNL A   1      41.065  24.094  28.186  1.00  0.00     0.010 A 
ATOM     39  C   UNL A   1      40.820  25.331  27.569  1.00  0.00    -0.014 A 
BRANCH  39  40
ATOM     40  C   UNL A   1      41.636  26.533  27.878  1.00  0.00     0.031 A 
ATOM     41  C   UNL A   1      43.036  26.676  27.344  1.00  0.00     0.074 A 
ATOM     42  C   UNL A   1      41.073  27.533  28.583  1.00  0.00     0.049 A 
ATOM     43  N   UNL A   1      43.859  27.686  27.461  1.00  0.00    -0.248 NA
ATOM     44  C   UNL A   1      43.589  25.542  26.585  1.00  0.00     0.031 C 
ATOM     45  C   UNL A   1      39.722  27.497  29.140  1.00  0.00     0.029 A 
ATOM     46  N   UNL A   1      41.543  28.776  28.922  1.00  0.00    -0.354 N 
ATOM     47  C   UNL A   1      45.027  27.307  26.809  1.00  0.00     0.074 A 
ATOM     48  C   UNL A   1      44.820  25.959  26.327  1.00  0.00     0.031 C 
ATOM     49  C   UNL A   1      39.444  28.686  29.690  1.00  0.00     0.029 A 
ATOM     50  C   UNL A   1      40.620  29.545  29.593  1.00  0.00     0.049 A 
ATOM     51  H   UNL A   1      42.451  29.089  28.705  1.00  0.00     0.167 HD
ATOM     52  C   UNL A   1      46.161  28.024  26.619  1.00  0.00     0.034 A 
ATOM     53  C   UNL A   1      40.709  30.798  30.081  1.00  0.00     0.034 A 
ATOM     54  C   UNL A   1      46.341  29.375  27.088  1.00  0.00     0.049 A 
ATOM     55  C   UNL A   1      41.986  31.567  29.874  1.00  0.00     0.074 A 
ATOM     56  C   UNL A   1      47.442  30.198  26.921  1.00  0.00     0.029 A 
ATOM     57  N   UNL A   1      45.404  30.106  27.807  1.00  0.00    -0.354 N 
ATOM     58  N   UNL A   1      43.067  31.207  29.223  1.00  0.00    -0.248 NA
ATOM     59  C   UNL A   1      42.063  32.908  30.469  1.00  0.00     0.031 C 
ATOM     60  C   UNL A   1      47.192  31.401  27.582  1.00  0.00     0.029 A 
ATOM     61  C   UNL A   1      45.912  31.358  28.111  1.00  0.00     0.049 A 
ATOM     62  H   UNL A   1      44.510  29.781  28.062  1.00  0.00     0.167 HD
ATOM     63  C   UNL A   1      43.950  32.276  29.324  1.00  0.00     0.074 A 
ATOM     64  C   UNL A   1      43.263  33.311  30.069  1.00  0.00     0.031 C 
ATOM     65  C   UNL A   1      45.217  32.384  28.853  1.00  0.00     0.034 A 
BRANCH  52  66
ATOM     66  C   UNL A   1      47.303  27.390  25.864  1.00  0.00     0.023 A 
ATOM     67  C   UNL A   1      48.333  26.734  26.565  1.00  0.00     0.031 A 
ATOM     68  C   UNL A   1      47.436  27.541  24.473  1.00  0.00     0.131 A 
ATOM     69  C   UNL A   1      49.465  26.279  25.874  1.00  0.00     0.055 A 
ATOM     70  C   UNL A   1      48.550  27.056  23.785  1.00  0.00     0.041 A 
ATOM     71  F   UNL A   1      46.479  28.158  23.760  1.00  0.00    -0.206 F 
ATOM     72  C   UNL A   1      49.575  26.432  24.488  1.00  0.00     0.022 A 
BRANCH  69  73
ATOM     73  S   UNL A   1      50.862  25.526  26.752  1.00  0.00     0.124 S 
ATOM     74  O   UNL A   1      50.219  24.398  27.424  1.00  0.00    -0.237 OA
ATOM     75  O   UNL A   1      51.756  25.169  25.654  1.00  0.00    -0.237 OA
ATOM     76  O   UNL A   1      51.336  26.586  27.634  1.00  0.00    -0.744 OA
ENDBRANCH  69  73
ENDBRANCH  52  66
BRANCH  53  77
ATOM     77  C   UNL A   1      39.522  31.392  30.764  1.00  0.00     0.023 A 
ATOM     78  C   UNL A   1      39.473  31.489  32.167  1.00  0.00     0.031 A 
ATOM     79  C   UNL A   1      38.374  31.743  30.035  1.00  0.00     0.131 A 
ATOM     80  C   UNL A   1      38.273  31.840  32.799  1.00  0.00     0.055 A 
ATOM     81  C   UNL A   1      37.204  32.168  30.668  1.00  0.00     0.041 A 
ATOM     82  F   UNL A   1      38.370  31.655  28.697  1.00  0.00    -0.206 F 
ATOM     83  C   UNL A   1      37.143  32.196  32.057  1.00  0.00     0.022 A 
BRANCH  80  84
ATOM     84  S   UNL A   1      38.096  31.688  34.599  1.00  0.00     0.124 S 
ATOM     85  O   UNL A   1      38.195  30.245  34.793  1.00  0.00    -0.237 OA
ATOM     86  O   UNL A   1      39.234  32.469  35.078  1.00  0.00    -0.237 OA
ATOM     87  O   UNL A   1      36.787  32.274  34.868  1.00  0.00    -0.744 OA
ENDBRANCH  80  84
ENDBRANCH  53  77
BRANCH  65  88
ATOM     88  C   UNL A   1      45.979  33.657  29.134  1.00  0.00     0.023 A 
ATOM     89  C   UNL A   1      45.910  34.736  28.234  1.00  0.00     0.031 A 
ATOM     90  C   UNL A   1      46.880  33.741  30.210  1.00  0.00     0.131 A 
ATOM     91  C   UNL A   1      46.756  35.838  28.403  1.00  0.00     0.055 A 
ATOM     92  C   UNL A   1      47.690  34.861  30.400  1.00  0.00     0.041 A 
ATOM     93  F   UNL A   1      46.987  32.733  31.089  1.00  0.00    -0.206 F 
ATOM     94  C   UNL A   1      47.640  35.910  29.486  1.00  0.00     0.022 A 
BRANCH  91  95
ATOM     95  S   UNL A   1      46.805  37.179  27.182  1.00  0.00     0.124 S 
ATOM     96  O   UNL A   1      45.383  37.435  26.959  1.00  0.00    -0.237 OA
ATOM     97  O   UNL A   1      47.521  38.227  27.904  1.00  0.00    -0.237 OA
ATOM     98  O   UNL A   1      47.517  36.597  26.049  1.00  0.00    -0.744 OA
ENDBRANCH  91  95
ENDBRANCH  65  88
ENDBRANCH  39  40
ENDBRANCH  31  34
ENDBRANCH  29  30
ENDBRANCH  28  29
ENDBRANCH   1  28
TORSDOF 18
ENDMDL
MODEL 3
REMARK VINA RESULT:     -12.4      2.369      3.213
REMARK SMILES CC[N@@H+](C)Cc1cc2c(cc1Cl)C=C(C(=O)NCCCCNC(=O)c1ccc(-c3c4nc(c(-c5cc(S(=O)(=O)[O-])ccc5F)c5ccc([nH]5)c(-c5cc(S(=O)(=O)[O-])ccc5F)c5nc(c(-c6cc(S(=O)(=O)[O-])ccc6F)c6ccc3[nH]6)C=C5)C=C4)cc1)[C@@H](C(F)(F)F)O2
REMARK SMILES IDX 19 1 18 2 17 3 15 4 16 5 14 7 6 8 7 9 11 10 8 11 10 12 12 13
REMARK SMILES IDX 9 14 93 15 13 16 88 17 5 18 3 19 4 20 2 22 1 23 89 24 90 25
REMARK SMILES IDX 91 26 92 27 20 28 21 29 22 30 23 31 24 33 25 34 26 35 87 36
REMARK SMILES IDX 27 37 86 38 28 39 29 40 30 41 80 42 31 43 85 44 79 45 81 46
REMARK SMILES IDX 32 47 84 48 78 49 77 50 33 52 65 53 45 54 64 55 46 56 49 57
REMARK SMILES IDX 63 58 82 59 47 60 48 61 62 63 83 64 50 65 34 66 35 67 43 68
REMARK SMILES IDX 36 69 42 70 44 71 41 72 37 73 38 74 39 75 40 76 66 77 67 78
REMARK SMILES IDX 75 79 68 80 74 81 76 82 73 83 69 84 70 85 71 86 72 87 51 88
REMARK SMILES IDX 52 89 60 90 53 91 59 92 61 93 58 94 54 95 55 96 56 97 57 98
REMARK H PARENT 17 6 3 21 22 32 81 51 49 62
REMARK Flexibility Score: inf
ROOT
ATOM      1  C   UNL A   1      36.927  20.790  25.093  1.00  0.00     0.023 C 
ENDROOT
BRANCH   1   2
ATOM      2  C   UNL A   1      35.558  21.325  25.502  1.00  0.00     0.116 C 
BRANCH   2   3
ATOM      3  N   UNL A   1      34.487  20.643  24.801  1.00  0.00    -0.352 N 
ATOM      4  C   UNL A   1      33.279  20.977  24.293  1.00  0.00     0.251 C 
ATOM      5  O   UNL A   1      32.648  20.053  23.770  1.00  0.00    -0.270 OA
ATOM      6  H   UNL A   1      34.692  19.691  24.657  1.00  0.00     0.163 HD
BRANCH   4   7
ATOM      7  C   UNL A   1      32.684  22.344  24.322  1.00  0.00     0.067 C 
ATOM      8  C   UNL A   1      31.537  27.165  23.366  1.00  0.00     0.029 A 
ATOM      9  C   UNL A   1      30.872  26.103  24.011  1.00  0.00     0.058 A 
ATOM     10  C   UNL A   1      32.791  26.900  22.788  1.00  0.00     0.050 A 
ATOM     11  C   UNL A   1      31.439  24.832  24.058  1.00  0.00     0.128 A 
ATOM     12  C   UNL A   1      33.311  25.600  22.763  1.00  0.00     0.033 A 
ATOM     13  Cl  UNL A   1      33.813  28.138  22.151  1.00  0.00    -0.084 Cl
ATOM     14  C   UNL A   1      32.634  24.562  23.395  1.00  0.00     0.019 A 
ATOM     15  O   UNL A   1      30.785  23.871  24.778  1.00  0.00    -0.475 OA
ATOM     16  C   UNL A   1      33.149  23.200  23.392  1.00  0.00     0.025 C 
ATOM     17  C   UNL A   1      31.660  22.828  25.313  1.00  0.00     0.314 C 
BRANCH   8  18
ATOM     18  C   UNL A   1      30.869  28.528  23.371  1.00  0.00     0.300 C 
BRANCH  18  19
ATOM     19  N   UNL A   1      29.764  28.756  22.419  1.00  0.00    -0.334 N 
ATOM     20  C   UNL A   1      29.813  30.072  21.783  1.00  0.00     0.333 C 
ATOM     21  H   UNL A   1      29.936  28.049  21.703  1.00  0.00     0.348 HD
BRANCH  19  22
ATOM     22  C   UNL A   1      28.421  28.476  22.933  1.00  0.00     0.258 C 
ATOM     23  C   UNL A   1      27.548  29.723  23.054  1.00  0.00     0.071 C 
ENDBRANCH  19  22
ENDBRANCH  18  19
ENDBRANCH   8  18
BRANCH  17  24
ATOM     24  C   UNL A   1      32.306  23.295  26.636  1.00  0.00     0.429 C 
ATOM     25  F   UNL A   1      33.552  23.782  26.411  1.00  0.00    -0.167 F 
ATOM     26  F   UNL A   1      31.605  24.288  27.231  1.00  0.00    -0.167 F 
ATOM     27  F   UNL A   1      32.422  22.302  27.548  1.00  0.00    -0.167 F 
ENDBRANCH  17  24
ENDBRANCH   4   7
ENDBRANCH   2   3
ENDBRANCH   1   2
BRANCH   1  28
ATOM     28  C   UNL A   1      38.045  21.833  25.139  1.00  0.00     0.023 C 
BRANCH  28  29
ATOM     29  C   UNL A   1      39.101  21.606  26.216  1.00  0.00     0.116 C 
BRANCH  29  30
ATOM     30  N   UNL A   1      39.843  20.360  26.072  1.00  0.00    -0.352 N 
ATOM     31  C   UNL A   1      41.210  20.175  26.147  1.00  0.00     0.251 C 
ATOM     32  H   UNL A   1      39.305  19.553  25.900  1.00  0.00     0.163 HD
ATOM     33  O   UNL A   1      41.704  19.083  25.939  1.00  0.00    -0.269 OA
BRANCH  31  34
ATOM     34  C   UNL A   1      42.049  21.358  26.429  1.00  0.00     0.039 A 
ATOM     35  C   UNL A   1      42.420  21.648  27.742  1.00  0.00     0.014 A 
ATOM     36  C   UNL A   1      42.344  22.243  25.390  1.00  0.00     0.014 A 
ATOM     37  C   UNL A   1      42.917  22.907  28.043  1.00  0.00     0.010 A 
ATOM     38  C   UNL A   1      42.927  23.476  25.687  1.00  0.00     0.010 A 
ATOM     39  C   UNL A   1      43.160  23.843  27.022  1.00  0.00    -0.014 A 
BRANCH  39  40
ATOM     40  C   UNL A   1      43.650  25.197  27.386  1.00  0.00     0.031 A 
ATOM     41  C   UNL A   1      45.060  25.620  27.073  1.00  0.00     0.074 A 
ATOM     42  C   UNL A   1      42.786  26.071  27.936  1.00  0.00     0.049 A 
ATOM     43  N   UNL A   1      45.628  26.783  27.261  1.00  0.00    -0.248 NA
ATOM     44  C   UNL A   1      45.952  24.611  26.476  1.00  0.00     0.031 C 
ATOM     45  C   UNL A   1      41.397  25.763  28.274  1.00  0.00     0.029 A 
ATOM     46  N   UNL A   1      42.927  27.392  28.273  1.00  0.00    -0.354 N 
ATOM     47  C   UNL A   1      46.941  26.644  26.824  1.00  0.00     0.074 A 
ATOM     48  C   UNL A   1      47.097  25.273  26.393  1.00  0.00     0.031 C 
ATOM     49  C   UNL A   1      40.793  26.879  28.704  1.00  0.00     0.029 A 
ATOM     50  C   UNL A   1      41.769  27.965  28.745  1.00  0.00     0.049 A 
ATOM     51  H   UNL A   1      43.776  27.885  28.186  1.00  0.00     0.167 HD
ATOM     52  C   UNL A   1      47.919  27.581  26.776  1.00  0.00     0.034 A 
ATOM     53  C   UNL A   1      41.517  29.219  29.169  1.00  0.00     0.034 A 
ATOM     54  C   UNL A   1      47.739  28.949  27.189  1.00  0.00     0.049 A 
ATOM     55  C   UNL A   1      42.626  30.235  29.124  1.00  0.00     0.074 A 
ATOM     56  C   UNL A   1      48.660  29.982  27.152  1.00  0.00     0.029 A 
ATOM     57  N   UNL A   1      46.566  29.482  27.708  1.00  0.00    -0.354 N 
ATOM     58  N   UNL A   1      43.851  30.096  28.672  1.00  0.00    -0.248 NA
ATOM     59  C   UNL A   1      42.327  31.575  29.646  1.00  0.00     0.031 C 
ATOM     60  C   UNL A   1      48.063  31.120  27.696  1.00  0.00     0.029 A 
ATOM     61  C   UNL A   1      46.749  30.819  28.017  1.00  0.00     0.049 A 
ATOM     62  H   UNL A   1      45.728  28.981  27.837  1.00  0.00     0.167 HD
ATOM     63  C   UNL A   1      44.467  31.330  28.851  1.00  0.00     0.074 A 
ATOM     64  C   UNL A   1      43.469  32.213  29.418  1.00  0.00     0.031 C 
ATOM     65  C   UNL A   1      45.746  31.692  28.581  1.00  0.00     0.034 A 
BRANCH  52  66
ATOM     66  C   UNL A   1      49.276  27.185  26.248  1.00  0.00     0.023 A 
ATOM     67  C   UNL A   1      49.682  27.598  24.965  1.00  0.00     0.031 A 
ATOM     68  C   UNL A   1      50.109  26.302  26.957  1.00  0.00     0.131 A 
ATOM     69  C   UNL A   1      50.876  27.106  24.420  1.00  0.00     0.055 A 
ATOM     70  C   UNL A   1      51.315  25.841  26.423  1.00  0.00     0.041 A 
ATOM     71  F   UNL A   1      49.767  25.880  28.185  1.00  0.00    -0.206 F 
ATOM     72  C   UNL A   1      51.695  26.234  25.144  1.00  0.00     0.022 A 
BRANCH  69  73
ATOM     73  S   UNL A   1      51.382  27.527  22.730  1.00  0.00     0.124 S 
ATOM     74  O   UNL A   1      52.765  27.054  22.706  1.00  0.00    -0.237 OA
ATOM     75  O   UNL A   1      50.444  26.749  21.926  1.00  0.00    -0.237 OA
ATOM     76  O   UNL A   1      51.221  28.975  22.665  1.00  0.00    -0.744 OA
ENDBRANCH  69  73
ENDBRANCH  52  66
BRANCH  53  77
ATOM     77  C   UNL A   1      40.137  29.564  29.621  1.00  0.00     0.023 A 
ATOM     78  C   UNL A   1      39.833  29.669  30.992  1.00  0.00     0.031 A 
ATOM     79  C   UNL A   1      39.082  29.659  28.700  1.00  0.00     0.131 A 
ATOM     80  C   UNL A   1      38.499  29.774  31.403  1.00  0.00     0.055 A 
ATOM     81  C   UNL A   1      37.761  29.842  29.114  1.00  0.00     0.041 A 
ATOM     82  F   UNL A   1      39.321  29.552  27.385  1.00  0.00    -0.206 F 
ATOM     83  C   UNL A   1      37.462  29.877  30.472  1.00  0.00     0.022 A 
BRANCH  80  84
ATOM     84  S   UNL A   1      38.056  29.614  33.156  1.00  0.00     0.124 S 
ATOM     85  O   UNL A   1      39.365  29.604  33.801  1.00  0.00    -0.237 OA
ATOM     86  O   UNL A   1      37.255  30.817  33.372  1.00  0.00    -0.237 OA
ATOM     87  O   UNL A   1      37.313  28.359  33.211  1.00  0.00    -0.744 OA
ENDBRANCH  80  84
ENDBRANCH  53  77
BRANCH  65  88
ATOM     88  C   UNL A   1      46.174  33.103  28.906  1.00  0.00     0.023 A 
ATOM     89  C   UNL A   1      46.086  34.111  27.929  1.00  0.00     0.031 A 
ATOM     90  C   UNL A   1      46.799  33.409  30.127  1.00  0.00     0.131 A 
ATOM     91  C   UNL A   1      46.650  35.369  28.175  1.00  0.00     0.055 A 
ATOM     92  C   UNL A   1      47.321  34.677  30.384  1.00  0.00     0.041 A 
ATOM     93  F   UNL A   1      46.915  32.476  31.086  1.00  0.00    -0.206 F 
ATOM     94  C   UNL A   1      47.261  35.660  29.400  1.00  0.00     0.022 A 
BRANCH  91  95
ATOM     95  S   UNL A   1      46.692  36.646  26.887  1.00  0.00     0.124 S 
ATOM     96  O   UNL A   1      47.658  37.595  27.435  1.00  0.00    -0.237 OA
ATOM     97  O   UNL A   1      47.148  35.894  25.721  1.00  0.00    -0.237 OA
ATOM     98  O   UNL A   1      45.315  37.127  26.823  1.00  0.00    -0.744 OA
ENDBRANCH  91  95
ENDBRANCH  65  88
ENDBRANCH  39  40
ENDBRANCH  31  34
ENDBRANCH  29  30
ENDBRANCH  28  29
ENDBRANCH   1  28
TORSDOF 18
ENDMDL
