MODEL 1
REMARK VINA RESULT:     -11.0      0.000      0.000
REMARK SMILES C[NH2+][C@]1(C(=O)NCCCCNC(=O)c2ccc(-c3c4nc(c(-c5cc(S(=O)(=O)[O-])ccc5F)c5ccc([nH]5)c(-c5cc(S(=O)(=O)[O-])ccc5F)c5nc(c(-c6cc(S(=O)(=O)[O-])ccc6F)c6ccc3[nH]6)C=C5)C=C4)cc2)CCC[C@@H]1CCOC[C@@H]1CCCO1
REMARK SMILES IDX 7 1 6 2 4 3 5 4 3 6 77 7 80 8 78 9 79 10 2 11 1 12 81 15
REMARK SMILES IDX 82 16 83 17 84 18 85 19 86 20 89 21 87 22 88 23 8 24 9 25
REMARK SMILES IDX 10 26 11 27 12 28 13 30 14 31 15 32 76 33 16 34 75 35 17 36
REMARK SMILES IDX 18 37 19 38 69 39 20 40 74 41 68 42 70 43 21 44 73 45 67 46
REMARK SMILES IDX 66 47 22 49 54 50 34 51 53 52 35 53 38 54 52 55 71 56 36 57
REMARK SMILES IDX 37 58 51 60 72 61 39 62 23 63 24 64 32 65 25 66 31 67 33 68
REMARK SMILES IDX 30 69 26 70 27 71 28 72 29 73 55 74 56 75 64 76 57 77 63 78
REMARK SMILES IDX 65 79 62 80 58 81 59 82 60 83 61 84 40 85 41 86 49 87 42 88
REMARK SMILES IDX 48 89 50 90 47 91 43 92 44 93 45 94 46 95
REMARK H PARENT 6 5 2 13 2 14 11 29 70 48 38 59
REMARK Flexibility Score: inf
ROOT
ATOM      1  C   UNL A   1      33.513  29.387  26.031  1.00  0.00     0.116 C 
ENDROOT
BRANCH   1   2
ATOM      2  N   UNL A   1      33.678  29.147  24.613  1.00  0.00    -0.351 N 
ATOM      3  C   UNL A   1      33.636  28.034  23.831  1.00  0.00     0.281 C 
ATOM      4  O   UNL A   1      34.047  28.229  22.679  1.00  0.00    -0.268 OA
ATOM      5  H   UNL A   1      33.860  29.969  24.102  1.00  0.00     0.163 HD
BRANCH   3   6
ATOM      6  C   UNL A   1      33.016  26.651  24.274  1.00  0.00     0.178 C 
ATOM      7  C   UNL A   1      33.464  26.158  25.677  1.00  0.00     0.079 C 
ATOM      8  C   UNL A   1      31.474  26.765  24.484  1.00  0.00     0.063 C 
ATOM      9  C   UNL A   1      32.308  25.318  26.236  1.00  0.00     0.008 C 
ATOM     10  C   UNL A   1      31.144  25.483  25.262  1.00  0.00     0.011 C 
BRANCH   6  11
ATOM     11  N   UNL A   1      33.490  25.542  23.391  1.00  0.00    -0.336 N 
ATOM     12  C   UNL A   1      34.572  24.688  23.837  1.00  0.00     0.331 C 
ATOM     13  H   UNL A   1      32.687  24.939  23.215  1.00  0.00     0.346 HD
ATOM     14  H   UNL A   1      33.885  26.029  22.585  1.00  0.00     0.346 HD
ENDBRANCH   6  11
BRANCH   8  15
ATOM     15  C   UNL A   1      30.619  26.969  23.224  1.00  0.00     0.039 C 
BRANCH  15  16
ATOM     16  C   UNL A   1      30.113  28.391  22.963  1.00  0.00     0.161 C 
BRANCH  16  17
ATOM     17  O   UNL A   1      28.808  28.638  23.454  1.00  0.00    -0.379 OA
BRANCH  17  18
ATOM     18  C   UNL A   1      27.769  29.035  22.564  1.00  0.00     0.192 C 
BRANCH  18  19
ATOM     19  C   UNL A   1      27.508  30.543  22.397  1.00  0.00     0.144 C 
ATOM     20  C   UNL A   1      28.160  31.193  21.188  1.00  0.00     0.037 C 
ATOM     21  O   UNL A   1      27.911  31.295  23.554  1.00  0.00    -0.376 OA
ATOM     22  C   UNL A   1      28.389  32.610  21.644  1.00  0.00     0.031 C 
ATOM     23  C   UNL A   1      28.643  32.445  23.125  1.00  0.00     0.160 C 
ENDBRANCH  18  19
ENDBRANCH  17  18
ENDBRANCH  16  17
ENDBRANCH  15  16
ENDBRANCH   8  15
ENDBRANCH   3   6
ENDBRANCH   1   2
BRANCH   1  24
ATOM     24  C   UNL A   1      32.072  29.795  26.356  1.00  0.00     0.023 C 
BRANCH  24  25
ATOM     25  C   UNL A   1      31.852  31.301  26.526  1.00  0.00     0.023 C 
BRANCH  25  26
ATOM     26  C   UNL A   1      32.988  32.053  27.211  1.00  0.00     0.116 C 
BRANCH  26  27
ATOM     27  N   UNL A   1      32.662  33.441  27.494  1.00  0.00    -0.352 N 
ATOM     28  C   UNL A   1      33.218  34.284  28.426  1.00  0.00     0.251 C 
ATOM     29  H   UNL A   1      31.945  33.831  26.942  1.00  0.00     0.163 HD
ATOM     30  O   UNL A   1      32.728  35.395  28.609  1.00  0.00    -0.269 OA
BRANCH  28  31
ATOM     31  C   UNL A   1      34.373  33.829  29.230  1.00  0.00     0.039 A 
ATOM     32  C   UNL A   1      34.148  32.958  30.299  1.00  0.00     0.014 A 
ATOM     33  C   UNL A   1      35.673  34.237  28.918  1.00  0.00     0.014 A 
ATOM     34  C   UNL A   1      35.233  32.441  31.011  1.00  0.00     0.010 A 
ATOM     35  C   UNL A   1      36.755  33.668  29.583  1.00  0.00     0.010 A 
ATOM     36  C   UNL A   1      36.547  32.762  30.634  1.00  0.00    -0.014 A 
BRANCH  36  37
ATOM     37  C   UNL A   1      37.717  32.156  31.324  1.00  0.00     0.031 A 
ATOM     38  C   UNL A   1      38.478  31.033  30.673  1.00  0.00     0.074 A 
ATOM     39  C   UNL A   1      38.049  32.572  32.562  1.00  0.00     0.049 A 
ATOM     40  N   UNL A   1      39.470  30.323  31.145  1.00  0.00    -0.248 NA
ATOM     41  C   UNL A   1      38.041  30.636  29.327  1.00  0.00     0.031 C 
ATOM     42  C   UNL A   1      37.358  33.622  33.314  1.00  0.00     0.029 A 
ATOM     43  N   UNL A   1      39.041  32.155  33.414  1.00  0.00    -0.354 N 
ATOM     44  C   UNL A   1      39.767  29.386  30.161  1.00  0.00     0.074 A 
ATOM     45  C   UNL A   1      38.811  29.584  29.093  1.00  0.00     0.031 C 
ATOM     46  C   UNL A   1      37.958  33.779  34.505  1.00  0.00     0.029 A 
ATOM     47  C   UNL A   1      39.046  32.815  34.623  1.00  0.00     0.049 A 
ATOM     48  H   UNL A   1      39.689  31.450  33.183  1.00  0.00     0.167 HD
ATOM     49  C   UNL A   1      40.760  28.462  30.142  1.00  0.00     0.034 A 
ATOM     50  C   UNL A   1      39.830  32.650  35.707  1.00  0.00     0.034 A 
ATOM     51  C   UNL A   1      41.713  28.288  31.211  1.00  0.00     0.049 A 
ATOM     52  C   UNL A   1      40.918  31.608  35.669  1.00  0.00     0.074 A 
ATOM     53  C   UNL A   1      42.797  27.427  31.269  1.00  0.00     0.029 A 
ATOM     54  N   UNL A   1      41.694  28.980  32.416  1.00  0.00    -0.354 N 
ATOM     55  N   UNL A   1      41.223  30.767  34.707  1.00  0.00    -0.248 NA
ATOM     56  C   UNL A   1      41.774  31.501  36.857  1.00  0.00     0.031 C 
ATOM     57  C   UNL A   1      43.388  27.548  32.532  1.00  0.00     0.029 A 
ATOM     58  C   UNL A   1      42.726  28.543  33.235  1.00  0.00     0.049 A 
ATOM     59  H   UNL A   1      41.044  29.680  32.654  1.00  0.00     0.167 HD
ATOM     60  C   UNL A   1      42.327  30.053  35.164  1.00  0.00     0.074 A 
ATOM     61  C   UNL A   1      42.641  30.571  36.480  1.00  0.00     0.031 C 
ATOM     62  C   UNL A   1      43.021  29.060  34.550  1.00  0.00     0.034 A 
BRANCH  49  63
ATOM     63  C   UNL A   1      40.841  27.552  28.938  1.00  0.00     0.023 A 
ATOM     64  C   UNL A   1      41.804  27.742  27.931  1.00  0.00     0.031 A 
ATOM     65  C   UNL A   1      39.929  26.493  28.784  1.00  0.00     0.131 A 
ATOM     66  C   UNL A   1      41.784  26.938  26.782  1.00  0.00     0.055 A 
ATOM     67  C   UNL A   1      39.968  25.643  27.676  1.00  0.00     0.041 A 
ATOM     68  F   UNL A   1      38.975  26.272  29.701  1.00  0.00    -0.206 F 
ATOM     69  C   UNL A   1      40.889  25.873  26.658  1.00  0.00     0.022 A 
BRANCH  66  70
ATOM     70  S   UNL A   1      42.850  27.396  25.386  1.00  0.00     0.124 S 
ATOM     71  O   UNL A   1      42.877  26.154  24.617  1.00  0.00    -0.237 OA
ATOM     72  O   UNL A   1      42.120  28.505  24.783  1.00  0.00    -0.237 OA
ATOM     73  O   UNL A   1      44.116  27.752  26.024  1.00  0.00    -0.744 OA
ENDBRANCH  66  70
ENDBRANCH  49  63
BRANCH  50  74
ATOM     74  C   UNL A   1      39.611  33.480  36.928  1.00  0.00     0.023 A 
ATOM     75  C   UNL A   1      38.957  32.955  38.054  1.00  0.00     0.031 A 
ATOM     76  C   UNL A   1      40.022  34.823  36.972  1.00  0.00     0.131 A 
ATOM     77  C   UNL A   1      38.694  33.780  39.158  1.00  0.00     0.055 A 
ATOM     78  C   UNL A   1      39.806  35.626  38.093  1.00  0.00     0.041 A 
ATOM     79  F   UNL A   1      40.658  35.373  35.924  1.00  0.00    -0.206 F 
ATOM     80  C   UNL A   1      39.126  35.108  39.190  1.00  0.00     0.022 A 
BRANCH  77  81
ATOM     81  S   UNL A   1      37.706  33.113  40.526  1.00  0.00     0.124 S 
ATOM     82  O   UNL A   1      37.760  34.205  41.491  1.00  0.00    -0.237 OA
ATOM     83  O   UNL A   1      36.415  32.886  39.885  1.00  0.00    -0.237 OA
ATOM     84  O   UNL A   1      38.429  31.903  40.910  1.00  0.00    -0.744 OA
ENDBRANCH  77  81
ENDBRANCH  50  74
BRANCH  62  85
ATOM     85  C   UNL A   1      44.218  28.505  35.283  1.00  0.00     0.023 A 
ATOM     86  C   UNL A   1      44.098  27.460  36.218  1.00  0.00     0.031 A 
ATOM     87  C   UNL A   1      45.498  29.037  35.049  1.00  0.00     0.131 A 
ATOM     88  C   UNL A   1      45.228  27.020  36.922  1.00  0.00     0.055 A 
ATOM     89  C   UNL A   1      46.629  28.552  35.707  1.00  0.00     0.041 A 
ATOM     90  F   UNL A   1      45.671  30.037  34.169  1.00  0.00    -0.206 F 
ATOM     91  C   UNL A   1      46.495  27.547  36.659  1.00  0.00     0.022 A 
BRANCH  88  92
ATOM     92  S   UNL A   1      45.008  25.810  38.255  1.00  0.00     0.124 S 
ATOM     93  O   UNL A   1      46.378  25.622  38.723  1.00  0.00    -0.237 OA
ATOM     94  O   UNL A   1      44.112  26.510  39.169  1.00  0.00    -0.237 OA
ATOM     95  O   UNL A   1      44.422  24.655  37.576  1.00  0.00    -0.744 OA
ENDBRANCH  88  92
ENDBRANCH  62  85
ENDBRANCH  36  37
ENDBRANCH  28  31
ENDBRANCH  26  27
ENDBRANCH  25  26
ENDBRANCH  24  25
ENDBRANCH   1  24
TORSDOF 20
ENDMDL
MODEL 2
REMARK VINA RESULT:     -10.7      1.569      3.156
REMARK SMILES C[NH2+][C@]1(C(=O)NCCCCNC(=O)c2ccc(-c3c4nc(c(-c5cc(S(=O)(=O)[O-])ccc5F)c5ccc([nH]5)c(-c5cc(S(=O)(=O)[O-])ccc5F)c5nc(c(-c6cc(S(=O)(=O)[O-])ccc6F)c6ccc3[nH]6)C=C5)C=C4)cc2)CCC[C@@H]1CCOC[C@@H]1CCCO1
REMARK SMILES IDX 7 1 6 2 4 3 5 4 3 6 77 7 80 8 78 9 79 10 2 11 1 12 81 15
REMARK SMILES IDX 82 16 83 17 84 18 85 19 86 20 89 21 87 22 88 23 8 24 9 25
REMARK SMILES IDX 10 26 11 27 12 28 13 30 14 31 15 32 76 33 16 34 75 35 17 36
REMARK SMILES IDX 18 37 19 38 69 39 20 40 74 41 68 42 70 43 21 44 73 45 67 46
REMARK SMILES IDX 66 47 22 49 54 50 34 51 53 52 35 53 38 54 52 55 71 56 36 57
REMARK SMILES IDX 37 58 51 60 72 61 39 62 23 63 24 64 32 65 25 66 31 67 33 68
REMARK SMILES IDX 30 69 26 70 27 71 28 72 29 73 55 74 56 75 64 76 57 77 63 78
REMARK SMILES IDX 65 79 62 80 58 81 59 82 60 83 61 84 40 85 41 86 49 87 42 88
REMARK SMILES IDX 48 89 50 90 47 91 43 92 44 93 45 94 46 95
REMARK H PARENT 6 5 2 13 2 14 11 29 70 48 38 59
REMARK Flexibility Score: inf
ROOT
ATOM      1  C   UNL A   1      32.724  30.013  25.776  1.00  0.00     0.116 C 
ENDROOT
BRANCH   1   2
ATOM      2  N   UNL A   1      33.112  29.728  24.411  1.00  0.00    -0.351 N 
ATOM      3  C   UNL A   1      33.137  28.600  23.650  1.00  0.00     0.281 C 
ATOM      4  O   UNL A   1      33.749  28.743  22.582  1.00  0.00    -0.268 OA
ATOM      5  H   UNL A   1      33.427  30.525  23.926  1.00  0.00     0.163 HD
BRANCH   3   6
ATOM      6  C   UNL A   1      32.371  27.265  24.002  1.00  0.00     0.178 C 
ATOM      7  C   UNL A   1      31.123  27.451  24.906  1.00  0.00     0.079 C 
ATOM      8  C   UNL A   1      31.719  26.637  22.731  1.00  0.00     0.063 C 
ATOM      9  C   UNL A   1      30.148  26.323  24.545  1.00  0.00     0.008 C 
ATOM     10  C   UNL A   1      30.735  25.618  23.325  1.00  0.00     0.011 C 
BRANCH   6  11
ATOM     11  N   UNL A   1      33.223  26.360  24.832  1.00  0.00    -0.336 N 
ATOM     12  C   UNL A   1      33.278  26.551  26.267  1.00  0.00     0.331 C 
ATOM     13  H   UNL A   1      32.892  25.409  24.670  1.00  0.00     0.346 HD
ATOM     14  H   UNL A   1      34.173  26.575  24.525  1.00  0.00     0.346 HD
ENDBRANCH   6  11
BRANCH   8  15
ATOM     15  C   UNL A   1      32.676  26.045  21.685  1.00  0.00     0.039 C 
BRANCH  15  16
ATOM     16  C   UNL A   1      33.052  24.570  21.858  1.00  0.00     0.161 C 
BRANCH  16  17
ATOM     17  O   UNL A   1      34.138  24.353  22.740  1.00  0.00    -0.379 OA
BRANCH  17  18
ATOM     18  C   UNL A   1      34.569  23.027  23.038  1.00  0.00     0.192 C 
BRANCH  18  19
ATOM     19  C   UNL A   1      34.135  22.418  24.383  1.00  0.00     0.144 C 
ATOM     20  C   UNL A   1      32.809  22.918  24.933  1.00  0.00     0.037 C 
ATOM     21  O   UNL A   1      35.122  22.611  25.409  1.00  0.00    -0.376 OA
ATOM     22  C   UNL A   1      32.991  22.796  26.423  1.00  0.00     0.031 C 
ATOM     23  C   UNL A   1      34.470  23.057  26.601  1.00  0.00     0.160 C 
ENDBRANCH  18  19
ENDBRANCH  17  18
ENDBRANCH  16  17
ENDBRANCH  15  16
ENDBRANCH   8  15
ENDBRANCH   3   6
ENDBRANCH   1   2
BRANCH   1  24
ATOM     24  C   UNL A   1      31.397  30.777  25.823  1.00  0.00     0.023 C 
BRANCH  24  25
ATOM     25  C   UNL A   1      31.360  31.941  26.819  1.00  0.00     0.023 C 
BRANCH  25  26
ATOM     26  C   UNL A   1      32.695  32.635  27.061  1.00  0.00     0.116 C 
BRANCH  26  27
ATOM     27  N   UNL A   1      32.550  33.963  27.634  1.00  0.00    -0.352 N 
ATOM     28  C   UNL A   1      33.271  34.547  28.648  1.00  0.00     0.251 C 
ATOM     29  H   UNL A   1      31.839  34.520  27.242  1.00  0.00     0.163 HD
ATOM     30  O   UNL A   1      32.924  35.640  29.088  1.00  0.00    -0.269 OA
BRANCH  28  31
ATOM     31  C   UNL A   1      34.429  33.835  29.229  1.00  0.00     0.039 A 
ATOM     32  C   UNL A   1      35.718  34.247  28.881  1.00  0.00     0.014 A 
ATOM     33  C   UNL A   1      34.248  32.783  30.132  1.00  0.00     0.014 A 
ATOM     34  C   UNL A   1      36.824  33.651  29.491  1.00  0.00     0.010 A 
ATOM     35  C   UNL A   1      35.348  32.238  30.788  1.00  0.00     0.010 A 
ATOM     36  C   UNL A   1      36.647  32.668  30.478  1.00  0.00    -0.014 A 
BRANCH  36  37
ATOM     37  C   UNL A   1      37.807  32.083  31.200  1.00  0.00     0.031 A 
ATOM     38  C   UNL A   1      38.600  30.967  30.577  1.00  0.00     0.074 A 
ATOM     39  C   UNL A   1      38.103  32.512  32.444  1.00  0.00     0.049 A 
ATOM     40  N   UNL A   1      39.590  30.274  31.078  1.00  0.00    -0.248 NA
ATOM     41  C   UNL A   1      38.202  30.555  29.222  1.00  0.00     0.031 C 
ATOM     42  C   UNL A   1      37.378  33.557  33.170  1.00  0.00     0.029 A 
ATOM     43  N   UNL A   1      39.079  32.115  33.323  1.00  0.00    -0.354 N 
ATOM     44  C   UNL A   1      39.924  29.335  30.108  1.00  0.00     0.074 A 
ATOM     45  C   UNL A   1      38.992  29.512  29.015  1.00  0.00     0.031 C 
ATOM     46  C   UNL A   1      37.947  33.731  34.374  1.00  0.00     0.029 A 
ATOM     47  C   UNL A   1      39.045  32.783  34.526  1.00  0.00     0.049 A 
ATOM     48  H   UNL A   1      39.742  31.418  33.113  1.00  0.00     0.167 HD
ATOM     49  C   UNL A   1      40.930  28.424  30.120  1.00  0.00     0.034 A 
ATOM     50  C   UNL A   1      39.804  32.637  35.631  1.00  0.00     0.034 A 
ATOM     51  C   UNL A   1      41.859  28.271  31.214  1.00  0.00     0.049 A 
ATOM     52  C   UNL A   1      40.907  31.609  35.627  1.00  0.00     0.074 A 
ATOM     53  C   UNL A   1      42.953  27.427  31.304  1.00  0.00     0.029 A 
ATOM     54  N   UNL A   1      41.801  28.972  32.413  1.00  0.00    -0.354 N 
ATOM     55  N   UNL A   1      41.248  30.767  34.679  1.00  0.00    -0.248 NA
ATOM     56  C   UNL A   1      41.735  31.523  36.836  1.00  0.00     0.031 C 
ATOM     57  C   UNL A   1      43.510  27.565  32.580  1.00  0.00     0.029 A 
ATOM     58  C   UNL A   1      42.817  28.554  33.259  1.00  0.00     0.049 A 
ATOM     59  H   UNL A   1      41.134  29.663  32.630  1.00  0.00     0.167 HD
ATOM     60  C   UNL A   1      42.350  30.071  35.168  1.00  0.00     0.074 A 
ATOM     61  C   UNL A   1      42.623  30.603  36.488  1.00  0.00     0.031 C 
ATOM     62  C   UNL A   1      43.073  29.084  34.578  1.00  0.00     0.034 A 
BRANCH  49  63
ATOM     63  C   UNL A   1      41.054  27.508  28.925  1.00  0.00     0.023 A 
ATOM     64  C   UNL A   1      42.062  27.682  27.961  1.00  0.00     0.031 A 
ATOM     65  C   UNL A   1      40.137  26.459  28.735  1.00  0.00     0.131 A 
ATOM     66  C   UNL A   1      42.084  26.872  26.815  1.00  0.00     0.055 A 
ATOM     67  C   UNL A   1      40.215  25.603  27.634  1.00  0.00     0.041 A 
ATOM     68  F   UNL A   1      39.141  26.254  29.610  1.00  0.00    -0.206 F 
ATOM     69  C   UNL A   1      41.183  25.817  26.657  1.00  0.00     0.022 A 
BRANCH  66  70
ATOM     70  S   UNL A   1      43.215  27.311  25.466  1.00  0.00     0.124 S 
ATOM     71  O   UNL A   1      42.340  28.085  24.588  1.00  0.00    -0.237 OA
ATOM     72  O   UNL A   1      44.254  28.065  26.159  1.00  0.00    -0.237 OA
ATOM     73  O   UNL A   1      43.632  26.016  24.933  1.00  0.00    -0.744 OA
ENDBRANCH  66  70
ENDBRANCH  49  63
BRANCH  50  74
ATOM     74  C   UNL A   1      39.543  33.471  36.840  1.00  0.00     0.023 A 
ATOM     75  C   UNL A   1      38.872  32.944  37.955  1.00  0.00     0.031 A 
ATOM     76  C   UNL A   1      39.932  34.822  36.883  1.00  0.00     0.131 A 
ATOM     77  C   UNL A   1      38.570  33.772  39.046  1.00  0.00     0.055 A 
ATOM     78  C   UNL A   1      39.676  35.629  37.992  1.00  0.00     0.041 A 
ATOM     79  F   UNL A   1      40.582  35.375  35.845  1.00  0.00    -0.206 F 
ATOM     80  C   UNL A   1      38.979  35.108  39.078  1.00  0.00     0.022 A 
BRANCH  77  81
ATOM     81  S   UNL A   1      37.562  33.099  40.396  1.00  0.00     0.124 S 
ATOM     82  O   UNL A   1      37.484  34.237  41.304  1.00  0.00    -0.237 OA
ATOM     83  O   UNL A   1      36.327  32.745  39.703  1.00  0.00    -0.237 OA
ATOM     84  O   UNL A   1      38.350  31.967  40.877  1.00  0.00    -0.744 OA
ENDBRANCH  77  81
ENDBRANCH  50  74
BRANCH  62  85
ATOM     85  C   UNL A   1      44.258  28.551  35.344  1.00  0.00     0.023 A 
ATOM     86  C   UNL A   1      44.134  27.495  36.265  1.00  0.00     0.031 A 
ATOM     87  C   UNL A   1      45.532  29.117  35.157  1.00  0.00     0.131 A 
ATOM     88  C   UNL A   1      45.252  27.075  37.001  1.00  0.00     0.055 A 
ATOM     89  C   UNL A   1      46.653  28.653  35.847  1.00  0.00     0.041 A 
ATOM     90  F   UNL A   1      45.709  30.130  34.293  1.00  0.00    -0.206 F 
ATOM     91  C   UNL A   1      46.514  27.635  36.785  1.00  0.00     0.022 A 
BRANCH  88  92
ATOM     92  S   UNL A   1      45.019  25.846  38.314  1.00  0.00     0.124 S 
ATOM     93  O   UNL A   1      44.287  26.611  39.319  1.00  0.00    -0.237 OA
ATOM     94  O   UNL A   1      44.264  24.800  37.634  1.00  0.00    -0.237 OA
ATOM     95  O   UNL A   1      46.385  25.480  38.688  1.00  0.00    -0.744 OA
ENDBRANCH  88  92
ENDBRANCH  62  85
ENDBRANCH  36  37
ENDBRANCH  28  31
ENDBRANCH  26  27
ENDBRANCH  25  26
ENDBRANCH  24  25
ENDBRANCH   1  24
TORSDOF 20
ENDMDL
MODEL 3
REMARK VINA RESULT:     -10.5      2.093      2.685
REMARK SMILES C[NH2+][C@]1(C(=O)NCCCCNC(=O)c2ccc(-c3c4nc(c(-c5cc(S(=O)(=O)[O-])ccc5F)c5ccc([nH]5)c(-c5cc(S(=O)(=O)[O-])ccc5F)c5nc(c(-c6cc(S(=O)(=O)[O-])ccc6F)c6ccc3[nH]6)C=C5)C=C4)cc2)CCC[C@@H]1CCOC[C@@H]1CCCO1
REMARK SMILES IDX 7 1 6 2 4 3 5 4 3 6 77 7 80 8 78 9 79 10 2 11 1 12 81 15
REMARK SMILES IDX 82 16 83 17 84 18 85 19 86 20 89 21 87 22 88 23 8 24 9 25
REMARK SMILES IDX 10 26 11 27 12 28 13 30 14 31 15 32 76 33 16 34 75 35 17 36
REMARK SMILES IDX 18 37 19 38 69 39 20 40 74 41 68 42 70 43 21 44 73 45 67 46
REMARK SMILES IDX 66 47 22 49 54 50 34 51 53 52 35 53 38 54 52 55 71 56 36 57
REMARK SMILES IDX 37 58 51 60 72 61 39 62 23 63 24 64 32 65 25 66 31 67 33 68
REMARK SMILES IDX 30 69 26 70 27 71 28 72 29 73 55 74 56 75 64 76 57 77 63 78
REMARK SMILES IDX 65 79 62 80 58 81 59 82 60 83 61 84 40 85 41 86 49 87 42 88
REMARK SMILES IDX 48 89 50 90 47 91 43 92 44 93 45 94 46 95
REMARK H PARENT 6 5 2 13 2 14 11 29 70 48 38 59
REMARK Flexibility Score: inf
ROOT
ATOM      1  C   UNL A   1      32.666  28.412  22.724  1.00  0.00     0.116 C 
ENDROOT
BRANCH   1   2
ATOM      2  N   UNL A   1      32.802  27.314  21.790  1.00  0.00    -0.351 N 
ATOM      3  C   UNL A   1      32.998  25.974  21.927  1.00  0.00     0.281 C 
ATOM      4  O   UNL A   1      33.278  25.409  20.861  1.00  0.00    -0.268 OA
ATOM      5  H   UNL A   1      32.739  27.599  20.850  1.00  0.00     0.163 HD
BRANCH   3   6
ATOM      6  C   UNL A   1      32.778  25.169  23.267  1.00  0.00     0.178 C 
ATOM      7  C   UNL A   1      33.939  25.283  24.293  1.00  0.00     0.079 C 
ATOM      8  C   UNL A   1      31.598  25.765  24.096  1.00  0.00     0.063 C 
ATOM      9  C   UNL A   1      33.311  25.132  25.684  1.00  0.00     0.008 C 
ATOM     10  C   UNL A   1      31.798  25.125  25.477  1.00  0.00     0.011 C 
BRANCH   6  11
ATOM     11  N   UNL A   1      32.736  23.697  23.009  1.00  0.00    -0.336 N 
ATOM     12  C   UNL A   1      33.974  22.944  22.980  1.00  0.00     0.331 C 
ATOM     13  H   UNL A   1      32.153  23.285  23.737  1.00  0.00     0.346 HD
ATOM     14  H   UNL A   1      32.392  23.631  22.050  1.00  0.00     0.346 HD
ENDBRANCH   6  11
BRANCH   8  15
ATOM     15  C   UNL A   1      30.186  25.579  23.520  1.00  0.00     0.039 C 
BRANCH  15  16
ATOM     16  C   UNL A   1      29.154  26.654  23.875  1.00  0.00     0.161 C 
BRANCH  16  17
ATOM     17  O   UNL A   1      29.165  27.772  23.006  1.00  0.00    -0.379 OA
BRANCH  17  18
ATOM     18  C   UNL A   1      29.221  29.094  23.535  1.00  0.00     0.192 C 
BRANCH  18  19
ATOM     19  C   UNL A   1      29.374  30.257  22.539  1.00  0.00     0.144 C 
ATOM     20  C   UNL A   1      28.783  31.585  22.984  1.00  0.00     0.037 C 
ATOM     21  O   UNL A   1      28.809  29.949  21.254  1.00  0.00    -0.376 OA
ATOM     22  C   UNL A   1      28.401  32.241  21.683  1.00  0.00     0.031 C 
ATOM     23  C   UNL A   1      28.028  31.062  20.813  1.00  0.00     0.160 C 
ENDBRANCH  18  19
ENDBRANCH  17  18
ENDBRANCH  16  17
ENDBRANCH  15  16
ENDBRANCH   8  15
ENDBRANCH   3   6
ENDBRANCH   1   2
BRANCH   1  24
ATOM     24  C   UNL A   1      34.036  28.967  23.124  1.00  0.00     0.023 C 
BRANCH  24  25
ATOM     25  C   UNL A   1      34.331  28.935  24.627  1.00  0.00     0.023 C 
BRANCH  25  26
ATOM     26  C   UNL A   1      33.104  28.876  25.530  1.00  0.00     0.116 C 
BRANCH  26  27
ATOM     27  N   UNL A   1      32.500  30.179  25.753  1.00  0.00    -0.352 N 
ATOM     28  C   UNL A   1      32.808  31.120  26.707  1.00  0.00     0.251 C 
ATOM     29  H   UNL A   1      31.771  30.422  25.136  1.00  0.00     0.163 HD
ATOM     30  O   UNL A   1      32.103  32.119  26.824  1.00  0.00    -0.269 OA
BRANCH  28  31
ATOM     31  C   UNL A   1      33.957  30.899  27.611  1.00  0.00     0.039 A 
ATOM     32  C   UNL A   1      34.158  29.623  28.144  1.00  0.00     0.014 A 
ATOM     33  C   UNL A   1      34.845  31.935  27.912  1.00  0.00     0.014 A 
ATOM     34  C   UNL A   1      35.290  29.369  28.923  1.00  0.00     0.010 A 
ATOM     35  C   UNL A   1      36.007  31.663  28.631  1.00  0.00     0.010 A 
ATOM     36  C   UNL A   1      36.243  30.377  29.140  1.00  0.00    -0.014 A 
BRANCH  36  37
ATOM     37  C   UNL A   1      37.496  30.104  29.894  1.00  0.00     0.031 A 
ATOM     38  C   UNL A   1      38.558  29.223  29.297  1.00  0.00     0.074 A 
ATOM     39  C   UNL A   1      37.643  30.595  31.141  1.00  0.00     0.049 A 
ATOM     40  N   UNL A   1      39.679  28.803  29.826  1.00  0.00    -0.248 NA
ATOM     41  C   UNL A   1      38.311  28.723  27.937  1.00  0.00     0.031 C 
ATOM     42  C   UNL A   1      36.661  31.425  31.843  1.00  0.00     0.029 A 
ATOM     43  N   UNL A   1      38.666  30.458  32.045  1.00  0.00    -0.354 N 
ATOM     44  C   UNL A   1      40.263  27.978  28.871  1.00  0.00     0.074 A 
ATOM     45  C   UNL A   1      39.342  27.912  27.755  1.00  0.00     0.031 C 
ATOM     46  C   UNL A   1      37.138  31.738  33.059  1.00  0.00     0.029 A 
ATOM     47  C   UNL A   1      38.436  31.097  33.243  1.00  0.00     0.049 A 
ATOM     48  H   UNL A   1      39.488  29.951  31.856  1.00  0.00     0.167 HD
ATOM     49  C   UNL A   1      41.465  27.350  28.912  1.00  0.00     0.034 A 
ATOM     50  C   UNL A   1      39.180  31.148  34.366  1.00  0.00     0.034 A 
ATOM     51  C   UNL A   1      42.376  27.437  30.029  1.00  0.00     0.049 A 
ATOM     52  C   UNL A   1      40.506  30.432  34.394  1.00  0.00     0.074 A 
ATOM     53  C   UNL A   1      43.644  26.896  30.151  1.00  0.00     0.029 A 
ATOM     54  N   UNL A   1      42.113  28.102  31.221  1.00  0.00    -0.354 N 
ATOM     55  N   UNL A   1      41.071  29.702  33.461  1.00  0.00    -0.248 NA
ATOM     56  C   UNL A   1      41.300  30.558  35.624  1.00  0.00     0.031 C 
ATOM     57  C   UNL A   1      44.118  27.171  31.438  1.00  0.00     0.029 A 
ATOM     58  C   UNL A   1      43.182  27.955  32.094  1.00  0.00     0.049 A 
ATOM     59  H   UNL A   1      41.289  28.603  31.418  1.00  0.00     0.167 HD
ATOM     60  C   UNL A   1      42.301  29.307  33.980  1.00  0.00     0.074 A 
ATOM     61  C   UNL A   1      42.399  29.892  35.302  1.00  0.00     0.031 C 
ATOM     62  C   UNL A   1      43.263  28.534  33.415  1.00  0.00     0.034 A 
BRANCH  49  63
ATOM     63  C   UNL A   1      41.845  26.493  27.727  1.00  0.00     0.023 A 
ATOM     64  C   UNL A   1      41.687  25.097  27.743  1.00  0.00     0.031 A 
ATOM     65  C   UNL A   1      42.394  27.080  26.573  1.00  0.00     0.131 A 
ATOM     66  C   UNL A   1      42.143  24.327  26.662  1.00  0.00     0.055 A 
ATOM     67  C   UNL A   1      42.769  26.314  25.466  1.00  0.00     0.041 A 
ATOM     68  F   UNL A   1      42.588  28.406  26.505  1.00  0.00    -0.206 F 
ATOM     69  C   UNL A   1      42.660  24.928  25.513  1.00  0.00     0.022 A 
BRANCH  66  70
ATOM     70  S   UNL A   1      42.185  22.522  26.841  1.00  0.00     0.124 S 
ATOM     71  O   UNL A   1      41.567  22.088  25.590  1.00  0.00    -0.237 OA
ATOM     72  O   UNL A   1      43.612  22.252  26.976  1.00  0.00    -0.237 OA
ATOM     73  O   UNL A   1      41.385  22.278  28.040  1.00  0.00    -0.744 OA
ENDBRANCH  66  70
ENDBRANCH  49  63
BRANCH  50  74
ATOM     74  C   UNL A   1      38.688  31.891  35.563  1.00  0.00     0.023 A 
ATOM     75  C   UNL A   1      38.154  31.212  36.669  1.00  0.00     0.031 A 
ATOM     76  C   UNL A   1      38.713  33.296  35.601  1.00  0.00     0.131 A 
ATOM     77  C   UNL A   1      37.626  31.939  37.747  1.00  0.00     0.055 A 
ATOM     78  C   UNL A   1      38.235  34.014  36.698  1.00  0.00     0.041 A 
ATOM     79  F   UNL A   1      39.220  33.995  34.571  1.00  0.00    -0.206 F 
ATOM     80  C   UNL A   1      37.675  33.334  37.775  1.00  0.00     0.022 A 
BRANCH  77  81
ATOM     81  S   UNL A   1      36.798  31.033  39.084  1.00  0.00     0.124 S 
ATOM     82  O   UNL A   1      35.570  31.801  39.248  1.00  0.00    -0.237 OA
ATOM     83  O   UNL A   1      36.650  29.703  38.501  1.00  0.00    -0.237 OA
ATOM     84  O   UNL A   1      37.745  31.122  40.193  1.00  0.00    -0.744 OA
ENDBRANCH  77  81
ENDBRANCH  50  74
BRANCH  62  85
ATOM     85  C   UNL A   1      44.526  28.318  34.212  1.00  0.00     0.023 A 
ATOM     86  C   UNL A   1      44.672  27.230  35.093  1.00  0.00     0.031 A 
ATOM     87  C   UNL A   1      45.598  29.221  34.095  1.00  0.00     0.131 A 
ATOM     88  C   UNL A   1      45.838  27.106  35.861  1.00  0.00     0.055 A 
ATOM     89  C   UNL A   1      46.781  29.056  34.815  1.00  0.00     0.041 A 
ATOM     90  F   UNL A   1      45.513  30.278  33.271  1.00  0.00    -0.206 F 
ATOM     91  C   UNL A   1      46.901  28.001  35.714  1.00  0.00     0.022 A 
BRANCH  88  92
ATOM     92  S   UNL A   1      45.916  25.807  37.124  1.00  0.00     0.124 S 
ATOM     93  O   UNL A   1      47.353  25.573  37.231  1.00  0.00    -0.237 OA
ATOM     94  O   UNL A   1      45.287  26.450  38.273  1.00  0.00    -0.237 OA
ATOM     95  O   UNL A   1      45.151  24.708  36.535  1.00  0.00    -0.744 OA
ENDBRANCH  88  92
ENDBRANCH  62  85
ENDBRANCH  36  37
ENDBRANCH  28  31
ENDBRANCH  26  27
ENDBRANCH  25  26
ENDBRANCH  24  25
ENDBRANCH   1  24
TORSDOF 20
ENDMDL
