MODEL 1
REMARK VINA RESULT:     -11.4      0.000      0.000
REMARK SMILES CCc1ccsc1CNS(=O)(=O)N1CCC(C(=O)NCCCCNC(=O)c2ccc(-c3c4nc(c(-c5cc(S(=O)(=O)[O-])ccc5F)c5ccc([nH]5)c(-c5cc(S(=O)(=O)[O-])ccc5F)c5nc(c(-c6cc(S(=O)(=O)[O-])ccc6F)c6ccc3[nH]6)C=C5)C=C4)cc2)CC1
REMARK SMILES IDX 20 1 19 2 17 3 18 4 16 6 13 7 14 8 91 9 15 10 90 11 10 12
REMARK SMILES IDX 11 13 12 14 9 15 8 17 7 18 3 19 4 20 5 21 6 22 2 23 1 24
REMARK SMILES IDX 21 25 22 26 23 27 24 28 25 29 26 31 27 32 28 33 89 34 29 35
REMARK SMILES IDX 88 36 30 37 31 38 32 39 82 40 33 41 87 42 81 43 83 44 34 45
REMARK SMILES IDX 86 46 80 47 79 48 35 50 67 51 47 52 66 53 48 54 51 55 65 56
REMARK SMILES IDX 84 57 49 58 50 59 64 61 85 62 52 63 36 64 37 65 45 66 38 67
REMARK SMILES IDX 44 68 46 69 43 70 39 71 40 72 41 73 42 74 68 75 69 76 77 77
REMARK SMILES IDX 70 78 76 79 78 80 75 81 71 82 72 83 73 84 74 85 53 86 54 87
REMARK SMILES IDX 62 88 55 89 61 90 63 91 60 92 56 93 57 94 58 95 59 96
REMARK H PARENT 19 5 9 16 24 30 83 49 51 60
REMARK Flexibility Score: inf
ROOT
ATOM      1  C   UNL A   1      30.596  30.534  24.696  1.00  0.00     0.116 C 
ENDROOT
BRANCH   1   2
ATOM      2  N   UNL A   1      31.363  29.680  23.801  1.00  0.00    -0.356 N 
ATOM      3  C   UNL A   1      31.736  28.375  23.920  1.00  0.00     0.223 C 
ATOM      4  O   UNL A   1      32.426  27.879  23.028  1.00  0.00    -0.275 OA
ATOM      5  H   UNL A   1      31.662  30.118  22.973  1.00  0.00     0.163 HD
BRANCH   3   6
ATOM      6  C   UNL A   1      31.276  27.529  25.094  1.00  0.00     0.081 C 
ATOM      7  N   UNL A   1      31.050  24.835  26.131  1.00  0.00    -0.189 NA
ATOM      8  C   UNL A   1      29.826  25.604  25.841  1.00  0.00     0.104 C 
ATOM      9  C   UNL A   1      32.180  25.657  26.599  1.00  0.00     0.104 C 
ATOM     10  C   UNL A   1      30.121  26.597  24.725  1.00  0.00     0.030 C 
ATOM     11  C   UNL A   1      32.486  26.854  25.732  1.00  0.00     0.030 C 
BRANCH   7  12
ATOM     12  S   UNL A   1      30.843  23.330  26.871  1.00  0.00     0.279 S 
ATOM     13  O   UNL A   1      29.547  23.312  27.502  1.00  0.00    -0.195 OA
ATOM     14  O   UNL A   1      32.043  22.977  27.594  1.00  0.00    -0.195 OA
BRANCH  12  15
ATOM     15  N   UNL A   1      30.775  22.284  25.552  1.00  0.00    -0.197 NA
ATOM     16  H   UNL A   1      30.879  21.328  25.892  1.00  0.00     0.142 HD
BRANCH  15  17
ATOM     17  C   UNL A   1      31.821  22.536  24.543  1.00  0.00     0.146 C 
BRANCH  17  18
ATOM     18  C   UNL A   1      32.920  21.510  24.557  1.00  0.00     0.023 A 
ATOM     19  C   UNL A   1      34.242  21.744  24.930  1.00  0.00    -0.033 A 
ATOM     20  C   UNL A   1      34.984  20.517  24.969  1.00  0.00     0.015 A 
ATOM     21  C   UNL A   1      34.223  19.422  24.632  1.00  0.00     0.065 A 
ATOM     22  S   UNL A   1      32.613  19.851  24.268  1.00  0.00    -0.147 S 
BRANCH  19  23
ATOM     23  C   UNL A   1      34.760  23.111  25.311  1.00  0.00     0.033 C 
ATOM     24  C   UNL A   1      35.826  23.692  24.403  1.00  0.00     0.009 C 
ENDBRANCH  19  23
ENDBRANCH  17  18
ENDBRANCH  15  17
ENDBRANCH  12  15
ENDBRANCH   7  12
ENDBRANCH   3   6
ENDBRANCH   1   2
BRANCH   1  25
ATOM     25  C   UNL A   1      31.356  30.815  25.986  1.00  0.00     0.023 C 
BRANCH  25  26
ATOM     26  C   UNL A   1      31.324  32.280  26.415  1.00  0.00     0.023 C 
BRANCH  26  27
ATOM     27  C   UNL A   1      32.626  32.796  27.018  1.00  0.00     0.116 C 
BRANCH  27  28
ATOM     28  N   UNL A   1      32.471  34.087  27.671  1.00  0.00    -0.352 N 
ATOM     29  C   UNL A   1      33.170  34.600  28.738  1.00  0.00     0.251 C 
ATOM     30  H   UNL A   1      31.772  34.673  27.299  1.00  0.00     0.163 HD
ATOM     31  O   UNL A   1      32.801  35.640  29.274  1.00  0.00    -0.269 OA
BRANCH  29  32
ATOM     32  C   UNL A   1      34.343  33.862  29.252  1.00  0.00     0.039 A 
ATOM     33  C   UNL A   1      35.621  34.362  29.001  1.00  0.00     0.014 A 
ATOM     34  C   UNL A   1      34.172  32.710  30.027  1.00  0.00     0.014 A 
ATOM     35  C   UNL A   1      36.726  33.749  29.594  1.00  0.00     0.010 A 
ATOM     36  C   UNL A   1      35.264  32.156  30.685  1.00  0.00     0.010 A 
ATOM     37  C   UNL A   1      36.553  32.670  30.478  1.00  0.00    -0.014 A 
BRANCH  37  38
ATOM     38  C   UNL A   1      37.707  32.073  31.199  1.00  0.00     0.031 A 
ATOM     39  C   UNL A   1      38.478  30.939  30.582  1.00  0.00     0.074 A 
ATOM     40  C   UNL A   1      38.023  32.515  32.434  1.00  0.00     0.049 A 
ATOM     41  N   UNL A   1      39.469  30.244  31.079  1.00  0.00    -0.248 NA
ATOM     42  C   UNL A   1      38.059  30.510  29.239  1.00  0.00     0.031 C 
ATOM     43  C   UNL A   1      37.325  33.583  33.154  1.00  0.00     0.029 A 
ATOM     44  N   UNL A   1      39.007  32.121  33.306  1.00  0.00    -0.354 N 
ATOM     45  C   UNL A   1      39.786  29.292  30.116  1.00  0.00     0.074 A 
ATOM     46  C   UNL A   1      38.836  29.457  29.037  1.00  0.00     0.031 C 
ATOM     47  C   UNL A   1      37.922  33.780  34.340  1.00  0.00     0.029 A 
ATOM     48  C   UNL A   1      39.008  32.817  34.493  1.00  0.00     0.049 A 
ATOM     49  H   UNL A   1      39.653  31.406  33.102  1.00  0.00     0.167 HD
ATOM     50  C   UNL A   1      40.793  28.384  30.120  1.00  0.00     0.034 A 
ATOM     51  C   UNL A   1      39.785  32.687  35.587  1.00  0.00     0.034 A 
ATOM     52  C   UNL A   1      41.733  28.237  31.204  1.00  0.00     0.049 A 
ATOM     53  C   UNL A   1      40.868  31.637  35.587  1.00  0.00     0.074 A 
ATOM     54  C   UNL A   1      42.821  27.385  31.291  1.00  0.00     0.029 A 
ATOM     55  N   UNL A   1      41.694  28.949  32.397  1.00  0.00    -0.354 N 
ATOM     56  N   UNL A   1      41.190  30.781  34.645  1.00  0.00    -0.248 NA
ATOM     57  C   UNL A   1      41.699  31.543  36.794  1.00  0.00     0.031 C 
ATOM     58  C   UNL A   1      43.386  27.522  32.563  1.00  0.00     0.029 A 
ATOM     59  C   UNL A   1      42.712  28.526  33.239  1.00  0.00     0.049 A 
ATOM     60  H   UNL A   1      41.038  29.651  32.613  1.00  0.00     0.167 HD
ATOM     61  C   UNL A   1      42.283  30.070  35.135  1.00  0.00     0.074 A 
ATOM     62  C   UNL A   1      42.574  30.610  36.447  1.00  0.00     0.031 C 
ATOM     63  C   UNL A   1      42.985  29.064  34.552  1.00  0.00     0.034 A 
BRANCH  50  64
ATOM     64  C   UNL A   1      40.906  27.463  28.927  1.00  0.00     0.023 A 
ATOM     65  C   UNL A   1      41.874  27.663  27.928  1.00  0.00     0.031 A 
ATOM     66  C   UNL A   1      40.020  26.381  28.776  1.00  0.00     0.131 A 
ATOM     67  C   UNL A   1      41.884  26.845  26.787  1.00  0.00     0.055 A 
ATOM     68  C   UNL A   1      40.092  25.517  27.681  1.00  0.00     0.041 A 
ATOM     69  F   UNL A   1      39.058  26.152  29.683  1.00  0.00    -0.206 F 
ATOM     70  C   UNL A   1      41.019  25.756  26.671  1.00  0.00     0.022 A 
BRANCH  67  71
ATOM     71  S   UNL A   1      42.940  27.321  25.392  1.00  0.00     0.124 S 
ATOM     72  O   UNL A   1      43.009  26.073  24.635  1.00  0.00    -0.237 OA
ATOM     73  O   UNL A   1      42.181  28.401  24.774  1.00  0.00    -0.237 OA
ATOM     74  O   UNL A   1      44.191  27.723  26.030  1.00  0.00    -0.744 OA
ENDBRANCH  67  71
ENDBRANCH  50  64
BRANCH  51  75
ATOM     75  C   UNL A   1      39.563  33.553  36.783  1.00  0.00     0.023 A 
ATOM     76  C   UNL A   1      40.391  34.658  37.041  1.00  0.00     0.031 A 
ATOM     77  C   UNL A   1      38.551  33.260  37.713  1.00  0.00     0.131 A 
ATOM     78  C   UNL A   1      40.228  35.396  38.224  1.00  0.00     0.055 A 
ATOM     79  C   UNL A   1      38.351  34.035  38.857  1.00  0.00     0.041 A 
ATOM     80  F   UNL A   1      37.730  32.216  37.518  1.00  0.00    -0.206 F 
ATOM     81  C   UNL A   1      39.203  35.101  39.126  1.00  0.00     0.022 A 
BRANCH  78  82
ATOM     82  S   UNL A   1      41.440  36.686  38.617  1.00  0.00     0.124 S 
ATOM     83  O   UNL A   1      40.583  37.755  39.115  1.00  0.00    -0.237 OA
ATOM     84  O   UNL A   1      42.281  36.021  39.607  1.00  0.00    -0.237 OA
ATOM     85  O   UNL A   1      42.084  36.949  37.332  1.00  0.00    -0.744 OA
ENDBRANCH  78  82
ENDBRANCH  51  75
BRANCH  63  86
ATOM     86  C   UNL A   1      44.167  28.516  35.316  1.00  0.00     0.023 A 
ATOM     87  C   UNL A   1      44.030  27.473  36.250  1.00  0.00     0.031 A 
ATOM     88  C   UNL A   1      45.451  29.053  35.111  1.00  0.00     0.131 A 
ATOM     89  C   UNL A   1      45.145  27.043  36.984  1.00  0.00     0.055 A 
ATOM     90  C   UNL A   1      46.568  28.573  35.794  1.00  0.00     0.041 A 
ATOM     91  F   UNL A   1      45.641  30.054  34.236  1.00  0.00    -0.206 F 
ATOM     92  C   UNL A   1      46.417  27.571  36.748  1.00  0.00     0.022 A 
BRANCH  89  93
ATOM     93  S   UNL A   1      44.894  25.852  38.329  1.00  0.00     0.124 S 
ATOM     94  O   UNL A   1      43.912  24.943  37.748  1.00  0.00    -0.237 OA
ATOM     95  O   UNL A   1      46.233  25.307  38.520  1.00  0.00    -0.237 OA
ATOM     96  O   UNL A   1      44.398  26.677  39.430  1.00  0.00    -0.744 OA
ENDBRANCH  89  93
ENDBRANCH  63  86
ENDBRANCH  37  38
ENDBRANCH  29  32
ENDBRANCH  27  28
ENDBRANCH  26  27
ENDBRANCH  25  26
ENDBRANCH   1  25
TORSDOF 19
ENDMDL
MODEL 2
REMARK VINA RESULT:     -11.3      2.069      7.835
REMARK SMILES CCc1ccsc1CNS(=O)(=O)N1CCC(C(=O)NCCCCNC(=O)c2ccc(-c3c4nc(c(-c5cc(S(=O)(=O)[O-])ccc5F)c5ccc([nH]5)c(-c5cc(S(=O)(=O)[O-])ccc5F)c5nc(c(-c6cc(S(=O)(=O)[O-])ccc6F)c6ccc3[nH]6)C=C5)C=C4)cc2)CC1
REMARK SMILES IDX 20 1 19 2 17 3 18 4 16 6 13 7 14 8 91 9 15 10 90 11 10 12
REMARK SMILES IDX 11 13 12 14 9 15 8 17 7 18 3 19 4 20 5 21 6 22 2 23 1 24
REMARK SMILES IDX 21 25 22 26 23 27 24 28 25 29 26 31 27 32 28 33 89 34 29 35
REMARK SMILES IDX 88 36 30 37 31 38 32 39 82 40 33 41 87 42 81 43 83 44 34 45
REMARK SMILES IDX 86 46 80 47 79 48 35 50 67 51 47 52 66 53 48 54 51 55 65 56
REMARK SMILES IDX 84 57 49 58 50 59 64 61 85 62 52 63 36 64 37 65 45 66 38 67
REMARK SMILES IDX 44 68 46 69 43 70 39 71 40 72 41 73 42 74 68 75 69 76 77 77
REMARK SMILES IDX 70 78 76 79 78 80 75 81 71 82 72 83 73 84 74 85 53 86 54 87
REMARK SMILES IDX 62 88 55 89 61 90 63 91 60 92 56 93 57 94 58 95 59 96
REMARK H PARENT 19 5 9 16 24 30 83 49 51 60
REMARK Flexibility Score: inf
ROOT
ATOM      1  C   UNL A   1      32.658  28.985  22.590  1.00  0.00     0.116 C 
ENDROOT
BRANCH   1   2
ATOM      2  N   UNL A   1      33.298  27.774  22.099  1.00  0.00    -0.356 N 
ATOM      3  C   UNL A   1      33.350  26.519  22.626  1.00  0.00     0.223 C 
ATOM      4  O   UNL A   1      33.998  25.658  22.027  1.00  0.00    -0.275 OA
ATOM      5  H   UNL A   1      33.774  27.880  21.243  1.00  0.00     0.163 HD
BRANCH   3   6
ATOM      6  C   UNL A   1      32.591  26.165  23.892  1.00  0.00     0.081 C 
ATOM      7  N   UNL A   1      31.917  24.037  25.737  1.00  0.00    -0.189 NA
ATOM      8  C   UNL A   1      30.851  24.666  24.935  1.00  0.00     0.104 C 
ATOM      9  C   UNL A   1      33.003  24.957  26.119  1.00  0.00     0.104 C 
ATOM     10  C   UNL A   1      31.451  25.180  23.634  1.00  0.00     0.030 C 
ATOM     11  C   UNL A   1      33.584  25.752  24.974  1.00  0.00     0.030 C 
BRANCH   7  12
ATOM     12  S   UNL A   1      31.430  22.908  26.896  1.00  0.00     0.279 S 
ATOM     13  O   UNL A   1      30.065  23.197  27.261  1.00  0.00    -0.195 OA
ATOM     14  O   UNL A   1      32.465  22.759  27.892  1.00  0.00    -0.195 OA
BRANCH  12  15
ATOM     15  N   UNL A   1      31.422  21.470  26.019  1.00  0.00    -0.197 NA
ATOM     16  H   UNL A   1      30.716  20.852  26.419  1.00  0.00     0.142 HD
BRANCH  15  17
ATOM     17  C   UNL A   1      32.717  20.764  26.029  1.00  0.00     0.146 C 
BRANCH  17  18
ATOM     18  C   UNL A   1      33.763  21.427  25.175  1.00  0.00     0.023 A 
ATOM     19  C   UNL A   1      33.581  21.859  23.863  1.00  0.00    -0.033 A 
ATOM     20  C   UNL A   1      34.733  22.578  23.401  1.00  0.00     0.015 A 
ATOM     21  C   UNL A   1      35.724  22.666  24.351  1.00  0.00     0.065 A 
ATOM     22  S   UNL A   1      35.286  21.889  25.804  1.00  0.00    -0.147 S 
BRANCH  19  23
ATOM     23  C   UNL A   1      32.297  21.646  23.096  1.00  0.00     0.033 C 
ATOM     24  C   UNL A   1      32.155  20.306  22.402  1.00  0.00     0.009 C 
ENDBRANCH  19  23
ENDBRANCH  17  18
ENDBRANCH  15  17
ENDBRANCH  12  15
ENDBRANCH   7  12
ENDBRANCH   3   6
ENDBRANCH   1   2
BRANCH   1  25
ATOM     25  C   UNL A   1      33.106  29.318  24.007  1.00  0.00     0.023 C 
BRANCH  25  26
ATOM     26  C   UNL A   1      31.955  29.597  24.970  1.00  0.00     0.023 C 
BRANCH  26  27
ATOM     27  C   UNL A   1      32.384  29.977  26.383  1.00  0.00     0.116 C 
BRANCH  27  28
ATOM     28  N   UNL A   1      32.286  31.407  26.635  1.00  0.00    -0.352 N 
ATOM     29  C   UNL A   1      33.122  32.208  27.376  1.00  0.00     0.251 C 
ATOM     30  H   UNL A   1      31.518  31.862  26.220  1.00  0.00     0.163 HD
ATOM     31  O   UNL A   1      32.804  33.366  27.626  1.00  0.00    -0.269 OA
BRANCH  29  32
ATOM     32  C   UNL A   1      34.385  31.644  27.896  1.00  0.00     0.039 A 
ATOM     33  C   UNL A   1      35.501  32.474  28.012  1.00  0.00     0.014 A 
ATOM     34  C   UNL A   1      34.445  30.312  28.320  1.00  0.00     0.014 A 
ATOM     35  C   UNL A   1      36.656  31.987  28.626  1.00  0.00     0.010 A 
ATOM     36  C   UNL A   1      35.565  29.859  29.008  1.00  0.00     0.010 A 
ATOM     37  C   UNL A   1      36.683  30.692  29.171  1.00  0.00    -0.014 A 
BRANCH  37  38
ATOM     38  C   UNL A   1      37.866  30.196  29.920  1.00  0.00     0.031 A 
ATOM     39  C   UNL A   1      38.125  30.673  31.323  1.00  0.00     0.074 A 
ATOM     40  C   UNL A   1      38.737  29.362  29.316  1.00  0.00     0.049 A 
ATOM     41  N   UNL A   1      39.134  30.408  32.114  1.00  0.00    -0.248 NA
ATOM     42  C   UNL A   1      37.134  31.591  31.902  1.00  0.00     0.031 C 
ATOM     43  C   UNL A   1      38.615  28.862  27.944  1.00  0.00     0.029 A 
ATOM     44  N   UNL A   1      39.900  28.791  29.770  1.00  0.00    -0.354 N 
ATOM     45  C   UNL A   1      38.903  31.133  33.279  1.00  0.00     0.074 A 
ATOM     46  C   UNL A   1      37.694  31.899  33.061  1.00  0.00     0.031 C 
ATOM     47  C   UNL A   1      39.639  28.036  27.683  1.00  0.00     0.029 A 
ATOM     48  C   UNL A   1      40.524  27.989  28.842  1.00  0.00     0.049 A 
ATOM     49  H   UNL A   1      40.255  28.942  30.677  1.00  0.00     0.167 HD
ATOM     50  C   UNL A   1      39.617  31.137  34.431  1.00  0.00     0.034 A 
ATOM     51  C   UNL A   1      41.684  27.306  28.911  1.00  0.00     0.034 A 
ATOM     52  C   UNL A   1      40.818  30.363  34.631  1.00  0.00     0.049 A 
ATOM     53  C   UNL A   1      42.486  27.364  30.188  1.00  0.00     0.074 A 
ATOM     54  C   UNL A   1      41.591  30.253  35.773  1.00  0.00     0.029 A 
ATOM     55  N   UNL A   1      41.429  29.574  33.663  1.00  0.00    -0.354 N 
ATOM     56  N   UNL A   1      42.225  28.011  31.300  1.00  0.00    -0.248 NA
ATOM     57  C   UNL A   1      43.735  26.592  30.221  1.00  0.00     0.031 C 
ATOM     58  C   UNL A   1      42.710  29.469  35.473  1.00  0.00     0.029 A 
ATOM     59  C   UNL A   1      42.589  29.009  34.171  1.00  0.00     0.049 A 
ATOM     60  H   UNL A   1      41.087  29.436  32.750  1.00  0.00     0.167 HD
ATOM     61  C   UNL A   1      43.260  27.695  32.176  1.00  0.00     0.074 A 
ATOM     62  C   UNL A   1      44.139  26.787  31.467  1.00  0.00     0.031 C 
ATOM     63  C   UNL A   1      43.465  28.114  33.451  1.00  0.00     0.034 A 
BRANCH  50  64
ATOM     64  C   UNL A   1      39.130  32.030  35.550  1.00  0.00     0.023 A 
ATOM     65  C   UNL A   1      39.571  33.358  35.680  1.00  0.00     0.031 A 
ATOM     66  C   UNL A   1      38.230  31.539  36.513  1.00  0.00     0.131 A 
ATOM     67  C   UNL A   1      39.174  34.124  36.787  1.00  0.00     0.055 A 
ATOM     68  C   UNL A   1      37.769  32.335  37.563  1.00  0.00     0.041 A 
ATOM     69  F   UNL A   1      37.792  30.271  36.457  1.00  0.00    -0.206 F 
ATOM     70  C   UNL A   1      38.253  33.632  37.713  1.00  0.00     0.022 A 
BRANCH  67  71
ATOM     71  S   UNL A   1      39.997  35.713  37.079  1.00  0.00     0.124 S 
ATOM     72  O   UNL A   1      39.357  36.153  38.317  1.00  0.00    -0.237 OA
ATOM     73  O   UNL A   1      41.399  35.329  37.186  1.00  0.00    -0.237 OA
ATOM     74  O   UNL A   1      39.653  36.499  35.897  1.00  0.00    -0.744 OA
ENDBRANCH  67  71
ENDBRANCH  50  64
BRANCH  51  75
ATOM     75  C   UNL A   1      42.174  26.523  27.738  1.00  0.00     0.023 A 
ATOM     76  C   UNL A   1      41.991  25.132  27.668  1.00  0.00     0.031 A 
ATOM     77  C   UNL A   1      42.878  27.147  26.692  1.00  0.00     0.131 A 
ATOM     78  C   UNL A   1      42.550  24.404  26.605  1.00  0.00     0.055 A 
ATOM     79  C   UNL A   1      43.377  26.427  25.605  1.00  0.00     0.041 A 
ATOM     80  F   UNL A   1      43.082  28.473  26.707  1.00  0.00    -0.206 F 
ATOM     81  C   UNL A   1      43.228  25.045  25.565  1.00  0.00     0.022 A 
BRANCH  78  82
ATOM     82  S   UNL A   1      42.466  22.593  26.655  1.00  0.00     0.124 S 
ATOM     83  O   UNL A   1      43.775  22.251  27.198  1.00  0.00    -0.237 OA
ATOM     84  O   UNL A   1      41.324  22.366  27.535  1.00  0.00    -0.237 OA
ATOM     85  O   UNL A   1      42.255  22.226  25.256  1.00  0.00    -0.744 OA
ENDBRANCH  78  82
ENDBRANCH  51  75
BRANCH  63  86
ATOM     86  C   UNL A   1      44.666  27.553  34.176  1.00  0.00     0.023 A 
ATOM     87  C   UNL A   1      44.579  26.402  34.979  1.00  0.00     0.031 A 
ATOM     88  C   UNL A   1      45.917  28.187  34.065  1.00  0.00     0.131 A 
ATOM     89  C   UNL A   1      45.706  25.957  35.686  1.00  0.00     0.055 A 
ATOM     90  C   UNL A   1      47.050  27.699  34.716  1.00  0.00     0.041 A 
ATOM     91  F   UNL A   1      46.059  29.293  33.316  1.00  0.00    -0.206 F 
ATOM     92  C   UNL A   1      46.945  26.585  35.544  1.00  0.00     0.022 A 
BRANCH  89  93
ATOM     93  S   UNL A   1      45.507  24.605  36.879  1.00  0.00     0.124 S 
ATOM     94  O   UNL A   1      45.008  25.310  38.055  1.00  0.00    -0.237 OA
ATOM     95  O   UNL A   1      44.551  23.732  36.205  1.00  0.00    -0.237 OA
ATOM     96  O   UNL A   1      46.857  24.061  37.009  1.00  0.00    -0.744 OA
ENDBRANCH  89  93
ENDBRANCH  63  86
ENDBRANCH  37  38
ENDBRANCH  29  32
ENDBRANCH  27  28
ENDBRANCH  26  27
ENDBRANCH  25  26
ENDBRANCH   1  25
TORSDOF 19
ENDMDL
MODEL 3
REMARK VINA RESULT:     -11.2      1.930      2.330
REMARK SMILES CCc1ccsc1CNS(=O)(=O)N1CCC(C(=O)NCCCCNC(=O)c2ccc(-c3c4nc(c(-c5cc(S(=O)(=O)[O-])ccc5F)c5ccc([nH]5)c(-c5cc(S(=O)(=O)[O-])ccc5F)c5nc(c(-c6cc(S(=O)(=O)[O-])ccc6F)c6ccc3[nH]6)C=C5)C=C4)cc2)CC1
REMARK SMILES IDX 20 1 19 2 17 3 18 4 16 6 13 7 14 8 91 9 15 10 90 11 10 12
REMARK SMILES IDX 11 13 12 14 9 15 8 17 7 18 3 19 4 20 5 21 6 22 2 23 1 24
REMARK SMILES IDX 21 25 22 26 23 27 24 28 25 29 26 31 27 32 28 33 89 34 29 35
REMARK SMILES IDX 88 36 30 37 31 38 32 39 82 40 33 41 87 42 81 43 83 44 34 45
REMARK SMILES IDX 86 46 80 47 79 48 35 50 67 51 47 52 66 53 48 54 51 55 65 56
REMARK SMILES IDX 84 57 49 58 50 59 64 61 85 62 52 63 36 64 37 65 45 66 38 67
REMARK SMILES IDX 44 68 46 69 43 70 39 71 40 72 41 73 42 74 68 75 69 76 77 77
REMARK SMILES IDX 70 78 76 79 78 80 75 81 71 82 72 83 73 84 74 85 53 86 54 87
REMARK SMILES IDX 62 88 55 89 61 90 63 91 60 92 56 93 57 94 58 95 59 96
REMARK H PARENT 19 5 9 16 24 30 83 49 51 60
REMARK Flexibility Score: inf
ROOT
ATOM      1  C   UNL A   1      31.031  30.145  24.785  1.00  0.00     0.116 C 
ENDROOT
BRANCH   1   2
ATOM      2  N   UNL A   1      31.337  29.196  23.724  1.00  0.00    -0.356 N 
ATOM      3  C   UNL A   1      31.509  27.846  23.761  1.00  0.00     0.223 C 
ATOM      4  O   UNL A   1      31.802  27.262  22.715  1.00  0.00    -0.275 OA
ATOM      5  H   UNL A   1      31.437  29.598  22.831  1.00  0.00     0.163 HD
BRANCH   3   6
ATOM      6  C   UNL A   1      31.296  27.060  25.043  1.00  0.00     0.081 C 
ATOM      7  N   UNL A   1      31.053  24.412  26.190  1.00  0.00    -0.189 NA
ATOM      8  C   UNL A   1      29.896  25.326  26.223  1.00  0.00     0.104 C 
ATOM      9  C   UNL A   1      32.357  25.090  26.301  1.00  0.00     0.104 C 
ATOM     10  C   UNL A   1      29.984  26.276  25.037  1.00  0.00     0.030 C 
ATOM     11  C   UNL A   1      32.549  26.242  25.344  1.00  0.00     0.030 C 
BRANCH   7  12
ATOM     12  S   UNL A   1      30.885  22.942  27.007  1.00  0.00     0.279 S 
ATOM     13  O   UNL A   1      29.603  22.938  27.667  1.00  0.00    -0.195 OA
ATOM     14  O   UNL A   1      32.105  22.642  27.719  1.00  0.00    -0.195 OA
BRANCH  12  15
ATOM     15  N   UNL A   1      30.803  21.833  25.742  1.00  0.00    -0.197 NA
ATOM     16  H   UNL A   1      30.235  21.041  26.044  1.00  0.00     0.142 HD
BRANCH  15  17
ATOM     17  C   UNL A   1      32.120  21.325  25.314  1.00  0.00     0.146 C 
BRANCH  17  18
ATOM     18  C   UNL A   1      32.763  22.165  24.246  1.00  0.00     0.023 A 
ATOM     19  C   UNL A   1      34.132  22.385  24.104  1.00  0.00    -0.033 A 
ATOM     20  C   UNL A   1      34.408  23.109  22.897  1.00  0.00     0.015 A 
ATOM     21  C   UNL A   1      33.271  23.406  22.182  1.00  0.00     0.065 A 
ATOM     22  S   UNL A   1      31.864  22.822  22.947  1.00  0.00    -0.147 S 
BRANCH  19  23
ATOM     23  C   UNL A   1      35.158  21.847  25.074  1.00  0.00     0.033 C 
ATOM     24  C   UNL A   1      35.443  22.714  26.284  1.00  0.00     0.009 C 
ENDBRANCH  19  23
ENDBRANCH  17  18
ENDBRANCH  15  17
ENDBRANCH  12  15
ENDBRANCH   7  12
ENDBRANCH   3   6
ENDBRANCH   1   2
BRANCH   1  25
ATOM     25  C   UNL A   1      32.198  30.293  25.753  1.00  0.00     0.023 C 
BRANCH  25  26
ATOM     26  C   UNL A   1      31.933  31.272  26.895  1.00  0.00     0.023 C 
BRANCH  26  27
ATOM     27  C   UNL A   1      33.128  32.132  27.288  1.00  0.00     0.116 C 
BRANCH  27  28
ATOM     28  N   UNL A   1      32.765  33.518  27.540  1.00  0.00    -0.352 N 
ATOM     29  C   UNL A   1      33.240  34.368  28.511  1.00  0.00     0.251 C 
ATOM     30  H   UNL A   1      32.089  33.900  26.933  1.00  0.00     0.163 HD
ATOM     31  O   UNL A   1      32.706  35.458  28.690  1.00  0.00    -0.269 OA
BRANCH  29  32
ATOM     32  C   UNL A   1      34.372  33.935  29.357  1.00  0.00     0.039 A 
ATOM     33  C   UNL A   1      34.135  33.036  30.396  1.00  0.00     0.014 A 
ATOM     34  C   UNL A   1      35.670  34.377  29.083  1.00  0.00     0.014 A 
ATOM     35  C   UNL A   1      35.214  32.518  31.114  1.00  0.00     0.010 A 
ATOM     36  C   UNL A   1      36.747  33.794  29.740  1.00  0.00     0.010 A 
ATOM     37  C   UNL A   1      36.532  32.855  30.762  1.00  0.00    -0.014 A 
BRANCH  37  38
ATOM     38  C   UNL A   1      37.696  32.233  31.445  1.00  0.00     0.031 A 
ATOM     39  C   UNL A   1      38.448  31.111  30.783  1.00  0.00     0.074 A 
ATOM     40  C   UNL A   1      38.037  32.639  32.685  1.00  0.00     0.049 A 
ATOM     41  N   UNL A   1      39.444  30.398  31.243  1.00  0.00    -0.248 NA
ATOM     42  C   UNL A   1      38.002  30.721  29.437  1.00  0.00     0.031 C 
ATOM     43  C   UNL A   1      37.358  33.690  33.447  1.00  0.00     0.029 A 
ATOM     44  N   UNL A   1      39.034  32.216  33.528  1.00  0.00    -0.354 N 
ATOM     45  C   UNL A   1      39.738  29.471  30.248  1.00  0.00     0.074 A 
ATOM     46  C   UNL A   1      38.769  29.671  29.192  1.00  0.00     0.031 C 
ATOM     47  C   UNL A   1      37.978  33.851  34.626  1.00  0.00     0.029 A 
ATOM     48  C   UNL A   1      39.061  32.879  34.734  1.00  0.00     0.049 A 
ATOM     49  H   UNL A   1      39.672  31.503  33.292  1.00  0.00     0.167 HD
ATOM     50  C   UNL A   1      40.739  28.558  30.209  1.00  0.00     0.034 A 
ATOM     51  C   UNL A   1      39.857  32.715  35.809  1.00  0.00     0.034 A 
ATOM     52  C   UNL A   1      41.698  28.376  31.271  1.00  0.00     0.049 A 
ATOM     53  C   UNL A   1      40.934  31.660  35.760  1.00  0.00     0.074 A 
ATOM     54  C   UNL A   1      42.782  27.516  31.314  1.00  0.00     0.029 A 
ATOM     55  N   UNL A   1      41.685  29.055  32.484  1.00  0.00    -0.354 N 
ATOM     56  N   UNL A   1      41.233  30.828  34.789  1.00  0.00    -0.248 NA
ATOM     57  C   UNL A   1      41.786  31.528  36.949  1.00  0.00     0.031 C 
ATOM     58  C   UNL A   1      43.371  27.615  32.579  1.00  0.00     0.029 A 
ATOM     59  C   UNL A   1      42.715  28.604  33.295  1.00  0.00     0.049 A 
ATOM     60  H   UNL A   1      41.038  29.755  32.730  1.00  0.00     0.167 HD
ATOM     61  C   UNL A   1      42.331  30.098  35.239  1.00  0.00     0.074 A 
ATOM     62  C   UNL A   1      42.649  30.600  36.561  1.00  0.00     0.031 C 
ATOM     63  C   UNL A   1      43.016  29.105  34.616  1.00  0.00     0.034 A 
BRANCH  50  64
ATOM     64  C   UNL A   1      40.824  27.669  28.990  1.00  0.00     0.023 A 
ATOM     65  C   UNL A   1      41.769  27.896  27.974  1.00  0.00     0.031 A 
ATOM     66  C   UNL A   1      39.936  26.591  28.830  1.00  0.00     0.131 A 
ATOM     67  C   UNL A   1      41.753  27.110  26.811  1.00  0.00     0.055 A 
ATOM     68  C   UNL A   1      39.983  25.756  27.711  1.00  0.00     0.041 A 
ATOM     69  F   UNL A   1      38.995  26.336  29.753  1.00  0.00    -0.206 F 
ATOM     70  C   UNL A   1      40.886  26.023  26.686  1.00  0.00     0.022 A 
BRANCH  67  71
ATOM     71  S   UNL A   1      42.776  27.624  25.405  1.00  0.00     0.124 S 
ATOM     72  O   UNL A   1      43.996  28.069  26.075  1.00  0.00    -0.237 OA
ATOM     73  O   UNL A   1      42.885  26.396  24.627  1.00  0.00    -0.237 OA
ATOM     74  O   UNL A   1      41.993  28.690  24.784  1.00  0.00    -0.744 OA
ENDBRANCH  67  71
ENDBRANCH  50  64
BRANCH  51  75
ATOM     75  C   UNL A   1      39.663  33.549  37.032  1.00  0.00     0.023 A 
ATOM     76  C   UNL A   1      39.075  33.014  38.189  1.00  0.00     0.031 A 
ATOM     77  C   UNL A   1      40.016  34.911  37.044  1.00  0.00     0.131 A 
ATOM     78  C   UNL A   1      38.810  33.844  39.290  1.00  0.00     0.055 A 
ATOM     79  C   UNL A   1      39.808  35.718  38.164  1.00  0.00     0.041 A 
ATOM     80  F   UNL A   1      40.581  35.476  35.965  1.00  0.00    -0.206 F 
ATOM     81  C   UNL A   1      39.187  35.189  39.290  1.00  0.00     0.022 A 
BRANCH  78  82
ATOM     82  S   UNL A   1      37.870  33.164  40.684  1.00  0.00     0.124 S 
ATOM     83  O   UNL A   1      38.072  34.187  41.704  1.00  0.00    -0.237 OA
ATOM     84  O   UNL A   1      36.526  33.068  40.126  1.00  0.00    -0.237 OA
ATOM     85  O   UNL A   1      38.528  31.885  40.944  1.00  0.00    -0.744 OA
ENDBRANCH  78  82
ENDBRANCH  51  75
BRANCH  63  86
ATOM     86  C   UNL A   1      44.209  28.530  35.344  1.00  0.00     0.023 A 
ATOM     87  C   UNL A   1      45.512  29.019  35.138  1.00  0.00     0.031 A 
ATOM     88  C   UNL A   1      44.038  27.470  36.252  1.00  0.00     0.131 A 
ATOM     89  C   UNL A   1      46.596  28.409  35.785  1.00  0.00     0.055 A 
ATOM     90  C   UNL A   1      45.113  26.914  36.946  1.00  0.00     0.041 A 
ATOM     91  F   UNL A   1      42.818  26.959  36.485  1.00  0.00    -0.206 F 
ATOM     92  C   UNL A   1      46.404  27.374  36.703  1.00  0.00     0.022 A 
BRANCH  89  93
ATOM     93  S   UNL A   1      48.277  28.919  35.333  1.00  0.00     0.124 S 
ATOM     94  O   UNL A   1      48.988  27.644  35.324  1.00  0.00    -0.237 OA
ATOM     95  O   UNL A   1      48.076  29.546  34.031  1.00  0.00    -0.237 OA
ATOM     96  O   UNL A   1      48.659  29.833  36.408  1.00  0.00    -0.744 OA
ENDBRANCH  89  93
ENDBRANCH  63  86
ENDBRANCH  37  38
ENDBRANCH  29  32
ENDBRANCH  27  28
ENDBRANCH  26  27
ENDBRANCH  25  26
ENDBRANCH   1  25
TORSDOF 19
ENDMDL
