MODEL 1
REMARK VINA RESULT:     -11.5      0.000      0.000
REMARK SMILES O=C(NC[C@@H]1CCOC1)NC[C@@H]1CC[C@H](C(=O)NCCCCNC(=O)c2ccc(-c3c4nc(c(-c5cc(S(=O)(=O)[O-])ccc5F)c5ccc([nH]5)c(-c5cc(S(=O)(=O)[O-])ccc5F)c5nc(c(-c6cc(S(=O)(=O)[O-])ccc6F)c6ccc3[nH]6)C=C5)C=C4)cc2)O1
REMARK SMILES IDX 20 1 19 2 18 3 16 4 17 5 15 7 12 8 13 9 89 10 14 11 11 12
REMARK SMILES IDX 10 13 1 14 2 15 3 16 4 19 5 20 6 21 9 22 7 23 8 24 21 25
REMARK SMILES IDX 22 26 23 27 24 28 25 30 26 31 27 32 88 33 28 34 87 35 29 36
REMARK SMILES IDX 30 37 31 38 81 39 32 40 86 41 80 42 82 43 33 44 85 45 79 46
REMARK SMILES IDX 78 47 34 49 66 50 46 51 65 52 47 53 50 54 64 55 83 56 48 57
REMARK SMILES IDX 49 58 63 60 84 61 51 62 35 63 36 64 44 65 37 66 43 67 45 68
REMARK SMILES IDX 42 69 38 70 39 71 40 72 41 73 67 74 68 75 76 76 69 77 75 78
REMARK SMILES IDX 77 79 74 80 70 81 71 82 72 83 73 84 52 85 53 86 61 87 54 88
REMARK SMILES IDX 60 89 62 90 59 91 55 92 56 93 57 94 58 95
REMARK H PARENT 18 6 3 17 10 18 23 29 82 48 50 59
REMARK Flexibility Score: inf
ROOT
ATOM      1  C   UNL A   1      36.746  21.577  24.765  1.00  0.00     0.023 C 
ENDROOT
BRANCH   1   2
ATOM      2  C   UNL A   1      35.544  21.645  25.707  1.00  0.00     0.116 C 
BRANCH   2   3
ATOM      3  N   UNL A   1      34.773  20.420  25.687  1.00  0.00    -0.354 N 
ATOM      4  C   UNL A   1      33.532  20.184  25.175  1.00  0.00     0.249 C 
ATOM      5  O   UNL A   1      33.073  19.042  25.288  1.00  0.00    -0.272 OA
ATOM      6  H   UNL A   1      35.209  19.644  26.106  1.00  0.00     0.163 HD
BRANCH   4   7
ATOM      7  C   UNL A   1      32.690  21.300  24.514  1.00  0.00     0.207 C 
ATOM      8  C   UNL A   1      32.973  23.474  23.720  1.00  0.00     0.138 C 
ATOM      9  C   UNL A   1      32.567  23.609  25.177  1.00  0.00     0.037 C 
ATOM     10  O   UNL A   1      33.370  22.102  23.547  1.00  0.00    -0.363 OA
ATOM     11  C   UNL A   1      32.023  22.237  25.512  1.00  0.00     0.045 C 
BRANCH   8  12
ATOM     12  C   UNL A   1      34.125  24.383  23.288  1.00  0.00     0.149 C 
BRANCH  12  13
ATOM     13  N   UNL A   1      33.753  25.774  23.134  1.00  0.00    -0.336 N 
ATOM     14  O   UNL A   1      33.213  25.583  20.927  1.00  0.00    -0.249 OA
ATOM     15  C   UNL A   1      33.286  26.251  21.954  1.00  0.00     0.314 C 
ATOM     16  N   UNL A   1      32.877  27.538  21.923  1.00  0.00    -0.338 N 
ATOM     17  H   UNL A   1      32.485  27.815  21.064  1.00  0.00     0.165 HD
ATOM     18  H   UNL A   1      33.840  26.384  23.902  1.00  0.00     0.165 HD
BRANCH  16  19
ATOM     19  C   UNL A   1      32.907  28.587  22.920  1.00  0.00     0.123 C 
BRANCH  19  20
ATOM     20  C   UNL A   1      31.539  28.950  23.521  1.00  0.00     0.036 C 
ATOM     21  C   UNL A   1      30.783  27.786  24.133  1.00  0.00     0.036 C 
ATOM     22  C   UNL A   1      30.542  29.475  22.500  1.00  0.00     0.165 C 
ATOM     23  C   UNL A   1      29.905  27.290  23.000  1.00  0.00     0.160 C 
ATOM     24  O   UNL A   1      29.690  28.395  22.113  1.00  0.00    -0.381 OA
ENDBRANCH  19  20
ENDBRANCH  16  19
ENDBRANCH  12  13
ENDBRANCH   8  12
ENDBRANCH   4   7
ENDBRANCH   2   3
ENDBRANCH   1   2
BRANCH   1  25
ATOM     25  C   UNL A   1      37.656  20.371  24.996  1.00  0.00     0.023 C 
BRANCH  25  26
ATOM     26  C   UNL A   1      38.926  20.668  25.789  1.00  0.00     0.116 C 
BRANCH  26  27
ATOM     27  N   UNL A   1      39.827  19.531  25.897  1.00  0.00    -0.352 N 
ATOM     28  C   UNL A   1      41.180  19.544  26.153  1.00  0.00     0.251 C 
ATOM     29  H   UNL A   1      39.420  18.643  25.773  1.00  0.00     0.163 HD
ATOM     30  O   UNL A   1      41.835  18.508  26.100  1.00  0.00    -0.269 OA
BRANCH  28  31
ATOM     31  C   UNL A   1      41.843  20.833  26.441  1.00  0.00     0.039 A 
ATOM     32  C   UNL A   1      42.138  21.692  25.380  1.00  0.00     0.014 A 
ATOM     33  C   UNL A   1      42.117  21.215  27.757  1.00  0.00     0.014 A 
ATOM     34  C   UNL A   1      42.634  22.970  25.646  1.00  0.00     0.010 A 
ATOM     35  C   UNL A   1      42.545  22.512  28.023  1.00  0.00     0.010 A 
ATOM     36  C   UNL A   1      42.800  23.406  26.972  1.00  0.00    -0.014 A 
BRANCH  36  37
ATOM     37  C   UNL A   1      43.223  24.797  27.279  1.00  0.00     0.031 A 
ATOM     38  C   UNL A   1      42.264  25.743  27.950  1.00  0.00     0.074 A 
ATOM     39  C   UNL A   1      44.438  25.226  26.881  1.00  0.00     0.049 A 
ATOM     40  N   UNL A   1      42.414  27.012  28.226  1.00  0.00    -0.248 NA
ATOM     41  C   UNL A   1      40.954  25.194  28.334  1.00  0.00     0.031 C 
ATOM     42  C   UNL A   1      45.435  24.413  26.179  1.00  0.00     0.029 A 
ATOM     43  N   UNL A   1      45.041  26.455  26.998  1.00  0.00    -0.354 N 
ATOM     44  C   UNL A   1      41.210  27.422  28.790  1.00  0.00     0.074 A 
ATOM     45  C   UNL A   1      40.328  26.274  28.777  1.00  0.00     0.031 C 
ATOM     46  C   UNL A   1      46.528  25.157  25.947  1.00  0.00     0.029 A 
ATOM     47  C   UNL A   1      46.298  26.511  26.441  1.00  0.00     0.049 A 
ATOM     48  H   UNL A   1      44.613  27.224  27.439  1.00  0.00     0.167 HD
ATOM     49  C   UNL A   1      40.879  28.639  29.286  1.00  0.00     0.034 A 
ATOM     50  C   UNL A   1      47.162  27.540  26.330  1.00  0.00     0.034 A 
ATOM     51  C   UNL A   1      41.784  29.762  29.325  1.00  0.00     0.049 A 
ATOM     52  C   UNL A   1      46.766  28.884  26.894  1.00  0.00     0.074 A 
ATOM     53  C   UNL A   1      41.584  31.008  29.893  1.00  0.00     0.029 A 
ATOM     54  N   UNL A   1      43.055  29.779  28.766  1.00  0.00    -0.354 N 
ATOM     55  N   UNL A   1      45.652  29.231  27.497  1.00  0.00    -0.248 NA
ATOM     56  C   UNL A   1      47.746  29.970  26.770  1.00  0.00     0.031 C 
ATOM     57  C   UNL A   1      42.706  31.799  29.621  1.00  0.00     0.029 A 
ATOM     58  C   UNL A   1      43.635  31.025  28.945  1.00  0.00     0.049 A 
ATOM     59  H   UNL A   1      43.482  29.018  28.310  1.00  0.00     0.167 HD
ATOM     60  C   UNL A   1      45.818  30.565  27.857  1.00  0.00     0.074 A 
ATOM     61  C   UNL A   1      47.141  30.955  27.417  1.00  0.00     0.031 C 
ATOM     62  C   UNL A   1      44.957  31.395  28.499  1.00  0.00     0.034 A 
BRANCH  49  63
ATOM     63  C   UNL A   1      39.475  28.829  29.803  1.00  0.00     0.023 A 
ATOM     64  C   UNL A   1      38.450  29.350  28.995  1.00  0.00     0.031 A 
ATOM     65  C   UNL A   1      39.158  28.478  31.128  1.00  0.00     0.131 A 
ATOM     66  C   UNL A   1      37.171  29.559  29.537  1.00  0.00     0.055 A 
ATOM     67  C   UNL A   1      37.867  28.622  31.638  1.00  0.00     0.041 A 
ATOM     68  F   UNL A   1      40.101  27.993  31.950  1.00  0.00    -0.206 F 
ATOM     69  C   UNL A   1      36.868  29.176  30.845  1.00  0.00     0.022 A 
BRANCH  66  70
ATOM     70  S   UNL A   1      35.941  30.442  28.540  1.00  0.00     0.124 S 
ATOM     71  O   UNL A   1      35.272  31.258  29.551  1.00  0.00    -0.237 OA
ATOM     72  O   UNL A   1      36.769  31.164  27.580  1.00  0.00    -0.237 OA
ATOM     73  O   UNL A   1      35.124  29.370  27.974  1.00  0.00    -0.744 OA
ENDBRANCH  66  70
ENDBRANCH  49  63
BRANCH  50  74
ATOM     74  C   UNL A   1      48.480  27.367  25.653  1.00  0.00     0.023 A 
ATOM     75  C   UNL A   1      48.600  27.517  24.262  1.00  0.00     0.031 A 
ATOM     76  C   UNL A   1      49.623  26.974  26.372  1.00  0.00     0.131 A 
ATOM     77  C   UNL A   1      49.813  27.214  23.625  1.00  0.00     0.055 A 
ATOM     78  C   UNL A   1      50.845  26.731  25.741  1.00  0.00     0.041 A 
ATOM     79  F   UNL A   1      49.567  26.819  27.704  1.00  0.00    -0.206 F 
ATOM     80  C   UNL A   1      50.940  26.833  24.357  1.00  0.00     0.022 A 
BRANCH  77  81
ATOM     81  S   UNL A   1      49.864  27.212  21.811  1.00  0.00     0.124 S 
ATOM     82  O   UNL A   1      51.232  26.774  21.553  1.00  0.00    -0.237 OA
ATOM     83  O   UNL A   1      48.812  26.258  21.481  1.00  0.00    -0.237 OA
ATOM     84  O   UNL A   1      49.578  28.602  21.463  1.00  0.00    -0.744 OA
ENDBRANCH  77  81
ENDBRANCH  50  74
BRANCH  62  85
ATOM     85  C   UNL A   1      45.450  32.787  28.806  1.00  0.00     0.023 A 
ATOM     86  C   UNL A   1      45.183  33.873  27.954  1.00  0.00     0.031 A 
ATOM     87  C   UNL A   1      46.211  33.026  29.965  1.00  0.00     0.131 A 
ATOM     88  C   UNL A   1      45.719  35.137  28.245  1.00  0.00     0.055 A 
ATOM     89  C   UNL A   1      46.691  34.296  30.280  1.00  0.00     0.041 A 
ATOM     90  F   UNL A   1      46.496  32.024  30.813  1.00  0.00    -0.206 F 
ATOM     91  C   UNL A   1      46.457  35.358  29.410  1.00  0.00     0.022 A 
BRANCH  88  92
ATOM     92  S   UNL A   1      45.510  36.470  27.034  1.00  0.00     0.124 S 
ATOM     93  O   UNL A   1      46.594  36.200  26.095  1.00  0.00    -0.237 OA
ATOM     94  O   UNL A   1      44.160  36.230  26.534  1.00  0.00    -0.237 OA
ATOM     95  O   UNL A   1      45.669  37.685  27.831  1.00  0.00    -0.744 OA
ENDBRANCH  88  92
ENDBRANCH  62  85
ENDBRANCH  36  37
ENDBRANCH  28  31
ENDBRANCH  26  27
ENDBRANCH  25  26
ENDBRANCH   1  25
TORSDOF 18
ENDMDL
MODEL 2
REMARK VINA RESULT:     -11.3      1.686      2.182
REMARK SMILES O=C(NC[C@@H]1CCOC1)NC[C@@H]1CC[C@H](C(=O)NCCCCNC(=O)c2ccc(-c3c4nc(c(-c5cc(S(=O)(=O)[O-])ccc5F)c5ccc([nH]5)c(-c5cc(S(=O)(=O)[O-])ccc5F)c5nc(c(-c6cc(S(=O)(=O)[O-])ccc6F)c6ccc3[nH]6)C=C5)C=C4)cc2)O1
REMARK SMILES IDX 20 1 19 2 18 3 16 4 17 5 15 7 12 8 13 9 89 10 14 11 11 12
REMARK SMILES IDX 10 13 1 14 2 15 3 16 4 19 5 20 6 21 9 22 7 23 8 24 21 25
REMARK SMILES IDX 22 26 23 27 24 28 25 30 26 31 27 32 88 33 28 34 87 35 29 36
REMARK SMILES IDX 30 37 31 38 81 39 32 40 86 41 80 42 82 43 33 44 85 45 79 46
REMARK SMILES IDX 78 47 34 49 66 50 46 51 65 52 47 53 50 54 64 55 83 56 48 57
REMARK SMILES IDX 49 58 63 60 84 61 51 62 35 63 36 64 44 65 37 66 43 67 45 68
REMARK SMILES IDX 42 69 38 70 39 71 40 72 41 73 67 74 68 75 76 76 69 77 75 78
REMARK SMILES IDX 77 79 74 80 70 81 71 82 72 83 73 84 52 85 53 86 61 87 54 88
REMARK SMILES IDX 60 89 62 90 59 91 55 92 56 93 57 94 58 95
REMARK H PARENT 18 6 3 17 10 18 23 29 82 48 50 59
REMARK Flexibility Score: inf
ROOT
ATOM      1  C   UNL A   1      35.224  20.248  25.000  1.00  0.00     0.023 C 
ENDROOT
BRANCH   1   2
ATOM      2  C   UNL A   1      33.819  20.161  25.594  1.00  0.00     0.116 C 
BRANCH   2   3
ATOM      3  N   UNL A   1      33.691  20.955  26.797  1.00  0.00    -0.354 N 
ATOM      4  C   UNL A   1      32.879  22.019  27.053  1.00  0.00     0.249 C 
ATOM      5  O   UNL A   1      32.958  22.546  28.168  1.00  0.00    -0.272 OA
ATOM      6  H   UNL A   1      34.279  20.687  27.540  1.00  0.00     0.163 HD
BRANCH   4   7
ATOM      7  C   UNL A   1      31.919  22.595  25.986  1.00  0.00     0.207 C 
ATOM      8  C   UNL A   1      31.343  24.665  25.080  1.00  0.00     0.138 C 
ATOM      9  C   UNL A   1      30.400  24.442  26.248  1.00  0.00     0.037 C 
ATOM     10  O   UNL A   1      32.410  23.715  25.248  1.00  0.00    -0.363 OA
ATOM     11  C   UNL A   1      30.545  22.962  26.531  1.00  0.00     0.045 C 
BRANCH   8  12
ATOM     12  C   UNL A   1      31.939  26.071  24.994  1.00  0.00     0.149 C 
BRANCH  12  13
ATOM     13  N   UNL A   1      31.152  26.998  24.206  1.00  0.00    -0.336 N 
ATOM     14  O   UNL A   1      32.414  26.765  22.323  1.00  0.00    -0.249 OA
ATOM     15  C   UNL A   1      31.444  27.239  22.905  1.00  0.00     0.314 C 
ATOM     16  N   UNL A   1      30.605  28.047  22.220  1.00  0.00    -0.338 N 
ATOM     17  H   UNL A   1      30.824  28.135  21.264  1.00  0.00     0.165 HD
ATOM     18  H   UNL A   1      30.391  27.461  24.625  1.00  0.00     0.165 HD
BRANCH  16  19
ATOM     19  C   UNL A   1      29.444  28.807  22.631  1.00  0.00     0.123 C 
BRANCH  19  20
ATOM     20  C   UNL A   1      29.548  30.324  22.401  1.00  0.00     0.036 C 
ATOM     21  C   UNL A   1      29.132  31.177  23.584  1.00  0.00     0.036 C 
ATOM     22  C   UNL A   1      28.634  30.840  21.301  1.00  0.00     0.165 C 
ATOM     23  C   UNL A   1      27.665  31.462  23.326  1.00  0.00     0.160 C 
ATOM     24  O   UNL A   1      27.456  31.370  21.911  1.00  0.00    -0.381 OA
ENDBRANCH  19  20
ENDBRANCH  16  19
ENDBRANCH  12  13
ENDBRANCH   8  12
ENDBRANCH   4   7
ENDBRANCH   2   3
ENDBRANCH   1   2
BRANCH   1  25
ATOM     25  C   UNL A   1      35.655  21.663  24.612  1.00  0.00     0.023 C 
BRANCH  25  26
ATOM     26  C   UNL A   1      37.063  22.049  25.057  1.00  0.00     0.116 C 
BRANCH  26  27
ATOM     27  N   UNL A   1      37.915  20.909  25.360  1.00  0.00    -0.352 N 
ATOM     28  C   UNL A   1      39.131  20.907  26.005  1.00  0.00     0.251 C 
ATOM     29  H   UNL A   1      37.580  20.030  25.069  1.00  0.00     0.163 HD
ATOM     30  O   UNL A   1      39.793  19.877  26.087  1.00  0.00    -0.269 OA
BRANCH  28  31
ATOM     31  C   UNL A   1      39.653  22.177  26.552  1.00  0.00     0.039 A 
ATOM     32  C   UNL A   1      40.736  22.137  27.434  1.00  0.00     0.014 A 
ATOM     33  C   UNL A   1      39.112  23.402  26.151  1.00  0.00     0.014 A 
ATOM     34  C   UNL A   1      41.329  23.331  27.849  1.00  0.00     0.010 A 
ATOM     35  C   UNL A   1      39.748  24.587  26.509  1.00  0.00     0.010 A 
ATOM     36  C   UNL A   1      40.868  24.564  27.355  1.00  0.00    -0.014 A 
BRANCH  36  37
ATOM     37  C   UNL A   1      41.553  25.837  27.698  1.00  0.00     0.031 A 
ATOM     38  C   UNL A   1      40.820  26.899  28.472  1.00  0.00     0.074 A 
ATOM     39  C   UNL A   1      42.802  26.064  27.243  1.00  0.00     0.049 A 
ATOM     40  N   UNL A   1      41.213  28.104  28.796  1.00  0.00    -0.248 NA
ATOM     41  C   UNL A   1      39.456  26.572  28.914  1.00  0.00     0.031 C 
ATOM     42  C   UNL A   1      43.595  25.127  26.441  1.00  0.00     0.029 A 
ATOM     43  N   UNL A   1      43.623  27.157  27.377  1.00  0.00    -0.354 N 
ATOM     44  C   UNL A   1      40.136  28.689  29.455  1.00  0.00     0.074 A 
ATOM     45  C   UNL A   1      39.061  27.720  29.446  1.00  0.00     0.031 C 
ATOM     46  C   UNL A   1      44.790  25.677  26.174  1.00  0.00     0.029 A 
ATOM     47  C   UNL A   1      44.838  27.020  26.743  1.00  0.00     0.049 A 
ATOM     48  H   UNL A   1      43.367  27.964  27.879  1.00  0.00     0.167 HD
ATOM     49  C   UNL A   1      40.060  29.916  30.027  1.00  0.00     0.034 A 
ATOM     50  C   UNL A   1      45.866  27.883  26.624  1.00  0.00     0.034 A 
ATOM     51  C   UNL A   1      41.154  30.855  30.058  1.00  0.00     0.049 A 
ATOM     52  C   UNL A   1      45.752  29.241  27.274  1.00  0.00     0.074 A 
ATOM     53  C   UNL A   1      41.215  32.082  30.695  1.00  0.00     0.029 A 
ATOM     54  N   UNL A   1      42.375  30.676  29.421  1.00  0.00    -0.354 N 
ATOM     55  N   UNL A   1      44.755  29.747  27.963  1.00  0.00    -0.248 NA
ATOM     56  C   UNL A   1      46.905  30.141  27.137  1.00  0.00     0.031 C 
ATOM     57  C   UNL A   1      42.445  32.674  30.388  1.00  0.00     0.029 A 
ATOM     58  C   UNL A   1      43.180  31.787  29.619  1.00  0.00     0.049 A 
ATOM     59  H   UNL A   1      42.630  29.879  28.903  1.00  0.00     0.167 HD
ATOM     60  C   UNL A   1      45.180  31.008  28.372  1.00  0.00     0.074 A 
ATOM     61  C   UNL A   1      46.525  31.179  27.866  1.00  0.00     0.031 C 
ATOM     62  C   UNL A   1      44.521  31.940  29.106  1.00  0.00     0.034 A 
BRANCH  49  63
ATOM     63  C   UNL A   1      38.744  30.323  30.641  1.00  0.00     0.023 A 
ATOM     64  C   UNL A   1      37.773  31.032  29.914  1.00  0.00     0.031 A 
ATOM     65  C   UNL A   1      38.457  29.992  31.977  1.00  0.00     0.131 A 
ATOM     66  C   UNL A   1      36.585  31.438  30.545  1.00  0.00     0.055 A 
ATOM     67  C   UNL A   1      37.245  30.335  32.577  1.00  0.00     0.041 A 
ATOM     68  F   UNL A   1      39.356  29.331  32.725  1.00  0.00    -0.206 F 
ATOM     69  C   UNL A   1      36.305  31.072  31.864  1.00  0.00     0.022 A 
BRANCH  66  70
ATOM     70  S   UNL A   1      35.461  32.544  29.650  1.00  0.00     0.124 S 
ATOM     71  O   UNL A   1      34.333  32.630  30.575  1.00  0.00    -0.237 OA
ATOM     72  O   UNL A   1      36.260  33.755  29.502  1.00  0.00    -0.237 OA
ATOM     73  O   UNL A   1      35.186  31.822  28.409  1.00  0.00    -0.744 OA
ENDBRANCH  66  70
ENDBRANCH  49  63
BRANCH  50  74
ATOM     74  C   UNL A   1      47.091  27.516  25.856  1.00  0.00     0.023 A 
ATOM     75  C   UNL A   1      47.234  27.884  24.509  1.00  0.00     0.031 A 
ATOM     76  C   UNL A   1      48.104  26.727  26.432  1.00  0.00     0.131 A 
ATOM     77  C   UNL A   1      48.325  27.412  23.763  1.00  0.00     0.055 A 
ATOM     78  C   UNL A   1      49.219  26.310  25.703  1.00  0.00     0.041 A 
ATOM     79  F   UNL A   1      48.022  26.350  27.717  1.00  0.00    -0.206 F 
ATOM     80  C   UNL A   1      49.325  26.637  24.355  1.00  0.00     0.022 A 
BRANCH  77  81
ATOM     81  S   UNL A   1      48.359  27.730  21.978  1.00  0.00     0.124 S 
ATOM     82  O   UNL A   1      48.596  26.394  21.442  1.00  0.00    -0.237 OA
ATOM     83  O   UNL A   1      47.031  28.288  21.746  1.00  0.00    -0.237 OA
ATOM     84  O   UNL A   1      49.466  28.670  21.821  1.00  0.00    -0.744 OA
ENDBRANCH  77  81
ENDBRANCH  50  74
BRANCH  62  85
ATOM     85  C   UNL A   1      45.274  33.202  29.444  1.00  0.00     0.023 A 
ATOM     86  C   UNL A   1      45.214  34.343  28.626  1.00  0.00     0.031 A 
ATOM     87  C   UNL A   1      46.076  33.256  30.599  1.00  0.00     0.131 A 
ATOM     88  C   UNL A   1      45.985  35.471  28.944  1.00  0.00     0.055 A 
ATOM     89  C   UNL A   1      46.793  34.401  30.942  1.00  0.00     0.041 A 
ATOM     90  F   UNL A   1      46.169  32.193  31.415  1.00  0.00    -0.206 F 
ATOM     91  C   UNL A   1      46.761  35.513  30.104  1.00  0.00     0.022 A 
BRANCH  88  92
ATOM     92  S   UNL A   1      46.027  36.855  27.772  1.00  0.00     0.124 S 
ATOM     93  O   UNL A   1      45.906  36.171  26.489  1.00  0.00    -0.237 OA
ATOM     94  O   UNL A   1      44.873  37.648  28.183  1.00  0.00    -0.237 OA
ATOM     95  O   UNL A   1      47.327  37.477  28.022  1.00  0.00    -0.744 OA
ENDBRANCH  88  92
ENDBRANCH  62  85
ENDBRANCH  36  37
ENDBRANCH  28  31
ENDBRANCH  26  27
ENDBRANCH  25  26
ENDBRANCH   1  25
TORSDOF 18
ENDMDL
MODEL 3
REMARK VINA RESULT:     -11.3      6.345     11.266
REMARK SMILES O=C(NC[C@@H]1CCOC1)NC[C@@H]1CC[C@H](C(=O)NCCCCNC(=O)c2ccc(-c3c4nc(c(-c5cc(S(=O)(=O)[O-])ccc5F)c5ccc([nH]5)c(-c5cc(S(=O)(=O)[O-])ccc5F)c5nc(c(-c6cc(S(=O)(=O)[O-])ccc6F)c6ccc3[nH]6)C=C5)C=C4)cc2)O1
REMARK SMILES IDX 20 1 19 2 18 3 16 4 17 5 15 7 12 8 13 9 89 10 14 11 11 12
REMARK SMILES IDX 10 13 1 14 2 15 3 16 4 19 5 20 6 21 9 22 7 23 8 24 21 25
REMARK SMILES IDX 22 26 23 27 24 28 25 30 26 31 27 32 88 33 28 34 87 35 29 36
REMARK SMILES IDX 30 37 31 38 81 39 32 40 86 41 80 42 82 43 33 44 85 45 79 46
REMARK SMILES IDX 78 47 34 49 66 50 46 51 65 52 47 53 50 54 64 55 83 56 48 57
REMARK SMILES IDX 49 58 63 60 84 61 51 62 35 63 36 64 44 65 37 66 43 67 45 68
REMARK SMILES IDX 42 69 38 70 39 71 40 72 41 73 67 74 68 75 76 76 69 77 75 78
REMARK SMILES IDX 77 79 74 80 70 81 71 82 72 83 73 84 52 85 53 86 61 87 54 88
REMARK SMILES IDX 60 89 62 90 59 91 55 92 56 93 57 94 58 95
REMARK H PARENT 18 6 3 17 10 18 23 29 82 48 50 59
REMARK Flexibility Score: inf
ROOT
ATOM      1  C   UNL A   1      33.277  31.182  27.635  1.00  0.00     0.023 C 
ENDROOT
BRANCH   1   2
ATOM      2  C   UNL A   1      33.296  30.073  26.583  1.00  0.00     0.116 C 
BRANCH   2   3
ATOM      3  N   UNL A   1      32.453  28.959  26.958  1.00  0.00    -0.354 N 
ATOM      4  C   UNL A   1      32.503  27.658  26.554  1.00  0.00     0.249 C 
ATOM      5  O   UNL A   1      31.657  26.882  27.014  1.00  0.00    -0.272 OA
ATOM      6  H   UNL A   1      31.737  29.172  27.600  1.00  0.00     0.163 HD
BRANCH   4   7
ATOM      7  C   UNL A   1      33.540  27.158  25.522  1.00  0.00     0.207 C 
ATOM      8  C   UNL A   1      33.603  26.450  23.301  1.00  0.00     0.138 C 
ATOM      9  C   UNL A   1      33.375  25.201  24.133  1.00  0.00     0.037 C 
ATOM     10  O   UNL A   1      33.315  27.560  24.170  1.00  0.00    -0.363 OA
ATOM     11  C   UNL A   1      33.736  25.647  25.533  1.00  0.00     0.045 C 
BRANCH   8  12
ATOM     12  C   UNL A   1      32.729  26.559  22.051  1.00  0.00     0.149 C 
BRANCH  12  13
ATOM     13  N   UNL A   1      31.644  27.511  22.171  1.00  0.00    -0.336 N 
ATOM     14  O   UNL A   1      30.213  26.044  23.168  1.00  0.00    -0.249 OA
ATOM     15  C   UNL A   1      30.473  27.173  22.763  1.00  0.00     0.314 C 
ATOM     16  N   UNL A   1      29.550  28.148  22.915  1.00  0.00    -0.338 N 
ATOM     17  H   UNL A   1      28.747  27.867  23.410  1.00  0.00     0.165 HD
ATOM     18  H   UNL A   1      31.761  28.422  21.815  1.00  0.00     0.165 HD
BRANCH  16  19
ATOM     19  C   UNL A   1      29.522  29.529  22.484  1.00  0.00     0.123 C 
BRANCH  19  20
ATOM     20  C   UNL A   1      28.117  30.106  22.246  1.00  0.00     0.036 C 
ATOM     21  C   UNL A   1      27.990  30.984  21.015  1.00  0.00     0.036 C 
ATOM     22  C   UNL A   1      27.642  31.037  23.350  1.00  0.00     0.165 C 
ATOM     23  C   UNL A   1      28.233  32.385  21.544  1.00  0.00     0.160 C 
ATOM     24  O   UNL A   1      27.881  32.382  22.933  1.00  0.00    -0.381 OA
ENDBRANCH  19  20
ENDBRANCH  16  19
ENDBRANCH  12  13
ENDBRANCH   8  12
ENDBRANCH   4   7
ENDBRANCH   2   3
ENDBRANCH   1   2
BRANCH   1  25
ATOM     25  C   UNL A   1      32.312  32.325  27.325  1.00  0.00     0.023 C 
BRANCH  25  26
ATOM     26  C   UNL A   1      32.979  33.662  27.018  1.00  0.00     0.116 C 
BRANCH  26  27
ATOM     27  N   UNL A   1      32.602  34.729  27.932  1.00  0.00    -0.352 N 
ATOM     28  C   UNL A   1      33.134  35.011  29.170  1.00  0.00     0.251 C 
ATOM     29  H   UNL A   1      31.878  35.323  27.629  1.00  0.00     0.163 HD
ATOM     30  O   UNL A   1      32.634  35.876  29.883  1.00  0.00    -0.269 OA
BRANCH  28  31
ATOM     31  C   UNL A   1      34.286  34.220  29.652  1.00  0.00     0.039 A 
ATOM     32  C   UNL A   1      35.568  34.558  29.212  1.00  0.00     0.014 A 
ATOM     33  C   UNL A   1      34.105  33.189  30.578  1.00  0.00     0.014 A 
ATOM     34  C   UNL A   1      36.677  33.914  29.764  1.00  0.00     0.010 A 
ATOM     35  C   UNL A   1      35.214  32.598  31.177  1.00  0.00     0.010 A 
ATOM     36  C   UNL A   1      36.511  32.960  30.783  1.00  0.00    -0.014 A 
BRANCH  36  37
ATOM     37  C   UNL A   1      37.681  32.342  31.459  1.00  0.00     0.031 A 
ATOM     38  C   UNL A   1      38.427  31.218  30.793  1.00  0.00     0.074 A 
ATOM     39  C   UNL A   1      38.017  32.740  32.703  1.00  0.00     0.049 A 
ATOM     40  N   UNL A   1      39.416  30.496  31.252  1.00  0.00    -0.248 NA
ATOM     41  C   UNL A   1      37.981  30.838  29.443  1.00  0.00     0.031 C 
ATOM     42  C   UNL A   1      37.336  33.788  33.470  1.00  0.00     0.029 A 
ATOM     43  N   UNL A   1      39.007  32.305  33.550  1.00  0.00    -0.354 N 
ATOM     44  C   UNL A   1      39.693  29.559  30.262  1.00  0.00     0.074 A 
ATOM     45  C   UNL A   1      38.739  29.779  29.196  1.00  0.00     0.031 C 
ATOM     46  C   UNL A   1      37.941  33.927  34.661  1.00  0.00     0.029 A 
ATOM     47  C   UNL A   1      39.022  32.952  34.765  1.00  0.00     0.049 A 
ATOM     48  H   UNL A   1      39.647  31.597  33.310  1.00  0.00     0.167 HD
ATOM     49  C   UNL A   1      40.665  28.614  30.240  1.00  0.00     0.034 A 
ATOM     50  C   UNL A   1      39.809  32.771  35.845  1.00  0.00     0.034 A 
ATOM     51  C   UNL A   1      41.631  28.433  31.296  1.00  0.00     0.049 A 
ATOM     52  C   UNL A   1      40.883  31.711  35.790  1.00  0.00     0.074 A 
ATOM     53  C   UNL A   1      42.714  27.573  31.330  1.00  0.00     0.029 A 
ATOM     54  N   UNL A   1      41.626  29.116  32.505  1.00  0.00    -0.354 N 
ATOM     55  N   UNL A   1      41.182  30.888  34.811  1.00  0.00    -0.248 NA
ATOM     56  C   UNL A   1      41.730  31.564  36.980  1.00  0.00     0.031 C 
ATOM     57  C   UNL A   1      43.325  27.688  32.585  1.00  0.00     0.029 A 
ATOM     58  C   UNL A   1      42.666  28.670  33.306  1.00  0.00     0.049 A 
ATOM     59  H   UNL A   1      40.979  29.814  32.756  1.00  0.00     0.167 HD
ATOM     60  C   UNL A   1      42.277  30.153  35.257  1.00  0.00     0.074 A 
ATOM     61  C   UNL A   1      42.593  30.640  36.584  1.00  0.00     0.031 C 
ATOM     62  C   UNL A   1      42.966  29.168  34.627  1.00  0.00     0.034 A 
BRANCH  49  63
ATOM     63  C   UNL A   1      40.715  27.687  29.052  1.00  0.00     0.023 A 
ATOM     64  C   UNL A   1      41.641  27.865  28.009  1.00  0.00     0.031 A 
ATOM     65  C   UNL A   1      39.823  26.604  28.963  1.00  0.00     0.131 A 
ATOM     66  C   UNL A   1      41.615  27.009  26.897  1.00  0.00     0.055 A 
ATOM     67  C   UNL A   1      39.849  25.714  27.888  1.00  0.00     0.041 A 
ATOM     68  F   UNL A   1      38.905  26.396  29.920  1.00  0.00    -0.206 F 
ATOM     69  C   UNL A   1      40.742  25.921  26.841  1.00  0.00     0.022 A 
BRANCH  66  70
ATOM     70  S   UNL A   1      42.664  27.406  25.472  1.00  0.00     0.124 S 
ATOM     71  O   UNL A   1      42.565  26.180  24.683  1.00  0.00    -0.237 OA
ATOM     72  O   UNL A   1      42.008  28.582  24.912  1.00  0.00    -0.237 OA
ATOM     73  O   UNL A   1      43.976  27.650  26.069  1.00  0.00    -0.744 OA
ENDBRANCH  66  70
ENDBRANCH  49  63
BRANCH  50  74
ATOM     74  C   UNL A   1      39.619  33.587  37.079  1.00  0.00     0.023 A 
ATOM     75  C   UNL A   1      40.390  34.739  37.305  1.00  0.00     0.031 A 
ATOM     76  C   UNL A   1      38.721  33.190  38.085  1.00  0.00     0.131 A 
ATOM     77  C   UNL A   1      40.299  35.415  38.532  1.00  0.00     0.055 A 
ATOM     78  C   UNL A   1      38.589  33.901  39.280  1.00  0.00     0.041 A 
ATOM     79  F   UNL A   1      37.956  32.099  37.921  1.00  0.00    -0.206 F 
ATOM     80  C   UNL A   1      39.394  35.010  39.516  1.00  0.00     0.022 A 
BRANCH  77  81
ATOM     81  S   UNL A   1      41.464  36.765  38.867  1.00  0.00     0.124 S 
ATOM     82  O   UNL A   1      42.072  36.965  37.556  1.00  0.00    -0.237 OA
ATOM     83  O   UNL A   1      40.573  37.824  39.330  1.00  0.00    -0.237 OA
ATOM     84  O   UNL A   1      42.348  36.205  39.886  1.00  0.00    -0.744 OA
ENDBRANCH  77  81
ENDBRANCH  50  74
BRANCH  62  85
ATOM     85  C   UNL A   1      44.158  28.595  35.351  1.00  0.00     0.023 A 
ATOM     86  C   UNL A   1      44.027  27.556  36.288  1.00  0.00     0.031 A 
ATOM     87  C   UNL A   1      45.444  29.110  35.108  1.00  0.00     0.131 A 
ATOM     88  C   UNL A   1      45.155  27.100  36.987  1.00  0.00     0.055 A 
ATOM     89  C   UNL A   1      46.570  28.613  35.763  1.00  0.00     0.041 A 
ATOM     90  F   UNL A   1      45.626  30.105  34.223  1.00  0.00    -0.206 F 
ATOM     91  C   UNL A   1      46.427  27.611  36.719  1.00  0.00     0.022 A 
BRANCH  88  92
ATOM     92  S   UNL A   1      44.924  25.889  38.318  1.00  0.00     0.124 S 
ATOM     93  O   UNL A   1      44.009  24.934  37.703  1.00  0.00    -0.237 OA
ATOM     94  O   UNL A   1      46.285  25.412  38.546  1.00  0.00    -0.237 OA
ATOM     95  O   UNL A   1      44.355  26.681  39.407  1.00  0.00    -0.744 OA
ENDBRANCH  88  92
ENDBRANCH  62  85
ENDBRANCH  36  37
ENDBRANCH  28  31
ENDBRANCH  26  27
ENDBRANCH  25  26
ENDBRANCH   1  25
TORSDOF 18
ENDMDL
