MODEL 1
REMARK VINA RESULT:     -11.9      0.000      0.000
REMARK SMILES CC(C)N(c1cc2c(cc1Cl)C=C(C(=O)NCCCCNC(=O)c1ccc(-c3c4nc(c(-c5cc(S(=O)(=O)[O-])ccc5F)c5ccc([nH]5)c(-c5cc(S(=O)(=O)[O-])ccc5F)c5nc(c(-c6cc(S(=O)(=O)[O-])ccc6F)c6ccc3[nH]6)C=C5)C=C4)cc1)[C@@H](C(F)(F)F)O2)C(C)C
REMARK SMILES IDX 19 1 18 2 17 3 16 4 14 5 15 6 13 8 5 9 6 10 10 11 7 12 9 13
REMARK SMILES IDX 11 14 8 15 92 16 12 17 87 18 4 19 2 20 1 21 3 22 93 23 94 24
REMARK SMILES IDX 95 25 88 26 89 27 90 28 91 29 20 30 21 31 22 32 23 34 24 35
REMARK SMILES IDX 25 36 86 37 26 38 85 39 27 40 28 41 29 42 79 43 30 44 84 45
REMARK SMILES IDX 78 46 80 47 31 48 83 49 77 50 76 51 32 53 64 54 44 55 63 56
REMARK SMILES IDX 45 57 48 58 62 59 81 60 46 61 47 62 61 64 82 65 49 66 33 67
REMARK SMILES IDX 34 68 42 69 35 70 41 71 43 72 40 73 36 74 37 75 38 76 39 77
REMARK SMILES IDX 65 78 66 79 74 80 67 81 73 82 75 83 72 84 68 85 69 86 70 87
REMARK SMILES IDX 71 88 50 89 51 90 59 91 52 92 58 93 60 94 57 95 53 96 54 97
REMARK SMILES IDX 55 98 56 99
REMARK H PARENT 16 7 21 33 80 52 48 63
REMARK Flexibility Score: inf
ROOT
ATOM      1  C   UNL A   1      37.731  21.499  24.486  1.00  0.00     0.023 C 
ENDROOT
BRANCH   1   2
ATOM      2  C   UNL A   1      36.221  21.636  24.693  1.00  0.00     0.023 C 
BRANCH   2   3
ATOM      3  C   UNL A   1      35.565  20.429  25.356  1.00  0.00     0.116 C 
BRANCH   3   4
ATOM      4  N   UNL A   1      34.382  19.986  24.638  1.00  0.00    -0.352 N 
ATOM      5  C   UNL A   1      33.204  20.527  24.249  1.00  0.00     0.251 C 
ATOM      6  O   UNL A   1      32.450  19.767  23.633  1.00  0.00    -0.270 OA
ATOM      7  H   UNL A   1      34.458  19.045  24.361  1.00  0.00     0.163 HD
BRANCH   5   8
ATOM      8  C   UNL A   1      32.773  21.933  24.506  1.00  0.00     0.067 C 
ATOM      9  C   UNL A   1      31.976  26.933  24.200  1.00  0.00     0.060 A 
ATOM     10  C   UNL A   1      31.419  25.875  24.941  1.00  0.00     0.074 A 
ATOM     11  C   UNL A   1      32.943  26.588  23.224  1.00  0.00     0.065 A 
ATOM     12  C   UNL A   1      31.826  24.554  24.748  1.00  0.00     0.130 A 
ATOM     13  C   UNL A   1      33.308  25.251  22.996  1.00  0.00     0.034 A 
ATOM     14  Cl  UNL A   1      33.813  27.777  22.309  1.00  0.00    -0.082 Cl
ATOM     15  C   UNL A   1      32.754  24.229  23.763  1.00  0.00     0.019 A 
ATOM     16  O   UNL A   1      31.254  23.605  25.549  1.00  0.00    -0.475 OA
ATOM     17  C   UNL A   1      33.111  22.831  23.559  1.00  0.00     0.025 C 
ATOM     18  C   UNL A   1      32.048  22.396  25.739  1.00  0.00     0.314 C 
BRANCH   9  19
ATOM     19  N   UNL A   1      31.563  28.254  24.474  1.00  0.00    -0.365 N 
BRANCH  19  20
ATOM     20  C   UNL A   1      30.320  28.710  23.814  1.00  0.00     0.076 C 
ATOM     21  C   UNL A   1      30.091  30.214  23.953  1.00  0.00     0.030 C 
ATOM     22  C   UNL A   1      30.219  28.276  22.354  1.00  0.00     0.030 C 
ENDBRANCH  19  20
BRANCH  19  23
ATOM     23  C   UNL A   1      32.311  28.967  25.533  1.00  0.00     0.076 C 
ATOM     24  C   UNL A   1      31.693  28.781  26.917  1.00  0.00     0.030 C 
ATOM     25  C   UNL A   1      33.804  28.655  25.547  1.00  0.00     0.030 C 
ENDBRANCH  19  23
ENDBRANCH   9  19
BRANCH  18  26
ATOM     26  C   UNL A   1      32.995  22.579  26.943  1.00  0.00     0.429 C 
ATOM     27  F   UNL A   1      34.122  23.233  26.564  1.00  0.00    -0.167 F 
ATOM     28  F   UNL A   1      32.437  23.315  27.934  1.00  0.00    -0.167 F 
ATOM     29  F   UNL A   1      33.377  21.405  27.494  1.00  0.00    -0.167 F 
ENDBRANCH  18  26
ENDBRANCH   5   8
ENDBRANCH   3   4
ENDBRANCH   2   3
ENDBRANCH   1   2
BRANCH   1  30
ATOM     30  C   UNL A   1      38.558  21.346  25.760  1.00  0.00     0.116 C 
BRANCH  30  31
ATOM     31  N   UNL A   1      39.322  20.108  25.834  1.00  0.00    -0.352 N 
ATOM     32  C   UNL A   1      40.651  19.961  26.176  1.00  0.00     0.251 C 
ATOM     33  H   UNL A   1      38.835  19.281  25.615  1.00  0.00     0.163 HD
ATOM     34  O   UNL A   1      41.190  18.861  26.136  1.00  0.00    -0.269 OA
BRANCH  32  35
ATOM     35  C   UNL A   1      41.417  21.174  26.528  1.00  0.00     0.039 A 
ATOM     36  C   UNL A   1      41.543  21.551  27.866  1.00  0.00     0.014 A 
ATOM     37  C   UNL A   1      41.888  21.999  25.505  1.00  0.00     0.014 A 
ATOM     38  C   UNL A   1      41.973  22.835  28.171  1.00  0.00     0.010 A 
ATOM     39  C   UNL A   1      42.393  23.262  25.822  1.00  0.00     0.010 A 
ATOM     40  C   UNL A   1      42.380  23.713  27.151  1.00  0.00    -0.014 A 
BRANCH  40  41
ATOM     41  C   UNL A   1      42.761  25.105  27.499  1.00  0.00     0.031 A 
ATOM     42  C   UNL A   1      44.108  25.655  27.113  1.00  0.00     0.074 A 
ATOM     43  C   UNL A   1      41.857  25.896  28.107  1.00  0.00     0.049 A 
ATOM     44  N   UNL A   1      44.591  26.856  27.301  1.00  0.00    -0.248 NA
ATOM     45  C   UNL A   1      45.037  24.739  26.429  1.00  0.00     0.031 C 
ATOM     46  C   UNL A   1      40.518  25.469  28.512  1.00  0.00     0.029 A 
ATOM     47  N   UNL A   1      41.909  27.219  28.466  1.00  0.00    -0.354 N 
ATOM     48  C   UNL A   1      45.879  26.838  26.779  1.00  0.00     0.074 A 
ATOM     49  C   UNL A   1      46.116  25.499  26.289  1.00  0.00     0.031 C 
ATOM     50  C   UNL A   1      39.855  26.521  29.009  1.00  0.00     0.029 A 
ATOM     51  C   UNL A   1      40.742  27.682  29.026  1.00  0.00     0.049 A 
ATOM     52  H   UNL A   1      42.706  27.782  28.335  1.00  0.00     0.167 HD
ATOM     53  C   UNL A   1      46.775  27.852  26.703  1.00  0.00     0.034 A 
ATOM     54  C   UNL A   1      40.420  28.899  29.508  1.00  0.00     0.034 A 
ATOM     55  C   UNL A   1      46.513  29.189  27.172  1.00  0.00     0.049 A 
ATOM     56  C   UNL A   1      41.441  30.003  29.433  1.00  0.00     0.074 A 
ATOM     57  C   UNL A   1      47.349  30.291  27.118  1.00  0.00     0.029 A 
ATOM     58  N   UNL A   1      45.335  29.611  27.770  1.00  0.00    -0.354 N 
ATOM     59  N   UNL A   1      42.643  29.976  28.909  1.00  0.00    -0.248 NA
ATOM     60  C   UNL A   1      41.070  31.300  30.014  1.00  0.00     0.031 C 
ATOM     61  C   UNL A   1      46.696  31.365  27.724  1.00  0.00     0.029 A 
ATOM     62  C   UNL A   1      45.430  30.951  28.110  1.00  0.00     0.049 A 
ATOM     63  H   UNL A   1      44.548  29.042  27.931  1.00  0.00     0.167 HD
ATOM     64  C   UNL A   1      43.170  31.250  29.091  1.00  0.00     0.074 A 
ATOM     65  C   UNL A   1      42.142  32.034  29.745  1.00  0.00     0.031 C 
ATOM     66  C   UNL A   1      44.397  31.724  28.757  1.00  0.00     0.034 A 
BRANCH  53  67
ATOM     67  C   UNL A   1      48.121  27.582  26.083  1.00  0.00     0.023 A 
ATOM     68  C   UNL A   1      48.283  27.662  24.687  1.00  0.00     0.031 A 
ATOM     69  C   UNL A   1      49.205  27.129  26.855  1.00  0.00     0.131 A 
ATOM     70  C   UNL A   1      49.494  27.267  24.103  1.00  0.00     0.055 A 
ATOM     71  C   UNL A   1      50.420  26.766  26.270  1.00  0.00     0.041 A 
ATOM     72  F   UNL A   1      49.100  27.040  28.191  1.00  0.00    -0.206 F 
ATOM     73  C   UNL A   1      50.564  26.824  24.888  1.00  0.00     0.022 A 
BRANCH  70  74
ATOM     74  S   UNL A   1      49.713  27.264  22.302  1.00  0.00     0.124 S 
ATOM     75  O   UNL A   1      49.359  28.639  21.957  1.00  0.00    -0.237 OA
ATOM     76  O   UNL A   1      51.128  26.931  22.168  1.00  0.00    -0.237 OA
ATOM     77  O   UNL A   1      48.778  26.246  21.837  1.00  0.00    -0.744 OA
ENDBRANCH  70  74
ENDBRANCH  53  67
BRANCH  54  78
ATOM     78  C   UNL A   1      39.051  29.118  30.056  1.00  0.00     0.023 A 
ATOM     79  C   UNL A   1      38.086  29.833  29.322  1.00  0.00     0.031 A 
ATOM     80  C   UNL A   1      38.732  28.733  31.368  1.00  0.00     0.131 A 
ATOM     81  C   UNL A   1      36.885  30.214  29.934  1.00  0.00     0.055 A 
ATOM     82  C   UNL A   1      37.503  29.050  31.949  1.00  0.00     0.041 A 
ATOM     83  F   UNL A   1      39.624  28.059  32.110  1.00  0.00    -0.206 F 
ATOM     84  C   UNL A   1      36.582  29.814  31.239  1.00  0.00     0.022 A 
BRANCH  81  85
ATOM     85  S   UNL A   1      35.755  31.373  29.114  1.00  0.00     0.124 S 
ATOM     86  O   UNL A   1      35.006  31.915  30.243  1.00  0.00    -0.237 OA
ATOM     87  O   UNL A   1      36.688  32.298  28.473  1.00  0.00    -0.237 OA
ATOM     88  O   UNL A   1      34.998  30.527  28.198  1.00  0.00    -0.744 OA
ENDBRANCH  81  85
ENDBRANCH  54  78
BRANCH  66  89
ATOM     89  C   UNL A   1      44.728  33.155  29.095  1.00  0.00     0.023 A 
ATOM     90  C   UNL A   1      44.299  34.199  28.253  1.00  0.00     0.031 A 
ATOM     91  C   UNL A   1      45.590  33.466  30.160  1.00  0.00     0.131 A 
ATOM     92  C   UNL A   1      44.763  35.502  28.472  1.00  0.00     0.055 A 
ATOM     93  C   UNL A   1      46.019  34.774  30.396  1.00  0.00     0.041 A 
ATOM     94  F   UNL A   1      46.033  32.502  30.983  1.00  0.00    -0.206 F 
ATOM     95  C   UNL A   1      45.616  35.795  29.541  1.00  0.00     0.022 A 
BRANCH  92  96
ATOM     96  S   UNL A   1      44.345  36.847  27.329  1.00  0.00     0.124 S 
ATOM     97  O   UNL A   1      43.398  36.194  26.429  1.00  0.00    -0.237 OA
ATOM     98  O   UNL A   1      43.766  37.844  28.226  1.00  0.00    -0.237 OA
ATOM     99  O   UNL A   1      45.624  37.210  26.728  1.00  0.00    -0.744 OA
ENDBRANCH  92  96
ENDBRANCH  66  89
ENDBRANCH  40  41
ENDBRANCH  32  35
ENDBRANCH  30  31
ENDBRANCH   1  30
TORSDOF 18
ENDMDL
MODEL 2
REMARK VINA RESULT:     -11.8      1.962      7.610
REMARK SMILES CC(C)N(c1cc2c(cc1Cl)C=C(C(=O)NCCCCNC(=O)c1ccc(-c3c4nc(c(-c5cc(S(=O)(=O)[O-])ccc5F)c5ccc([nH]5)c(-c5cc(S(=O)(=O)[O-])ccc5F)c5nc(c(-c6cc(S(=O)(=O)[O-])ccc6F)c6ccc3[nH]6)C=C5)C=C4)cc1)[C@@H](C(F)(F)F)O2)C(C)C
REMARK SMILES IDX 19 1 18 2 17 3 16 4 14 5 15 6 13 8 5 9 6 10 10 11 7 12 9 13
REMARK SMILES IDX 11 14 8 15 92 16 12 17 87 18 4 19 2 20 1 21 3 22 93 23 94 24
REMARK SMILES IDX 95 25 88 26 89 27 90 28 91 29 20 30 21 31 22 32 23 34 24 35
REMARK SMILES IDX 25 36 86 37 26 38 85 39 27 40 28 41 29 42 79 43 30 44 84 45
REMARK SMILES IDX 78 46 80 47 31 48 83 49 77 50 76 51 32 53 64 54 44 55 63 56
REMARK SMILES IDX 45 57 48 58 62 59 81 60 46 61 47 62 61 64 82 65 49 66 33 67
REMARK SMILES IDX 34 68 42 69 35 70 41 71 43 72 40 73 36 74 37 75 38 76 39 77
REMARK SMILES IDX 65 78 66 79 74 80 67 81 73 82 75 83 72 84 68 85 69 86 70 87
REMARK SMILES IDX 71 88 50 89 51 90 59 91 52 92 58 93 60 94 57 95 53 96 54 97
REMARK SMILES IDX 55 98 56 99
REMARK H PARENT 16 7 21 33 80 52 48 63
REMARK Flexibility Score: inf
ROOT
ATOM      1  C   UNL A   1      38.132  21.397  25.069  1.00  0.00     0.023 C 
ENDROOT
BRANCH   1   2
ATOM      2  C   UNL A   1      36.737  20.990  25.549  1.00  0.00     0.023 C 
BRANCH   2   3
ATOM      3  C   UNL A   1      36.148  19.785  24.821  1.00  0.00     0.116 C 
BRANCH   3   4
ATOM      4  N   UNL A   1      34.787  19.503  25.243  1.00  0.00    -0.352 N 
ATOM      5  C   UNL A   1      33.609  20.168  25.283  1.00  0.00     0.251 C 
ATOM      6  O   UNL A   1      32.655  19.529  25.738  1.00  0.00    -0.270 OA
ATOM      7  H   UNL A   1      34.698  18.588  25.592  1.00  0.00     0.163 HD
BRANCH   5   8
ATOM      8  C   UNL A   1      33.394  21.574  24.827  1.00  0.00     0.067 C 
ATOM      9  C   UNL A   1      32.375  26.538  24.605  1.00  0.00     0.060 A 
ATOM     10  C   UNL A   1      33.011  25.608  23.762  1.00  0.00     0.074 A 
ATOM     11  C   UNL A   1      31.964  26.068  25.876  1.00  0.00     0.065 A 
ATOM     12  C   UNL A   1      33.196  24.280  24.146  1.00  0.00     0.130 A 
ATOM     13  C   UNL A   1      32.202  24.743  26.279  1.00  0.00     0.034 A 
ATOM     14  Cl  UNL A   1      31.063  27.047  26.988  1.00  0.00    -0.082 Cl
ATOM     15  C   UNL A   1      32.814  23.843  25.410  1.00  0.00     0.019 A 
ATOM     16  O   UNL A   1      33.785  23.446  23.236  1.00  0.00    -0.475 OA
ATOM     17  C   UNL A   1      33.074  22.460  25.791  1.00  0.00     0.025 C 
ATOM     18  C   UNL A   1      33.469  22.032  23.397  1.00  0.00     0.314 C 
BRANCH   9  19
ATOM     19  N   UNL A   1      32.170  27.855  24.143  1.00  0.00    -0.365 N 
BRANCH  19  20
ATOM     20  C   UNL A   1      30.794  28.207  23.731  1.00  0.00     0.076 C 
ATOM     21  C   UNL A   1      30.432  29.657  24.042  1.00  0.00     0.030 C 
ATOM     22  C   UNL A   1      30.500  27.873  22.270  1.00  0.00     0.030 C 
ENDBRANCH  19  20
BRANCH  19  23
ATOM     23  C   UNL A   1      33.308  28.789  24.302  1.00  0.00     0.076 C 
ATOM     24  C   UNL A   1      34.112  28.527  25.573  1.00  0.00     0.030 C 
ATOM     25  C   UNL A   1      34.215  28.865  23.078  1.00  0.00     0.030 C 
ENDBRANCH  19  23
ENDBRANCH   9  19
BRANCH  18  26
ATOM     26  C   UNL A   1      32.189  21.692  22.604  1.00  0.00     0.429 C 
ATOM     27  F   UNL A   1      31.162  22.487  22.999  1.00  0.00    -0.167 F 
ATOM     28  F   UNL A   1      32.337  21.888  21.272  1.00  0.00    -0.167 F 
ATOM     29  F   UNL A   1      31.793  20.410  22.770  1.00  0.00    -0.167 F 
ENDBRANCH  18  26
ENDBRANCH   5   8
ENDBRANCH   3   4
ENDBRANCH   2   3
ENDBRANCH   1   2
BRANCH   1  30
ATOM     30  C   UNL A   1      39.241  21.299  26.114  1.00  0.00     0.116 C 
BRANCH  30  31
ATOM     31  N   UNL A   1      40.030  20.077  26.038  1.00  0.00    -0.352 N 
ATOM     32  C   UNL A   1      41.402  19.957  26.129  1.00  0.00     0.251 C 
ATOM     33  H   UNL A   1      39.528  19.241  25.906  1.00  0.00     0.163 HD
ATOM     34  O   UNL A   1      41.946  18.869  25.982  1.00  0.00    -0.269 OA
BRANCH  32  35
ATOM     35  C   UNL A   1      42.195  21.184  26.342  1.00  0.00     0.039 A 
ATOM     36  C   UNL A   1      42.493  21.600  27.641  1.00  0.00     0.014 A 
ATOM     37  C   UNL A   1      42.518  21.983  25.244  1.00  0.00     0.014 A 
ATOM     38  C   UNL A   1      42.947  22.895  27.850  1.00  0.00     0.010 A 
ATOM     39  C   UNL A   1      43.048  23.258  25.456  1.00  0.00     0.010 A 
ATOM     40  C   UNL A   1      43.207  23.746  26.762  1.00  0.00    -0.014 A 
BRANCH  40  41
ATOM     41  C   UNL A   1      43.616  25.151  27.018  1.00  0.00     0.031 A 
ATOM     42  C   UNL A   1      42.636  26.147  27.578  1.00  0.00     0.074 A 
ATOM     43  C   UNL A   1      44.896  25.506  26.806  1.00  0.00     0.049 A 
ATOM     44  N   UNL A   1      42.831  27.400  27.899  1.00  0.00    -0.248 NA
ATOM     45  C   UNL A   1      41.258  25.681  27.808  1.00  0.00     0.031 C 
ATOM     46  C   UNL A   1      45.930  24.615  26.280  1.00  0.00     0.029 A 
ATOM     47  N   UNL A   1      45.555  26.688  27.029  1.00  0.00    -0.354 N 
ATOM     48  C   UNL A   1      41.606  27.877  28.349  1.00  0.00     0.074 A 
ATOM     49  C   UNL A   1      40.663  26.787  28.235  1.00  0.00     0.031 C 
ATOM     50  C   UNL A   1      47.103  25.262  26.274  1.00  0.00     0.029 A 
ATOM     51  C   UNL A   1      46.895  26.635  26.728  1.00  0.00     0.049 A 
ATOM     52  H   UNL A   1      45.109  27.498  27.371  1.00  0.00     0.167 HD
ATOM     53  C   UNL A   1      41.301  29.108  28.827  1.00  0.00     0.034 A 
ATOM     54  C   UNL A   1      47.851  27.583  26.800  1.00  0.00     0.034 A 
ATOM     55  C   UNL A   1      42.258  30.176  28.958  1.00  0.00     0.049 A 
ATOM     56  C   UNL A   1      47.482  28.949  27.313  1.00  0.00     0.074 A 
ATOM     57  C   UNL A   1      42.051  31.452  29.454  1.00  0.00     0.029 A 
ATOM     58  N   UNL A   1      43.597  30.098  28.606  1.00  0.00    -0.354 N 
ATOM     59  N   UNL A   1      46.324  29.373  27.761  1.00  0.00    -0.248 NA
ATOM     60  C   UNL A   1      48.539  29.968  27.327  1.00  0.00     0.031 C 
ATOM     61  C   UNL A   1      43.250  32.158  29.357  1.00  0.00     0.029 A 
ATOM     62  C   UNL A   1      44.223  31.309  28.852  1.00  0.00     0.049 A 
ATOM     63  H   UNL A   1      44.039  29.300  28.235  1.00  0.00     0.167 HD
ATOM     64  C   UNL A   1      46.515  30.705  28.117  1.00  0.00     0.074 A 
ATOM     65  C   UNL A   1      47.909  31.006  27.862  1.00  0.00     0.031 C 
ATOM     66  C   UNL A   1      45.615  31.597  28.600  1.00  0.00     0.034 A 
BRANCH  53  67
ATOM     67  C   UNL A   1      39.884  29.385  29.259  1.00  0.00     0.023 A 
ATOM     68  C   UNL A   1      39.549  29.372  30.626  1.00  0.00     0.031 A 
ATOM     69  C   UNL A   1      38.848  29.537  28.321  1.00  0.00     0.131 A 
ATOM     70  C   UNL A   1      38.208  29.483  31.015  1.00  0.00     0.055 A 
ATOM     71  C   UNL A   1      37.517  29.677  28.715  1.00  0.00     0.041 A 
ATOM     72  F   UNL A   1      39.119  29.558  27.005  1.00  0.00    -0.206 F 
ATOM     73  C   UNL A   1      37.191  29.639  30.067  1.00  0.00     0.022 A 
BRANCH  70  74
ATOM     74  S   UNL A   1      37.723  29.377  32.760  1.00  0.00     0.124 S 
ATOM     75  O   UNL A   1      37.632  27.932  32.957  1.00  0.00    -0.237 OA
ATOM     76  O   UNL A   1      38.846  30.028  33.428  1.00  0.00    -0.237 OA
ATOM     77  O   UNL A   1      36.454  30.092  32.816  1.00  0.00    -0.744 OA
ENDBRANCH  70  74
ENDBRANCH  53  67
BRANCH  54  78
ATOM     78  C   UNL A   1      49.247  27.229  26.412  1.00  0.00     0.023 A 
ATOM     79  C   UNL A   1      49.814  27.729  25.224  1.00  0.00     0.031 A 
ATOM     80  C   UNL A   1      49.982  26.287  27.150  1.00  0.00     0.131 A 
ATOM     81  C   UNL A   1      51.036  27.221  24.767  1.00  0.00     0.055 A 
ATOM     82  C   UNL A   1      51.234  25.838  26.728  1.00  0.00     0.041 A 
ATOM     83  F   UNL A   1      49.477  25.775  28.283  1.00  0.00    -0.206 F 
ATOM     84  C   UNL A   1      51.756  26.289  25.519  1.00  0.00     0.022 A 
BRANCH  81  85
ATOM     85  S   UNL A   1      51.646  27.630  23.108  1.00  0.00     0.124 S 
ATOM     86  O   UNL A   1      51.382  29.064  23.034  1.00  0.00    -0.237 OA
ATOM     87  O   UNL A   1      53.054  27.251  23.204  1.00  0.00    -0.237 OA
ATOM     88  O   UNL A   1      50.840  26.792  22.228  1.00  0.00    -0.744 OA
ENDBRANCH  81  85
ENDBRANCH  54  78
BRANCH  66  89
ATOM     89  C   UNL A   1      46.081  33.003  28.882  1.00  0.00     0.023 A 
ATOM     90  C   UNL A   1      46.061  33.973  27.862  1.00  0.00     0.031 A 
ATOM     91  C   UNL A   1      46.681  33.335  30.109  1.00  0.00     0.131 A 
ATOM     92  C   UNL A   1      46.663  35.219  28.076  1.00  0.00     0.055 A 
ATOM     93  C   UNL A   1      47.245  34.592  30.330  1.00  0.00     0.041 A 
ATOM     94  F   UNL A   1      46.732  32.439  31.107  1.00  0.00    -0.206 F 
ATOM     95  C   UNL A   1      47.249  35.535  29.306  1.00  0.00     0.022 A 
BRANCH  92  96
ATOM     96  S   UNL A   1      46.780  36.444  26.743  1.00  0.00     0.124 S 
ATOM     97  O   UNL A   1      46.563  35.618  25.557  1.00  0.00    -0.237 OA
ATOM     98  O   UNL A   1      45.692  37.361  27.071  1.00  0.00    -0.237 OA
ATOM     99  O   UNL A   1      48.126  36.990  26.883  1.00  0.00    -0.744 OA
ENDBRANCH  92  96
ENDBRANCH  66  89
ENDBRANCH  40  41
ENDBRANCH  32  35
ENDBRANCH  30  31
ENDBRANCH   1  30
TORSDOF 18
ENDMDL
MODEL 3
REMARK VINA RESULT:     -11.8      5.517     10.784
REMARK SMILES CC(C)N(c1cc2c(cc1Cl)C=C(C(=O)NCCCCNC(=O)c1ccc(-c3c4nc(c(-c5cc(S(=O)(=O)[O-])ccc5F)c5ccc([nH]5)c(-c5cc(S(=O)(=O)[O-])ccc5F)c5nc(c(-c6cc(S(=O)(=O)[O-])ccc6F)c6ccc3[nH]6)C=C5)C=C4)cc1)[C@@H](C(F)(F)F)O2)C(C)C
REMARK SMILES IDX 19 1 18 2 17 3 16 4 14 5 15 6 13 8 5 9 6 10 10 11 7 12 9 13
REMARK SMILES IDX 11 14 8 15 92 16 12 17 87 18 4 19 2 20 1 21 3 22 93 23 94 24
REMARK SMILES IDX 95 25 88 26 89 27 90 28 91 29 20 30 21 31 22 32 23 34 24 35
REMARK SMILES IDX 25 36 86 37 26 38 85 39 27 40 28 41 29 42 79 43 30 44 84 45
REMARK SMILES IDX 78 46 80 47 31 48 83 49 77 50 76 51 32 53 64 54 44 55 63 56
REMARK SMILES IDX 45 57 48 58 62 59 81 60 46 61 47 62 61 64 82 65 49 66 33 67
REMARK SMILES IDX 34 68 42 69 35 70 41 71 43 72 40 73 36 74 37 75 38 76 39 77
REMARK SMILES IDX 65 78 66 79 74 80 67 81 73 82 75 83 72 84 68 85 69 86 70 87
REMARK SMILES IDX 71 88 50 89 51 90 59 91 52 92 58 93 60 94 57 95 53 96 54 97
REMARK SMILES IDX 55 98 56 99
REMARK H PARENT 16 7 21 33 80 52 48 63
REMARK Flexibility Score: inf
ROOT
ATOM      1  C   UNL A   1      32.390  30.413  26.881  1.00  0.00     0.023 C 
ENDROOT
BRANCH   1   2
ATOM      2  C   UNL A   1      32.035  30.109  25.423  1.00  0.00     0.023 C 
BRANCH   2   3
ATOM      3  C   UNL A   1      30.560  30.295  25.083  1.00  0.00     0.116 C 
BRANCH   3   4
ATOM      4  N   UNL A   1      30.310  30.188  23.656  1.00  0.00    -0.352 N 
ATOM      5  C   UNL A   1      30.600  29.310  22.667  1.00  0.00     0.251 C 
ATOM      6  O   UNL A   1      30.180  29.617  21.547  1.00  0.00    -0.270 OA
ATOM      7  H   UNL A   1      29.795  30.956  23.319  1.00  0.00     0.163 HD
BRANCH   5   8
ATOM      8  C   UNL A   1      31.364  28.039  22.837  1.00  0.00     0.067 C 
ATOM      9  C   UNL A   1      33.008  23.493  24.374  1.00  0.00     0.060 A 
ATOM     10  C   UNL A   1      33.239  24.315  23.256  1.00  0.00     0.074 A 
ATOM     11  C   UNL A   1      32.032  23.936  25.300  1.00  0.00     0.065 A 
ATOM     12  C   UNL A   1      32.565  25.524  23.086  1.00  0.00     0.130 A 
ATOM     13  C   UNL A   1      31.317  25.128  25.096  1.00  0.00     0.034 A 
ATOM     14  Cl  UNL A   1      31.711  23.106  26.789  1.00  0.00    -0.082 Cl
ATOM     15  C   UNL A   1      31.587  25.930  23.989  1.00  0.00     0.019 A 
ATOM     16  O   UNL A   1      32.893  26.270  21.987  1.00  0.00    -0.475 OA
ATOM     17  C   UNL A   1      30.869  27.174  23.745  1.00  0.00     0.025 C 
ATOM     18  C   UNL A   1      32.637  27.700  22.111  1.00  0.00     0.314 C 
BRANCH   9  19
ATOM     19  N   UNL A   1      33.756  22.305  24.519  1.00  0.00    -0.365 N 
BRANCH  19  20
ATOM     20  C   UNL A   1      33.150  21.070  23.978  1.00  0.00     0.076 C 
ATOM     21  C   UNL A   1      32.461  20.227  25.050  1.00  0.00     0.030 C 
ATOM     22  C   UNL A   1      32.213  21.324  22.800  1.00  0.00     0.030 C 
ENDBRANCH  19  20
BRANCH  19  23
ATOM     23  C   UNL A   1      35.139  22.460  25.023  1.00  0.00     0.076 C 
ATOM     24  C   UNL A   1      36.183  22.372  23.913  1.00  0.00     0.030 C 
ATOM     25  C   UNL A   1      35.345  23.706  25.878  1.00  0.00     0.030 C 
ENDBRANCH  19  23
ENDBRANCH   9  19
BRANCH  18  26
ATOM     26  C   UNL A   1      33.868  28.398  22.725  1.00  0.00     0.429 C 
ATOM     27  F   UNL A   1      34.956  28.224  21.933  1.00  0.00    -0.167 F 
ATOM     28  F   UNL A   1      33.695  29.735  22.855  1.00  0.00    -0.167 F 
ATOM     29  F   UNL A   1      34.183  27.923  23.952  1.00  0.00    -0.167 F 
ENDBRANCH  18  26
ENDBRANCH   5   8
ENDBRANCH   3   4
ENDBRANCH   2   3
ENDBRANCH   1   2
BRANCH   1  30
ATOM     30  C   UNL A   1      33.436  31.505  27.088  1.00  0.00     0.116 C 
BRANCH  30  31
ATOM     31  N   UNL A   1      32.880  32.830  27.329  1.00  0.00    -0.352 N 
ATOM     32  C   UNL A   1      33.325  33.775  28.230  1.00  0.00     0.251 C 
ATOM     33  H   UNL A   1      32.098  33.080  26.786  1.00  0.00     0.163 HD
ATOM     34  O   UNL A   1      32.722  34.832  28.378  1.00  0.00    -0.269 OA
BRANCH  32  35
ATOM     35  C   UNL A   1      34.506  33.450  29.055  1.00  0.00     0.039 A 
ATOM     36  C   UNL A   1      35.775  33.856  28.639  1.00  0.00     0.014 A 
ATOM     37  C   UNL A   1      34.349  32.622  30.168  1.00  0.00     0.014 A 
ATOM     38  C   UNL A   1      36.896  33.284  29.227  1.00  0.00     0.010 A 
ATOM     39  C   UNL A   1      35.481  32.110  30.806  1.00  0.00     0.010 A 
ATOM     40  C   UNL A   1      36.761  32.388  30.300  1.00  0.00    -0.014 A 
BRANCH  40  41
ATOM     41  C   UNL A   1      37.972  31.732  30.857  1.00  0.00     0.031 A 
ATOM     42  C   UNL A   1      38.429  32.026  32.261  1.00  0.00     0.074 A 
ATOM     43  C   UNL A   1      38.619  30.818  30.113  1.00  0.00     0.049 A 
ATOM     44  N   UNL A   1      39.437  31.517  32.921  1.00  0.00    -0.248 NA
ATOM     45  C   UNL A   1      37.657  33.020  33.026  1.00  0.00     0.031 C 
ATOM     46  C   UNL A   1      38.252  30.447  28.746  1.00  0.00     0.029 A 
ATOM     47  N   UNL A   1      39.695  30.017  30.398  1.00  0.00    -0.354 N 
ATOM     48  C   UNL A   1      39.435  32.137  34.165  1.00  0.00     0.074 A 
ATOM     49  C   UNL A   1      38.340  33.082  34.162  1.00  0.00     0.031 C 
ATOM     50  C   UNL A   1      39.049  29.453  28.333  1.00  0.00     0.029 A 
ATOM     51  C   UNL A   1      40.031  29.162  29.375  1.00  0.00     0.049 A 
ATOM     52  H   UNL A   1      40.181  30.051  31.255  1.00  0.00     0.167 HD
ATOM     53  C   UNL A   1      40.262  31.925  35.217  1.00  0.00     0.034 A 
ATOM     54  C   UNL A   1      41.020  28.251  29.279  1.00  0.00     0.034 A 
ATOM     55  C   UNL A   1      41.332  30.961  35.213  1.00  0.00     0.049 A 
ATOM     56  C   UNL A   1      41.939  28.051  30.453  1.00  0.00     0.074 A 
ATOM     57  C   UNL A   1      42.210  30.657  36.239  1.00  0.00     0.029 A 
ATOM     58  N   UNL A   1      41.668  30.142  34.145  1.00  0.00    -0.354 N 
ATOM     59  N   UNL A   1      41.904  28.625  31.632  1.00  0.00    -0.248 NA
ATOM     60  C   UNL A   1      43.036  27.086  30.289  1.00  0.00     0.031 C 
ATOM     61  C   UNL A   1      43.104  29.690  35.777  1.00  0.00     0.029 A 
ATOM     62  C   UNL A   1      42.753  29.348  34.479  1.00  0.00     0.049 A 
ATOM     63  H   UNL A   1      41.203  30.127  33.277  1.00  0.00     0.167 HD
ATOM     64  C   UNL A   1      42.966  28.088  32.352  1.00  0.00     0.074 A 
ATOM     65  C   UNL A   1      43.605  27.118  31.487  1.00  0.00     0.031 C 
ATOM     66  C   UNL A   1      43.379  28.381  33.611  1.00  0.00     0.034 A 
BRANCH  53  67
ATOM     67  C   UNL A   1      40.054  32.731  36.473  1.00  0.00     0.023 A 
ATOM     68  C   UNL A   1      39.102  32.318  37.426  1.00  0.00     0.031 A 
ATOM     69  C   UNL A   1      40.702  33.962  36.670  1.00  0.00     0.131 A 
ATOM     70  C   UNL A   1      38.807  33.144  38.518  1.00  0.00     0.055 A 
ATOM     71  C   UNL A   1      40.425  34.768  37.776  1.00  0.00     0.041 A 
ATOM     72  F   UNL A   1      41.620  34.397  35.791  1.00  0.00    -0.206 F 
ATOM     73  C   UNL A   1      39.466  34.364  38.700  1.00  0.00     0.022 A 
BRANCH  70  74
ATOM     74  S   UNL A   1      37.521  32.695  39.716  1.00  0.00     0.124 S 
ATOM     75  O   UNL A   1      36.345  32.570  38.858  1.00  0.00    -0.237 OA
ATOM     76  O   UNL A   1      38.034  31.439  40.257  1.00  0.00    -0.237 OA
ATOM     77  O   UNL A   1      37.497  33.819  40.643  1.00  0.00    -0.744 OA
ENDBRANCH  70  74
ENDBRANCH  53  67
BRANCH  54  78
ATOM     78  C   UNL A   1      41.137  27.445  28.029  1.00  0.00     0.023 A 
ATOM     79  C   UNL A   1      40.777  26.084  28.013  1.00  0.00     0.031 A 
ATOM     80  C   UNL A   1      41.731  27.986  26.878  1.00  0.00     0.131 A 
ATOM     81  C   UNL A   1      41.093  25.293  26.901  1.00  0.00     0.055 A 
ATOM     82  C   UNL A   1      41.977  27.210  25.744  1.00  0.00     0.041 A 
ATOM     83  F   UNL A   1      42.101  29.276  26.851  1.00  0.00    -0.206 F 
ATOM     84  C   UNL A   1      41.678  25.851  25.761  1.00  0.00     0.022 A 
BRANCH  81  85
ATOM     85  S   UNL A   1      40.905  23.489  26.965  1.00  0.00     0.124 S 
ATOM     86  O   UNL A   1      41.802  23.053  25.900  1.00  0.00    -0.237 OA
ATOM     87  O   UNL A   1      41.347  23.190  28.326  1.00  0.00    -0.237 OA
ATOM     88  O   UNL A   1      39.482  23.282  26.720  1.00  0.00    -0.744 OA
ENDBRANCH  81  85
ENDBRANCH  54  78
BRANCH  66  89
ATOM     89  C   UNL A   1      44.590  27.665  34.151  1.00  0.00     0.023 A 
ATOM     90  C   UNL A   1      44.437  26.497  34.923  1.00  0.00     0.031 A 
ATOM     91  C   UNL A   1      45.875  28.221  34.029  1.00  0.00     0.131 A 
ATOM     92  C   UNL A   1      45.547  25.942  35.572  1.00  0.00     0.055 A 
ATOM     93  C   UNL A   1      46.984  27.642  34.647  1.00  0.00     0.041 A 
ATOM     94  F   UNL A   1      46.068  29.339  33.311  1.00  0.00    -0.206 F 
ATOM     95  C   UNL A   1      46.820  26.505  35.433  1.00  0.00     0.022 A 
BRANCH  92  96
ATOM     96  S   UNL A   1      45.366  24.521  36.685  1.00  0.00     0.124 S 
ATOM     97  O   UNL A   1      44.105  24.824  37.357  1.00  0.00    -0.237 OA
ATOM     98  O   UNL A   1      45.322  23.401  35.749  1.00  0.00    -0.237 OA
ATOM     99  O   UNL A   1      46.552  24.584  37.532  1.00  0.00    -0.744 OA
ENDBRANCH  92  96
ENDBRANCH  66  89
ENDBRANCH  40  41
ENDBRANCH  32  35
ENDBRANCH  30  31
ENDBRANCH   1  30
TORSDOF 18
ENDMDL
