MODEL 1
REMARK VINA RESULT:     -12.3      0.000      0.000
REMARK SMILES CCc1n[nH]c(C(=O)N[C@@]2(C(=O)NCCCCNC(=O)c3ccc(-c4c5nc(c(-c6cc(S(=O)(=O)[O-])ccc6F)c6ccc([nH]6)c(-c6cc(S(=O)(=O)[O-])ccc6F)c6nc(c(-c7cc(S(=O)(=O)[O-])ccc7F)c7ccc4[nH]7)C=C6)C=C5)cc3)CCCC[C@H]2C)n1
REMARK SMILES IDX 15 1 14 2 13 3 11 4 12 5 10 7 84 8 88 9 85 10 87 11 89 12
REMARK SMILES IDX 86 13 9 14 7 15 8 16 6 18 3 19 4 20 90 21 5 22 2 24 1 25
REMARK SMILES IDX 16 26 17 27 18 28 19 29 20 31 21 32 22 33 83 34 23 35 82 36
REMARK SMILES IDX 24 37 25 38 26 39 76 40 27 41 81 42 75 43 77 44 28 45 80 46
REMARK SMILES IDX 74 47 73 48 29 50 61 51 41 52 60 53 42 54 45 55 59 56 78 57
REMARK SMILES IDX 43 58 44 59 58 61 79 62 46 63 30 64 31 65 39 66 32 67 38 68
REMARK SMILES IDX 40 69 37 70 33 71 34 72 35 73 36 74 62 75 63 76 71 77 64 78
REMARK SMILES IDX 70 79 72 80 69 81 65 82 66 83 67 84 68 85 47 86 48 87 56 88
REMARK SMILES IDX 49 89 55 90 57 91 54 92 50 93 51 94 52 95 53 96
REMARK H PARENT 13 6 9 17 5 23 18 30 77 49 45 60
REMARK Flexibility Score: inf
ROOT
ATOM      1  C   UNL A   1      32.145  29.635  27.233  1.00  0.00     0.023 C 
ENDROOT
BRANCH   1   2
ATOM      2  C   UNL A   1      33.470  28.965  26.880  1.00  0.00     0.116 C 
BRANCH   2   3
ATOM      3  N   UNL A   1      33.730  28.989  25.456  1.00  0.00    -0.354 N 
ATOM      4  C   UNL A   1      33.367  28.166  24.435  1.00  0.00     0.246 C 
ATOM      5  O   UNL A   1      33.935  28.390  23.356  1.00  0.00    -0.272 OA
ATOM      6  H   UNL A   1      34.279  29.754  25.169  1.00  0.00     0.163 HD
BRANCH   4   7
ATOM      7  C   UNL A   1      32.418  26.919  24.605  1.00  0.00     0.122 C 
ATOM      8  C   UNL A   1      31.076  27.190  25.347  1.00  0.00     0.039 C 
ATOM      9  C   UNL A   1      33.221  25.822  25.411  1.00  0.00     0.021 C 
ATOM     10  C   UNL A   1      30.270  25.927  25.635  1.00  0.00     0.003 C 
ATOM     11  C   UNL A   1      32.372  24.579  25.737  1.00  0.00     0.006 C 
ATOM     12  C   UNL A   1      34.537  25.377  24.754  1.00  0.00     0.011 C 
ATOM     13  C   UNL A   1      31.080  24.943  26.456  1.00  0.00     0.000 C 
BRANCH   7  14
ATOM     14  N   UNL A   1      32.139  26.406  23.228  1.00  0.00    -0.335 N 
ATOM     15  C   UNL A   1      31.345  26.897  22.212  1.00  0.00     0.289 C 
ATOM     16  O   UNL A   1      31.265  26.211  21.188  1.00  0.00    -0.266 OA
ATOM     17  H   UNL A   1      32.606  25.568  23.005  1.00  0.00     0.165 HD
BRANCH  15  18
ATOM     18  C   UNL A   1      30.575  28.109  22.363  1.00  0.00     0.214 A 
ATOM     19  C   UNL A   1      29.029  29.549  22.510  1.00  0.00     0.151 A 
ATOM     20  N   UNL A   1      30.051  30.263  22.019  1.00  0.00    -0.158 NA
ATOM     21  N   UNL A   1      29.332  28.243  22.783  1.00  0.00    -0.207 NA
ATOM     22  N   UNL A   1      31.033  29.342  21.998  1.00  0.00    -0.255 N 
ATOM     23  H   UNL A   1      31.967  29.535  21.753  1.00  0.00     0.192 HD
BRANCH  19  24
ATOM     24  C   UNL A   1      27.643  30.081  22.613  1.00  0.00     0.076 C 
ATOM     25  C   UNL A   1      27.518  31.280  23.545  1.00  0.00     0.012 C 
ENDBRANCH  19  24
ENDBRANCH  15  18
ENDBRANCH   7  14
ENDBRANCH   4   7
ENDBRANCH   2   3
ENDBRANCH   1   2
BRANCH   1  26
ATOM     26  C   UNL A   1      32.030  31.107  26.839  1.00  0.00     0.023 C 
BRANCH  26  27
ATOM     27  C   UNL A   1      33.197  31.995  27.261  1.00  0.00     0.116 C 
BRANCH  27  28
ATOM     28  N   UNL A   1      32.795  33.356  27.585  1.00  0.00    -0.352 N 
ATOM     29  C   UNL A   1      33.299  34.210  28.538  1.00  0.00     0.251 C 
ATOM     30  H   UNL A   1      32.056  33.717  27.044  1.00  0.00     0.163 HD
ATOM     31  O   UNL A   1      32.757  35.289  28.733  1.00  0.00    -0.269 OA
BRANCH  29  32
ATOM     32  C   UNL A   1      34.467  33.797  29.347  1.00  0.00     0.039 A 
ATOM     33  C   UNL A   1      34.267  32.917  30.414  1.00  0.00     0.014 A 
ATOM     34  C   UNL A   1      35.752  34.250  29.039  1.00  0.00     0.014 A 
ATOM     35  C   UNL A   1      35.368  32.429  31.124  1.00  0.00     0.010 A 
ATOM     36  C   UNL A   1      36.852  33.709  29.702  1.00  0.00     0.010 A 
ATOM     37  C   UNL A   1      36.672  32.789  30.746  1.00  0.00    -0.014 A 
BRANCH  37  38
ATOM     38  C   UNL A   1      37.861  32.205  31.421  1.00  0.00     0.031 A 
ATOM     39  C   UNL A   1      38.639  31.104  30.753  1.00  0.00     0.074 A 
ATOM     40  C   UNL A   1      38.184  32.607  32.667  1.00  0.00     0.049 A 
ATOM     41  N   UNL A   1      39.638  30.399  31.217  1.00  0.00    -0.248 NA
ATOM     42  C   UNL A   1      38.218  30.727  29.394  1.00  0.00     0.031 C 
ATOM     43  C   UNL A   1      37.471  33.629  33.438  1.00  0.00     0.029 A 
ATOM     44  N   UNL A   1      39.182  32.194  33.515  1.00  0.00    -0.354 N 
ATOM     45  C   UNL A   1      39.946  29.477  30.222  1.00  0.00     0.074 A 
ATOM     46  C   UNL A   1      39.002  29.688  29.146  1.00  0.00     0.031 C 
ATOM     47  C   UNL A   1      38.058  33.768  34.638  1.00  0.00     0.029 A 
ATOM     48  C   UNL A   1      39.161  32.818  34.742  1.00  0.00     0.049 A 
ATOM     49  H   UNL A   1      39.851  31.515  33.269  1.00  0.00     0.167 HD
ATOM     50  C   UNL A   1      40.937  28.551  30.204  1.00  0.00     0.034 A 
ATOM     51  C   UNL A   1      39.932  32.634  35.833  1.00  0.00     0.034 A 
ATOM     52  C   UNL A   1      41.892  28.378  31.269  1.00  0.00     0.049 A 
ATOM     53  C   UNL A   1      41.040  31.611  35.776  1.00  0.00     0.074 A 
ATOM     54  C   UNL A   1      42.989  27.533  31.312  1.00  0.00     0.029 A 
ATOM     55  N   UNL A   1      41.866  29.057  32.480  1.00  0.00    -0.354 N 
ATOM     56  N   UNL A   1      41.365  30.800  34.795  1.00  0.00    -0.248 NA
ATOM     57  C   UNL A   1      41.893  31.487  36.965  1.00  0.00     0.031 C 
ATOM     58  C   UNL A   1      43.587  27.655  32.571  1.00  0.00     0.029 A 
ATOM     59  C   UNL A   1      42.909  28.627  33.288  1.00  0.00     0.049 A 
ATOM     60  H   UNL A   1      41.205  29.742  32.729  1.00  0.00     0.167 HD
ATOM     61  C   UNL A   1      42.480  30.096  35.240  1.00  0.00     0.074 A 
ATOM     62  C   UNL A   1      42.782  30.589  36.568  1.00  0.00     0.031 C 
ATOM     63  C   UNL A   1      43.195  29.130  34.608  1.00  0.00     0.034 A 
BRANCH  50  64
ATOM     64  C   UNL A   1      41.023  27.638  29.007  1.00  0.00     0.023 A 
ATOM     65  C   UNL A   1      42.009  27.800  28.019  1.00  0.00     0.031 A 
ATOM     66  C   UNL A   1      40.107  26.581  28.857  1.00  0.00     0.131 A 
ATOM     67  C   UNL A   1      42.022  26.955  26.899  1.00  0.00     0.055 A 
ATOM     68  C   UNL A   1      40.168  25.701  27.777  1.00  0.00     0.041 A 
ATOM     69  F   UNL A   1      39.131  26.391  29.760  1.00  0.00    -0.206 F 
ATOM     70  C   UNL A   1      41.125  25.891  26.784  1.00  0.00     0.022 A 
BRANCH  67  71
ATOM     71  S   UNL A   1      43.166  27.329  25.542  1.00  0.00     0.124 S 
ATOM     72  O   UNL A   1      42.315  28.112  24.649  1.00  0.00    -0.237 OA
ATOM     73  O   UNL A   1      44.229  28.065  26.218  1.00  0.00    -0.237 OA
ATOM     74  O   UNL A   1      43.543  26.011  25.038  1.00  0.00    -0.744 OA
ENDBRANCH  67  71
ENDBRANCH  50  64
BRANCH  51  75
ATOM     75  C   UNL A   1      39.682  33.408  37.084  1.00  0.00     0.023 A 
ATOM     76  C   UNL A   1      38.883  32.885  38.113  1.00  0.00     0.031 A 
ATOM     77  C   UNL A   1      40.183  34.713  37.240  1.00  0.00     0.131 A 
ATOM     78  C   UNL A   1      38.554  33.682  39.220  1.00  0.00     0.055 A 
ATOM     79  C   UNL A   1      39.901  35.482  38.371  1.00  0.00     0.041 A 
ATOM     80  F   UNL A   1      40.958  35.261  36.291  1.00  0.00    -0.206 F 
ATOM     81  C   UNL A   1      39.067  34.973  39.361  1.00  0.00     0.022 A 
BRANCH  78  82
ATOM     82  S   UNL A   1      37.351  33.046  40.420  1.00  0.00     0.124 S 
ATOM     83  O   UNL A   1      37.129  34.212  41.267  1.00  0.00    -0.237 OA
ATOM     84  O   UNL A   1      36.240  32.661  39.556  1.00  0.00    -0.237 OA
ATOM     85  O   UNL A   1      38.058  31.938  41.056  1.00  0.00    -0.744 OA
ENDBRANCH  78  82
ENDBRANCH  51  75
BRANCH  63  86
ATOM     86  C   UNL A   1      44.402  28.587  35.332  1.00  0.00     0.023 A 
ATOM     87  C   UNL A   1      44.294  27.561  36.285  1.00  0.00     0.031 A 
ATOM     88  C   UNL A   1      45.678  29.115  35.066  1.00  0.00     0.131 A 
ATOM     89  C   UNL A   1      45.434  27.131  36.980  1.00  0.00     0.055 A 
ATOM     90  C   UNL A   1      46.817  28.643  35.718  1.00  0.00     0.041 A 
ATOM     91  F   UNL A   1      45.837  30.097  34.166  1.00  0.00    -0.206 F 
ATOM     92  C   UNL A   1      46.698  27.653  36.691  1.00  0.00     0.022 A 
BRANCH  89  93
ATOM     93  S   UNL A   1      45.235  25.935  38.328  1.00  0.00     0.124 S 
ATOM     94  O   UNL A   1      44.554  24.832  37.658  1.00  0.00    -0.237 OA
ATOM     95  O   UNL A   1      46.615  25.683  38.730  1.00  0.00    -0.237 OA
ATOM     96  O   UNL A   1      44.428  26.657  39.311  1.00  0.00    -0.744 OA
ENDBRANCH  89  93
ENDBRANCH  63  86
ENDBRANCH  37  38
ENDBRANCH  29  32
ENDBRANCH  27  28
ENDBRANCH  26  27
ENDBRANCH   1  26
TORSDOF 17
ENDMDL
MODEL 2
REMARK VINA RESULT:     -11.8      6.484     11.506
REMARK SMILES CCc1n[nH]c(C(=O)N[C@@]2(C(=O)NCCCCNC(=O)c3ccc(-c4c5nc(c(-c6cc(S(=O)(=O)[O-])ccc6F)c6ccc([nH]6)c(-c6cc(S(=O)(=O)[O-])ccc6F)c6nc(c(-c7cc(S(=O)(=O)[O-])ccc7F)c7ccc4[nH]7)C=C6)C=C5)cc3)CCCC[C@H]2C)n1
REMARK SMILES IDX 15 1 14 2 13 3 11 4 12 5 10 7 84 8 88 9 85 10 87 11 89 12
REMARK SMILES IDX 86 13 9 14 7 15 8 16 6 18 3 19 4 20 90 21 5 22 2 24 1 25
REMARK SMILES IDX 16 26 17 27 18 28 19 29 20 31 21 32 22 33 83 34 23 35 82 36
REMARK SMILES IDX 24 37 25 38 26 39 76 40 27 41 81 42 75 43 77 44 28 45 80 46
REMARK SMILES IDX 74 47 73 48 29 50 61 51 41 52 60 53 42 54 45 55 59 56 78 57
REMARK SMILES IDX 43 58 44 59 58 61 79 62 46 63 30 64 31 65 39 66 32 67 38 68
REMARK SMILES IDX 40 69 37 70 33 71 34 72 35 73 36 74 62 75 63 76 71 77 64 78
REMARK SMILES IDX 70 79 72 80 69 81 65 82 66 83 67 84 68 85 47 86 48 87 56 88
REMARK SMILES IDX 49 89 55 90 57 91 54 92 50 93 51 94 52 95 53 96
REMARK H PARENT 13 6 9 17 5 23 18 30 77 49 45 60
REMARK Flexibility Score: inf
ROOT
ATOM      1  C   UNL A   1      37.227  22.003  24.293  1.00  0.00     0.023 C 
ENDROOT
BRANCH   1   2
ATOM      2  C   UNL A   1      37.062  23.098  25.344  1.00  0.00     0.116 C 
BRANCH   2   3
ATOM      3  N   UNL A   1      36.053  22.763  26.326  1.00  0.00    -0.354 N 
ATOM      4  C   UNL A   1      34.696  22.862  26.329  1.00  0.00     0.246 C 
ATOM      5  O   UNL A   1      34.159  22.657  27.427  1.00  0.00    -0.272 OA
ATOM      6  H   UNL A   1      36.422  22.390  27.158  1.00  0.00     0.163 HD
BRANCH   4   7
ATOM      7  C   UNL A   1      33.846  23.345  25.092  1.00  0.00     0.122 C 
ATOM      8  C   UNL A   1      34.229  22.710  23.722  1.00  0.00     0.039 C 
ATOM      9  C   UNL A   1      34.023  24.911  24.982  1.00  0.00     0.021 C 
ATOM     10  C   UNL A   1      33.497  23.328  22.535  1.00  0.00     0.003 C 
ATOM     11  C   UNL A   1      33.321  25.507  23.747  1.00  0.00     0.006 C 
ATOM     12  C   UNL A   1      33.596  25.695  26.233  1.00  0.00     0.011 C 
ATOM     13  C   UNL A   1      33.752  24.821  22.459  1.00  0.00     0.000 C 
BRANCH   7  14
ATOM     14  N   UNL A   1      32.418  23.036  25.411  1.00  0.00    -0.335 N 
ATOM     15  C   UNL A   1      31.723  21.843  25.436  1.00  0.00     0.289 C 
ATOM     16  O   UNL A   1      30.515  21.909  25.683  1.00  0.00    -0.266 OA
ATOM     17  H   UNL A   1      31.875  23.823  25.645  1.00  0.00     0.165 HD
BRANCH  15  18
ATOM     18  C   UNL A   1      32.354  20.586  25.108  1.00  0.00     0.214 A 
ATOM     19  C   UNL A   1      32.913  18.744  24.228  1.00  0.00     0.151 A 
ATOM     20  N   UNL A   1      33.224  18.559  25.518  1.00  0.00    -0.158 NA
ATOM     21  N   UNL A   1      32.430  19.989  23.936  1.00  0.00    -0.207 NA
ATOM     22  N   UNL A   1      32.921  19.764  26.038  1.00  0.00    -0.255 N 
ATOM     23  H   UNL A   1      33.090  20.020  26.974  1.00  0.00     0.192 HD
BRANCH  19  24
ATOM     24  C   UNL A   1      32.944  17.647  23.222  1.00  0.00     0.076 C 
ATOM     25  C   UNL A   1      33.722  16.420  23.681  1.00  0.00     0.012 C 
ENDBRANCH  19  24
ENDBRANCH  15  18
ENDBRANCH   7  14
ENDBRANCH   4   7
ENDBRANCH   2   3
ENDBRANCH   1   2
BRANCH   1  26
ATOM     26  C   UNL A   1      37.783  20.678  24.812  1.00  0.00     0.023 C 
BRANCH  26  27
ATOM     27  C   UNL A   1      38.762  20.784  25.977  1.00  0.00     0.116 C 
BRANCH  27  28
ATOM     28  N   UNL A   1      39.739  19.706  26.008  1.00  0.00    -0.352 N 
ATOM     29  C   UNL A   1      41.098  19.767  26.212  1.00  0.00     0.251 C 
ATOM     30  H   UNL A   1      39.375  18.803  25.860  1.00  0.00     0.163 HD
ATOM     31  O   UNL A   1      41.775  18.754  26.097  1.00  0.00    -0.269 OA
BRANCH  29  32
ATOM     32  C   UNL A   1      41.733  21.065  26.528  1.00  0.00     0.039 A 
ATOM     33  C   UNL A   1      41.991  21.958  25.485  1.00  0.00     0.014 A 
ATOM     34  C   UNL A   1      42.046  21.411  27.845  1.00  0.00     0.014 A 
ATOM     35  C   UNL A   1      42.490  23.232  25.773  1.00  0.00     0.010 A 
ATOM     36  C   UNL A   1      42.477  22.704  28.135  1.00  0.00     0.010 A 
ATOM     37  C   UNL A   1      42.697  23.629  27.103  1.00  0.00    -0.014 A 
BRANCH  37  38
ATOM     38  C   UNL A   1      43.132  25.011  27.438  1.00  0.00     0.031 A 
ATOM     39  C   UNL A   1      42.169  25.962  28.096  1.00  0.00     0.074 A 
ATOM     40  C   UNL A   1      44.360  25.430  27.074  1.00  0.00     0.049 A 
ATOM     41  N   UNL A   1      42.322  27.231  28.375  1.00  0.00    -0.248 NA
ATOM     42  C   UNL A   1      40.850  25.422  28.461  1.00  0.00     0.031 C 
ATOM     43  C   UNL A   1      45.362  24.614  26.382  1.00  0.00     0.029 A 
ATOM     44  N   UNL A   1      44.973  26.651  27.213  1.00  0.00    -0.354 N 
ATOM     45  C   UNL A   1      41.112  27.649  28.919  1.00  0.00     0.074 A 
ATOM     46  C   UNL A   1      40.224  26.506  28.894  1.00  0.00     0.031 C 
ATOM     47  C   UNL A   1      46.462  25.353  26.167  1.00  0.00     0.029 A 
ATOM     48  C   UNL A   1      46.234  26.705  26.663  1.00  0.00     0.049 A 
ATOM     49  H   UNL A   1      44.550  27.417  27.665  1.00  0.00     0.167 HD
ATOM     50  C   UNL A   1      40.781  28.868  29.409  1.00  0.00     0.034 A 
ATOM     51  C   UNL A   1      47.100  27.734  26.556  1.00  0.00     0.034 A 
ATOM     52  C   UNL A   1      41.690  29.986  29.460  1.00  0.00     0.049 A 
ATOM     53  C   UNL A   1      46.712  29.074  27.129  1.00  0.00     0.074 A 
ATOM     54  C   UNL A   1      41.484  31.237  30.018  1.00  0.00     0.029 A 
ATOM     55  N   UNL A   1      42.974  29.993  28.932  1.00  0.00    -0.354 N 
ATOM     56  N   UNL A   1      45.588  29.429  27.711  1.00  0.00    -0.248 NA
ATOM     57  C   UNL A   1      47.710  30.148  27.044  1.00  0.00     0.031 C 
ATOM     58  C   UNL A   1      42.618  32.019  29.772  1.00  0.00     0.029 A 
ATOM     59  C   UNL A   1      43.560  31.235  29.124  1.00  0.00     0.049 A 
ATOM     60  H   UNL A   1      43.405  29.229  28.486  1.00  0.00     0.167 HD
ATOM     61  C   UNL A   1      45.763  30.758  28.089  1.00  0.00     0.074 A 
ATOM     62  C   UNL A   1      47.102  31.134  27.687  1.00  0.00     0.031 C 
ATOM     63  C   UNL A   1      44.895  31.593  28.716  1.00  0.00     0.034 A 
BRANCH  50  64
ATOM     64  C   UNL A   1      39.371  29.067  29.906  1.00  0.00     0.023 A 
ATOM     65  C   UNL A   1      38.358  29.583  29.079  1.00  0.00     0.031 A 
ATOM     66  C   UNL A   1      39.033  28.727  31.228  1.00  0.00     0.131 A 
ATOM     67  C   UNL A   1      37.072  29.794  29.598  1.00  0.00     0.055 A 
ATOM     68  C   UNL A   1      37.735  28.873  31.718  1.00  0.00     0.041 A 
ATOM     69  F   UNL A   1      39.965  28.249  32.069  1.00  0.00    -0.206 F 
ATOM     70  C   UNL A   1      36.747  29.419  30.903  1.00  0.00     0.022 A 
BRANCH  67  71
ATOM     71  S   UNL A   1      35.854  30.661  28.572  1.00  0.00     0.124 S 
ATOM     72  O   UNL A   1      35.164  31.481  29.565  1.00  0.00    -0.237 OA
ATOM     73  O   UNL A   1      36.695  31.382  27.622  1.00  0.00    -0.237 OA
ATOM     74  O   UNL A   1      35.054  29.580  28.002  1.00  0.00    -0.744 OA
ENDBRANCH  67  71
ENDBRANCH  50  64
BRANCH  51  75
ATOM     75  C   UNL A   1      48.410  27.559  25.862  1.00  0.00     0.023 A 
ATOM     76  C   UNL A   1      48.514  27.682  24.468  1.00  0.00     0.031 A 
ATOM     77  C   UNL A   1      49.565  27.196  26.578  1.00  0.00     0.131 A 
ATOM     78  C   UNL A   1      49.726  27.385  23.826  1.00  0.00     0.055 A 
ATOM     79  C   UNL A   1      50.784  26.957  25.941  1.00  0.00     0.041 A 
ATOM     80  F   UNL A   1      49.525  27.070  27.914  1.00  0.00    -0.206 F 
ATOM     81  C   UNL A   1      50.864  27.033  24.554  1.00  0.00     0.022 A 
BRANCH  78  82
ATOM     82  S   UNL A   1      49.761  27.351  22.013  1.00  0.00     0.124 S 
ATOM     83  O   UNL A   1      51.103  26.842  21.749  1.00  0.00    -0.237 OA
ATOM     84  O   UNL A   1      48.660  26.444  21.707  1.00  0.00    -0.237 OA
ATOM     85  O   UNL A   1      49.539  28.747  21.642  1.00  0.00    -0.744 OA
ENDBRANCH  78  82
ENDBRANCH  51  75
BRANCH  63  86
ATOM     86  C   UNL A   1      45.396  32.976  29.049  1.00  0.00     0.023 A 
ATOM     87  C   UNL A   1      45.240  34.053  28.161  1.00  0.00     0.031 A 
ATOM     88  C   UNL A   1      46.048  33.213  30.272  1.00  0.00     0.131 A 
ATOM     89  C   UNL A   1      45.777  35.308  28.484  1.00  0.00     0.055 A 
ATOM     90  C   UNL A   1      46.530  34.477  30.614  1.00  0.00     0.041 A 
ATOM     91  F   UNL A   1      46.226  32.219  31.156  1.00  0.00    -0.206 F 
ATOM     92  C   UNL A   1      46.406  35.532  29.712  1.00  0.00     0.022 A 
BRANCH  89  93
ATOM     93  S   UNL A   1      45.717  36.629  27.243  1.00  0.00     0.124 S 
ATOM     94  O   UNL A   1      46.447  37.704  27.907  1.00  0.00    -0.237 OA
ATOM     95  O   UNL A   1      46.386  36.014  26.100  1.00  0.00    -0.237 OA
ATOM     96  O   UNL A   1      44.286  36.868  27.066  1.00  0.00    -0.744 OA
ENDBRANCH  89  93
ENDBRANCH  63  86
ENDBRANCH  37  38
ENDBRANCH  29  32
ENDBRANCH  27  28
ENDBRANCH  26  27
ENDBRANCH   1  26
TORSDOF 17
ENDMDL
MODEL 3
REMARK VINA RESULT:     -11.6      5.724     11.401
REMARK SMILES CCc1n[nH]c(C(=O)N[C@@]2(C(=O)NCCCCNC(=O)c3ccc(-c4c5nc(c(-c6cc(S(=O)(=O)[O-])ccc6F)c6ccc([nH]6)c(-c6cc(S(=O)(=O)[O-])ccc6F)c6nc(c(-c7cc(S(=O)(=O)[O-])ccc7F)c7ccc4[nH]7)C=C6)C=C5)cc3)CCCC[C@H]2C)n1
REMARK SMILES IDX 15 1 14 2 13 3 11 4 12 5 10 7 84 8 88 9 85 10 87 11 89 12
REMARK SMILES IDX 86 13 9 14 7 15 8 16 6 18 3 19 4 20 90 21 5 22 2 24 1 25
REMARK SMILES IDX 16 26 17 27 18 28 19 29 20 31 21 32 22 33 83 34 23 35 82 36
REMARK SMILES IDX 24 37 25 38 26 39 76 40 27 41 81 42 75 43 77 44 28 45 80 46
REMARK SMILES IDX 74 47 73 48 29 50 61 51 41 52 60 53 42 54 45 55 59 56 78 57
REMARK SMILES IDX 43 58 44 59 58 61 79 62 46 63 30 64 31 65 39 66 32 67 38 68
REMARK SMILES IDX 40 69 37 70 33 71 34 72 35 73 36 74 62 75 63 76 71 77 64 78
REMARK SMILES IDX 70 79 72 80 69 81 65 82 66 83 67 84 68 85 47 86 48 87 56 88
REMARK SMILES IDX 49 89 55 90 57 91 54 92 50 93 51 94 52 95 53 96
REMARK H PARENT 13 6 9 17 5 23 18 30 77 49 45 60
REMARK Flexibility Score: inf
ROOT
ATOM      1  C   UNL A   1      39.171  23.256  26.249  1.00  0.00     0.023 C 
ENDROOT
BRANCH   1   2
ATOM      2  C   UNL A   1      37.765  23.785  25.976  1.00  0.00     0.116 C 
BRANCH   2   3
ATOM      3  N   UNL A   1      37.381  23.621  24.590  1.00  0.00    -0.354 N 
ATOM      4  C   UNL A   1      36.231  23.206  23.992  1.00  0.00     0.246 C 
ATOM      5  O   UNL A   1      36.321  23.003  22.772  1.00  0.00    -0.272 OA
ATOM      6  H   UNL A   1      38.094  23.855  23.953  1.00  0.00     0.163 HD
BRANCH   4   7
ATOM      7  C   UNL A   1      34.909  22.854  24.775  1.00  0.00     0.122 C 
ATOM      8  C   UNL A   1      34.254  24.032  25.555  1.00  0.00     0.039 C 
ATOM      9  C   UNL A   1      35.263  21.709  25.805  1.00  0.00     0.021 C 
ATOM     10  C   UNL A   1      33.078  23.608  26.430  1.00  0.00     0.003 C 
ATOM     11  C   UNL A   1      34.077  21.334  26.713  1.00  0.00     0.006 C 
ATOM     12  C   UNL A   1      35.839  20.432  25.173  1.00  0.00     0.011 C 
ATOM     13  C   UNL A   1      33.500  22.548  27.428  1.00  0.00     0.000 C 
BRANCH   7  14
ATOM     14  N   UNL A   1      33.945  22.319  23.763  1.00  0.00    -0.335 N 
ATOM     15  C   UNL A   1      33.092  22.958  22.887  1.00  0.00     0.289 C 
ATOM     16  O   UNL A   1      32.360  22.238  22.201  1.00  0.00    -0.266 OA
ATOM     17  H   UNL A   1      33.914  21.337  23.713  1.00  0.00     0.165 HD
BRANCH  15  18
ATOM     18  C   UNL A   1      32.993  24.397  22.829  1.00  0.00     0.214 A 
ATOM     19  C   UNL A   1      33.388  26.475  22.725  1.00  0.00     0.151 A 
ATOM     20  N   UNL A   1      32.243  26.427  23.420  1.00  0.00    -0.158 NA
ATOM     21  N   UNL A   1      33.843  25.256  22.303  1.00  0.00    -0.207 NA
ATOM     22  N   UNL A   1      31.983  25.106  23.413  1.00  0.00    -0.255 N 
ATOM     23  H   UNL A   1      31.165  24.701  23.783  1.00  0.00     0.192 HD
BRANCH  19  24
ATOM     24  C   UNL A   1      34.180  27.723  22.553  1.00  0.00     0.076 C 
ATOM     25  C   UNL A   1      33.450  28.977  23.015  1.00  0.00     0.012 C 
ENDBRANCH  19  24
ENDBRANCH  15  18
ENDBRANCH   7  14
ENDBRANCH   4   7
ENDBRANCH   2   3
ENDBRANCH   1   2
BRANCH   1  26
ATOM     26  C   UNL A   1      39.251  21.780  26.635  1.00  0.00     0.023 C 
BRANCH  26  27
ATOM     27  C   UNL A   1      39.341  20.797  25.472  1.00  0.00     0.116 C 
BRANCH  27  28
ATOM     28  N   UNL A   1      40.213  19.664  25.743  1.00  0.00    -0.352 N 
ATOM     29  C   UNL A   1      41.525  19.653  26.157  1.00  0.00     0.251 C 
ATOM     30  H   UNL A   1      39.806  18.778  25.609  1.00  0.00     0.163 HD
ATOM     31  O   UNL A   1      42.129  18.591  26.231  1.00  0.00    -0.269 OA
BRANCH  29  32
ATOM     32  C   UNL A   1      42.206  20.929  26.468  1.00  0.00     0.039 A 
ATOM     33  C   UNL A   1      42.602  21.754  25.413  1.00  0.00     0.014 A 
ATOM     34  C   UNL A   1      42.424  21.324  27.790  1.00  0.00     0.014 A 
ATOM     35  C   UNL A   1      43.148  23.012  25.684  1.00  0.00     0.010 A 
ATOM     36  C   UNL A   1      42.903  22.605  28.058  1.00  0.00     0.010 A 
ATOM     37  C   UNL A   1      43.263  23.463  27.009  1.00  0.00    -0.014 A 
BRANCH  37  38
ATOM     38  C   UNL A   1      43.748  24.835  27.317  1.00  0.00     0.031 A 
ATOM     39  C   UNL A   1      42.794  25.863  27.865  1.00  0.00     0.074 A 
ATOM     40  C   UNL A   1      45.019  25.175  27.025  1.00  0.00     0.049 A 
ATOM     41  N   UNL A   1      42.995  27.133  28.102  1.00  0.00    -0.248 NA
ATOM     42  C   UNL A   1      41.425  25.407  28.156  1.00  0.00     0.031 C 
ATOM     43  C   UNL A   1      46.022  24.279  26.441  1.00  0.00     0.029 A 
ATOM     44  N   UNL A   1      45.685  26.368  27.158  1.00  0.00    -0.354 N 
ATOM     45  C   UNL A   1      41.774  27.635  28.541  1.00  0.00     0.074 A 
ATOM     46  C   UNL A   1      40.830  26.539  28.499  1.00  0.00     0.031 C 
ATOM     47  C   UNL A   1      47.172  24.951  26.275  1.00  0.00     0.029 A 
ATOM     48  C   UNL A   1      46.983  26.334  26.699  1.00  0.00     0.049 A 
ATOM     49  H   UNL A   1      45.273  27.174  27.546  1.00  0.00     0.167 HD
ATOM     50  C   UNL A   1      41.476  28.891  28.955  1.00  0.00     0.034 A 
ATOM     51  C   UNL A   1      47.908  27.311  26.612  1.00  0.00     0.034 A 
ATOM     52  C   UNL A   1      42.437  29.962  29.026  1.00  0.00     0.049 A 
ATOM     53  C   UNL A   1      47.553  28.694  27.100  1.00  0.00     0.074 A 
ATOM     54  C   UNL A   1      42.261  31.246  29.516  1.00  0.00     0.029 A 
ATOM     55  N   UNL A   1      43.754  29.881  28.591  1.00  0.00    -0.354 N 
ATOM     56  N   UNL A   1      46.413  29.131  27.585  1.00  0.00    -0.248 NA
ATOM     57  C   UNL A   1      48.611  29.711  27.044  1.00  0.00     0.031 C 
ATOM     58  C   UNL A   1      43.450  31.957  29.320  1.00  0.00     0.029 A 
ATOM     59  C   UNL A   1      44.391  31.099  28.774  1.00  0.00     0.049 A 
ATOM     60  H   UNL A   1      44.173  29.076  28.209  1.00  0.00     0.167 HD
ATOM     61  C   UNL A   1      46.632  30.464  27.921  1.00  0.00     0.074 A 
ATOM     62  C   UNL A   1      48.014  30.754  27.600  1.00  0.00     0.031 C 
ATOM     63  C   UNL A   1      45.769  31.370  28.449  1.00  0.00     0.034 A 
BRANCH  50  64
ATOM     64  C   UNL A   1      40.047  29.182  29.341  1.00  0.00     0.023 A 
ATOM     65  C   UNL A   1      39.640  29.251  30.684  1.00  0.00     0.031 A 
ATOM     66  C   UNL A   1      39.078  29.403  28.346  1.00  0.00     0.131 A 
ATOM     67  C   UNL A   1      38.292  29.478  30.996  1.00  0.00     0.055 A 
ATOM     68  C   UNL A   1      37.752  29.699  28.663  1.00  0.00     0.041 A 
ATOM     69  F   UNL A   1      39.405  29.330  27.046  1.00  0.00    -0.206 F 
ATOM     70  C   UNL A   1      37.350  29.729  29.996  1.00  0.00     0.022 A 
BRANCH  67  71
ATOM     71  S   UNL A   1      37.765  29.342  32.726  1.00  0.00     0.124 S 
ATOM     72  O   UNL A   1      36.526  30.116  32.717  1.00  0.00    -0.237 OA
ATOM     73  O   UNL A   1      37.616  27.902  32.900  1.00  0.00    -0.237 OA
ATOM     74  O   UNL A   1      38.866  29.950  33.468  1.00  0.00    -0.744 OA
ENDBRANCH  67  71
ENDBRANCH  50  64
BRANCH  51  75
ATOM     75  C   UNL A   1      49.252  27.039  26.022  1.00  0.00     0.023 A 
ATOM     76  C   UNL A   1      49.569  27.454  24.719  1.00  0.00     0.031 A 
ATOM     77  C   UNL A   1      50.217  26.299  26.729  1.00  0.00     0.131 A 
ATOM     78  C   UNL A   1      50.788  27.073  24.139  1.00  0.00     0.055 A 
ATOM     79  C   UNL A   1      51.453  25.972  26.169  1.00  0.00     0.041 A 
ATOM     80  F   UNL A   1      49.970  25.883  27.981  1.00  0.00    -0.206 F 
ATOM     81  C   UNL A   1      51.737  26.344  24.859  1.00  0.00     0.022 A 
BRANCH  78  82
ATOM     82  S   UNL A   1      51.069  27.447  22.386  1.00  0.00     0.124 S 
ATOM     83  O   UNL A   1      50.972  28.902  22.371  1.00  0.00    -0.237 OA
ATOM     84  O   UNL A   1      52.400  26.890  22.169  1.00  0.00    -0.237 OA
ATOM     85  O   UNL A   1      49.983  26.742  21.710  1.00  0.00    -0.744 OA
ENDBRANCH  78  82
ENDBRANCH  51  75
BRANCH  63  86
ATOM     86  C   UNL A   1      46.319  32.739  28.761  1.00  0.00     0.023 A 
ATOM     87  C   UNL A   1      46.195  33.809  27.858  1.00  0.00     0.031 A 
ATOM     88  C   UNL A   1      46.984  32.971  29.977  1.00  0.00     0.131 A 
ATOM     89  C   UNL A   1      46.777  35.049  28.161  1.00  0.00     0.055 A 
ATOM     90  C   UNL A   1      47.511  34.222  30.299  1.00  0.00     0.041 A 
ATOM     91  F   UNL A   1      47.131  31.984  30.874  1.00  0.00    -0.206 F 
ATOM     92  C   UNL A   1      47.420  35.267  29.383  1.00  0.00     0.022 A 
BRANCH  89  93
ATOM     93  S   UNL A   1      46.757  36.353  26.902  1.00  0.00     0.124 S 
ATOM     94  O   UNL A   1      47.545  35.752  25.830  1.00  0.00    -0.237 OA
ATOM     95  O   UNL A   1      45.330  36.508  26.635  1.00  0.00    -0.237 OA
ATOM     96  O   UNL A   1      47.386  37.489  27.573  1.00  0.00    -0.744 OA
ENDBRANCH  89  93
ENDBRANCH  63  86
ENDBRANCH  37  38
ENDBRANCH  29  32
ENDBRANCH  27  28
ENDBRANCH  26  27
ENDBRANCH   1  26
TORSDOF 17
ENDMDL
