MODEL 1
REMARK VINA RESULT:     -13.0      0.000      0.000
REMARK SMILES CC(=O)Nc1cccc(-c2ccc(F)c(C(=O)NCCCCNC(=O)c3ccc(-c4c5nc(c(-c6cc(S(=O)(=O)[O-])ccc6F)c6ccc([nH]6)c(-c6cc(S(=O)(=O)[O-])ccc6F)c6nc(c(-c7cc(S(=O)(=O)[O-])ccc7F)c7ccc4[nH]7)C=C6)C=C5)cc3)c2)c1
REMARK SMILES IDX 21 1 20 2 19 3 18 4 16 5 17 6 15 8 10 9 11 10 89 11 12 12
REMARK SMILES IDX 13 13 14 14 9 15 5 16 6 17 90 18 7 19 8 20 4 21 1 22 2 23
REMARK SMILES IDX 3 24 22 26 23 27 24 28 25 30 26 31 27 32 88 33 28 34 87 35
REMARK SMILES IDX 29 36 30 37 31 38 81 39 32 40 86 41 80 42 82 43 33 44 85 45
REMARK SMILES IDX 79 46 78 47 34 49 66 50 46 51 65 52 47 53 50 54 64 55 83 56
REMARK SMILES IDX 48 57 49 58 63 60 84 61 51 62 35 63 36 64 44 65 37 66 43 67
REMARK SMILES IDX 45 68 42 69 38 70 39 71 40 72 41 73 67 74 68 75 76 76 69 77
REMARK SMILES IDX 75 78 77 79 74 80 70 81 71 82 72 83 73 84 52 85 53 86 61 87
REMARK SMILES IDX 54 88 60 89 62 90 59 91 55 92 56 93 57 94 58 95
REMARK H PARENT 18 7 4 25 23 29 82 48 50 59
REMARK Flexibility Score: inf
ROOT
ATOM      1  C   UNL A   1      36.109  21.238  25.653  1.00  0.00     0.023 C 
ENDROOT
BRANCH   1   2
ATOM      2  C   UNL A   1      35.343  22.542  25.831  1.00  0.00     0.023 C 
BRANCH   2   3
ATOM      3  C   UNL A   1      34.957  23.291  24.564  1.00  0.00     0.116 C 
BRANCH   3   4
ATOM      4  N   UNL A   1      34.159  22.534  23.607  1.00  0.00    -0.352 N 
ATOM      5  C   UNL A   1      32.791  22.452  23.417  1.00  0.00     0.254 C 
ATOM      6  O   UNL A   1      32.367  21.782  22.480  1.00  0.00    -0.269 OA
ATOM      7  H   UNL A   1      34.688  21.982  22.987  1.00  0.00     0.163 HD
BRANCH   5   8
ATOM      8  C   UNL A   1      31.833  23.126  24.329  1.00  0.00     0.076 A 
ATOM      9  C   UNL A   1      30.672  25.166  25.018  1.00  0.00    -0.017 A 
ATOM     10  C   UNL A   1      30.320  24.538  26.220  1.00  0.00     0.012 A 
ATOM     11  C   UNL A   1      31.323  24.393  24.039  1.00  0.00     0.025 A 
ATOM     12  C   UNL A   1      30.684  23.209  26.458  1.00  0.00     0.041 A 
ATOM     13  C   UNL A   1      31.468  22.524  25.530  1.00  0.00     0.135 A 
ATOM     14  F   UNL A   1      31.892  21.295  25.857  1.00  0.00    -0.206 F 
BRANCH   9  15
ATOM     15  C   UNL A   1      30.566  26.625  24.816  1.00  0.00    -0.016 A 
ATOM     16  C   UNL A   1      29.979  28.513  23.372  1.00  0.00     0.041 A 
ATOM     17  C   UNL A   1      30.796  29.344  24.144  1.00  0.00     0.026 A 
ATOM     18  C   UNL A   1      29.874  27.163  23.714  1.00  0.00     0.034 A 
ATOM     19  C   UNL A   1      31.448  28.849  25.271  1.00  0.00     0.003 A 
ATOM     20  C   UNL A   1      31.330  27.501  25.605  1.00  0.00     0.009 A 
BRANCH  16  21
ATOM     21  N   UNL A   1      29.384  29.085  22.236  1.00  0.00    -0.326 N 
ATOM     22  C   UNL A   1      27.797  30.718  23.257  1.00  0.00     0.114 C 
ATOM     23  C   UNL A   1      28.353  29.965  22.081  1.00  0.00     0.221 C 
ATOM     24  O   UNL A   1      27.927  30.181  20.945  1.00  0.00    -0.275 OA
ATOM     25  H   UNL A   1      29.788  28.794  21.386  1.00  0.00     0.169 HD
ENDBRANCH  16  21
ENDBRANCH   9  15
ENDBRANCH   5   8
ENDBRANCH   3   4
ENDBRANCH   2   3
ENDBRANCH   1   2
BRANCH   1  26
ATOM     26  C   UNL A   1      37.463  21.334  24.959  1.00  0.00     0.116 C 
BRANCH  26  27
ATOM     27  N   UNL A   1      38.417  20.316  25.373  1.00  0.00    -0.352 N 
ATOM     28  C   UNL A   1      39.582  20.435  26.103  1.00  0.00     0.251 C 
ATOM     29  H   UNL A   1      38.197  19.400  25.085  1.00  0.00     0.163 HD
ATOM     30  O   UNL A   1      40.287  19.452  26.276  1.00  0.00    -0.269 OA
BRANCH  28  31
ATOM     31  C   UNL A   1      40.000  21.759  26.625  1.00  0.00     0.039 A 
ATOM     32  C   UNL A   1      40.991  21.808  27.610  1.00  0.00     0.014 A 
ATOM     33  C   UNL A   1      39.450  22.942  26.129  1.00  0.00     0.014 A 
ATOM     34  C   UNL A   1      41.504  23.044  28.017  1.00  0.00     0.010 A 
ATOM     35  C   UNL A   1      40.020  24.166  26.472  1.00  0.00     0.010 A 
ATOM     36  C   UNL A   1      41.061  24.230  27.409  1.00  0.00    -0.014 A 
BRANCH  36  37
ATOM     37  C   UNL A   1      41.690  25.542  27.720  1.00  0.00     0.031 A 
ATOM     38  C   UNL A   1      40.909  26.603  28.448  1.00  0.00     0.074 A 
ATOM     39  C   UNL A   1      42.926  25.815  27.256  1.00  0.00     0.049 A 
ATOM     40  N   UNL A   1      41.243  27.839  28.717  1.00  0.00    -0.248 NA
ATOM     41  C   UNL A   1      39.559  26.233  28.890  1.00  0.00     0.031 C 
ATOM     42  C   UNL A   1      43.758  24.896  26.475  1.00  0.00     0.029 A 
ATOM     43  N   UNL A   1      43.692  26.951  27.354  1.00  0.00    -0.354 N 
ATOM     44  C   UNL A   1      40.132  28.404  29.338  1.00  0.00     0.074 A 
ATOM     45  C   UNL A   1      39.100  27.388  29.343  1.00  0.00     0.031 C 
ATOM     46  C   UNL A   1      44.917  25.499  26.174  1.00  0.00     0.029 A 
ATOM     47  C   UNL A   1      44.901  26.859  26.704  1.00  0.00     0.049 A 
ATOM     48  H   UNL A   1      43.402  27.755  27.842  1.00  0.00     0.167 HD
ATOM     49  C   UNL A   1      39.996  29.644  29.871  1.00  0.00     0.034 A 
ATOM     50  C   UNL A   1      45.880  27.770  26.539  1.00  0.00     0.034 A 
ATOM     51  C   UNL A   1      41.045  30.635  29.872  1.00  0.00     0.049 A 
ATOM     52  C   UNL A   1      45.721  29.134  27.155  1.00  0.00     0.074 A 
ATOM     53  C   UNL A   1      41.050  31.886  30.465  1.00  0.00     0.029 A 
ATOM     54  N   UNL A   1      42.273  30.495  29.237  1.00  0.00    -0.354 N 
ATOM     55  N   UNL A   1      44.696  29.627  27.812  1.00  0.00    -0.248 NA
ATOM     56  C   UNL A   1      46.854  30.057  27.019  1.00  0.00     0.031 C 
ATOM     57  C   UNL A   1      42.251  32.525  30.133  1.00  0.00     0.029 A 
ATOM     58  C   UNL A   1      43.029  31.649  29.394  1.00  0.00     0.049 A 
ATOM     59  H   UNL A   1      42.566  29.693  28.746  1.00  0.00     0.167 HD
ATOM     60  C   UNL A   1      45.070  30.915  28.184  1.00  0.00     0.074 A 
ATOM     61  C   UNL A   1      46.419  31.114  27.692  1.00  0.00     0.031 C 
ATOM     62  C   UNL A   1      44.364  31.845  28.877  1.00  0.00     0.034 A 
BRANCH  49  63
ATOM     63  C   UNL A   1      38.650  29.995  30.466  1.00  0.00     0.023 A 
ATOM     64  C   UNL A   1      37.675  30.692  29.730  1.00  0.00     0.031 A 
ATOM     65  C   UNL A   1      38.360  29.684  31.807  1.00  0.00     0.131 A 
ATOM     66  C   UNL A   1      36.507  31.143  30.362  1.00  0.00     0.055 A 
ATOM     67  C   UNL A   1      37.154  30.056  32.405  1.00  0.00     0.041 A 
ATOM     68  F   UNL A   1      39.256  29.036  32.568  1.00  0.00    -0.206 F 
ATOM     69  C   UNL A   1      36.228  30.809  31.689  1.00  0.00     0.022 A 
BRANCH  66  70
ATOM     70  S   UNL A   1      35.451  32.326  29.480  1.00  0.00     0.124 S 
ATOM     71  O   UNL A   1      34.380  32.546  30.450  1.00  0.00    -0.237 OA
ATOM     72  O   UNL A   1      36.354  33.449  29.258  1.00  0.00    -0.237 OA
ATOM     73  O   UNL A   1      35.050  31.598  28.278  1.00  0.00    -0.744 OA
ENDBRANCH  66  70
ENDBRANCH  49  63
BRANCH  50  74
ATOM     74  C   UNL A   1      47.092  27.421  25.746  1.00  0.00     0.023 A 
ATOM     75  C   UNL A   1      47.186  27.740  24.382  1.00  0.00     0.031 A 
ATOM     76  C   UNL A   1      48.179  26.762  26.348  1.00  0.00     0.131 A 
ATOM     77  C   UNL A   1      48.331  27.375  23.657  1.00  0.00     0.055 A 
ATOM     78  C   UNL A   1      49.332  26.437  25.632  1.00  0.00     0.041 A 
ATOM     79  F   UNL A   1      48.143  26.449  27.653  1.00  0.00    -0.206 F 
ATOM     80  C   UNL A   1      49.409  26.736  24.276  1.00  0.00     0.022 A 
BRANCH  77  81
ATOM     81  S   UNL A   1      48.378  27.714  21.876  1.00  0.00     0.124 S 
ATOM     82  O   UNL A   1      49.506  28.633  21.777  1.00  0.00    -0.237 OA
ATOM     83  O   UNL A   1      48.584  26.382  21.318  1.00  0.00    -0.237 OA
ATOM     84  O   UNL A   1      47.067  28.301  21.607  1.00  0.00    -0.744 OA
ENDBRANCH  77  81
ENDBRANCH  50  74
BRANCH  62  85
ATOM     85  C   UNL A   1      45.058  33.154  29.167  1.00  0.00     0.023 A 
ATOM     86  C   UNL A   1      44.988  34.241  28.278  1.00  0.00     0.031 A 
ATOM     87  C   UNL A   1      45.806  33.310  30.346  1.00  0.00     0.131 A 
ATOM     88  C   UNL A   1      45.698  35.419  28.558  1.00  0.00     0.055 A 
ATOM     89  C   UNL A   1      46.464  34.503  30.646  1.00  0.00     0.041 A 
ATOM     90  F   UNL A   1      45.909  32.303  31.228  1.00  0.00    -0.206 F 
ATOM     91  C   UNL A   1      46.423  35.562  29.744  1.00  0.00     0.022 A 
BRANCH  88  92
ATOM     92  S   UNL A   1      45.734  36.734  27.309  1.00  0.00     0.124 S 
ATOM     93  O   UNL A   1      44.349  37.195  27.314  1.00  0.00    -0.237 OA
ATOM     94  O   UNL A   1      46.718  37.661  27.858  1.00  0.00    -0.237 OA
ATOM     95  O   UNL A   1      46.151  36.039  26.091  1.00  0.00    -0.744 OA
ENDBRANCH  88  92
ENDBRANCH  62  85
ENDBRANCH  36  37
ENDBRANCH  28  31
ENDBRANCH  26  27
ENDBRANCH   1  26
TORSDOF 16
ENDMDL
MODEL 2
REMARK VINA RESULT:     -13.0      5.225     10.755
REMARK SMILES CC(=O)Nc1cccc(-c2ccc(F)c(C(=O)NCCCCNC(=O)c3ccc(-c4c5nc(c(-c6cc(S(=O)(=O)[O-])ccc6F)c6ccc([nH]6)c(-c6cc(S(=O)(=O)[O-])ccc6F)c6nc(c(-c7cc(S(=O)(=O)[O-])ccc7F)c7ccc4[nH]7)C=C6)C=C5)cc3)c2)c1
REMARK SMILES IDX 21 1 20 2 19 3 18 4 16 5 17 6 15 8 10 9 11 10 89 11 12 12
REMARK SMILES IDX 13 13 14 14 9 15 5 16 6 17 90 18 7 19 8 20 4 21 1 22 2 23
REMARK SMILES IDX 3 24 22 26 23 27 24 28 25 30 26 31 27 32 88 33 28 34 87 35
REMARK SMILES IDX 29 36 30 37 31 38 81 39 32 40 86 41 80 42 82 43 33 44 85 45
REMARK SMILES IDX 79 46 78 47 34 49 66 50 46 51 65 52 47 53 50 54 64 55 83 56
REMARK SMILES IDX 48 57 49 58 63 60 84 61 51 62 35 63 36 64 44 65 37 66 43 67
REMARK SMILES IDX 45 68 42 69 38 70 39 71 40 72 41 73 67 74 68 75 76 76 69 77
REMARK SMILES IDX 75 78 77 79 74 80 70 81 71 82 72 83 73 84 52 85 53 86 61 87
REMARK SMILES IDX 54 88 60 89 62 90 59 91 55 92 56 93 57 94 58 95
REMARK H PARENT 18 7 4 25 23 29 82 48 50 59
REMARK Flexibility Score: inf
ROOT
ATOM      1  C   UNL A   1      31.075  30.037  25.370  1.00  0.00     0.023 C 
ENDROOT
BRANCH   1   2
ATOM      2  C   UNL A   1      31.477  29.195  24.166  1.00  0.00     0.023 C 
BRANCH   2   3
ATOM      3  C   UNL A   1      32.865  28.572  24.195  1.00  0.00     0.116 C 
BRANCH   3   4
ATOM      4  N   UNL A   1      33.338  28.038  22.924  1.00  0.00    -0.352 N 
ATOM      5  C   UNL A   1      33.217  26.782  22.356  1.00  0.00     0.254 C 
ATOM      6  O   UNL A   1      33.653  26.605  21.222  1.00  0.00    -0.269 OA
ATOM      7  H   UNL A   1      33.830  28.687  22.371  1.00  0.00     0.163 HD
BRANCH   5   8
ATOM      8  C   UNL A   1      32.606  25.647  23.091  1.00  0.00     0.076 A 
ATOM      9  C   UNL A   1      32.831  23.417  24.072  1.00  0.00    -0.017 A 
ATOM     10  C   UNL A   1      31.435  23.331  24.152  1.00  0.00     0.012 A 
ATOM     11  C   UNL A   1      33.391  24.637  23.652  1.00  0.00     0.025 A 
ATOM     12  C   UNL A   1      30.634  24.403  23.746  1.00  0.00     0.041 A 
ATOM     13  C   UNL A   1      31.220  25.537  23.185  1.00  0.00     0.135 A 
ATOM     14  F   UNL A   1      30.408  26.486  22.700  1.00  0.00    -0.206 F 
BRANCH   9  15
ATOM     15  C   UNL A   1      33.715  22.243  24.219  1.00  0.00    -0.016 A 
ATOM     16  C   UNL A   1      34.028  19.919  24.921  1.00  0.00     0.041 A 
ATOM     17  C   UNL A   1      35.407  20.140  25.002  1.00  0.00     0.026 A 
ATOM     18  C   UNL A   1      33.198  20.972  24.532  1.00  0.00     0.034 A 
ATOM     19  C   UNL A   1      35.949  21.372  24.646  1.00  0.00     0.003 A 
ATOM     20  C   UNL A   1      35.109  22.414  24.253  1.00  0.00     0.009 A 
BRANCH  16  21
ATOM     21  N   UNL A   1      33.562  18.659  25.329  1.00  0.00    -0.326 N 
ATOM     22  C   UNL A   1      32.963  17.604  23.148  1.00  0.00     0.114 C 
ATOM     23  C   UNL A   1      32.977  17.630  24.650  1.00  0.00     0.221 C 
ATOM     24  O   UNL A   1      32.515  16.686  25.295  1.00  0.00    -0.275 OA
ATOM     25  H   UNL A   1      33.679  18.484  26.291  1.00  0.00     0.169 HD
ENDBRANCH  16  21
ENDBRANCH   9  15
ENDBRANCH   5   8
ENDBRANCH   3   4
ENDBRANCH   2   3
ENDBRANCH   1   2
BRANCH   1  26
ATOM     26  C   UNL A   1      32.210  30.551  26.249  1.00  0.00     0.116 C 
BRANCH  26  27
ATOM     27  N   UNL A   1      32.059  31.938  26.665  1.00  0.00    -0.352 N 
ATOM     28  C   UNL A   1      32.891  32.732  27.428  1.00  0.00     0.251 C 
ATOM     29  H   UNL A   1      31.234  32.377  26.355  1.00  0.00     0.163 HD
ATOM     30  O   UNL A   1      32.535  33.861  27.729  1.00  0.00    -0.269 OA
BRANCH  28  31
ATOM     31  C   UNL A   1      34.183  32.196  27.921  1.00  0.00     0.039 A 
ATOM     32  C   UNL A   1      35.259  33.075  28.073  1.00  0.00     0.014 A 
ATOM     33  C   UNL A   1      34.327  30.850  28.263  1.00  0.00     0.014 A 
ATOM     34  C   UNL A   1      36.442  32.627  28.669  1.00  0.00     0.010 A 
ATOM     35  C   UNL A   1      35.473  30.428  28.934  1.00  0.00     0.010 A 
ATOM     36  C   UNL A   1      36.538  31.314  29.155  1.00  0.00    -0.014 A 
BRANCH  36  37
ATOM     37  C   UNL A   1      37.729  30.854  29.920  1.00  0.00     0.031 A 
ATOM     38  C   UNL A   1      38.703  29.890  29.298  1.00  0.00     0.074 A 
ATOM     39  C   UNL A   1      37.877  31.223  31.208  1.00  0.00     0.049 A 
ATOM     40  N   UNL A   1      39.738  29.295  29.834  1.00  0.00    -0.248 NA
ATOM     41  C   UNL A   1      38.449  29.516  27.901  1.00  0.00     0.031 C 
ATOM     42  C   UNL A   1      36.962  32.095  31.947  1.00  0.00     0.029 A 
ATOM     43  N   UNL A   1      38.838  30.895  32.131  1.00  0.00    -0.354 N 
ATOM     44  C   UNL A   1      40.244  28.455  28.847  1.00  0.00     0.074 A 
ATOM     45  C   UNL A   1      39.360  28.575  27.706  1.00  0.00     0.031 C 
ATOM     46  C   UNL A   1      37.410  32.240  33.203  1.00  0.00     0.029 A 
ATOM     47  C   UNL A   1      38.620  31.443  33.374  1.00  0.00     0.049 A 
ATOM     48  H   UNL A   1      39.610  30.320  31.924  1.00  0.00     0.167 HD
ATOM     49  C   UNL A   1      41.353  27.673  28.883  1.00  0.00     0.034 A 
ATOM     50  C   UNL A   1      39.307  31.309  34.526  1.00  0.00     0.034 A 
ATOM     51  C   UNL A   1      42.231  27.582  30.025  1.00  0.00     0.049 A 
ATOM     52  C   UNL A   1      40.546  30.455  34.542  1.00  0.00     0.074 A 
ATOM     53  C   UNL A   1      43.430  26.899  30.139  1.00  0.00     0.029 A 
ATOM     54  N   UNL A   1      42.001  28.182  31.257  1.00  0.00    -0.354 N 
ATOM     55  N   UNL A   1      41.060  29.729  33.576  1.00  0.00    -0.248 NA
ATOM     56  C   UNL A   1      41.303  30.412  35.799  1.00  0.00     0.031 C 
ATOM     57  C   UNL A   1      43.887  27.031  31.456  1.00  0.00     0.029 A 
ATOM     58  C   UNL A   1      43.014  27.856  32.147  1.00  0.00     0.049 A 
ATOM     59  H   UNL A   1      41.229  28.756  31.469  1.00  0.00     0.167 HD
ATOM     60  C   UNL A   1      42.214  29.158  34.104  1.00  0.00     0.074 A 
ATOM     61  C   UNL A   1      42.327  29.637  35.468  1.00  0.00     0.031 C 
ATOM     62  C   UNL A   1      43.103  28.320  33.512  1.00  0.00     0.034 A 
BRANCH  49  63
ATOM     63  C   UNL A   1      41.649  26.838  27.658  1.00  0.00     0.023 A 
ATOM     64  C   UNL A   1      41.343  25.465  27.607  1.00  0.00     0.031 A 
ATOM     65  C   UNL A   1      42.300  27.405  26.548  1.00  0.00     0.131 A 
ATOM     66  C   UNL A   1      41.778  24.688  26.523  1.00  0.00     0.055 A 
ATOM     67  C   UNL A   1      42.648  26.644  25.430  1.00  0.00     0.041 A 
ATOM     68  F   UNL A   1      42.634  28.705  26.541  1.00  0.00    -0.206 F 
ATOM     69  C   UNL A   1      42.408  25.272  25.422  1.00  0.00     0.022 A 
BRANCH  66  70
ATOM     70  S   UNL A   1      41.674  22.882  26.660  1.00  0.00     0.124 S 
ATOM     71  O   UNL A   1      42.230  22.457  25.376  1.00  0.00    -0.237 OA
ATOM     72  O   UNL A   1      42.493  22.608  27.834  1.00  0.00    -0.237 OA
ATOM     73  O   UNL A   1      40.243  22.633  26.822  1.00  0.00    -0.744 OA
ENDBRANCH  66  70
ENDBRANCH  49  63
BRANCH  50  74
ATOM     74  C   UNL A   1      38.828  31.992  35.760  1.00  0.00     0.023 A 
ATOM     75  C   UNL A   1      38.153  31.285  36.768  1.00  0.00     0.031 A 
ATOM     76  C   UNL A   1      39.042  33.369  35.947  1.00  0.00     0.131 A 
ATOM     77  C   UNL A   1      37.691  31.963  37.907  1.00  0.00     0.055 A 
ATOM     78  C   UNL A   1      38.617  34.031  37.100  1.00  0.00     0.041 A 
ATOM     79  F   UNL A   1      39.695  34.086  35.018  1.00  0.00    -0.206 F 
ATOM     80  C   UNL A   1      37.929  33.329  38.085  1.00  0.00     0.022 A 
BRANCH  77  81
ATOM     81  S   UNL A   1      36.738  31.040  39.142  1.00  0.00     0.124 S 
ATOM     82  O   UNL A   1      35.525  31.844  39.246  1.00  0.00    -0.237 OA
ATOM     83  O   UNL A   1      36.591  29.737  38.502  1.00  0.00    -0.237 OA
ATOM     84  O   UNL A   1      37.602  31.057  40.321  1.00  0.00    -0.744 OA
ENDBRANCH  77  81
ENDBRANCH  50  74
BRANCH  62  85
ATOM     85  C   UNL A   1      44.294  27.894  34.336  1.00  0.00     0.023 A 
ATOM     86  C   UNL A   1      44.261  26.744  35.145  1.00  0.00     0.031 A 
ATOM     87  C   UNL A   1      45.475  28.657  34.318  1.00  0.00     0.131 A 
ATOM     88  C   UNL A   1      45.370  26.418  35.941  1.00  0.00     0.055 A 
ATOM     89  C   UNL A   1      46.594  28.296  35.069  1.00  0.00     0.041 A 
ATOM     90  F   UNL A   1      45.559  29.766  33.567  1.00  0.00    -0.206 F 
ATOM     91  C   UNL A   1      46.542  27.178  35.896  1.00  0.00     0.022 A 
BRANCH  88  92
ATOM     92  S   UNL A   1      45.232  25.034  37.105  1.00  0.00     0.124 S 
ATOM     93  O   UNL A   1      44.065  25.416  37.893  1.00  0.00    -0.237 OA
ATOM     94  O   UNL A   1      45.054  23.892  36.214  1.00  0.00    -0.237 OA
ATOM     95  O   UNL A   1      46.504  25.063  37.826  1.00  0.00    -0.744 OA
ENDBRANCH  88  92
ENDBRANCH  62  85
ENDBRANCH  36  37
ENDBRANCH  28  31
ENDBRANCH  26  27
ENDBRANCH   1  26
TORSDOF 16
ENDMDL
MODEL 3
REMARK VINA RESULT:     -12.9      5.881     11.243
REMARK SMILES CC(=O)Nc1cccc(-c2ccc(F)c(C(=O)NCCCCNC(=O)c3ccc(-c4c5nc(c(-c6cc(S(=O)(=O)[O-])ccc6F)c6ccc([nH]6)c(-c6cc(S(=O)(=O)[O-])ccc6F)c6nc(c(-c7cc(S(=O)(=O)[O-])ccc7F)c7ccc4[nH]7)C=C6)C=C5)cc3)c2)c1
REMARK SMILES IDX 21 1 20 2 19 3 18 4 16 5 17 6 15 8 10 9 11 10 89 11 12 12
REMARK SMILES IDX 13 13 14 14 9 15 5 16 6 17 90 18 7 19 8 20 4 21 1 22 2 23
REMARK SMILES IDX 3 24 22 26 23 27 24 28 25 30 26 31 27 32 88 33 28 34 87 35
REMARK SMILES IDX 29 36 30 37 31 38 81 39 32 40 86 41 80 42 82 43 33 44 85 45
REMARK SMILES IDX 79 46 78 47 34 49 66 50 46 51 65 52 47 53 50 54 64 55 83 56
REMARK SMILES IDX 48 57 49 58 63 60 84 61 51 62 35 63 36 64 44 65 37 66 43 67
REMARK SMILES IDX 45 68 42 69 38 70 39 71 40 72 41 73 67 74 68 75 76 76 69 77
REMARK SMILES IDX 75 78 77 79 74 80 70 81 71 82 72 83 73 84 52 85 53 86 61 87
REMARK SMILES IDX 54 88 60 89 62 90 59 91 55 92 56 93 57 94 58 95
REMARK H PARENT 18 7 4 25 23 29 82 48 50 59
REMARK Flexibility Score: inf
ROOT
ATOM      1  C   UNL A   1      31.825  31.655  26.793  1.00  0.00     0.023 C 
ENDROOT
BRANCH   1   2
ATOM      2  C   UNL A   1      32.082  30.154  26.789  1.00  0.00     0.023 C 
BRANCH   2   3
ATOM      3  C   UNL A   1      33.470  29.695  26.363  1.00  0.00     0.116 C 
BRANCH   3   4
ATOM      4  N   UNL A   1      33.622  29.397  24.945  1.00  0.00    -0.352 N 
ATOM      5  C   UNL A   1      33.210  28.315  24.187  1.00  0.00     0.254 C 
ATOM      6  O   UNL A   1      33.406  28.337  22.975  1.00  0.00    -0.269 OA
ATOM      7  H   UNL A   1      34.103  30.087  24.435  1.00  0.00     0.163 HD
BRANCH   5   8
ATOM      8  C   UNL A   1      32.569  27.126  24.804  1.00  0.00     0.076 A 
ATOM      9  C   UNL A   1      32.741  24.809  25.568  1.00  0.00    -0.017 A 
ATOM     10  C   UNL A   1      31.342  24.743  25.626  1.00  0.00     0.012 A 
ATOM     11  C   UNL A   1      33.328  26.052  25.272  1.00  0.00     0.025 A 
ATOM     12  C   UNL A   1      30.567  25.865  25.317  1.00  0.00     0.041 A 
ATOM     13  C   UNL A   1      31.181  27.036  24.873  1.00  0.00     0.135 A 
ATOM     14  F   UNL A   1      30.391  28.043  24.474  1.00  0.00    -0.206 F 
BRANCH   9  15
ATOM     15  C   UNL A   1      33.601  23.609  25.609  1.00  0.00    -0.016 A 
ATOM     16  C   UNL A   1      33.844  21.206  26.012  1.00  0.00     0.041 A 
ATOM     17  C   UNL A   1      35.217  21.388  26.205  1.00  0.00     0.026 A 
ATOM     18  C   UNL A   1      33.051  22.317  25.718  1.00  0.00     0.034 A 
ATOM     19  C   UNL A   1      35.794  22.646  26.049  1.00  0.00     0.003 A 
ATOM     20  C   UNL A   1      34.992  23.747  25.749  1.00  0.00     0.009 A 
BRANCH  16  21
ATOM     21  N   UNL A   1      33.339  19.912  26.219  1.00  0.00    -0.326 N 
ATOM     22  C   UNL A   1      32.827  19.183  23.887  1.00  0.00     0.114 C 
ATOM     23  C   UNL A   1      32.771  19.000  25.378  1.00  0.00     0.221 C 
ATOM     24  O   UNL A   1      32.264  17.987  25.864  1.00  0.00    -0.275 OA
ATOM     25  H   UNL A   1      33.408  19.604  27.152  1.00  0.00     0.169 HD
ENDBRANCH  16  21
ENDBRANCH   9  15
ENDBRANCH   5   8
ENDBRANCH   3   4
ENDBRANCH   2   3
ENDBRANCH   1   2
BRANCH   1  26
ATOM     26  C   UNL A   1      32.947  32.535  27.331  1.00  0.00     0.116 C 
BRANCH  26  27
ATOM     27  N   UNL A   1      32.539  33.899  27.636  1.00  0.00    -0.352 N 
ATOM     28  C   UNL A   1      33.067  34.803  28.535  1.00  0.00     0.251 C 
ATOM     29  H   UNL A   1      31.766  34.226  27.122  1.00  0.00     0.163 HD
ATOM     30  O   UNL A   1      32.519  35.884  28.694  1.00  0.00    -0.269 OA
BRANCH  28  31
ATOM     31  C   UNL A   1      34.258  34.442  29.341  1.00  0.00     0.039 A 
ATOM     32  C   UNL A   1      34.066  33.898  30.615  1.00  0.00     0.014 A 
ATOM     33  C   UNL A   1      35.550  34.602  28.839  1.00  0.00     0.014 A 
ATOM     34  C   UNL A   1      35.162  33.417  31.337  1.00  0.00     0.010 A 
ATOM     35  C   UNL A   1      36.630  34.045  29.521  1.00  0.00     0.010 A 
ATOM     36  C   UNL A   1      36.447  33.436  30.771  1.00  0.00    -0.014 A 
BRANCH  36  37
ATOM     37  C   UNL A   1      37.606  32.803  31.456  1.00  0.00     0.031 A 
ATOM     38  C   UNL A   1      38.329  31.650  30.814  1.00  0.00     0.074 A 
ATOM     39  C   UNL A   1      37.942  33.198  32.701  1.00  0.00     0.049 A 
ATOM     40  N   UNL A   1      39.289  30.902  31.294  1.00  0.00    -0.248 NA
ATOM     41  C   UNL A   1      37.878  31.264  29.471  1.00  0.00     0.031 C 
ATOM     42  C   UNL A   1      37.272  34.257  33.460  1.00  0.00     0.029 A 
ATOM     43  N   UNL A   1      38.915  32.744  33.555  1.00  0.00    -0.354 N 
ATOM     44  C   UNL A   1      39.540  29.938  30.322  1.00  0.00     0.074 A 
ATOM     45  C   UNL A   1      38.585  30.165  29.258  1.00  0.00     0.031 C 
ATOM     46  C   UNL A   1      37.859  34.375  34.661  1.00  0.00     0.029 A 
ATOM     47  C   UNL A   1      38.920  33.380  34.775  1.00  0.00     0.049 A 
ATOM     48  H   UNL A   1      39.549  32.029  33.319  1.00  0.00     0.167 HD
ATOM     49  C   UNL A   1      40.491  28.970  30.311  1.00  0.00     0.034 A 
ATOM     50  C   UNL A   1      39.681  33.176  35.869  1.00  0.00     0.034 A 
ATOM     51  C   UNL A   1      41.447  28.774  31.375  1.00  0.00     0.049 A 
ATOM     52  C   UNL A   1      40.744  32.112  35.831  1.00  0.00     0.074 A 
ATOM     53  C   UNL A   1      42.510  27.889  31.427  1.00  0.00     0.029 A 
ATOM     54  N   UNL A   1      41.446  29.463  32.582  1.00  0.00    -0.354 N 
ATOM     55  N   UNL A   1      41.025  31.261  34.872  1.00  0.00    -0.248 NA
ATOM     56  C   UNL A   1      41.601  31.991  37.018  1.00  0.00     0.031 C 
ATOM     57  C   UNL A   1      43.110  27.997  32.688  1.00  0.00     0.029 A 
ATOM     58  C   UNL A   1      42.468  28.999  33.399  1.00  0.00     0.049 A 
ATOM     59  H   UNL A   1      40.813  30.176  32.824  1.00  0.00     0.167 HD
ATOM     60  C   UNL A   1      42.106  30.515  35.332  1.00  0.00     0.074 A 
ATOM     61  C   UNL A   1      42.433  31.028  36.648  1.00  0.00     0.031 C 
ATOM     62  C   UNL A   1      42.770  29.501  34.719  1.00  0.00     0.034 A 
BRANCH  49  63
ATOM     63  C   UNL A   1      40.514  28.039  29.119  1.00  0.00     0.023 A 
ATOM     64  C   UNL A   1      41.498  28.141  28.119  1.00  0.00     0.031 A 
ATOM     65  C   UNL A   1      39.504  27.075  28.949  1.00  0.00     0.131 A 
ATOM     66  C   UNL A   1      41.394  27.372  26.951  1.00  0.00     0.055 A 
ATOM     67  C   UNL A   1      39.459  26.247  27.825  1.00  0.00     0.041 A 
ATOM     68  F   UNL A   1      38.527  26.939  29.858  1.00  0.00    -0.206 F 
ATOM     69  C   UNL A   1      40.395  26.407  26.806  1.00  0.00     0.022 A 
BRANCH  66  70
ATOM     70  S   UNL A   1      42.472  27.782  25.550  1.00  0.00     0.124 S 
ATOM     71  O   UNL A   1      43.766  27.941  26.211  1.00  0.00    -0.237 OA
ATOM     72  O   UNL A   1      42.332  26.611  24.693  1.00  0.00    -0.237 OA
ATOM     73  O   UNL A   1      41.895  29.016  25.023  1.00  0.00    -0.744 OA
ENDBRANCH  66  70
ENDBRANCH  49  63
BRANCH  50  74
ATOM     74  C   UNL A   1      39.452  33.992  37.095  1.00  0.00     0.023 A 
ATOM     75  C   UNL A   1      38.764  33.468  38.200  1.00  0.00     0.031 A 
ATOM     76  C   UNL A   1      39.924  35.314  37.174  1.00  0.00     0.131 A 
ATOM     77  C   UNL A   1      38.542  34.271  39.329  1.00  0.00     0.055 A 
ATOM     78  C   UNL A   1      39.737  36.095  38.316  1.00  0.00     0.041 A 
ATOM     79  F   UNL A   1      40.601  35.856  36.149  1.00  0.00    -0.206 F 
ATOM     80  C   UNL A   1      39.035  35.577  39.399  1.00  0.00     0.022 A 
BRANCH  77  81
ATOM     81  S   UNL A   1      37.565  33.596  40.700  1.00  0.00     0.124 S 
ATOM     82  O   UNL A   1      36.500  32.896  39.990  1.00  0.00    -0.237 OA
ATOM     83  O   UNL A   1      38.541  32.754  41.384  1.00  0.00    -0.237 OA
ATOM     84  O   UNL A   1      37.147  34.785  41.438  1.00  0.00    -0.744 OA
ENDBRANCH  77  81
ENDBRANCH  50  74
BRANCH  62  85
ATOM     85  C   UNL A   1      43.941  28.905  35.462  1.00  0.00     0.023 A 
ATOM     86  C   UNL A   1      43.787  27.806  36.327  1.00  0.00     0.031 A 
ATOM     87  C   UNL A   1      45.227  29.450  35.307  1.00  0.00     0.131 A 
ATOM     88  C   UNL A   1      44.892  27.321  37.043  1.00  0.00     0.055 A 
ATOM     89  C   UNL A   1      46.333  28.927  35.979  1.00  0.00     0.041 A 
ATOM     90  F   UNL A   1      45.431  30.500  34.496  1.00  0.00    -0.206 F 
ATOM     91  C   UNL A   1      46.167  27.864  36.862  1.00  0.00     0.022 A 
BRANCH  88  92
ATOM     92  S   UNL A   1      44.626  26.024  38.282  1.00  0.00     0.124 S 
ATOM     93  O   UNL A   1      44.598  26.791  39.523  1.00  0.00    -0.237 OA
ATOM     94  O   UNL A   1      43.356  25.444  37.862  1.00  0.00    -0.237 OA
ATOM     95  O   UNL A   1      45.789  25.151  38.120  1.00  0.00    -0.744 OA
ENDBRANCH  88  92
ENDBRANCH  62  85
ENDBRANCH  36  37
ENDBRANCH  28  31
ENDBRANCH  26  27
ENDBRANCH   1  26
TORSDOF 16
ENDMDL
