MODEL 1
REMARK VINA RESULT:     -12.9      0.000      0.000
REMARK SMILES CC(=O)C1=C(c2ccccc2)NC(=S)N[C@@H]1c1cc(Cl)ccc1OCC(=O)NCCCCNC(=O)c1ccc(-c2c3nc(c(-c4cc(S(=O)(=O)[O-])ccc4F)c4ccc([nH]4)c(-c4cc(S(=O)(=O)[O-])ccc4F)c4nc(c(-c5cc(S(=O)(=O)[O-])ccc5F)c5ccc2[nH]5)C=C4)C=C3)cc1
REMARK SMILES IDX 30 1 29 2 28 3 26 4 27 5 25 7 24 8 23 9 17 10 18 11 19 12
REMARK SMILES IDX 22 13 20 14 21 15 16 16 4 17 5 18 12 19 15 20 13 21 14 24
REMARK SMILES IDX 2 25 1 26 3 27 6 28 7 29 11 30 8 31 10 32 9 33 31 34 32 35
REMARK SMILES IDX 33 36 34 37 35 39 36 40 37 41 98 42 38 43 97 44 39 45 40 46
REMARK SMILES IDX 41 47 91 48 42 49 96 50 90 51 92 52 43 53 95 54 89 55 88 56
REMARK SMILES IDX 44 58 76 59 56 60 75 61 57 62 60 63 74 64 93 65 58 66 59 67
REMARK SMILES IDX 73 69 94 70 61 71 45 72 46 73 54 74 47 75 53 76 55 77 52 78
REMARK SMILES IDX 48 79 49 80 50 81 51 82 77 83 78 84 86 85 79 86 85 87 87 88
REMARK SMILES IDX 84 89 80 90 81 91 82 92 83 93 62 94 63 95 71 96 64 97 70 98
REMARK SMILES IDX 72 99 69 100 65 101 66 102 67 103 68 104
REMARK H PARENT 28 6 12 22 15 23 33 38 92 57 60 68
REMARK Flexibility Score: inf
ROOT
ATOM      1  C   UNL A   1      31.672  30.584  26.774  1.00  0.00     0.023 C 
ENDROOT
BRANCH   1   2
ATOM      2  C   UNL A   1      31.448  29.745  25.517  1.00  0.00     0.116 C 
BRANCH   2   3
ATOM      3  N   UNL A   1      31.089  28.360  25.764  1.00  0.00    -0.353 N 
ATOM      4  C   UNL A   1      31.803  27.415  26.451  1.00  0.00     0.257 C 
ATOM      5  O   UNL A   1      31.224  26.416  26.883  1.00  0.00    -0.271 OA
ATOM      6  H   UNL A   1      30.227  28.065  25.393  1.00  0.00     0.163 HD
BRANCH   4   7
ATOM      7  C   UNL A   1      33.308  27.585  26.666  1.00  0.00     0.329 C 
BRANCH   7   8
ATOM      8  O   UNL A   1      34.179  26.891  25.807  1.00  0.00    -0.483 OA
BRANCH   8   9
ATOM      9  C   UNL A   1      33.873  26.377  24.583  1.00  0.00     0.125 A 
ATOM     10  C   UNL A   1      33.468  25.089  24.173  1.00  0.00     0.023 A 
ATOM     11  C   UNL A   1      33.023  24.952  22.828  1.00  0.00     0.030 A 
ATOM     12  C   UNL A   1      33.060  26.004  21.914  1.00  0.00     0.041 A 
ATOM     13  C   UNL A   1      33.885  27.430  23.641  1.00  0.00     0.048 A 
ATOM     14  Cl  UNL A   1      32.544  25.757  20.293  1.00  0.00    -0.084 Cl
ATOM     15  C   UNL A   1      33.498  27.250  22.316  1.00  0.00     0.024 A 
BRANCH  10  16
ATOM     16  C   UNL A   1      33.338  23.871  25.085  1.00  0.00     0.152 C 
ATOM     17  C   UNL A   1      33.761  22.511  24.550  1.00  0.00     0.046 C 
ATOM     18  C   UNL A   1      33.036  21.405  24.822  1.00  0.00     0.057 C 
ATOM     19  N   UNL A   1      31.916  21.519  25.613  1.00  0.00    -0.332 N 
ATOM     20  N   UNL A   1      31.954  23.818  25.532  1.00  0.00    -0.351 N 
ATOM     21  C   UNL A   1      31.338  22.693  25.963  1.00  0.00     0.171 C 
ATOM     22  H   UNL A   1      31.506  20.689  25.948  1.00  0.00     0.169 HD
ATOM     23  H   UNL A   1      31.433  24.654  25.519  1.00  0.00     0.163 HD
ATOM     24  S   UNL A   1      29.902  22.742  26.793  1.00  0.00    -0.041 S 
BRANCH  17  25
ATOM     25  C   UNL A   1      35.002  22.421  23.723  1.00  0.00     0.160 C 
ATOM     26  C   UNL A   1      36.294  22.074  24.417  1.00  0.00     0.093 C 
ATOM     27  O   UNL A   1      34.976  22.639  22.513  1.00  0.00    -0.295 OA
ENDBRANCH  17  25
BRANCH  18  28
ATOM     28  C   UNL A   1      33.250  20.047  24.289  1.00  0.00    -0.002 A 
ATOM     29  C   UNL A   1      32.377  19.605  23.279  1.00  0.00     0.010 A 
ATOM     30  C   UNL A   1      34.221  19.168  24.778  1.00  0.00     0.010 A 
ATOM     31  C   UNL A   1      32.464  18.311  22.771  1.00  0.00     0.001 A 
ATOM     32  C   UNL A   1      34.312  17.871  24.260  1.00  0.00     0.001 A 
ATOM     33  C   UNL A   1      33.433  17.444  23.263  1.00  0.00     0.000 A 
ENDBRANCH  18  28
ENDBRANCH  10  16
ENDBRANCH   8   9
ENDBRANCH   7   8
ENDBRANCH   4   7
ENDBRANCH   2   3
ENDBRANCH   1   2
BRANCH   1  34
ATOM     34  C   UNL A   1      31.735  32.102  26.593  1.00  0.00     0.023 C 
BRANCH  34  35
ATOM     35  C   UNL A   1      32.911  32.824  27.245  1.00  0.00     0.116 C 
BRANCH  35  36
ATOM     36  N   UNL A   1      32.580  34.163  27.704  1.00  0.00    -0.352 N 
ATOM     37  C   UNL A   1      33.139  34.922  28.706  1.00  0.00     0.251 C 
ATOM     38  H   UNL A   1      31.838  34.595  27.221  1.00  0.00     0.163 HD
ATOM     39  O   UNL A   1      32.624  35.997  28.993  1.00  0.00    -0.269 OA
BRANCH  37  40
ATOM     40  C   UNL A   1      34.319  34.437  29.462  1.00  0.00     0.039 A 
ATOM     41  C   UNL A   1      34.108  33.767  30.671  1.00  0.00     0.014 A 
ATOM     42  C   UNL A   1      35.623  34.641  29.004  1.00  0.00     0.014 A 
ATOM     43  C   UNL A   1      35.193  33.238  31.377  1.00  0.00     0.010 A 
ATOM     44  C   UNL A   1      36.697  34.049  29.670  1.00  0.00     0.010 A 
ATOM     45  C   UNL A   1      36.495  33.334  30.861  1.00  0.00    -0.014 A 
BRANCH  45  46
ATOM     46  C   UNL A   1      37.648  32.683  31.545  1.00  0.00     0.031 A 
ATOM     47  C   UNL A   1      38.358  31.522  30.903  1.00  0.00     0.074 A 
ATOM     48  C   UNL A   1      38.020  33.104  32.772  1.00  0.00     0.049 A 
ATOM     49  N   UNL A   1      39.329  30.781  31.375  1.00  0.00    -0.248 NA
ATOM     50  C   UNL A   1      37.900  31.128  29.563  1.00  0.00     0.031 C 
ATOM     51  C   UNL A   1      37.393  34.200  33.515  1.00  0.00     0.029 A 
ATOM     52  N   UNL A   1      39.008  32.658  33.617  1.00  0.00    -0.354 N 
ATOM     53  C   UNL A   1      39.593  29.828  30.396  1.00  0.00     0.074 A 
ATOM     54  C   UNL A   1      38.637  30.051  29.331  1.00  0.00     0.031 C 
ATOM     55  C   UNL A   1      38.025  34.355  34.689  1.00  0.00     0.029 A 
ATOM     56  C   UNL A   1      39.065  33.339  34.812  1.00  0.00     0.049 A 
ATOM     57  H   UNL A   1      39.617  31.920  33.388  1.00  0.00     0.167 HD
ATOM     58  C   UNL A   1      40.554  28.872  30.377  1.00  0.00     0.034 A 
ATOM     59  C   UNL A   1      39.852  33.157  35.892  1.00  0.00     0.034 A 
ATOM     60  C   UNL A   1      41.503  28.663  31.446  1.00  0.00     0.049 A 
ATOM     61  C   UNL A   1      40.882  32.054  35.867  1.00  0.00     0.074 A 
ATOM     62  C   UNL A   1      42.545  27.754  31.506  1.00  0.00     0.029 A 
ATOM     63  N   UNL A   1      41.521  29.364  32.645  1.00  0.00    -0.354 N 
ATOM     64  N   UNL A   1      41.148  31.193  34.911  1.00  0.00    -0.248 NA
ATOM     65  C   UNL A   1      41.723  31.905  37.061  1.00  0.00     0.031 C 
ATOM     66  C   UNL A   1      43.140  27.850  32.768  1.00  0.00     0.029 A 
ATOM     67  C   UNL A   1      42.531  28.881  33.464  1.00  0.00     0.049 A 
ATOM     68  H   UNL A   1      40.906  30.095  32.880  1.00  0.00     0.167 HD
ATOM     69  C   UNL A   1      42.212  30.424  35.379  1.00  0.00     0.074 A 
ATOM     70  C   UNL A   1      42.547  30.936  36.691  1.00  0.00     0.031 C 
ATOM     71  C   UNL A   1      42.855  29.392  34.776  1.00  0.00     0.034 A 
BRANCH  58  72
ATOM     72  C   UNL A   1      40.609  27.960  29.173  1.00  0.00     0.023 A 
ATOM     73  C   UNL A   1      41.555  28.144  28.149  1.00  0.00     0.031 A 
ATOM     74  C   UNL A   1      39.700  26.896  29.042  1.00  0.00     0.131 A 
ATOM     75  C   UNL A   1      41.524  27.326  27.010  1.00  0.00     0.055 A 
ATOM     76  C   UNL A   1      39.729  26.031  27.946  1.00  0.00     0.041 A 
ATOM     77  F   UNL A   1      38.760  26.679  29.977  1.00  0.00    -0.206 F 
ATOM     78  C   UNL A   1      40.636  26.252  26.914  1.00  0.00     0.022 A 
BRANCH  75  79
ATOM     79  S   UNL A   1      42.568  27.771  25.595  1.00  0.00     0.124 S 
ATOM     80  O   UNL A   1      42.494  26.560  24.782  1.00  0.00    -0.237 OA
ATOM     81  O   UNL A   1      41.889  28.944  25.058  1.00  0.00    -0.237 OA
ATOM     82  O   UNL A   1      43.874  28.027  26.200  1.00  0.00    -0.744 OA
ENDBRANCH  75  79
ENDBRANCH  58  72
BRANCH  59  83
ATOM     83  C   UNL A   1      39.694  34.016  37.103  1.00  0.00     0.023 A 
ATOM     84  C   UNL A   1      39.071  33.529  38.262  1.00  0.00     0.031 A 
ATOM     85  C   UNL A   1      40.108  35.361  37.096  1.00  0.00     0.131 A 
ATOM     86  C   UNL A   1      38.828  34.391  39.343  1.00  0.00     0.055 A 
ATOM     87  C   UNL A   1      39.923  36.198  38.198  1.00  0.00     0.041 A 
ATOM     88  F   UNL A   1      40.709  35.883  36.013  1.00  0.00    -0.206 F 
ATOM     89  C   UNL A   1      39.264  35.718  39.326  1.00  0.00     0.022 A 
BRANCH  86  90
ATOM     90  S   UNL A   1      37.834  33.781  40.734  1.00  0.00     0.124 S 
ATOM     91  O   UNL A   1      38.758  32.849  41.371  1.00  0.00    -0.237 OA
ATOM     92  O   UNL A   1      37.553  35.011  41.467  1.00  0.00    -0.237 OA
ATOM     93  O   UNL A   1      36.679  33.167  40.081  1.00  0.00    -0.744 OA
ENDBRANCH  86  90
ENDBRANCH  59  83
BRANCH  71  94
ATOM     94  C   UNL A   1      44.025  28.783  35.514  1.00  0.00     0.023 A 
ATOM     95  C   UNL A   1      43.867  27.701  36.398  1.00  0.00     0.031 A 
ATOM     96  C   UNL A   1      45.320  29.303  35.335  1.00  0.00     0.131 A 
ATOM     97  C   UNL A   1      44.971  27.216  37.115  1.00  0.00     0.055 A 
ATOM     98  C   UNL A   1      46.426  28.771  35.999  1.00  0.00     0.041 A 
ATOM     99  F   UNL A   1      45.532  30.339  34.506  1.00  0.00    -0.206 F 
ATOM    100  C   UNL A   1      46.253  27.730  36.905  1.00  0.00     0.022 A 
BRANCH  97 101
ATOM    101  S   UNL A   1      44.696  25.967  38.402  1.00  0.00     0.124 S 
ATOM    102  O   UNL A   1      46.061  25.591  38.755  1.00  0.00    -0.237 OA
ATOM    103  O   UNL A   1      43.959  26.717  39.413  1.00  0.00    -0.237 OA
ATOM    104  O   UNL A   1      43.926  24.931  37.716  1.00  0.00    -0.744 OA
ENDBRANCH  97 101
ENDBRANCH  71  94
ENDBRANCH  45  46
ENDBRANCH  37  40
ENDBRANCH  35  36
ENDBRANCH  34  35
ENDBRANCH   1  34
TORSDOF 19
ENDMDL
MODEL 2
REMARK VINA RESULT:     -12.7      1.677      7.441
REMARK SMILES CC(=O)C1=C(c2ccccc2)NC(=S)N[C@@H]1c1cc(Cl)ccc1OCC(=O)NCCCCNC(=O)c1ccc(-c2c3nc(c(-c4cc(S(=O)(=O)[O-])ccc4F)c4ccc([nH]4)c(-c4cc(S(=O)(=O)[O-])ccc4F)c4nc(c(-c5cc(S(=O)(=O)[O-])ccc5F)c5ccc2[nH]5)C=C4)C=C3)cc1
REMARK SMILES IDX 30 1 29 2 28 3 26 4 27 5 25 7 24 8 23 9 17 10 18 11 19 12
REMARK SMILES IDX 22 13 20 14 21 15 16 16 4 17 5 18 12 19 15 20 13 21 14 24
REMARK SMILES IDX 2 25 1 26 3 27 6 28 7 29 11 30 8 31 10 32 9 33 31 34 32 35
REMARK SMILES IDX 33 36 34 37 35 39 36 40 37 41 98 42 38 43 97 44 39 45 40 46
REMARK SMILES IDX 41 47 91 48 42 49 96 50 90 51 92 52 43 53 95 54 89 55 88 56
REMARK SMILES IDX 44 58 76 59 56 60 75 61 57 62 60 63 74 64 93 65 58 66 59 67
REMARK SMILES IDX 73 69 94 70 61 71 45 72 46 73 54 74 47 75 53 76 55 77 52 78
REMARK SMILES IDX 48 79 49 80 50 81 51 82 77 83 78 84 86 85 79 86 85 87 87 88
REMARK SMILES IDX 84 89 80 90 81 91 82 92 83 93 62 94 63 95 71 96 64 97 70 98
REMARK SMILES IDX 72 99 69 100 65 101 66 102 67 103 68 104
REMARK H PARENT 28 6 12 22 15 23 33 38 92 57 60 68
REMARK Flexibility Score: inf
ROOT
ATOM      1  C   UNL A   1      30.964  31.290  25.770  1.00  0.00     0.023 C 
ENDROOT
BRANCH   1   2
ATOM      2  C   UNL A   1      31.938  30.159  26.093  1.00  0.00     0.116 C 
BRANCH   2   3
ATOM      3  N   UNL A   1      31.361  28.828  26.054  1.00  0.00    -0.353 N 
ATOM      4  C   UNL A   1      31.890  27.664  26.544  1.00  0.00     0.257 C 
ATOM      5  O   UNL A   1      31.146  26.706  26.761  1.00  0.00    -0.271 OA
ATOM      6  H   UNL A   1      30.479  28.753  25.621  1.00  0.00     0.163 HD
BRANCH   4   7
ATOM      7  C   UNL A   1      33.392  27.546  26.805  1.00  0.00     0.329 C 
BRANCH   7   8
ATOM      8  O   UNL A   1      34.202  27.033  25.777  1.00  0.00    -0.483 OA
BRANCH   8   9
ATOM      9  C   UNL A   1      33.777  26.532  24.582  1.00  0.00     0.125 A 
ATOM     10  C   UNL A   1      33.295  25.260  24.208  1.00  0.00     0.023 A 
ATOM     11  C   UNL A   1      32.735  25.141  22.905  1.00  0.00     0.030 A 
ATOM     12  C   UNL A   1      32.731  26.194  21.991  1.00  0.00     0.041 A 
ATOM     13  C   UNL A   1      33.747  27.586  23.642  1.00  0.00     0.048 A 
ATOM     14  Cl  UNL A   1      32.073  25.969  20.419  1.00  0.00    -0.084 Cl
ATOM     15  C   UNL A   1      33.244  27.423  22.354  1.00  0.00     0.024 A 
BRANCH  10  16
ATOM     16  C   UNL A   1      33.200  24.044  25.129  1.00  0.00     0.152 C 
ATOM     17  C   UNL A   1      33.627  22.687  24.591  1.00  0.00     0.046 C 
ATOM     18  C   UNL A   1      32.921  21.575  24.884  1.00  0.00     0.057 C 
ATOM     19  N   UNL A   1      31.817  21.679  25.699  1.00  0.00    -0.332 N 
ATOM     20  N   UNL A   1      31.826  23.978  25.606  1.00  0.00    -0.351 N 
ATOM     21  C   UNL A   1      31.234  22.848  26.056  1.00  0.00     0.171 C 
ATOM     22  H   UNL A   1      31.425  20.846  26.047  1.00  0.00     0.169 HD
ATOM     23  H   UNL A   1      31.295  24.807  25.601  1.00  0.00     0.163 HD
ATOM     24  S   UNL A   1      29.815  22.884  26.918  1.00  0.00    -0.041 S 
BRANCH  17  25
ATOM     25  C   UNL A   1      34.850  22.608  23.738  1.00  0.00     0.160 C 
ATOM     26  C   UNL A   1      36.157  22.255  24.401  1.00  0.00     0.093 C 
ATOM     27  O   UNL A   1      34.799  22.840  22.531  1.00  0.00    -0.295 OA
ENDBRANCH  17  25
BRANCH  18  28
ATOM     28  C   UNL A   1      33.140  20.216  24.353  1.00  0.00    -0.002 A 
ATOM     29  C   UNL A   1      32.324  19.802  23.285  1.00  0.00     0.010 A 
ATOM     30  C   UNL A   1      34.058  19.312  24.895  1.00  0.00     0.010 A 
ATOM     31  C   UNL A   1      32.415  18.510  22.772  1.00  0.00     0.001 A 
ATOM     32  C   UNL A   1      34.154  18.018  24.372  1.00  0.00     0.001 A 
ATOM     33  C   UNL A   1      33.332  17.618  23.316  1.00  0.00     0.000 A 
ENDBRANCH  18  28
ENDBRANCH  10  16
ENDBRANCH   8   9
ENDBRANCH   7   8
ENDBRANCH   4   7
ENDBRANCH   2   3
ENDBRANCH   1   2
BRANCH   1  34
ATOM     34  C   UNL A   1      31.265  32.661  26.381  1.00  0.00     0.023 C 
BRANCH  34  35
ATOM     35  C   UNL A   1      32.550  32.785  27.193  1.00  0.00     0.116 C 
BRANCH  35  36
ATOM     36  N   UNL A   1      32.740  34.106  27.769  1.00  0.00    -0.352 N 
ATOM     37  C   UNL A   1      33.682  34.557  28.664  1.00  0.00     0.251 C 
ATOM     38  H   UNL A   1      32.093  34.785  27.471  1.00  0.00     0.163 HD
ATOM     39  O   UNL A   1      33.588  35.700  29.099  1.00  0.00    -0.269 OA
BRANCH  37  40
ATOM     40  C   UNL A   1      34.773  33.669  29.137  1.00  0.00     0.039 A 
ATOM     41  C   UNL A   1      36.077  33.926  28.703  1.00  0.00     0.014 A 
ATOM     42  C   UNL A   1      34.527  32.589  29.987  1.00  0.00     0.014 A 
ATOM     43  C   UNL A   1      37.138  33.150  29.181  1.00  0.00     0.010 A 
ATOM     44  C   UNL A   1      35.594  31.865  30.521  1.00  0.00     0.010 A 
ATOM     45  C   UNL A   1      36.913  32.140  30.130  1.00  0.00    -0.014 A 
BRANCH  45  46
ATOM     46  C   UNL A   1      38.044  31.377  30.729  1.00  0.00     0.031 A 
ATOM     47  C   UNL A   1      38.512  31.682  32.127  1.00  0.00     0.074 A 
ATOM     48  C   UNL A   1      38.685  30.446  29.994  1.00  0.00     0.049 A 
ATOM     49  N   UNL A   1      39.523  31.181  32.790  1.00  0.00    -0.248 NA
ATOM     50  C   UNL A   1      37.758  32.704  32.867  1.00  0.00     0.031 C 
ATOM     51  C   UNL A   1      38.348  30.078  28.617  1.00  0.00     0.029 A 
ATOM     52  N   UNL A   1      39.760  29.643  30.294  1.00  0.00    -0.354 N 
ATOM     53  C   UNL A   1      39.533  31.829  34.021  1.00  0.00     0.074 A 
ATOM     54  C   UNL A   1      38.462  32.804  33.986  1.00  0.00     0.031 C 
ATOM     55  C   UNL A   1      39.180  29.110  28.202  1.00  0.00     0.029 A 
ATOM     56  C   UNL A   1      40.146  28.823  29.258  1.00  0.00     0.049 A 
ATOM     57  H   UNL A   1      40.213  29.655  31.167  1.00  0.00     0.167 HD
ATOM     58  C   UNL A   1      40.345  31.619  35.087  1.00  0.00     0.034 A 
ATOM     59  C   UNL A   1      41.170  27.951  29.160  1.00  0.00     0.034 A 
ATOM     60  C   UNL A   1      41.408  30.641  35.109  1.00  0.00     0.049 A 
ATOM     61  C   UNL A   1      42.090  27.770  30.343  1.00  0.00     0.074 A 
ATOM     62  C   UNL A   1      42.257  30.316  36.153  1.00  0.00     0.029 A 
ATOM     63  N   UNL A   1      41.776  29.838  34.037  1.00  0.00    -0.354 N 
ATOM     64  N   UNL A   1      42.053  28.359  31.516  1.00  0.00    -0.248 NA
ATOM     65  C   UNL A   1      43.181  26.799  30.192  1.00  0.00     0.031 C 
ATOM     66  C   UNL A   1      43.185  29.378  35.690  1.00  0.00     0.029 A 
ATOM     67  C   UNL A   1      42.862  29.047  34.384  1.00  0.00     0.049 A 
ATOM     68  H   UNL A   1      41.332  29.832  33.158  1.00  0.00     0.167 HD
ATOM     69  C   UNL A   1      43.097  27.802  32.252  1.00  0.00     0.074 A 
ATOM     70  C   UNL A   1      43.730  26.820  31.397  1.00  0.00     0.031 C 
ATOM     71  C   UNL A   1      43.492  28.075  33.522  1.00  0.00     0.034 A 
BRANCH  58  72
ATOM     72  C   UNL A   1      40.131  32.482  36.309  1.00  0.00     0.023 A 
ATOM     73  C   UNL A   1      39.187  32.146  37.296  1.00  0.00     0.031 A 
ATOM     74  C   UNL A   1      40.876  33.661  36.488  1.00  0.00     0.131 A 
ATOM     75  C   UNL A   1      38.962  33.013  38.376  1.00  0.00     0.055 A 
ATOM     76  C   UNL A   1      40.707  34.476  37.609  1.00  0.00     0.041 A 
ATOM     77  F   UNL A   1      41.779  34.046  35.572  1.00  0.00    -0.206 F 
ATOM     78  C   UNL A   1      39.736  34.162  38.555  1.00  0.00     0.022 A 
BRANCH  75  79
ATOM     79  S   UNL A   1      37.550  32.689  39.467  1.00  0.00     0.124 S 
ATOM     80  O   UNL A   1      37.692  33.753  40.456  1.00  0.00    -0.237 OA
ATOM     81  O   UNL A   1      36.415  32.807  38.559  1.00  0.00    -0.237 OA
ATOM     82  O   UNL A   1      37.809  31.341  39.971  1.00  0.00    -0.744 OA
ENDBRANCH  75  79
ENDBRANCH  58  72
BRANCH  59  83
ATOM     83  C   UNL A   1      41.406  27.193  27.895  1.00  0.00     0.023 A 
ATOM     84  C   UNL A   1      41.139  25.817  27.814  1.00  0.00     0.031 A 
ATOM     85  C   UNL A   1      41.962  27.821  26.766  1.00  0.00     0.131 A 
ATOM     86  C   UNL A   1      41.480  25.104  26.654  1.00  0.00     0.055 A 
ATOM     87  C   UNL A   1      42.241  27.121  25.591  1.00  0.00     0.041 A 
ATOM     88  F   UNL A   1      42.240  29.136  26.786  1.00  0.00    -0.206 F 
ATOM     89  C   UNL A   1      42.014  25.749  25.536  1.00  0.00     0.022 A 
BRANCH  86  90
ATOM     90  S   UNL A   1      41.318  23.296  26.667  1.00  0.00     0.124 S 
ATOM     91  O   UNL A   1      42.231  22.910  25.597  1.00  0.00    -0.237 OA
ATOM     92  O   UNL A   1      41.740  22.965  28.023  1.00  0.00    -0.237 OA
ATOM     93  O   UNL A   1      39.900  23.081  26.386  1.00  0.00    -0.744 OA
ENDBRANCH  86  90
ENDBRANCH  59  83
BRANCH  71  94
ATOM     94  C   UNL A   1      44.635  27.258  34.079  1.00  0.00     0.023 A 
ATOM     95  C   UNL A   1      44.432  26.002  34.677  1.00  0.00     0.031 A 
ATOM     96  C   UNL A   1      45.951  27.753  34.017  1.00  0.00     0.131 A 
ATOM     97  C   UNL A   1      45.515  25.313  35.244  1.00  0.00     0.055 A 
ATOM     98  C   UNL A   1      47.034  27.031  34.521  1.00  0.00     0.041 A 
ATOM     99  F   UNL A   1      46.207  28.948  33.461  1.00  0.00    -0.206 F 
ATOM    100  C   UNL A   1      46.817  25.810  35.150  1.00  0.00     0.022 A 
BRANCH  97 101
ATOM    101  S   UNL A   1      45.187  23.802  36.193  1.00  0.00     0.124 S 
ATOM    102  O   UNL A   1      46.401  23.027  35.954  1.00  0.00    -0.237 OA
ATOM    103  O   UNL A   1      45.015  24.316  37.547  1.00  0.00    -0.237 OA
ATOM    104  O   UNL A   1      43.977  23.264  35.576  1.00  0.00    -0.744 OA
ENDBRANCH  97 101
ENDBRANCH  71  94
ENDBRANCH  45  46
ENDBRANCH  37  40
ENDBRANCH  35  36
ENDBRANCH  34  35
ENDBRANCH   1  34
TORSDOF 19
ENDMDL
MODEL 3
REMARK VINA RESULT:     -12.3      5.971     10.452
REMARK SMILES CC(=O)C1=C(c2ccccc2)NC(=S)N[C@@H]1c1cc(Cl)ccc1OCC(=O)NCCCCNC(=O)c1ccc(-c2c3nc(c(-c4cc(S(=O)(=O)[O-])ccc4F)c4ccc([nH]4)c(-c4cc(S(=O)(=O)[O-])ccc4F)c4nc(c(-c5cc(S(=O)(=O)[O-])ccc5F)c5ccc2[nH]5)C=C4)C=C3)cc1
REMARK SMILES IDX 30 1 29 2 28 3 26 4 27 5 25 7 24 8 23 9 17 10 18 11 19 12
REMARK SMILES IDX 22 13 20 14 21 15 16 16 4 17 5 18 12 19 15 20 13 21 14 24
REMARK SMILES IDX 2 25 1 26 3 27 6 28 7 29 11 30 8 31 10 32 9 33 31 34 32 35
REMARK SMILES IDX 33 36 34 37 35 39 36 40 37 41 98 42 38 43 97 44 39 45 40 46
REMARK SMILES IDX 41 47 91 48 42 49 96 50 90 51 92 52 43 53 95 54 89 55 88 56
REMARK SMILES IDX 44 58 76 59 56 60 75 61 57 62 60 63 74 64 93 65 58 66 59 67
REMARK SMILES IDX 73 69 94 70 61 71 45 72 46 73 54 74 47 75 53 76 55 77 52 78
REMARK SMILES IDX 48 79 49 80 50 81 51 82 77 83 78 84 86 85 79 86 85 87 87 88
REMARK SMILES IDX 84 89 80 90 81 91 82 92 83 93 62 94 63 95 71 96 64 97 70 98
REMARK SMILES IDX 72 99 69 100 65 101 66 102 67 103 68 104
REMARK H PARENT 28 6 12 22 15 23 33 38 92 57 60 68
REMARK Flexibility Score: inf
ROOT
ATOM      1  C   UNL A   1      40.329  22.151  27.147  1.00  0.00     0.023 C 
ENDROOT
BRANCH   1   2
ATOM      2  C   UNL A   1      39.338  23.132  26.522  1.00  0.00     0.116 C 
BRANCH   2   3
ATOM      3  N   UNL A   1      38.532  22.582  25.448  1.00  0.00    -0.353 N 
ATOM      4  C   UNL A   1      37.321  23.028  24.990  1.00  0.00     0.257 C 
ATOM      5  O   UNL A   1      36.940  22.697  23.865  1.00  0.00    -0.271 OA
ATOM      6  H   UNL A   1      38.901  21.792  24.992  1.00  0.00     0.163 HD
BRANCH   4   7
ATOM      7  C   UNL A   1      36.439  23.915  25.870  1.00  0.00     0.329 C 
BRANCH   7   8
ATOM      8  O   UNL A   1      35.337  24.551  25.271  1.00  0.00    -0.483 OA
BRANCH   8   9
ATOM      9  C   UNL A   1      34.021  24.311  25.531  1.00  0.00     0.125 A 
ATOM     10  C   UNL A   1      32.836  24.847  24.983  1.00  0.00     0.023 A 
ATOM     11  C   UNL A   1      31.615  24.211  25.345  1.00  0.00     0.030 A 
ATOM     12  C   UNL A   1      31.557  23.166  26.264  1.00  0.00     0.041 A 
ATOM     13  C   UNL A   1      33.935  23.241  26.449  1.00  0.00     0.048 A 
ATOM     14  Cl  UNL A   1      30.043  22.471  26.687  1.00  0.00    -0.084 Cl
ATOM     15  C   UNL A   1      32.720  22.678  26.828  1.00  0.00     0.024 A 
BRANCH  10  16
ATOM     16  C   UNL A   1      32.769  25.954  23.932  1.00  0.00     0.152 C 
ATOM     17  C   UNL A   1      31.650  26.980  24.025  1.00  0.00     0.046 C 
ATOM     18  C   UNL A   1      31.017  27.414  22.915  1.00  0.00     0.057 C 
ATOM     19  N   UNL A   1      31.414  26.933  21.688  1.00  0.00    -0.332 N 
ATOM     20  N   UNL A   1      32.739  25.305  22.630  1.00  0.00    -0.351 N 
ATOM     21  C   UNL A   1      32.242  25.877  21.509  1.00  0.00     0.171 C 
ATOM     22  H   UNL A   1      31.071  27.388  20.885  1.00  0.00     0.169 HD
ATOM     23  H   UNL A   1      33.103  24.392  22.560  1.00  0.00     0.163 HD
ATOM     24  S   UNL A   1      32.552  25.262  19.998  1.00  0.00    -0.041 S 
BRANCH  17  25
ATOM     25  C   UNL A   1      31.270  27.506  25.371  1.00  0.00     0.160 C 
ATOM     26  C   UNL A   1      31.950  28.758  25.861  1.00  0.00     0.093 C 
ATOM     27  O   UNL A   1      30.439  26.925  26.068  1.00  0.00    -0.295 OA
ENDBRANCH  17  25
BRANCH  18  28
ATOM     28  C   UNL A   1      29.849  28.313  22.850  1.00  0.00    -0.002 A 
ATOM     29  C   UNL A   1      30.090  29.660  22.524  1.00  0.00     0.010 A 
ATOM     30  C   UNL A   1      28.546  27.912  23.156  1.00  0.00     0.010 A 
ATOM     31  C   UNL A   1      29.054  30.591  22.510  1.00  0.00     0.001 A 
ATOM     32  C   UNL A   1      27.505  28.847  23.133  1.00  0.00     0.001 A 
ATOM     33  C   UNL A   1      27.760  30.182  22.815  1.00  0.00     0.000 A 
ENDBRANCH  18  28
ENDBRANCH  10  16
ENDBRANCH   8   9
ENDBRANCH   7   8
ENDBRANCH   4   7
ENDBRANCH   2   3
ENDBRANCH   1   2
BRANCH   1  34
ATOM     34  C   UNL A   1      40.357  20.732  26.572  1.00  0.00     0.023 C 
BRANCH  34  35
ATOM     35  C   UNL A   1      41.468  19.812  27.068  1.00  0.00     0.116 C 
BRANCH  35  36
ATOM     36  N   UNL A   1      42.333  19.331  26.003  1.00  0.00    -0.352 N 
ATOM     37  C   UNL A   1      43.319  19.983  25.298  1.00  0.00     0.251 C 
ATOM     38  H   UNL A   1      42.192  18.391  25.746  1.00  0.00     0.163 HD
ATOM     39  O   UNL A   1      43.856  19.406  24.358  1.00  0.00    -0.269 OA
BRANCH  37  40
ATOM     40  C   UNL A   1      43.702  21.376  25.632  1.00  0.00     0.039 A 
ATOM     41  C   UNL A   1      43.428  22.385  24.702  1.00  0.00     0.014 A 
ATOM     42  C   UNL A   1      44.333  21.699  26.836  1.00  0.00     0.014 A 
ATOM     43  C   UNL A   1      43.715  23.718  25.012  1.00  0.00     0.010 A 
ATOM     44  C   UNL A   1      44.549  23.035  27.174  1.00  0.00     0.010 A 
ATOM     45  C   UNL A   1      44.237  24.062  26.270  1.00  0.00    -0.014 A 
BRANCH  45  46
ATOM     46  C   UNL A   1      44.448  25.486  26.655  1.00  0.00     0.031 A 
ATOM     47  C   UNL A   1      45.816  26.106  26.560  1.00  0.00     0.074 A 
ATOM     48  C   UNL A   1      43.415  26.205  27.142  1.00  0.00     0.049 A 
ATOM     49  N   UNL A   1      46.210  27.302  26.919  1.00  0.00    -0.248 NA
ATOM     50  C   UNL A   1      46.887  25.261  26.013  1.00  0.00     0.031 C 
ATOM     51  C   UNL A   1      42.047  25.711  27.311  1.00  0.00     0.029 A 
ATOM     52  N   UNL A   1      43.354  27.502  27.593  1.00  0.00    -0.354 N 
ATOM     53  C   UNL A   1      47.574  27.352  26.649  1.00  0.00     0.074 A 
ATOM     54  C   UNL A   1      47.947  26.043  26.154  1.00  0.00     0.031 C 
ATOM     55  C   UNL A   1      41.280  26.695  27.804  1.00  0.00     0.029 A 
ATOM     56  C   UNL A   1      42.106  27.875  28.040  1.00  0.00     0.049 A 
ATOM     57  H   UNL A   1      44.130  28.107  27.598  1.00  0.00     0.167 HD
ATOM     58  C   UNL A   1      48.430  28.395  26.783  1.00  0.00     0.034 A 
ATOM     59  C   UNL A   1      41.678  29.028  28.593  1.00  0.00     0.034 A 
ATOM     60  C   UNL A   1      48.042  29.696  27.276  1.00  0.00     0.049 A 
ATOM     61  C   UNL A   1      42.660  30.159  28.777  1.00  0.00     0.074 A 
ATOM     62  C   UNL A   1      48.819  30.835  27.407  1.00  0.00     0.029 A 
ATOM     63  N   UNL A   1      46.773  30.032  27.731  1.00  0.00    -0.354 N 
ATOM     64  N   UNL A   1      43.937  30.202  28.471  1.00  0.00    -0.248 NA
ATOM     65  C   UNL A   1      42.142  31.398  29.370  1.00  0.00     0.031 C 
ATOM     66  C   UNL A   1      48.045  31.830  28.011  1.00  0.00     0.029 A 
ATOM     67  C   UNL A   1      46.758  31.346  28.176  1.00  0.00     0.049 A 
ATOM     68  H   UNL A   1      45.998  29.426  27.737  1.00  0.00     0.167 HD
ATOM     69  C   UNL A   1      44.363  31.486  28.804  1.00  0.00     0.074 A 
ATOM     70  C   UNL A   1      43.204  32.188  29.316  1.00  0.00     0.031 C 
ATOM     71  C   UNL A   1      45.599  32.036  28.692  1.00  0.00     0.034 A 
BRANCH  58  72
ATOM     72  C   UNL A   1      49.877  28.164  26.414  1.00  0.00     0.023 A 
ATOM     73  C   UNL A   1      50.324  28.249  25.084  1.00  0.00     0.031 A 
ATOM     74  C   UNL A   1      50.823  27.846  27.405  1.00  0.00     0.131 A 
ATOM     75  C   UNL A   1      51.659  27.951  24.771  1.00  0.00     0.055 A 
ATOM     76  C   UNL A   1      52.168  27.633  27.099  1.00  0.00     0.041 A 
ATOM     77  F   UNL A   1      50.454  27.730  28.691  1.00  0.00    -0.206 F 
ATOM     78  C   UNL A   1      52.591  27.671  25.773  1.00  0.00     0.022 A 
BRANCH  75  79
ATOM     79  S   UNL A   1      52.126  27.797  23.026  1.00  0.00     0.124 S 
ATOM     80  O   UNL A   1      52.693  26.452  22.990  1.00  0.00    -0.237 OA
ATOM     81  O   UNL A   1      50.851  27.973  22.340  1.00  0.00    -0.237 OA
ATOM     82  O   UNL A   1      53.093  28.877  22.834  1.00  0.00    -0.744 OA
ENDBRANCH  75  79
ENDBRANCH  58  72
BRANCH  59  83
ATOM     83  C   UNL A   1      40.260  29.179  29.038  1.00  0.00     0.023 A 
ATOM     84  C   UNL A   1      39.914  29.103  30.396  1.00  0.00     0.031 A 
ATOM     85  C   UNL A   1      39.220  29.338  28.104  1.00  0.00     0.131 A 
ATOM     86  C   UNL A   1      38.564  29.128  30.779  1.00  0.00     0.055 A 
ATOM     87  C   UNL A   1      37.883  29.427  28.493  1.00  0.00     0.041 A 
ATOM     88  F   UNL A   1      39.491  29.414  26.790  1.00  0.00    -0.206 F 
ATOM     89  C   UNL A   1      37.546  29.306  29.838  1.00  0.00     0.022 A 
BRANCH  86  90
ATOM     90  S   UNL A   1      38.148  28.815  32.517  1.00  0.00     0.124 S 
ATOM     91  O   UNL A   1      38.352  27.373  32.614  1.00  0.00    -0.237 OA
ATOM     92  O   UNL A   1      39.119  29.650  33.216  1.00  0.00    -0.237 OA
ATOM     93  O   UNL A   1      36.759  29.257  32.619  1.00  0.00    -0.744 OA
ENDBRANCH  86  90
ENDBRANCH  59  83
BRANCH  71  94
ATOM     94  C   UNL A   1      45.746  33.488  29.085  1.00  0.00     0.023 A 
ATOM     95  C   UNL A   1      45.533  34.534  28.169  1.00  0.00     0.031 A 
ATOM     96  C   UNL A   1      46.116  33.829  30.399  1.00  0.00     0.131 A 
ATOM     97  C   UNL A   1      45.750  35.863  28.561  1.00  0.00     0.055 A 
ATOM     98  C   UNL A   1      46.263  35.157  30.802  1.00  0.00     0.041 A 
ATOM     99  F   UNL A   1      46.337  32.874  31.318  1.00  0.00    -0.206 F 
ATOM    100  C   UNL A   1      46.094  36.182  29.877  1.00  0.00     0.022 A 
BRANCH  97 101
ATOM    101  S   UNL A   1      45.675  37.168  27.303  1.00  0.00     0.124 S 
ATOM    102  O   UNL A   1      46.468  36.590  26.221  1.00  0.00    -0.237 OA
ATOM    103  O   UNL A   1      44.242  37.279  27.054  1.00  0.00    -0.237 OA
ATOM    104  O   UNL A   1      46.280  38.320  27.966  1.00  0.00    -0.744 OA
ENDBRANCH  97 101
ENDBRANCH  71  94
ENDBRANCH  45  46
ENDBRANCH  37  40
ENDBRANCH  35  36
ENDBRANCH  34  35
ENDBRANCH   1  34
TORSDOF 19
ENDMDL
