MODEL 1
REMARK VINA RESULT:     -14.4      0.000      0.000
REMARK SMILES Cc1oc2c(C)c3oc(=O)c(CCC(=O)N[C@H](Cc4ccc(Cl)cc4)C(=O)NCCCCNC(=O)c4ccc(-c5c6nc(c(-c7cc(S(=O)(=O)[O-])ccc7F)c7ccc([nH]7)c(-c7cc(S(=O)(=O)[O-])ccc7F)c7nc(c(-c8cc(S(=O)(=O)[O-])ccc8F)c8ccc5[nH]8)C=C7)C=C6)cc4)c(C)c3cc2c1C
REMARK SMILES IDX 30 1 29 2 28 3 26 4 27 5 17 7 16 8 14 9 15 10 13 12 12 13
REMARK SMILES IDX 11 14 1 15 2 16 3 17 104 18 4 19 103 20 105 21 5 22 102 23
REMARK SMILES IDX 6 24 7 25 101 26 8 27 99 28 9 29 100 30 10 31 18 32 19 33
REMARK SMILES IDX 20 34 25 35 21 36 24 37 22 38 23 39 31 40 32 41 33 42 34 43
REMARK SMILES IDX 35 45 36 46 37 47 98 48 38 49 97 50 39 51 40 52 41 53 91 54
REMARK SMILES IDX 42 55 96 56 90 57 92 58 43 59 95 60 89 61 88 62 44 64 76 65
REMARK SMILES IDX 56 66 75 67 57 68 60 69 74 70 93 71 58 72 59 73 73 75 94 76
REMARK SMILES IDX 61 77 45 78 46 79 54 80 47 81 53 82 55 83 52 84 48 85 49 86
REMARK SMILES IDX 50 87 51 88 77 89 78 90 86 91 79 92 85 93 87 94 84 95 80 96
REMARK SMILES IDX 81 97 82 98 83 99 62 100 63 101 71 102 64 103 70 104 72 105
REMARK SMILES IDX 69 106 65 107 66 108 67 109 68 110
REMARK H PARENT 28 6 16 11 33 44 92 63 60 74
REMARK Flexibility Score: inf
ROOT
ATOM      1  C   UNL A   1      34.870  30.397  27.496  1.00  0.00     0.023 C 
ENDROOT
BRANCH   1   2
ATOM      2  C   UNL A   1      34.233  29.040  27.282  1.00  0.00     0.116 C 
BRANCH   2   3
ATOM      3  N   UNL A   1      32.762  28.848  27.323  1.00  0.00    -0.354 N 
ATOM      4  C   UNL A   1      31.716  28.039  26.706  1.00  0.00     0.242 C 
ATOM      5  O   UNL A   1      31.042  27.877  27.779  1.00  0.00    -0.273 OA
ATOM      6  H   UNL A   1      32.364  29.464  27.980  1.00  0.00     0.163 HD
BRANCH   4   7
ATOM      7  C   UNL A   1      31.220  27.345  24.681  1.00  0.00     0.175 C 
BRANCH   7   8
ATOM      8  N   UNL A   1      32.276  27.188  23.310  1.00  0.00    -0.344 N 
ATOM      9  C   UNL A   1      32.665  26.204  22.449  1.00  0.00     0.220 C 
ATOM     10  O   UNL A   1      33.540  26.470  21.623  1.00  0.00    -0.275 OA
ATOM     11  H   UNL A   1      32.712  28.044  23.095  1.00  0.00     0.164 HD
BRANCH   9  12
ATOM     12  C   UNL A   1      32.105  24.807  22.578  1.00  0.00     0.105 C 
BRANCH  12  13
ATOM     13  C   UNL A   1      32.071  24.306  24.018  1.00  0.00     0.053 C 
BRANCH  13  14
ATOM     14  C   UNL A   1      33.391  23.669  24.287  1.00  0.00     0.042 A 
ATOM     15  C   UNL A   1      41.783  21.317  26.129  1.00  0.00     0.088 C 
ATOM     16  C   UNL A   1      40.348  21.662  26.261  1.00  0.00     0.105 A 
ATOM     17  O   UNL A   1      39.480  20.800  25.690  1.00  0.00    -0.461 OA
ATOM     18  C   UNL A   1      39.676  22.749  26.786  1.00  0.00    -0.002 A 
ATOM     19  C   UNL A   1      38.231  21.345  25.752  1.00  0.00     0.141 A 
ATOM     20  C   UNL A   1      38.285  22.612  26.400  1.00  0.00     0.025 A 
ATOM     21  C   UNL A   1      40.303  23.906  27.466  1.00  0.00     0.049 C 
ATOM     22  C   UNL A   1      37.134  20.661  25.210  1.00  0.00     0.036 A 
ATOM     23  C   UNL A   1      37.165  23.567  26.478  1.00  0.00     0.024 A 
ATOM     24  C   UNL A   1      37.140  19.367  24.482  1.00  0.00     0.052 C 
ATOM     25  C   UNL A   1      36.069  21.515  25.364  1.00  0.00     0.145 A 
ATOM     26  C   UNL A   1      36.032  23.216  25.791  1.00  0.00     0.022 A 
ATOM     27  O   UNL A   1      34.539  20.897  24.629  1.00  0.00    -0.422 OA
ATOM     28  C   UNL A   1      34.615  24.318  25.071  1.00  0.00    -0.030 A 
ATOM     29  C   UNL A   1      33.148  21.792  24.000  1.00  0.00     0.339 A 
ATOM     30  C   UNL A   1      34.576  25.814  25.322  1.00  0.00     0.046 C 
ATOM     31  O   UNL A   1      32.112  21.230  23.681  1.00  0.00    -0.246 OA
ENDBRANCH  13  14
ENDBRANCH  12  13
ENDBRANCH   9  12
ENDBRANCH   7   8
BRANCH   7  32
ATOM     32  C   UNL A   1      29.943  27.806  23.514  1.00  0.00     0.070 C 
BRANCH  32  33
ATOM     33  C   UNL A   1      29.556  29.165  22.989  1.00  0.00    -0.045 A 
ATOM     34  C   UNL A   1      30.152  29.700  21.848  1.00  0.00     0.005 A 
ATOM     35  C   UNL A   1      28.509  29.873  23.617  1.00  0.00     0.005 A 
ATOM     36  C   UNL A   1      29.598  30.833  21.247  1.00  0.00     0.021 A 
ATOM     37  C   UNL A   1      27.932  30.979  22.995  1.00  0.00     0.021 A 
ATOM     38  C   UNL A   1      28.459  31.432  21.792  1.00  0.00     0.041 A 
ATOM     39  Cl  UNL A   1      27.654  32.681  20.927  1.00  0.00    -0.084 Cl
ENDBRANCH  32  33
ENDBRANCH   7  32
ENDBRANCH   4   7
ENDBRANCH   2   3
ENDBRANCH   1   2
BRANCH   1  40
ATOM     40  C   UNL A   1      35.662  30.606  28.767  1.00  0.00     0.023 C 
BRANCH  40  41
ATOM     41  C   UNL A   1      36.458  29.338  28.994  1.00  0.00     0.116 C 
BRANCH  41  42
ATOM     42  N   UNL A   1      36.902  29.326  30.390  1.00  0.00    -0.352 N 
ATOM     43  C   UNL A   1      37.888  28.570  30.943  1.00  0.00     0.251 C 
ATOM     44  H   UNL A   1      36.430  29.937  31.000  1.00  0.00     0.163 HD
ATOM     45  O   UNL A   1      37.831  28.261  32.128  1.00  0.00    -0.269 OA
BRANCH  43  46
ATOM     46  C   UNL A   1      39.023  28.188  30.097  1.00  0.00     0.039 A 
ATOM     47  C   UNL A   1      40.130  29.031  30.046  1.00  0.00     0.014 A 
ATOM     48  C   UNL A   1      38.944  27.037  29.303  1.00  0.00     0.014 A 
ATOM     49  C   UNL A   1      41.189  28.692  29.220  1.00  0.00     0.010 A 
ATOM     50  C   UNL A   1      40.005  26.688  28.497  1.00  0.00     0.010 A 
ATOM     51  C   UNL A   1      41.134  27.508  28.474  1.00  0.00    -0.014 A 
BRANCH  51  52
ATOM     52  C   UNL A   1      42.345  27.117  27.752  1.00  0.00     0.031 A 
ATOM     53  C   UNL A   1      43.209  28.305  27.393  1.00  0.00     0.074 A 
ATOM     54  C   UNL A   1      42.931  25.966  28.134  1.00  0.00     0.049 A 
ATOM     55  N   UNL A   1      43.996  28.952  28.202  1.00  0.00    -0.248 NA
ATOM     56  C   UNL A   1      42.973  29.015  26.132  1.00  0.00     0.031 C 
ATOM     57  C   UNL A   1      43.207  25.520  29.499  1.00  0.00     0.029 A 
ATOM     58  N   UNL A   1      43.468  24.993  27.322  1.00  0.00    -0.354 N 
ATOM     59  C   UNL A   1      44.393  30.123  27.561  1.00  0.00     0.074 A 
ATOM     60  C   UNL A   1      43.695  30.134  26.296  1.00  0.00     0.031 C 
ATOM     61  C   UNL A   1      44.027  24.452  29.441  1.00  0.00     0.029 A 
ATOM     62  C   UNL A   1      44.273  24.099  28.043  1.00  0.00     0.049 A 
ATOM     63  H   UNL A   1      43.308  24.933  26.352  1.00  0.00     0.167 HD
ATOM     64  C   UNL A   1      45.308  30.987  28.086  1.00  0.00     0.034 A 
ATOM     65  C   UNL A   1      45.473  23.705  27.519  1.00  0.00     0.034 A 
ATOM     66  C   UNL A   1      45.891  30.552  29.320  1.00  0.00     0.049 A 
ATOM     67  C   UNL A   1      46.338  24.900  27.864  1.00  0.00     0.074 A 
ATOM     68  C   UNL A   1      45.822  30.846  30.662  1.00  0.00     0.029 A 
ATOM     69  N   UNL A   1      46.825  29.548  29.239  1.00  0.00    -0.354 N 
ATOM     70  N   UNL A   1      46.782  25.199  29.060  1.00  0.00    -0.248 NA
ATOM     71  C   UNL A   1      46.343  26.024  26.927  1.00  0.00     0.031 C 
ATOM     72  C   UNL A   1      46.335  29.684  31.324  1.00  0.00     0.029 A 
ATOM     73  C   UNL A   1      46.666  28.751  30.339  1.00  0.00     0.049 A 
ATOM     74  H   UNL A   1      47.488  29.424  28.522  1.00  0.00     0.167 HD
ATOM     75  C   UNL A   1      46.829  26.595  29.114  1.00  0.00     0.074 A 
ATOM     76  C   UNL A   1      46.581  27.037  27.754  1.00  0.00     0.031 C 
ATOM     77  C   UNL A   1      46.867  27.317  30.277  1.00  0.00     0.034 A 
BRANCH  64  78
ATOM     78  C   UNL A   1      45.924  32.146  27.390  1.00  0.00     0.023 A 
ATOM     79  C   UNL A   1      47.296  32.054  27.105  1.00  0.00     0.031 A 
ATOM     80  C   UNL A   1      45.301  33.388  27.220  1.00  0.00     0.131 A 
ATOM     81  C   UNL A   1      48.027  33.183  26.721  1.00  0.00     0.055 A 
ATOM     82  C   UNL A   1      46.031  34.516  26.809  1.00  0.00     0.041 A 
ATOM     83  F   UNL A   1      43.999  33.548  27.503  1.00  0.00    -0.206 F 
ATOM     84  C   UNL A   1      47.405  34.420  26.573  1.00  0.00     0.022 A 
BRANCH  81  85
ATOM     85  S   UNL A   1      49.815  32.994  26.502  1.00  0.00     0.124 S 
ATOM     86  O   UNL A   1      49.951  31.549  26.351  1.00  0.00    -0.237 OA
ATOM     87  O   UNL A   1      50.049  33.788  25.300  1.00  0.00    -0.237 OA
ATOM     88  O   UNL A   1      50.368  33.550  27.735  1.00  0.00    -0.744 OA
ENDBRANCH  81  85
ENDBRANCH  64  78
BRANCH  65  89
ATOM     89  C   UNL A   1      45.323  23.094  26.151  1.00  0.00     0.023 A 
ATOM     90  C   UNL A   1      45.665  21.727  26.032  1.00  0.00     0.031 A 
ATOM     91  C   UNL A   1      44.775  23.699  25.013  1.00  0.00     0.131 A 
ATOM     92  C   UNL A   1      45.287  20.977  24.912  1.00  0.00     0.055 A 
ATOM     93  C   UNL A   1      44.412  22.952  23.881  1.00  0.00     0.041 A 
ATOM     94  F   UNL A   1      44.532  25.016  24.968  1.00  0.00    -0.206 F 
ATOM     95  C   UNL A   1      44.635  21.577  23.840  1.00  0.00     0.022 A 
BRANCH  92  96
ATOM     96  S   UNL A   1      45.528  19.182  24.973  1.00  0.00     0.124 S 
ATOM     97  O   UNL A   1      44.308  18.728  25.632  1.00  0.00    -0.237 OA
ATOM     98  O   UNL A   1      45.653  18.852  23.555  1.00  0.00    -0.237 OA
ATOM     99  O   UNL A   1      46.755  19.027  25.751  1.00  0.00    -0.744 OA
ENDBRANCH  92  96
ENDBRANCH  65  89
BRANCH  77 100
ATOM    100  C   UNL A   1      46.934  26.535  31.553  1.00  0.00     0.023 A 
ATOM    101  C   UNL A   1      45.757  26.168  32.219  1.00  0.00     0.031 A 
ATOM    102  C   UNL A   1      48.160  26.096  32.090  1.00  0.00     0.131 A 
ATOM    103  C   UNL A   1      45.820  25.366  33.365  1.00  0.00     0.055 A 
ATOM    104  C   UNL A   1      48.217  25.261  33.207  1.00  0.00     0.041 A 
ATOM    105  F   UNL A   1      49.332  26.455  31.538  1.00  0.00    -0.206 F 
ATOM    106  C   UNL A   1      47.041  24.886  33.847  1.00  0.00     0.022 A 
BRANCH 103 107
ATOM    107  S   UNL A   1      44.277  24.933  34.205  1.00  0.00     0.124 S 
ATOM    108  O   UNL A   1      43.451  26.115  33.985  1.00  0.00    -0.237 OA
ATOM    109  O   UNL A   1      43.862  23.721  33.506  1.00  0.00    -0.237 OA
ATOM    110  O   UNL A   1      44.694  24.725  35.593  1.00  0.00    -0.744 OA
ENDBRANCH 103 107
ENDBRANCH  77 100
ENDBRANCH  51  52
ENDBRANCH  43  46
ENDBRANCH  41  42
ENDBRANCH  40  41
ENDBRANCH   1  40
TORSDOF 20
ENDMDL
MODEL 2
REMARK VINA RESULT:     -14.4      4.460     10.426
REMARK SMILES Cc1oc2c(C)c3oc(=O)c(CCC(=O)N[C@H](Cc4ccc(Cl)cc4)C(=O)NCCCCNC(=O)c4ccc(-c5c6nc(c(-c7cc(S(=O)(=O)[O-])ccc7F)c7ccc([nH]7)c(-c7cc(S(=O)(=O)[O-])ccc7F)c7nc(c(-c8cc(S(=O)(=O)[O-])ccc8F)c8ccc5[nH]8)C=C7)C=C6)cc4)c(C)c3cc2c1C
REMARK SMILES IDX 30 1 29 2 28 3 26 4 27 5 17 7 16 8 14 9 15 10 13 12 12 13
REMARK SMILES IDX 11 14 1 15 2 16 3 17 104 18 4 19 103 20 105 21 5 22 102 23
REMARK SMILES IDX 6 24 7 25 101 26 8 27 99 28 9 29 100 30 10 31 18 32 19 33
REMARK SMILES IDX 20 34 25 35 21 36 24 37 22 38 23 39 31 40 32 41 33 42 34 43
REMARK SMILES IDX 35 45 36 46 37 47 98 48 38 49 97 50 39 51 40 52 41 53 91 54
REMARK SMILES IDX 42 55 96 56 90 57 92 58 43 59 95 60 89 61 88 62 44 64 76 65
REMARK SMILES IDX 56 66 75 67 57 68 60 69 74 70 93 71 58 72 59 73 73 75 94 76
REMARK SMILES IDX 61 77 45 78 46 79 54 80 47 81 53 82 55 83 52 84 48 85 49 86
REMARK SMILES IDX 50 87 51 88 77 89 78 90 86 91 79 92 85 93 87 94 84 95 80 96
REMARK SMILES IDX 81 97 82 98 83 99 62 100 63 101 71 102 64 103 70 104 72 105
REMARK SMILES IDX 69 106 65 107 66 108 67 109 68 110
REMARK H PARENT 28 6 16 11 33 44 92 63 60 74
REMARK Flexibility Score: inf
ROOT
ATOM      1  C   UNL A   1      38.568  22.338  25.883  1.00  0.00     0.023 C 
ENDROOT
BRANCH   1   2
ATOM      2  C   UNL A   1      37.341  21.637  25.340  1.00  0.00     0.116 C 
BRANCH   2   3
ATOM      3  N   UNL A   1      36.703  22.045  24.063  1.00  0.00    -0.354 N 
ATOM      4  C   UNL A   1      35.432  22.543  23.550  1.00  0.00     0.242 C 
ATOM      5  O   UNL A   1      35.951  23.360  22.715  1.00  0.00    -0.273 OA
ATOM      6  H   UNL A   1      37.347  21.950  23.324  1.00  0.00     0.163 HD
BRANCH   4   7
ATOM      7  C   UNL A   1      33.302  22.102  23.861  1.00  0.00     0.175 C 
BRANCH   7   8
ATOM      8  N   UNL A   1      32.292  22.567  25.196  1.00  0.00    -0.344 N 
ATOM      9  C   UNL A   1      31.284  23.455  25.433  1.00  0.00     0.220 C 
ATOM     10  O   UNL A   1      30.861  23.558  26.585  1.00  0.00    -0.275 OA
ATOM     11  H   UNL A   1      32.505  22.046  26.004  1.00  0.00     0.164 HD
BRANCH   9  12
ATOM     12  C   UNL A   1      30.775  24.348  24.326  1.00  0.00     0.105 C 
BRANCH  12  13
ATOM     13  C   UNL A   1      31.884  25.132  23.631  1.00  0.00     0.053 C 
BRANCH  13  14
ATOM     14  C   UNL A   1      32.145  26.342  24.460  1.00  0.00     0.042 A 
ATOM     15  C   UNL A   1      34.733  32.674  30.168  1.00  0.00     0.088 C 
ATOM     16  C   UNL A   1      34.638  31.788  28.984  1.00  0.00     0.105 A 
ATOM     17  O   UNL A   1      33.521  31.921  28.237  1.00  0.00    -0.461 OA
ATOM     18  C   UNL A   1      35.426  30.762  28.497  1.00  0.00    -0.002 A 
ATOM     19  C   UNL A   1      33.512  30.930  27.299  1.00  0.00     0.141 A 
ATOM     20  C   UNL A   1      34.677  30.122  27.434  1.00  0.00     0.025 A 
ATOM     21  C   UNL A   1      36.712  30.313  29.077  1.00  0.00     0.049 C 
ATOM     22  C   UNL A   1      32.445  30.822  26.396  1.00  0.00     0.036 A 
ATOM     23  C   UNL A   1      34.911  28.855  26.719  1.00  0.00     0.024 A 
ATOM     24  C   UNL A   1      31.215  31.653  26.338  1.00  0.00     0.052 C 
ATOM     25  C   UNL A   1      32.708  29.689  25.666  1.00  0.00     0.145 A 
ATOM     26  C   UNL A   1      33.872  28.407  25.943  1.00  0.00     0.022 A 
ATOM     27  O   UNL A   1      31.400  29.268  24.494  1.00  0.00    -0.422 OA
ATOM     28  C   UNL A   1      33.431  26.617  25.359  1.00  0.00    -0.030 A 
ATOM     29  C   UNL A   1      30.942  27.691  23.833  1.00  0.00     0.339 A 
ATOM     30  C   UNL A   1      34.349  25.444  25.650  1.00  0.00     0.046 C 
ATOM     31  O   UNL A   1      30.137  27.586  22.921  1.00  0.00    -0.246 OA
ENDBRANCH  13  14
ENDBRANCH  12  13
ENDBRANCH   9  12
ENDBRANCH   7   8
BRANCH   7  32
ATOM     32  C   UNL A   1      32.350  20.586  23.804  1.00  0.00     0.070 C 
BRANCH  32  33
ATOM     33  C   UNL A   1      32.726  19.190  24.229  1.00  0.00    -0.045 A 
ATOM     34  C   UNL A   1      32.697  18.806  25.569  1.00  0.00     0.005 A 
ATOM     35  C   UNL A   1      33.032  18.229  23.243  1.00  0.00     0.005 A 
ATOM     36  C   UNL A   1      32.801  17.453  25.901  1.00  0.00     0.021 A 
ATOM     37  C   UNL A   1      33.095  16.875  23.571  1.00  0.00     0.021 A 
ATOM     38  C   UNL A   1      32.943  16.492  24.897  1.00  0.00     0.041 A 
ATOM     39  Cl  UNL A   1      32.843  14.822  25.294  1.00  0.00    -0.084 Cl
ENDBRANCH  32  33
ENDBRANCH   7  32
ENDBRANCH   4   7
ENDBRANCH   2   3
ENDBRANCH   1   2
BRANCH   1  40
ATOM     40  C   UNL A   1      38.374  23.701  26.509  1.00  0.00     0.023 C 
BRANCH  40  41
ATOM     41  C   UNL A   1      39.606  23.973  27.345  1.00  0.00     0.116 C 
BRANCH  41  42
ATOM     42  N   UNL A   1      40.579  24.675  26.505  1.00  0.00    -0.352 N 
ATOM     43  C   UNL A   1      40.837  26.010  26.468  1.00  0.00     0.251 C 
ATOM     44  H   UNL A   1      41.109  24.114  25.894  1.00  0.00     0.163 HD
ATOM     45  O   UNL A   1      41.251  26.525  25.435  1.00  0.00    -0.269 OA
BRANCH  43  46
ATOM     46  C   UNL A   1      40.650  26.784  27.699  1.00  0.00     0.039 A 
ATOM     47  C   UNL A   1      41.741  26.965  28.545  1.00  0.00     0.014 A 
ATOM     48  C   UNL A   1      39.375  27.257  28.038  1.00  0.00     0.014 A 
ATOM     49  C   UNL A   1      41.560  27.665  29.726  1.00  0.00     0.010 A 
ATOM     50  C   UNL A   1      39.199  27.971  29.202  1.00  0.00     0.010 A 
ATOM     51  C   UNL A   1      40.298  28.190  30.034  1.00  0.00    -0.014 A 
BRANCH  51  52
ATOM     52  C   UNL A   1      40.205  29.060  31.206  1.00  0.00     0.031 A 
ATOM     53  C   UNL A   1      41.081  28.587  32.345  1.00  0.00     0.074 A 
ATOM     54  C   UNL A   1      40.086  30.381  30.971  1.00  0.00     0.049 A 
ATOM     55  N   UNL A   1      42.371  28.738  32.434  1.00  0.00    -0.248 NA
ATOM     56  C   UNL A   1      40.549  27.623  33.313  1.00  0.00     0.031 C 
ATOM     57  C   UNL A   1      40.857  31.188  30.026  1.00  0.00     0.029 A 
ATOM     58  N   UNL A   1      39.266  31.274  31.622  1.00  0.00    -0.354 N 
ATOM     59  C   UNL A   1      42.821  27.936  33.478  1.00  0.00     0.074 A 
ATOM     60  C   UNL A   1      41.656  27.232  33.963  1.00  0.00     0.031 C 
ATOM     61  C   UNL A   1      40.614  32.489  30.280  1.00  0.00     0.029 A 
ATOM     62  C   UNL A   1      39.623  32.603  31.350  1.00  0.00     0.049 A 
ATOM     63  H   UNL A   1      38.519  31.012  32.209  1.00  0.00     0.167 HD
ATOM     64  C   UNL A   1      44.113  27.935  33.915  1.00  0.00     0.034 A 
ATOM     65  C   UNL A   1      39.651  33.511  32.371  1.00  0.00     0.034 A 
ATOM     66  C   UNL A   1      44.958  28.890  33.261  1.00  0.00     0.049 A 
ATOM     67  C   UNL A   1      40.991  33.187  33.001  1.00  0.00     0.074 A 
ATOM     68  C   UNL A   1      45.966  28.916  32.326  1.00  0.00     0.029 A 
ATOM     69  N   UNL A   1      44.793  30.206  33.621  1.00  0.00    -0.354 N 
ATOM     70  N   UNL A   1      42.163  33.485  32.495  1.00  0.00    -0.248 NA
ATOM     71  C   UNL A   1      41.027  32.120  34.002  1.00  0.00     0.031 C 
ATOM     72  C   UNL A   1      45.986  30.263  31.839  1.00  0.00     0.029 A 
ATOM     73  C   UNL A   1      44.975  30.964  32.498  1.00  0.00     0.049 A 
ATOM     74  H   UNL A   1      44.584  30.542  34.523  1.00  0.00     0.167 HD
ATOM     75  C   UNL A   1      43.021  32.452  32.880  1.00  0.00     0.074 A 
ATOM     76  C   UNL A   1      42.265  31.666  33.837  1.00  0.00     0.031 C 
ATOM     77  C   UNL A   1      44.212  32.173  32.263  1.00  0.00     0.034 A 
BRANCH  64  78
ATOM     78  C   UNL A   1      44.630  27.261  35.133  1.00  0.00     0.023 A 
ATOM     79  C   UNL A   1      45.157  25.970  34.965  1.00  0.00     0.031 A 
ATOM     80  C   UNL A   1      44.413  27.715  36.440  1.00  0.00     0.131 A 
ATOM     81  C   UNL A   1      45.401  25.145  36.066  1.00  0.00     0.055 A 
ATOM     82  C   UNL A   1      44.684  26.894  37.547  1.00  0.00     0.041 A 
ATOM     83  F   UNL A   1      43.885  28.928  36.667  1.00  0.00    -0.206 F 
ATOM     84  C   UNL A   1      45.165  25.595  37.363  1.00  0.00     0.022 A 
BRANCH  81  85
ATOM     85  S   UNL A   1      45.957  23.451  35.743  1.00  0.00     0.124 S 
ATOM     86  O   UNL A   1      44.727  22.689  35.924  1.00  0.00    -0.237 OA
ATOM     87  O   UNL A   1      46.448  23.560  34.373  1.00  0.00    -0.237 OA
ATOM     88  O   UNL A   1      46.984  23.232  36.759  1.00  0.00    -0.744 OA
ENDBRANCH  81  85
ENDBRANCH  64  78
BRANCH  65  89
ATOM     89  C   UNL A   1      38.336  33.592  33.099  1.00  0.00     0.023 A 
ATOM     90  C   UNL A   1      38.313  33.081  34.416  1.00  0.00     0.031 A 
ATOM     91  C   UNL A   1      37.165  34.222  32.656  1.00  0.00     0.131 A 
ATOM     92  C   UNL A   1      37.259  33.370  35.292  1.00  0.00     0.055 A 
ATOM     93  C   UNL A   1      36.099  34.496  33.527  1.00  0.00     0.041 A 
ATOM     94  F   UNL A   1      37.027  34.630  31.387  1.00  0.00    -0.206 F 
ATOM     95  C   UNL A   1      36.157  34.101  34.862  1.00  0.00     0.022 A 
BRANCH  92  96
ATOM     96  S   UNL A   1      37.449  32.903  37.032  1.00  0.00     0.124 S 
ATOM     97  O   UNL A   1      37.726  31.474  36.941  1.00  0.00    -0.237 OA
ATOM     98  O   UNL A   1      38.567  33.749  37.445  1.00  0.00    -0.237 OA
ATOM     99  O   UNL A   1      36.161  33.255  37.624  1.00  0.00    -0.744 OA
ENDBRANCH  92  96
ENDBRANCH  65  89
BRANCH  77 100
ATOM    100  C   UNL A   1      44.629  33.094  31.158  1.00  0.00     0.023 A 
ATOM    101  C   UNL A   1      44.459  32.714  29.819  1.00  0.00     0.031 A 
ATOM    102  C   UNL A   1      45.143  34.380  31.417  1.00  0.00     0.131 A 
ATOM    103  C   UNL A   1      44.771  33.610  28.790  1.00  0.00     0.055 A 
ATOM    104  C   UNL A   1      45.412  35.286  30.391  1.00  0.00     0.041 A 
ATOM    105  F   UNL A   1      45.385  34.793  32.673  1.00  0.00    -0.206 F 
ATOM    106  C   UNL A   1      45.220  34.904  29.067  1.00  0.00     0.022 A 
BRANCH 103 107
ATOM    107  S   UNL A   1      44.556  33.069  27.076  1.00  0.00     0.124 S 
ATOM    108  O   UNL A   1      43.612  34.049  26.550  1.00  0.00    -0.237 OA
ATOM    109  O   UNL A   1      45.915  33.139  26.548  1.00  0.00    -0.237 OA
ATOM    110  O   UNL A   1      44.022  31.714  27.213  1.00  0.00    -0.744 OA
ENDBRANCH 103 107
ENDBRANCH  77 100
ENDBRANCH  51  52
ENDBRANCH  43  46
ENDBRANCH  41  42
ENDBRANCH  40  41
ENDBRANCH   1  40
TORSDOF 20
ENDMDL
MODEL 3
REMARK VINA RESULT:     -13.9      3.736      9.403
REMARK SMILES Cc1oc2c(C)c3oc(=O)c(CCC(=O)N[C@H](Cc4ccc(Cl)cc4)C(=O)NCCCCNC(=O)c4ccc(-c5c6nc(c(-c7cc(S(=O)(=O)[O-])ccc7F)c7ccc([nH]7)c(-c7cc(S(=O)(=O)[O-])ccc7F)c7nc(c(-c8cc(S(=O)(=O)[O-])ccc8F)c8ccc5[nH]8)C=C7)C=C6)cc4)c(C)c3cc2c1C
REMARK SMILES IDX 30 1 29 2 28 3 26 4 27 5 17 7 16 8 14 9 15 10 13 12 12 13
REMARK SMILES IDX 11 14 1 15 2 16 3 17 104 18 4 19 103 20 105 21 5 22 102 23
REMARK SMILES IDX 6 24 7 25 101 26 8 27 99 28 9 29 100 30 10 31 18 32 19 33
REMARK SMILES IDX 20 34 25 35 21 36 24 37 22 38 23 39 31 40 32 41 33 42 34 43
REMARK SMILES IDX 35 45 36 46 37 47 98 48 38 49 97 50 39 51 40 52 41 53 91 54
REMARK SMILES IDX 42 55 96 56 90 57 92 58 43 59 95 60 89 61 88 62 44 64 76 65
REMARK SMILES IDX 56 66 75 67 57 68 60 69 74 70 93 71 58 72 59 73 73 75 94 76
REMARK SMILES IDX 61 77 45 78 46 79 54 80 47 81 53 82 55 83 52 84 48 85 49 86
REMARK SMILES IDX 50 87 51 88 77 89 78 90 86 91 79 92 85 93 87 94 84 95 80 96
REMARK SMILES IDX 81 97 82 98 83 99 62 100 63 101 71 102 64 103 70 104 72 105
REMARK SMILES IDX 69 106 65 107 66 108 67 109 68 110
REMARK H PARENT 28 6 16 11 33 44 92 63 60 74
REMARK Flexibility Score: inf
ROOT
ATOM      1  C   UNL A   1      39.100  21.656  25.867  1.00  0.00     0.023 C 
ENDROOT
BRANCH   1   2
ATOM      2  C   UNL A   1      37.606  21.744  25.634  1.00  0.00     0.116 C 
BRANCH   2   3
ATOM      3  N   UNL A   1      37.034  21.968  24.283  1.00  0.00    -0.354 N 
ATOM      4  C   UNL A   1      35.827  22.481  23.645  1.00  0.00     0.242 C 
ATOM      5  O   UNL A   1      36.439  23.076  22.693  1.00  0.00    -0.273 OA
ATOM      6  H   UNL A   1      37.677  21.677  23.597  1.00  0.00     0.163 HD
BRANCH   4   7
ATOM      7  C   UNL A   1      33.659  22.311  23.958  1.00  0.00     0.175 C 
BRANCH   7   8
ATOM      8  N   UNL A   1      32.754  22.620  25.408  1.00  0.00    -0.344 N 
ATOM      9  C   UNL A   1      31.674  23.366  25.780  1.00  0.00     0.220 C 
ATOM     10  O   UNL A   1      31.375  23.396  26.975  1.00  0.00    -0.275 OA
ATOM     11  H   UNL A   1      33.122  22.120  26.172  1.00  0.00     0.164 HD
BRANCH   9  12
ATOM     12  C   UNL A   1      30.934  24.202  24.763  1.00  0.00     0.105 C 
BRANCH  12  13
ATOM     13  C   UNL A   1      31.859  25.072  23.916  1.00  0.00     0.053 C 
BRANCH  13  14
ATOM     14  C   UNL A   1      32.140  26.303  24.705  1.00  0.00     0.042 A 
ATOM     15  C   UNL A   1      34.902  32.797  30.142  1.00  0.00     0.088 C 
ATOM     16  C   UNL A   1      34.763  31.885  28.983  1.00  0.00     0.105 A 
ATOM     17  O   UNL A   1      33.609  31.984  28.290  1.00  0.00    -0.461 OA
ATOM     18  C   UNL A   1      35.543  30.861  28.480  1.00  0.00    -0.002 A 
ATOM     19  C   UNL A   1      33.569  30.973  27.375  1.00  0.00     0.141 A 
ATOM     20  C   UNL A   1      34.753  30.186  27.469  1.00  0.00     0.025 A 
ATOM     21  C   UNL A   1      36.864  30.444  29.004  1.00  0.00     0.049 C 
ATOM     22  C   UNL A   1      32.461  30.829  26.529  1.00  0.00     0.036 A 
ATOM     23  C   UNL A   1      34.972  28.907  26.770  1.00  0.00     0.024 A 
ATOM     24  C   UNL A   1      31.217  31.639  26.515  1.00  0.00     0.052 C 
ATOM     25  C   UNL A   1      32.706  29.684  25.810  1.00  0.00     0.145 A 
ATOM     26  C   UNL A   1      33.904  28.426  26.056  1.00  0.00     0.022 A 
ATOM     27  O   UNL A   1      31.349  29.217  24.714  1.00  0.00    -0.422 OA
ATOM     28  C   UNL A   1      33.464  26.617  25.533  1.00  0.00    -0.030 A 
ATOM     29  C   UNL A   1      30.885  27.619  24.110  1.00  0.00     0.339 A 
ATOM     30  C   UNL A   1      34.415  25.465  25.802  1.00  0.00     0.046 C 
ATOM     31  O   UNL A   1      30.038  27.482  23.242  1.00  0.00    -0.246 OA
ENDBRANCH  13  14
ENDBRANCH  12  13
ENDBRANCH   9  12
ENDBRANCH   7   8
BRANCH   7  32
ATOM     32  C   UNL A   1      32.478  21.007  23.623  1.00  0.00     0.070 C 
BRANCH  32  33
ATOM     33  C   UNL A   1      32.517  19.547  23.995  1.00  0.00    -0.045 A 
ATOM     34  C   UNL A   1      32.658  18.554  23.026  1.00  0.00     0.005 A 
ATOM     35  C   UNL A   1      32.497  19.183  25.358  1.00  0.00     0.005 A 
ATOM     36  C   UNL A   1      32.946  17.245  23.418  1.00  0.00     0.021 A 
ATOM     37  C   UNL A   1      32.824  17.885  25.747  1.00  0.00     0.021 A 
ATOM     38  C   UNL A   1      33.082  16.930  24.773  1.00  0.00     0.041 A 
ATOM     39  Cl  UNL A   1      33.657  15.376  25.234  1.00  0.00    -0.084 Cl
ENDBRANCH  32  33
ENDBRANCH   7  32
ENDBRANCH   4   7
ENDBRANCH   2   3
ENDBRANCH   1   2
BRANCH   1  40
ATOM     40  C   UNL A   1      39.767  22.814  26.575  1.00  0.00     0.023 C 
BRANCH  40  41
ATOM     41  C   UNL A   1      40.968  22.245  27.300  1.00  0.00     0.116 C 
BRANCH  41  42
ATOM     42  N   UNL A   1      42.046  22.069  26.325  1.00  0.00    -0.352 N 
ATOM     43  C   UNL A   1      42.661  23.028  25.583  1.00  0.00     0.251 C 
ATOM     44  H   UNL A   1      42.363  21.147  26.190  1.00  0.00     0.163 HD
ATOM     45  O   UNL A   1      43.140  22.744  24.491  1.00  0.00    -0.269 OA
BRANCH  43  46
ATOM     46  C   UNL A   1      42.768  24.377  26.148  1.00  0.00     0.039 A 
ATOM     47  C   UNL A   1      43.483  24.549  27.331  1.00  0.00     0.014 A 
ATOM     48  C   UNL A   1      42.093  25.443  25.539  1.00  0.00     0.014 A 
ATOM     49  C   UNL A   1      43.556  25.815  27.887  1.00  0.00     0.010 A 
ATOM     50  C   UNL A   1      42.183  26.706  26.081  1.00  0.00     0.010 A 
ATOM     51  C   UNL A   1      42.932  26.892  27.244  1.00  0.00    -0.014 A 
BRANCH  51  52
ATOM     52  C   UNL A   1      43.182  28.228  27.784  1.00  0.00     0.031 A 
ATOM     53  C   UNL A   1      43.244  28.236  29.295  1.00  0.00     0.074 A 
ATOM     54  C   UNL A   1      44.023  29.014  27.086  1.00  0.00     0.049 A 
ATOM     55  N   UNL A   1      44.248  27.840  30.022  1.00  0.00    -0.248 NA
ATOM     56  C   UNL A   1      42.011  28.413  30.068  1.00  0.00     0.031 C 
ATOM     57  C   UNL A   1      45.319  28.644  26.516  1.00  0.00     0.029 A 
ATOM     58  N   UNL A   1      43.884  30.358  26.820  1.00  0.00    -0.354 N 
ATOM     59  C   UNL A   1      43.808  27.753  31.341  1.00  0.00     0.074 A 
ATOM     60  C   UNL A   1      42.401  28.078  31.307  1.00  0.00     0.031 C 
ATOM     61  C   UNL A   1      45.951  29.770  26.128  1.00  0.00     0.029 A 
ATOM     62  C   UNL A   1      45.080  30.923  26.354  1.00  0.00     0.049 A 
ATOM     63  H   UNL A   1      43.046  30.861  26.943  1.00  0.00     0.167 HD
ATOM     64  C   UNL A   1      44.636  27.468  32.386  1.00  0.00     0.034 A 
ATOM     65  C   UNL A   1      45.476  32.141  26.832  1.00  0.00     0.034 A 
ATOM     66  C   UNL A   1      46.018  27.343  32.028  1.00  0.00     0.049 A 
ATOM     67  C   UNL A   1      46.082  31.738  28.162  1.00  0.00     0.074 A 
ATOM     68  C   UNL A   1      46.964  26.357  31.866  1.00  0.00     0.029 A 
ATOM     69  N   UNL A   1      46.692  28.510  31.758  1.00  0.00    -0.354 N 
ATOM     70  N   UNL A   1      47.229  31.127  28.322  1.00  0.00    -0.248 NA
ATOM     71  C   UNL A   1      45.180  31.625  29.309  1.00  0.00     0.031 C 
ATOM     72  C   UNL A   1      47.978  26.948  31.044  1.00  0.00     0.029 A 
ATOM     73  C   UNL A   1      47.572  28.249  30.745  1.00  0.00     0.049 A 
ATOM     74  H   UNL A   1      46.565  29.374  32.211  1.00  0.00     0.167 HD
ATOM     75  C   UNL A   1      47.075  30.308  29.444  1.00  0.00     0.074 A 
ATOM     76  C   UNL A   1      45.801  30.693  30.024  1.00  0.00     0.031 C 
ATOM     77  C   UNL A   1      47.879  29.237  29.729  1.00  0.00     0.034 A 
BRANCH  64  78
ATOM     78  C   UNL A   1      44.291  27.544  33.828  1.00  0.00     0.023 A 
ATOM     79  C   UNL A   1      43.460  26.530  34.333  1.00  0.00     0.031 A 
ATOM     80  C   UNL A   1      44.532  28.658  34.642  1.00  0.00     0.131 A 
ATOM     81  C   UNL A   1      42.848  26.659  35.583  1.00  0.00     0.055 A 
ATOM     82  C   UNL A   1      43.937  28.774  35.909  1.00  0.00     0.041 A 
ATOM     83  F   UNL A   1      45.295  29.674  34.206  1.00  0.00    -0.206 F 
ATOM     84  C   UNL A   1      43.077  27.779  36.379  1.00  0.00     0.022 A 
BRANCH  81  85
ATOM     85  S   UNL A   1      41.691  25.362  36.092  1.00  0.00     0.124 S 
ATOM     86  O   UNL A   1      41.592  25.590  37.529  1.00  0.00    -0.237 OA
ATOM     87  O   UNL A   1      40.508  25.699  35.307  1.00  0.00    -0.237 OA
ATOM     88  O   UNL A   1      42.370  24.129  35.699  1.00  0.00    -0.744 OA
ENDBRANCH  81  85
ENDBRANCH  64  78
BRANCH  65  89
ATOM     89  C   UNL A   1      44.427  33.202  26.630  1.00  0.00     0.023 A 
ATOM     90  C   UNL A   1      44.043  33.933  27.777  1.00  0.00     0.031 A 
ATOM     91  C   UNL A   1      43.876  33.621  25.413  1.00  0.00     0.131 A 
ATOM     92  C   UNL A   1      43.320  35.128  27.671  1.00  0.00     0.055 A 
ATOM     93  C   UNL A   1      43.135  34.808  25.306  1.00  0.00     0.041 A 
ATOM     94  F   UNL A   1      44.067  32.927  24.282  1.00  0.00    -0.206 F 
ATOM     95  C   UNL A   1      42.883  35.588  26.434  1.00  0.00     0.022 A 
BRANCH  92  96
ATOM     96  S   UNL A   1      43.114  36.130  29.167  1.00  0.00     0.124 S 
ATOM     97  O   UNL A   1      44.494  36.405  29.548  1.00  0.00    -0.237 OA
ATOM     98  O   UNL A   1      42.349  37.266  28.658  1.00  0.00    -0.237 OA
ATOM     99  O   UNL A   1      42.378  35.249  30.071  1.00  0.00    -0.744 OA
ENDBRANCH  92  96
ENDBRANCH  65  89
BRANCH  77 100
ATOM    100  C   UNL A   1      49.032  28.995  28.803  1.00  0.00     0.023 A 
ATOM    101  C   UNL A   1      48.843  28.282  27.612  1.00  0.00     0.031 A 
ATOM    102  C   UNL A   1      50.314  29.519  29.063  1.00  0.00     0.131 A 
ATOM    103  C   UNL A   1      49.902  28.131  26.709  1.00  0.00     0.055 A 
ATOM    104  C   UNL A   1      51.356  29.404  28.141  1.00  0.00     0.041 A 
ATOM    105  F   UNL A   1      50.584  30.165  30.209  1.00  0.00    -0.206 F 
ATOM    106  C   UNL A   1      51.150  28.711  26.953  1.00  0.00     0.022 A 
BRANCH 103 107
ATOM    107  S   UNL A   1      49.620  27.185  25.192  1.00  0.00     0.124 S 
ATOM    108  O   UNL A   1      48.185  26.924  25.242  1.00  0.00    -0.237 OA
ATOM    109  O   UNL A   1      50.069  28.107  24.154  1.00  0.00    -0.237 OA
ATOM    110  O   UNL A   1      50.466  26.004  25.367  1.00  0.00    -0.744 OA
ENDBRANCH 103 107
ENDBRANCH  77 100
ENDBRANCH  51  52
ENDBRANCH  43  46
ENDBRANCH  41  42
ENDBRANCH  40  41
ENDBRANCH   1  40
TORSDOF 20
ENDMDL
