MODEL 1
REMARK VINA RESULT:     -11.9      0.000      0.000
REMARK SMILES C[NH+](C)[C@H]1CCN(C(=O)C(=O)c2ccccc2)C[C@H]1CCC(=O)NCCCCNC(=O)c1ccc(-c2c3nc(c(-c4cc(S(=O)(=O)[O-])ccc4F)c4ccc([nH]4)c(-c4cc(S(=O)(=O)[O-])ccc4F)c4nc(c(-c5cc(S(=O)(=O)[O-])ccc5F)c5ccc2[nH]5)C=C4)C=C3)cc1
REMARK SMILES IDX 25 1 24 2 22 3 23 4 21 6 20 7 19 8 4 9 5 10 6 11 18 12 7 13
REMARK SMILES IDX 2 14 1 15 3 16 8 18 9 19 10 20 11 21 12 22 13 23 17 24 14 25
REMARK SMILES IDX 16 26 15 27 26 28 27 29 28 30 29 31 30 32 31 34 32 35 33 36
REMARK SMILES IDX 94 37 34 38 93 39 35 40 36 41 37 42 87 43 38 44 92 45 86 46
REMARK SMILES IDX 88 47 39 48 91 49 85 50 84 51 40 53 72 54 52 55 71 56 53 57
REMARK SMILES IDX 56 58 70 59 89 60 54 61 55 62 69 64 90 65 57 66 41 67 42 68
REMARK SMILES IDX 50 69 43 70 49 71 51 72 48 73 44 74 45 75 46 76 47 77 73 78
REMARK SMILES IDX 74 79 82 80 75 81 81 82 83 83 80 84 76 85 77 86 78 87 79 88
REMARK SMILES IDX 58 89 59 90 67 91 60 92 66 93 68 94 65 95 61 96 62 97 63 98
REMARK SMILES IDX 64 99
REMARK H PARENT 24 5 2 17 29 33 88 52 56 63
REMARK Flexibility Score: inf
ROOT
ATOM      1  C   UNL A   1      33.423  28.767  27.343  1.00  0.00     0.116 C 
ENDROOT
BRANCH   1   2
ATOM      2  N   UNL A   1      32.218  27.956  27.356  1.00  0.00    -0.356 N 
ATOM      3  C   UNL A   1      31.876  26.874  26.598  1.00  0.00     0.220 C 
ATOM      4  O   UNL A   1      30.717  26.461  26.649  1.00  0.00    -0.275 OA
ATOM      5  H   UNL A   1      31.541  28.230  28.015  1.00  0.00     0.163 HD
BRANCH   3   6
ATOM      6  C   UNL A   1      32.919  26.157  25.758  1.00  0.00     0.100 C 
BRANCH   6   7
ATOM      7  C   UNL A   1      32.935  24.622  25.852  1.00  0.00     0.021 C 
BRANCH   7   8
ATOM      8  C   UNL A   1      34.036  23.894  25.047  1.00  0.00     0.067 C 
ATOM      9  C   UNL A   1      33.835  22.416  24.579  1.00  0.00     0.190 C 
ATOM     10  C   UNL A   1      32.746  22.357  23.503  1.00  0.00     0.087 C 
ATOM     11  C   UNL A   1      33.168  23.189  22.308  1.00  0.00     0.126 C 
ATOM     12  C   UNL A   1      34.411  24.748  23.798  1.00  0.00     0.129 C 
ATOM     13  N   UNL A   1      33.509  24.560  22.658  1.00  0.00    -0.335 N 
BRANCH   9  14
ATOM     14  N   UNL A   1      33.612  21.275  25.469  1.00  0.00    -0.337 N 
ATOM     15  C   UNL A   1      32.518  20.359  25.279  1.00  0.00     0.332 C 
ATOM     16  C   UNL A   1      33.934  21.504  26.871  1.00  0.00     0.332 C 
ATOM     17  H   UNL A   1      34.347  20.707  25.048  1.00  0.00     0.347 HD
ENDBRANCH   9  14
BRANCH  13  18
ATOM     18  C   UNL A   1      33.275  25.517  21.662  1.00  0.00     0.294 C 
ATOM     19  O   UNL A   1      33.124  25.222  20.477  1.00  0.00    -0.265 OA
BRANCH  18  20
ATOM     20  C   UNL A   1      33.226  27.004  22.016  1.00  0.00     0.250 C 
ATOM     21  O   UNL A   1      34.152  27.748  21.718  1.00  0.00    -0.283 OA
BRANCH  20  22
ATOM     22  C   UNL A   1      31.965  27.543  22.594  1.00  0.00     0.028 A 
ATOM     23  C   UNL A   1      30.853  26.695  22.681  1.00  0.00     0.012 A 
ATOM     24  C   UNL A   1      31.885  28.846  23.102  1.00  0.00     0.012 A 
ATOM     25  C   UNL A   1      29.688  27.134  23.312  1.00  0.00     0.001 A 
ATOM     26  C   UNL A   1      30.715  29.280  23.727  1.00  0.00     0.001 A 
ATOM     27  C   UNL A   1      29.621  28.422  23.840  1.00  0.00     0.000 A 
ENDBRANCH  20  22
ENDBRANCH  18  20
ENDBRANCH  13  18
ENDBRANCH   7   8
ENDBRANCH   6   7
ENDBRANCH   3   6
ENDBRANCH   1   2
BRANCH   1  28
ATOM     28  C   UNL A   1      33.271  29.919  26.340  1.00  0.00     0.023 C 
BRANCH  28  29
ATOM     29  C   UNL A   1      32.523  31.128  26.873  1.00  0.00     0.023 C 
BRANCH  29  30
ATOM     30  C   UNL A   1      33.424  32.141  27.559  1.00  0.00     0.116 C 
BRANCH  30  31
ATOM     31  N   UNL A   1      32.843  33.476  27.666  1.00  0.00    -0.352 N 
ATOM     32  C   UNL A   1      33.223  34.494  28.517  1.00  0.00     0.251 C 
ATOM     33  H   UNL A   1      32.092  33.673  27.061  1.00  0.00     0.163 HD
ATOM     34  O   UNL A   1      32.607  35.549  28.547  1.00  0.00    -0.269 OA
BRANCH  32  35
ATOM     35  C   UNL A   1      34.358  34.239  29.426  1.00  0.00     0.039 A 
ATOM     36  C   UNL A   1      34.121  33.600  30.645  1.00  0.00     0.014 A 
ATOM     37  C   UNL A   1      35.661  34.484  28.987  1.00  0.00     0.014 A 
ATOM     38  C   UNL A   1      35.204  33.120  31.383  1.00  0.00     0.010 A 
ATOM     39  C   UNL A   1      36.725  33.915  29.671  1.00  0.00     0.010 A 
ATOM     40  C   UNL A   1      36.509  33.225  30.875  1.00  0.00    -0.014 A 
BRANCH  40  41
ATOM     41  C   UNL A   1      37.677  32.642  31.587  1.00  0.00     0.031 A 
ATOM     42  C   UNL A   1      38.430  31.505  30.953  1.00  0.00     0.074 A 
ATOM     43  C   UNL A   1      37.993  33.062  32.828  1.00  0.00     0.049 A 
ATOM     44  N   UNL A   1      39.378  30.755  31.451  1.00  0.00    -0.248 NA
ATOM     45  C   UNL A   1      38.020  31.128  29.590  1.00  0.00     0.031 C 
ATOM     46  C   UNL A   1      37.300  34.115  33.573  1.00  0.00     0.029 A 
ATOM     47  N   UNL A   1      38.977  32.644  33.689  1.00  0.00    -0.354 N 
ATOM     48  C   UNL A   1      39.653  29.800  30.479  1.00  0.00     0.074 A 
ATOM     49  C   UNL A   1      38.719  30.021  29.397  1.00  0.00     0.031 C 
ATOM     50  C   UNL A   1      37.897  34.279  34.765  1.00  0.00     0.029 A 
ATOM     51  C   UNL A   1      38.986  33.317  34.890  1.00  0.00     0.049 A 
ATOM     52  H   UNL A   1      39.616  31.929  33.469  1.00  0.00     0.167 HD
ATOM     53  C   UNL A   1      40.617  28.846  30.474  1.00  0.00     0.034 A 
ATOM     54  C   UNL A   1      39.779  33.166  35.970  1.00  0.00     0.034 A 
ATOM     55  C   UNL A   1      41.566  28.669  31.543  1.00  0.00     0.049 A 
ATOM     56  C   UNL A   1      40.861  32.117  35.934  1.00  0.00     0.074 A 
ATOM     57  C   UNL A   1      42.627  27.786  31.619  1.00  0.00     0.029 A 
ATOM     58  N   UNL A   1      41.571  29.399  32.727  1.00  0.00    -0.354 N 
ATOM     59  N   UNL A   1      41.141  31.251  34.986  1.00  0.00    -0.248 NA
ATOM     60  C   UNL A   1      41.740  32.031  37.107  1.00  0.00     0.031 C 
ATOM     61  C   UNL A   1      43.242  27.944  32.866  1.00  0.00     0.029 A 
ATOM     62  C   UNL A   1      42.605  28.971  33.544  1.00  0.00     0.049 A 
ATOM     63  H   UNL A   1      40.933  30.114  32.950  1.00  0.00     0.167 HD
ATOM     64  C   UNL A   1      42.248  30.539  35.439  1.00  0.00     0.074 A 
ATOM     65  C   UNL A   1      42.590  31.086  36.736  1.00  0.00     0.031 C 
ATOM     66  C   UNL A   1      42.925  29.529  34.837  1.00  0.00     0.034 A 
BRANCH  53  67
ATOM     67  C   UNL A   1      40.668  27.926  29.278  1.00  0.00     0.023 A 
ATOM     68  C   UNL A   1      41.599  28.116  28.242  1.00  0.00     0.031 A 
ATOM     69  C   UNL A   1      39.739  26.880  29.142  1.00  0.00     0.131 A 
ATOM     70  C   UNL A   1      41.518  27.342  27.075  1.00  0.00     0.055 A 
ATOM     71  C   UNL A   1      39.723  26.052  28.018  1.00  0.00     0.041 A 
ATOM     72  F   UNL A   1      38.812  26.661  30.088  1.00  0.00    -0.206 F 
ATOM     73  C   UNL A   1      40.602  26.293  26.966  1.00  0.00     0.022 A 
BRANCH  70  74
ATOM     74  S   UNL A   1      42.512  27.837  25.641  1.00  0.00     0.124 S 
ATOM     75  O   UNL A   1      42.435  26.641  24.805  1.00  0.00    -0.237 OA
ATOM     76  O   UNL A   1      41.797  29.008  25.149  1.00  0.00    -0.237 OA
ATOM     77  O   UNL A   1      43.830  28.103  26.214  1.00  0.00    -0.744 OA
ENDBRANCH  70  74
ENDBRANCH  53  67
BRANCH  54  78
ATOM     78  C   UNL A   1      39.592  34.024  37.175  1.00  0.00     0.023 A 
ATOM     79  C   UNL A   1      38.970  33.520  38.329  1.00  0.00     0.031 A 
ATOM     80  C   UNL A   1      39.995  35.371  37.178  1.00  0.00     0.131 A 
ATOM     81  C   UNL A   1      38.725  34.367  39.420  1.00  0.00     0.055 A 
ATOM     82  C   UNL A   1      39.790  36.199  38.284  1.00  0.00     0.041 A 
ATOM     83  F   UNL A   1      40.602  35.900  36.104  1.00  0.00    -0.206 F 
ATOM     84  C   UNL A   1      39.140  35.701  39.409  1.00  0.00     0.022 A 
BRANCH  81  85
ATOM     85  S   UNL A   1      37.782  33.720  40.828  1.00  0.00     0.124 S 
ATOM     86  O   UNL A   1      36.656  33.076  40.161  1.00  0.00    -0.237 OA
ATOM     87  O   UNL A   1      38.752  32.828  41.455  1.00  0.00    -0.237 OA
ATOM     88  O   UNL A   1      37.453  34.918  41.597  1.00  0.00    -0.744 OA
ENDBRANCH  81  85
ENDBRANCH  54  78
BRANCH  66  89
ATOM     89  C   UNL A   1      44.130  28.988  35.562  1.00  0.00     0.023 A 
ATOM     90  C   UNL A   1      44.026  27.932  36.483  1.00  0.00     0.031 A 
ATOM     91  C   UNL A   1      45.401  29.545  35.328  1.00  0.00     0.131 A 
ATOM     92  C   UNL A   1      45.166  27.498  37.176  1.00  0.00     0.055 A 
ATOM     93  C   UNL A   1      46.539  29.072  35.981  1.00  0.00     0.041 A 
ATOM     94  F   UNL A   1      45.554  30.555  34.457  1.00  0.00    -0.206 F 
ATOM     95  C   UNL A   1      46.423  28.050  36.920  1.00  0.00     0.022 A 
BRANCH  92  96
ATOM     96  S   UNL A   1      44.969  26.251  38.479  1.00  0.00     0.124 S 
ATOM     97  O   UNL A   1      43.819  25.491  38.000  1.00  0.00    -0.237 OA
ATOM     98  O   UNL A   1      46.252  25.558  38.444  1.00  0.00    -0.237 OA
ATOM     99  O   UNL A   1      44.728  27.047  39.682  1.00  0.00    -0.744 OA
ENDBRANCH  92  96
ENDBRANCH  66  89
ENDBRANCH  40  41
ENDBRANCH  32  35
ENDBRANCH  30  31
ENDBRANCH  29  30
ENDBRANCH  28  29
ENDBRANCH   1  28
TORSDOF 20
ENDMDL
MODEL 2
REMARK VINA RESULT:     -11.5      1.687      8.169
REMARK SMILES C[NH+](C)[C@H]1CCN(C(=O)C(=O)c2ccccc2)C[C@H]1CCC(=O)NCCCCNC(=O)c1ccc(-c2c3nc(c(-c4cc(S(=O)(=O)[O-])ccc4F)c4ccc([nH]4)c(-c4cc(S(=O)(=O)[O-])ccc4F)c4nc(c(-c5cc(S(=O)(=O)[O-])ccc5F)c5ccc2[nH]5)C=C4)C=C3)cc1
REMARK SMILES IDX 25 1 24 2 22 3 23 4 21 6 20 7 19 8 4 9 5 10 6 11 18 12 7 13
REMARK SMILES IDX 2 14 1 15 3 16 8 18 9 19 10 20 11 21 12 22 13 23 17 24 14 25
REMARK SMILES IDX 16 26 15 27 26 28 27 29 28 30 29 31 30 32 31 34 32 35 33 36
REMARK SMILES IDX 94 37 34 38 93 39 35 40 36 41 37 42 87 43 38 44 92 45 86 46
REMARK SMILES IDX 88 47 39 48 91 49 85 50 84 51 40 53 72 54 52 55 71 56 53 57
REMARK SMILES IDX 56 58 70 59 89 60 54 61 55 62 69 64 90 65 57 66 41 67 42 68
REMARK SMILES IDX 50 69 43 70 49 71 51 72 48 73 44 74 45 75 46 76 47 77 73 78
REMARK SMILES IDX 74 79 82 80 75 81 81 82 83 83 80 84 76 85 77 86 78 87 79 88
REMARK SMILES IDX 58 89 59 90 67 91 60 92 66 93 68 94 65 95 61 96 62 97 63 98
REMARK SMILES IDX 64 99
REMARK H PARENT 24 5 2 17 29 33 88 52 56 63
REMARK Flexibility Score: inf
ROOT
ATOM      1  C   UNL A   1      34.689  29.353  27.368  1.00  0.00     0.116 C 
ENDROOT
BRANCH   1   2
ATOM      2  N   UNL A   1      33.442  28.830  27.897  1.00  0.00    -0.356 N 
ATOM      3  C   UNL A   1      32.483  28.064  27.300  1.00  0.00     0.220 C 
ATOM      4  O   UNL A   1      31.412  27.899  27.884  1.00  0.00    -0.275 OA
ATOM      5  H   UNL A   1      33.258  29.066  28.834  1.00  0.00     0.163 HD
BRANCH   3   6
ATOM      6  C   UNL A   1      32.758  27.377  25.973  1.00  0.00     0.100 C 
BRANCH   6   7
ATOM      7  C   UNL A   1      32.619  25.846  25.954  1.00  0.00     0.021 C 
BRANCH   7   8
ATOM      8  C   UNL A   1      31.275  25.282  25.437  1.00  0.00     0.067 C 
ATOM      9  C   UNL A   1      30.904  25.375  23.921  1.00  0.00     0.190 C 
ATOM     10  C   UNL A   1      31.818  24.456  23.106  1.00  0.00     0.087 C 
ATOM     11  C   UNL A   1      31.633  23.022  23.563  1.00  0.00     0.126 C 
ATOM     12  C   UNL A   1      31.137  23.793  25.876  1.00  0.00     0.129 C 
ATOM     13  N   UNL A   1      31.828  22.848  24.994  1.00  0.00    -0.335 N 
BRANCH   9  14
ATOM     14  N   UNL A   1      30.771  26.621  23.163  1.00  0.00    -0.337 N 
ATOM     15  C   UNL A   1      31.869  27.185  22.421  1.00  0.00     0.332 C 
ATOM     16  C   UNL A   1      29.903  27.626  23.759  1.00  0.00     0.332 C 
ATOM     17  H   UNL A   1      30.283  26.181  22.382  1.00  0.00     0.347 HD
ENDBRANCH   9  14
BRANCH  13  18
ATOM     18  C   UNL A   1      32.313  21.596  25.393  1.00  0.00     0.294 C 
ATOM     19  O   UNL A   1      31.713  20.545  25.164  1.00  0.00    -0.265 OA
BRANCH  18  20
ATOM     20  C   UNL A   1      33.623  21.487  26.174  1.00  0.00     0.250 C 
ATOM     21  O   UNL A   1      33.698  20.784  27.175  1.00  0.00    -0.283 OA
BRANCH  20  22
ATOM     22  C   UNL A   1      34.833  22.137  25.601  1.00  0.00     0.028 A 
ATOM     23  C   UNL A   1      35.325  23.295  26.218  1.00  0.00     0.012 A 
ATOM     24  C   UNL A   1      35.517  21.589  24.508  1.00  0.00     0.012 A 
ATOM     25  C   UNL A   1      36.516  23.872  25.772  1.00  0.00     0.001 A 
ATOM     26  C   UNL A   1      36.704  22.174  24.063  1.00  0.00     0.001 A 
ATOM     27  C   UNL A   1      37.207  23.308  24.700  1.00  0.00     0.000 A 
ENDBRANCH  20  22
ENDBRANCH  18  20
ENDBRANCH  13  18
ENDBRANCH   7   8
ENDBRANCH   6   7
ENDBRANCH   3   6
ENDBRANCH   1   2
BRANCH   1  28
ATOM     28  C   UNL A   1      34.967  30.743  27.955  1.00  0.00     0.023 C 
BRANCH  28  29
ATOM     29  C   UNL A   1      33.784  31.695  27.918  1.00  0.00     0.023 C 
BRANCH  29  30
ATOM     30  C   UNL A   1      34.183  33.147  27.718  1.00  0.00     0.116 C 
BRANCH  30  31
ATOM     31  N   UNL A   1      33.341  34.098  28.437  1.00  0.00    -0.352 N 
ATOM     32  C   UNL A   1      33.477  34.521  29.744  1.00  0.00     0.251 C 
ATOM     33  H   UNL A   1      32.589  34.482  27.932  1.00  0.00     0.163 HD
ATOM     34  O   UNL A   1      32.660  35.280  30.245  1.00  0.00    -0.269 OA
BRANCH  32  35
ATOM     35  C   UNL A   1      34.605  33.977  30.527  1.00  0.00     0.039 A 
ATOM     36  C   UNL A   1      34.367  32.940  31.429  1.00  0.00     0.014 A 
ATOM     37  C   UNL A   1      35.907  34.388  30.235  1.00  0.00     0.014 A 
ATOM     38  C   UNL A   1      35.450  32.247  31.971  1.00  0.00     0.010 A 
ATOM     39  C   UNL A   1      36.975  33.631  30.693  1.00  0.00     0.010 A 
ATOM     40  C   UNL A   1      36.760  32.551  31.564  1.00  0.00    -0.014 A 
BRANCH  40  41
ATOM     41  C   UNL A   1      37.931  31.773  32.045  1.00  0.00     0.031 A 
ATOM     42  C   UNL A   1      38.554  32.129  33.368  1.00  0.00     0.074 A 
ATOM     43  C   UNL A   1      38.487  30.828  31.261  1.00  0.00     0.049 A 
ATOM     44  N   UNL A   1      39.658  31.687  33.912  1.00  0.00    -0.248 NA
ATOM     45  C   UNL A   1      37.867  33.162  34.158  1.00  0.00     0.031 C 
ATOM     46  C   UNL A   1      38.010  30.435  29.933  1.00  0.00     0.029 A 
ATOM     47  N   UNL A   1      39.585  30.031  31.465  1.00  0.00    -0.354 N 
ATOM     48  C   UNL A   1      39.813  32.412  35.088  1.00  0.00     0.074 A 
ATOM     49  C   UNL A   1      38.732  33.371  35.137  1.00  0.00     0.031 C 
ATOM     50  C   UNL A   1      38.794  29.455  29.455  1.00  0.00     0.029 A 
ATOM     51  C   UNL A   1      39.853  29.177  30.418  1.00  0.00     0.049 A 
ATOM     52  H   UNL A   1      40.132  30.066  32.282  1.00  0.00     0.167 HD
ATOM     53  C   UNL A   1      40.753  32.269  36.056  1.00  0.00     0.034 A 
ATOM     54  C   UNL A   1      40.845  28.279  30.256  1.00  0.00     0.034 A 
ATOM     55  C   UNL A   1      41.798  31.278  36.010  1.00  0.00     0.049 A 
ATOM     56  C   UNL A   1      41.865  28.119  31.355  1.00  0.00     0.074 A 
ATOM     57  C   UNL A   1      42.761  30.994  36.961  1.00  0.00     0.029 A 
ATOM     58  N   UNL A   1      42.011  30.401  34.952  1.00  0.00    -0.354 N 
ATOM     59  N   UNL A   1      41.971  28.778  32.485  1.00  0.00    -0.248 NA
ATOM     60  C   UNL A   1      42.891  27.085  31.161  1.00  0.00     0.031 C 
ATOM     61  C   UNL A   1      43.588  29.982  36.458  1.00  0.00     0.029 A 
ATOM     62  C   UNL A   1      43.102  29.590  35.221  1.00  0.00     0.049 A 
ATOM     63  H   UNL A   1      41.467  30.363  34.134  1.00  0.00     0.167 HD
ATOM     64  C   UNL A   1      43.059  28.217  33.150  1.00  0.00     0.074 A 
ATOM     65  C   UNL A   1      43.564  27.159  32.298  1.00  0.00     0.031 C 
ATOM     66  C   UNL A   1      43.590  28.543  34.355  1.00  0.00     0.034 A 
BRANCH  53  67
ATOM     67  C   UNL A   1      40.685  33.220  37.226  1.00  0.00     0.023 A 
ATOM     68  C   UNL A   1      39.899  32.941  38.358  1.00  0.00     0.031 A 
ATOM     69  C   UNL A   1      41.369  34.448  37.189  1.00  0.00     0.131 A 
ATOM     70  C   UNL A   1      39.734  33.914  39.355  1.00  0.00     0.055 A 
ATOM     71  C   UNL A   1      41.274  35.375  38.229  1.00  0.00     0.041 A 
ATOM     72  F   UNL A   1      42.119  34.781  36.126  1.00  0.00    -0.206 F 
ATOM     73  C   UNL A   1      40.438  35.119  39.312  1.00  0.00     0.022 A 
BRANCH  70  74
ATOM     74  S   UNL A   1      38.460  33.646  40.618  1.00  0.00     0.124 S 
ATOM     75  O   UNL A   1      37.384  33.051  39.827  1.00  0.00    -0.237 OA
ATOM     76  O   UNL A   1      39.128  32.756  41.559  1.00  0.00    -0.237 OA
ATOM     77  O   UNL A   1      38.185  34.992  41.117  1.00  0.00    -0.744 OA
ENDBRANCH  70  74
ENDBRANCH  53  67
BRANCH  54  78
ATOM     78  C   UNL A   1      40.931  27.459  29.014  1.00  0.00     0.023 A 
ATOM     79  C   UNL A   1      41.912  27.719  28.044  1.00  0.00     0.031 A 
ATOM     80  C   UNL A   1      40.008  26.429  28.759  1.00  0.00     0.131 A 
ATOM     81  C   UNL A   1      41.921  26.993  26.843  1.00  0.00     0.055 A 
ATOM     82  C   UNL A   1      40.049  25.677  27.582  1.00  0.00     0.041 A 
ATOM     83  F   UNL A   1      39.055  26.133  29.657  1.00  0.00    -0.206 F 
ATOM     84  C   UNL A   1      41.002  25.966  26.610  1.00  0.00     0.022 A 
BRANCH  81  85
ATOM     85  S   UNL A   1      43.106  27.463  25.553  1.00  0.00     0.124 S 
ATOM     86  O   UNL A   1      42.269  28.246  24.652  1.00  0.00    -0.237 OA
ATOM     87  O   UNL A   1      44.102  28.208  26.316  1.00  0.00    -0.237 OA
ATOM     88  O   UNL A   1      43.562  26.178  25.025  1.00  0.00    -0.744 OA
ENDBRANCH  81  85
ENDBRANCH  54  78
BRANCH  66  89
ATOM     89  C   UNL A   1      44.749  27.709  34.837  1.00  0.00     0.023 A 
ATOM     90  C   UNL A   1      44.554  26.487  35.502  1.00  0.00     0.031 A 
ATOM     91  C   UNL A   1      46.069  28.150  34.630  1.00  0.00     0.131 A 
ATOM     92  C   UNL A   1      45.660  25.770  35.982  1.00  0.00     0.055 A 
ATOM     93  C   UNL A   1      47.167  27.407  35.062  1.00  0.00     0.041 A 
ATOM     94  F   UNL A   1      46.309  29.311  33.999  1.00  0.00    -0.206 F 
ATOM     95  C   UNL A   1      46.965  26.215  35.753  1.00  0.00     0.022 A 
BRANCH  92  96
ATOM     96  S   UNL A   1      45.368  24.286  36.983  1.00  0.00     0.124 S 
ATOM     97  O   UNL A   1      44.571  23.463  36.079  1.00  0.00    -0.237 OA
ATOM     98  O   UNL A   1      46.724  23.815  37.246  1.00  0.00    -0.237 OA
ATOM     99  O   UNL A   1      44.652  24.796  38.152  1.00  0.00    -0.744 OA
ENDBRANCH  92  96
ENDBRANCH  66  89
ENDBRANCH  40  41
ENDBRANCH  32  35
ENDBRANCH  30  31
ENDBRANCH  29  30
ENDBRANCH  28  29
ENDBRANCH   1  28
TORSDOF 20
ENDMDL
MODEL 3
REMARK VINA RESULT:     -11.4      2.777      8.742
REMARK SMILES C[NH+](C)[C@H]1CCN(C(=O)C(=O)c2ccccc2)C[C@H]1CCC(=O)NCCCCNC(=O)c1ccc(-c2c3nc(c(-c4cc(S(=O)(=O)[O-])ccc4F)c4ccc([nH]4)c(-c4cc(S(=O)(=O)[O-])ccc4F)c4nc(c(-c5cc(S(=O)(=O)[O-])ccc5F)c5ccc2[nH]5)C=C4)C=C3)cc1
REMARK SMILES IDX 25 1 24 2 22 3 23 4 21 6 20 7 19 8 4 9 5 10 6 11 18 12 7 13
REMARK SMILES IDX 2 14 1 15 3 16 8 18 9 19 10 20 11 21 12 22 13 23 17 24 14 25
REMARK SMILES IDX 16 26 15 27 26 28 27 29 28 30 29 31 30 32 31 34 32 35 33 36
REMARK SMILES IDX 94 37 34 38 93 39 35 40 36 41 37 42 87 43 38 44 92 45 86 46
REMARK SMILES IDX 88 47 39 48 91 49 85 50 84 51 40 53 72 54 52 55 71 56 53 57
REMARK SMILES IDX 56 58 70 59 89 60 54 61 55 62 69 64 90 65 57 66 41 67 42 68
REMARK SMILES IDX 50 69 43 70 49 71 51 72 48 73 44 74 45 75 46 76 47 77 73 78
REMARK SMILES IDX 74 79 82 80 75 81 81 82 83 83 80 84 76 85 77 86 78 87 79 88
REMARK SMILES IDX 58 89 59 90 67 91 60 92 66 93 68 94 65 95 61 96 62 97 63 98
REMARK SMILES IDX 64 99
REMARK H PARENT 24 5 2 17 29 33 88 52 56 63
REMARK Flexibility Score: inf
ROOT
ATOM      1  C   UNL A   1      32.623  28.690  22.726  1.00  0.00     0.116 C 
ENDROOT
BRANCH   1   2
ATOM      2  N   UNL A   1      33.269  27.627  21.977  1.00  0.00    -0.356 N 
ATOM      3  C   UNL A   1      32.869  26.343  21.745  1.00  0.00     0.220 C 
ATOM      4  O   UNL A   1      33.673  25.557  21.242  1.00  0.00    -0.275 OA
ATOM      5  H   UNL A   1      34.132  27.871  21.573  1.00  0.00     0.163 HD
BRANCH   3   6
ATOM      6  C   UNL A   1      31.443  25.911  22.043  1.00  0.00     0.100 C 
BRANCH   6   7
ATOM      7  C   UNL A   1      31.277  24.664  22.927  1.00  0.00     0.021 C 
BRANCH   7   8
ATOM      8  C   UNL A   1      32.218  24.556  24.149  1.00  0.00     0.067 C 
ATOM      9  C   UNL A   1      31.640  24.561  25.601  1.00  0.00     0.190 C 
ATOM     10  C   UNL A   1      30.858  23.269  25.852  1.00  0.00     0.087 C 
ATOM     11  C   UNL A   1      31.785  22.077  25.705  1.00  0.00     0.126 C 
ATOM     12  C   UNL A   1      33.121  23.295  23.994  1.00  0.00     0.129 C 
ATOM     13  N   UNL A   1      32.479  22.049  24.427  1.00  0.00    -0.335 N 
BRANCH   9  14
ATOM     14  N   UNL A   1      30.859  25.650  26.192  1.00  0.00    -0.337 N 
ATOM     15  C   UNL A   1      29.751  26.257  25.501  1.00  0.00     0.332 C 
ATOM     16  C   UNL A   1      31.615  26.591  27.006  1.00  0.00     0.332 C 
ATOM     17  H   UNL A   1      30.324  25.035  26.804  1.00  0.00     0.347 HD
ENDBRANCH   9  14
BRANCH  13  18
ATOM     18  C   UNL A   1      32.804  20.777  23.940  1.00  0.00     0.294 C 
ATOM     19  O   UNL A   1      32.210  20.253  22.997  1.00  0.00    -0.265 OA
BRANCH  18  20
ATOM     20  C   UNL A   1      33.917  19.958  24.595  1.00  0.00     0.250 C 
ATOM     21  O   UNL A   1      34.880  20.512  25.110  1.00  0.00    -0.283 OA
BRANCH  20  22
ATOM     22  C   UNL A   1      33.722  18.487  24.718  1.00  0.00     0.028 A 
ATOM     23  C   UNL A   1      32.719  18.015  25.574  1.00  0.00     0.012 A 
ATOM     24  C   UNL A   1      34.471  17.579  23.958  1.00  0.00     0.012 A 
ATOM     25  C   UNL A   1      32.439  16.648  25.635  1.00  0.00     0.001 A 
ATOM     26  C   UNL A   1      34.189  16.213  24.028  1.00  0.00     0.001 A 
ATOM     27  C   UNL A   1      33.169  15.750  24.857  1.00  0.00     0.000 A 
ENDBRANCH  20  22
ENDBRANCH  18  20
ENDBRANCH  13  18
ENDBRANCH   7   8
ENDBRANCH   6   7
ENDBRANCH   3   6
ENDBRANCH   1   2
BRANCH   1  28
ATOM     28  C   UNL A   1      32.894  28.517  24.226  1.00  0.00     0.023 C 
BRANCH  28  29
ATOM     29  C   UNL A   1      32.349  29.632  25.101  1.00  0.00     0.023 C 
BRANCH  29  30
ATOM     30  C   UNL A   1      33.199  29.904  26.331  1.00  0.00     0.116 C 
BRANCH  30  31
ATOM     31  N   UNL A   1      33.027  31.243  26.887  1.00  0.00    -0.352 N 
ATOM     32  C   UNL A   1      33.917  31.952  27.668  1.00  0.00     0.251 C 
ATOM     33  H   UNL A   1      32.176  31.693  26.680  1.00  0.00     0.163 HD
ATOM     34  O   UNL A   1      33.620  33.047  28.122  1.00  0.00    -0.269 OA
BRANCH  32  35
ATOM     35  C   UNL A   1      35.211  31.313  27.983  1.00  0.00     0.039 A 
ATOM     36  C   UNL A   1      36.361  32.102  28.041  1.00  0.00     0.014 A 
ATOM     37  C   UNL A   1      35.239  29.974  28.380  1.00  0.00     0.014 A 
ATOM     38  C   UNL A   1      37.526  31.566  28.591  1.00  0.00     0.010 A 
ATOM     39  C   UNL A   1      36.366  29.481  29.020  1.00  0.00     0.010 A 
ATOM     40  C   UNL A   1      37.522  30.271  29.135  1.00  0.00    -0.014 A 
BRANCH  40  41
ATOM     41  C   UNL A   1      38.715  29.702  29.814  1.00  0.00     0.031 A 
ATOM     42  C   UNL A   1      39.091  30.205  31.181  1.00  0.00     0.074 A 
ATOM     43  C   UNL A   1      39.505  28.819  29.170  1.00  0.00     0.049 A 
ATOM     44  N   UNL A   1      40.162  29.959  31.892  1.00  0.00    -0.248 NA
ATOM     45  C   UNL A   1      38.159  31.155  31.808  1.00  0.00     0.031 C 
ATOM     46  C   UNL A   1      39.279  28.301  27.819  1.00  0.00     0.029 A 
ATOM     47  N   UNL A   1      40.668  28.207  29.566  1.00  0.00    -0.354 N 
ATOM     48  C   UNL A   1      40.046  30.749  33.030  1.00  0.00     0.074 A 
ATOM     49  C   UNL A   1      38.841  31.535  32.876  1.00  0.00     0.031 C 
ATOM     50  C   UNL A   1      40.254  27.432  27.510  1.00  0.00     0.029 A 
ATOM     51  C   UNL A   1      41.199  27.360  28.619  1.00  0.00     0.049 A 
ATOM     52  H   UNL A   1      41.086  28.361  30.443  1.00  0.00     0.167 HD
ATOM     53  C   UNL A   1      40.853  30.793  34.119  1.00  0.00     0.034 A 
ATOM     54  C   UNL A   1      42.323  26.617  28.644  1.00  0.00     0.034 A 
ATOM     55  C   UNL A   1      42.026  29.971  34.272  1.00  0.00     0.049 A 
ATOM     56  C   UNL A   1      43.193  26.660  29.875  1.00  0.00     0.074 A 
ATOM     57  C   UNL A   1      42.880  29.878  35.356  1.00  0.00     0.029 A 
ATOM     58  N   UNL A   1      42.509  29.092  33.309  1.00  0.00    -0.354 N 
ATOM     59  N   UNL A   1      43.046  27.377  30.966  1.00  0.00    -0.248 NA
ATOM     60  C   UNL A   1      44.375  25.787  29.882  1.00  0.00     0.031 C 
ATOM     61  C   UNL A   1      43.906  28.983  35.031  1.00  0.00     0.029 A 
ATOM     62  C   UNL A   1      43.658  28.468  33.769  1.00  0.00     0.049 A 
ATOM     63  H   UNL A   1      42.095  28.936  32.431  1.00  0.00     0.167 HD
ATOM     64  C   UNL A   1      44.100  27.017  31.801  1.00  0.00     0.074 A 
ATOM     65  C   UNL A   1      44.866  26.012  31.091  1.00  0.00     0.031 C 
ATOM     66  C   UNL A   1      44.407  27.471  33.042  1.00  0.00     0.034 A 
BRANCH  53  67
ATOM     67  C   UNL A   1      40.488  31.773  35.207  1.00  0.00     0.023 A 
ATOM     68  C   UNL A   1      39.561  31.445  36.213  1.00  0.00     0.031 A 
ATOM     69  C   UNL A   1      41.026  33.071  35.210  1.00  0.00     0.131 A 
ATOM     70  C   UNL A   1      39.126  32.427  37.115  1.00  0.00     0.055 A 
ATOM     71  C   UNL A   1      40.658  34.018  36.168  1.00  0.00     0.041 A 
ATOM     72  F   UNL A   1      41.900  33.451  34.264  1.00  0.00    -0.206 F 
ATOM     73  C   UNL A   1      39.688  33.706  37.116  1.00  0.00     0.022 A 
BRANCH  70  74
ATOM     74  S   UNL A   1      37.699  32.057  38.171  1.00  0.00     0.124 S 
ATOM     75  O   UNL A   1      36.737  33.063  37.725  1.00  0.00    -0.237 OA
ATOM     76  O   UNL A   1      37.391  30.677  37.816  1.00  0.00    -0.237 OA
ATOM     77  O   UNL A   1      38.214  32.254  39.524  1.00  0.00    -0.744 OA
ENDBRANCH  70  74
ENDBRANCH  53  67
BRANCH  54  78
ATOM     78  C   UNL A   1      42.697  25.766  27.479  1.00  0.00     0.023 A 
ATOM     79  C   UNL A   1      42.224  24.449  27.367  1.00  0.00     0.031 A 
ATOM     80  C   UNL A   1      43.566  26.242  26.480  1.00  0.00     0.131 A 
ATOM     81  C   UNL A   1      42.658  23.636  26.308  1.00  0.00     0.055 A 
ATOM     82  C   UNL A   1      43.958  25.444  25.404  1.00  0.00     0.041 A 
ATOM     83  F   UNL A   1      44.040  27.496  26.535  1.00  0.00    -0.206 F 
ATOM     84  C   UNL A   1      43.514  24.128  25.320  1.00  0.00     0.022 A 
BRANCH  81  85
ATOM     85  S   UNL A   1      42.147  21.895  26.284  1.00  0.00     0.124 S 
ATOM     86  O   UNL A   1      42.585  21.439  27.598  1.00  0.00    -0.237 OA
ATOM     87  O   UNL A   1      40.704  22.007  26.091  1.00  0.00    -0.237 OA
ATOM     88  O   UNL A   1      42.884  21.340  25.150  1.00  0.00    -0.744 OA
ENDBRANCH  81  85
ENDBRANCH  54  78
BRANCH  66  89
ATOM     89  C   UNL A   1      45.597  26.844  33.723  1.00  0.00     0.023 A 
ATOM     90  C   UNL A   1      45.481  25.661  34.471  1.00  0.00     0.031 A 
ATOM     91  C   UNL A   1      46.864  27.447  33.622  1.00  0.00     0.131 A 
ATOM     92  C   UNL A   1      46.603  25.143  35.134  1.00  0.00     0.055 A 
ATOM     93  C   UNL A   1      47.988  26.897  34.239  1.00  0.00     0.041 A 
ATOM     94  F   UNL A   1      47.028  28.578  32.918  1.00  0.00    -0.206 F 
ATOM     95  C   UNL A   1      47.858  25.745  35.010  1.00  0.00     0.022 A 
BRANCH  92  96
ATOM     96  S   UNL A   1      46.385  23.714  36.228  1.00  0.00     0.124 S 
ATOM     97  O   UNL A   1      46.666  22.598  35.330  1.00  0.00    -0.237 OA
ATOM     98  O   UNL A   1      47.378  23.961  37.268  1.00  0.00    -0.237 OA
ATOM     99  O   UNL A   1      44.993  23.824  36.663  1.00  0.00    -0.744 OA
ENDBRANCH  92  96
ENDBRANCH  66  89
ENDBRANCH  40  41
ENDBRANCH  32  35
ENDBRANCH  30  31
ENDBRANCH  29  30
ENDBRANCH  28  29
ENDBRANCH   1  28
TORSDOF 20
ENDMDL
