MODEL 1
REMARK VINA RESULT:     -11.6      0.000      0.000
REMARK SMILES Cc1ccsc1CNS(=O)(=O)c1ccc(C(=O)NCCCCNC(=O)c2ccc(-c3c4nc(c(-c5cc(S(=O)(=O)[O-])ccc5F)c5ccc([nH]5)c(-c5cc(S(=O)(=O)[O-])ccc5F)c5nc(c(-c6cc(S(=O)(=O)[O-])ccc6F)c6ccc3[nH]6)C=C5)C=C4)cc2)s1
REMARK SMILES IDX 20 1 19 2 18 3 16 4 17 5 15 7 12 8 13 9 89 10 14 11 9 12
REMARK SMILES IDX 10 13 11 14 8 15 7 17 6 18 1 19 2 20 3 21 4 22 5 23 21 24
REMARK SMILES IDX 22 25 23 26 24 27 25 29 26 30 27 31 88 32 28 33 87 34 29 35
REMARK SMILES IDX 30 36 31 37 81 38 32 39 86 40 80 41 82 42 33 43 85 44 79 45
REMARK SMILES IDX 78 46 34 48 66 49 46 50 65 51 47 52 50 53 64 54 83 55 48 56
REMARK SMILES IDX 49 57 63 59 84 60 51 61 35 62 36 63 44 64 37 65 43 66 45 67
REMARK SMILES IDX 42 68 38 69 39 70 40 71 41 72 67 73 68 74 76 75 69 76 75 77
REMARK SMILES IDX 77 78 74 79 70 80 71 81 72 82 73 83 52 84 53 85 61 86 54 87
REMARK SMILES IDX 60 88 62 89 59 90 55 91 56 92 57 93 58 94
REMARK H PARENT 18 6 8 16 23 28 82 47 50 58
REMARK Flexibility Score: inf
ROOT
ATOM      1  C   UNL A   1      31.433  30.839  25.940  1.00  0.00     0.023 C 
ENDROOT
BRANCH   1   2
ATOM      2  C   UNL A   1      32.610  30.007  26.445  1.00  0.00     0.116 C 
BRANCH   2   3
ATOM      3  N   UNL A   1      33.350  29.444  25.337  1.00  0.00    -0.351 N 
ATOM      4  C   UNL A   1      33.220  28.255  24.664  1.00  0.00     0.261 C 
ATOM      5  O   UNL A   1      34.024  28.087  23.743  1.00  0.00    -0.268 OA
ATOM      6  H   UNL A   1      34.079  30.016  25.007  1.00  0.00     0.163 HD
BRANCH   4   7
ATOM      7  C   UNL A   1      32.173  27.289  24.992  1.00  0.00     0.093 A 
ATOM      8  C   UNL A   1      31.121  25.220  25.901  1.00  0.00     0.135 A 
ATOM      9  C   UNL A   1      30.257  25.944  25.105  1.00  0.00     0.034 A 
ATOM     10  S   UNL A   1      32.588  26.049  26.114  1.00  0.00    -0.117 S 
ATOM     11  C   UNL A   1      30.849  27.147  24.614  1.00  0.00     0.027 A 
BRANCH   8  12
ATOM     12  S   UNL A   1      30.931  23.648  26.703  1.00  0.00     0.250 S 
ATOM     13  O   UNL A   1      29.612  23.696  27.299  1.00  0.00    -0.206 OA
ATOM     14  O   UNL A   1      32.112  23.514  27.527  1.00  0.00    -0.206 OA
BRANCH  12  15
ATOM     15  N   UNL A   1      30.959  22.367  25.620  1.00  0.00    -0.205 NA
ATOM     16  H   UNL A   1      31.245  21.536  26.136  1.00  0.00     0.141 HD
BRANCH  15  17
ATOM     17  C   UNL A   1      31.846  22.494  24.457  1.00  0.00     0.145 C 
BRANCH  17  18
ATOM     18  C   UNL A   1      32.966  21.493  24.575  1.00  0.00     0.022 A 
ATOM     19  C   UNL A   1      34.915  23.004  25.324  1.00  0.00     0.045 C 
ATOM     20  C   UNL A   1      34.289  21.700  24.946  1.00  0.00    -0.036 A 
ATOM     21  C   UNL A   1      35.023  20.466  24.948  1.00  0.00     0.015 A 
ATOM     22  C   UNL A   1      34.252  19.382  24.603  1.00  0.00     0.065 A 
ATOM     23  S   UNL A   1      32.638  19.827  24.291  1.00  0.00    -0.147 S 
ENDBRANCH  17  18
ENDBRANCH  15  17
ENDBRANCH  12  15
ENDBRANCH   8  12
ENDBRANCH   4   7
ENDBRANCH   2   3
ENDBRANCH   1   2
BRANCH   1  24
ATOM     24  C   UNL A   1      31.357  32.243  26.552  1.00  0.00     0.023 C 
BRANCH  24  25
ATOM     25  C   UNL A   1      32.649  32.739  27.196  1.00  0.00     0.116 C 
BRANCH  25  26
ATOM     26  N   UNL A   1      32.554  34.100  27.699  1.00  0.00    -0.352 N 
ATOM     27  C   UNL A   1      33.337  34.720  28.643  1.00  0.00     0.251 C 
ATOM     28  H   UNL A   1      31.836  34.650  27.311  1.00  0.00     0.163 HD
ATOM     29  O   UNL A   1      33.048  35.846  29.034  1.00  0.00    -0.269 OA
BRANCH  27  30
ATOM     30  C   UNL A   1      34.493  33.996  29.211  1.00  0.00     0.039 A 
ATOM     31  C   UNL A   1      35.780  34.454  28.925  1.00  0.00     0.014 A 
ATOM     32  C   UNL A   1      34.303  32.897  30.053  1.00  0.00     0.014 A 
ATOM     33  C   UNL A   1      36.879  33.852  29.542  1.00  0.00     0.010 A 
ATOM     34  C   UNL A   1      35.393  32.341  30.716  1.00  0.00     0.010 A 
ATOM     35  C   UNL A   1      36.690  32.817  30.472  1.00  0.00    -0.014 A 
BRANCH  35  36
ATOM     36  C   UNL A   1      37.837  32.222  31.205  1.00  0.00     0.031 A 
ATOM     37  C   UNL A   1      38.617  31.094  30.591  1.00  0.00     0.074 A 
ATOM     38  C   UNL A   1      38.128  32.653  32.449  1.00  0.00     0.049 A 
ATOM     39  N   UNL A   1      39.592  30.387  31.103  1.00  0.00    -0.248 NA
ATOM     40  C   UNL A   1      38.226  30.687  29.234  1.00  0.00     0.031 C 
ATOM     41  C   UNL A   1      37.413  33.712  33.164  1.00  0.00     0.029 A 
ATOM     42  N   UNL A   1      39.091  32.248  33.337  1.00  0.00    -0.354 N 
ATOM     43  C   UNL A   1      39.922  29.442  30.137  1.00  0.00     0.074 A 
ATOM     44  C   UNL A   1      38.999  29.629  29.036  1.00  0.00     0.031 C 
ATOM     45  C   UNL A   1      37.976  33.886  34.372  1.00  0.00     0.029 A 
ATOM     46  C   UNL A   1      39.061  32.924  34.534  1.00  0.00     0.049 A 
ATOM     47  H   UNL A   1      39.745  31.539  33.136  1.00  0.00     0.167 HD
ATOM     48  C   UNL A   1      40.915  28.519  30.157  1.00  0.00     0.034 A 
ATOM     49  C   UNL A   1      39.814  32.777  35.643  1.00  0.00     0.034 A 
ATOM     50  C   UNL A   1      41.834  28.355  31.258  1.00  0.00     0.049 A 
ATOM     51  C   UNL A   1      40.903  31.735  35.649  1.00  0.00     0.074 A 
ATOM     52  C   UNL A   1      42.911  27.492  31.362  1.00  0.00     0.029 A 
ATOM     53  N   UNL A   1      41.779  29.065  32.452  1.00  0.00    -0.354 N 
ATOM     54  N   UNL A   1      41.236  30.882  34.706  1.00  0.00    -0.248 NA
ATOM     55  C   UNL A   1      41.725  31.643  36.862  1.00  0.00     0.031 C 
ATOM     56  C   UNL A   1      43.467  27.635  32.639  1.00  0.00     0.029 A 
ATOM     57  C   UNL A   1      42.785  28.640  33.306  1.00  0.00     0.049 A 
ATOM     58  H   UNL A   1      41.122  29.768  32.660  1.00  0.00     0.167 HD
ATOM     59  C   UNL A   1      42.327  30.174  35.203  1.00  0.00     0.074 A 
ATOM     60  C   UNL A   1      42.602  30.710  36.521  1.00  0.00     0.031 C 
ATOM     61  C   UNL A   1      43.040  29.177  34.622  1.00  0.00     0.034 A 
BRANCH  48  62
ATOM     62  C   UNL A   1      41.037  27.606  28.960  1.00  0.00     0.023 A 
ATOM     63  C   UNL A   1      42.037  27.792  27.989  1.00  0.00     0.031 A 
ATOM     64  C   UNL A   1      40.122  26.555  28.768  1.00  0.00     0.131 A 
ATOM     65  C   UNL A   1      42.048  26.997  26.833  1.00  0.00     0.055 A 
ATOM     66  C   UNL A   1      40.191  25.713  27.657  1.00  0.00     0.041 A 
ATOM     67  F   UNL A   1      39.133  26.339  29.650  1.00  0.00    -0.206 F 
ATOM     68  C   UNL A   1      41.148  25.942  26.672  1.00  0.00     0.022 A 
BRANCH  65  69
ATOM     69  S   UNL A   1      43.159  27.461  25.477  1.00  0.00     0.124 S 
ATOM     70  O   UNL A   1      42.251  28.180  24.586  1.00  0.00    -0.237 OA
ATOM     71  O   UNL A   1      44.164  28.271  26.154  1.00  0.00    -0.237 OA
ATOM     72  O   UNL A   1      43.633  26.176  24.966  1.00  0.00    -0.744 OA
ENDBRANCH  65  69
ENDBRANCH  48  62
BRANCH  49  73
ATOM     73  C   UNL A   1      39.567  33.627  36.842  1.00  0.00     0.023 A 
ATOM     74  C   UNL A   1      38.910  33.112  37.970  1.00  0.00     0.031 A 
ATOM     75  C   UNL A   1      39.951  34.980  36.864  1.00  0.00     0.131 A 
ATOM     76  C   UNL A   1      38.612  33.953  39.053  1.00  0.00     0.055 A 
ATOM     77  C   UNL A   1      39.698  35.801  37.963  1.00  0.00     0.041 A 
ATOM     78  F   UNL A   1      40.588  35.522  35.813  1.00  0.00    -0.206 F 
ATOM     79  C   UNL A   1      39.012  35.292  39.062  1.00  0.00     0.022 A 
BRANCH  76  80
ATOM     80  S   UNL A   1      37.620  33.292  40.419  1.00  0.00     0.124 S 
ATOM     81  O   UNL A   1      38.501  32.260  40.953  1.00  0.00    -0.237 OA
ATOM     82  O   UNL A   1      37.432  34.471  41.255  1.00  0.00    -0.237 OA
ATOM     83  O   UNL A   1      36.413  32.801  39.755  1.00  0.00    -0.744 OA
ENDBRANCH  76  80
ENDBRANCH  49  73
BRANCH  61  84
ATOM     84  C   UNL A   1      44.215  28.635  35.398  1.00  0.00     0.023 A 
ATOM     85  C   UNL A   1      44.078  27.569  36.303  1.00  0.00     0.031 A 
ATOM     86  C   UNL A   1      45.490  29.206  35.235  1.00  0.00     0.131 A 
ATOM     87  C   UNL A   1      45.186  27.142  37.052  1.00  0.00     0.055 A 
ATOM     88  C   UNL A   1      46.600  28.738  35.938  1.00  0.00     0.041 A 
ATOM     89  F   UNL A   1      45.677  30.228  34.385  1.00  0.00    -0.206 F 
ATOM     90  C   UNL A   1      46.449  27.708  36.862  1.00  0.00     0.022 A 
BRANCH  87  91
ATOM     91  S   UNL A   1      44.936  25.890  38.340  1.00  0.00     0.124 S 
ATOM     92  O   UNL A   1      44.400  26.688  39.439  1.00  0.00    -0.237 OA
ATOM     93  O   UNL A   1      43.997  24.970  37.705  1.00  0.00    -0.237 OA
ATOM     94  O   UNL A   1      46.276  25.352  38.561  1.00  0.00    -0.744 OA
ENDBRANCH  87  91
ENDBRANCH  61  84
ENDBRANCH  35  36
ENDBRANCH  27  30
ENDBRANCH  25  26
ENDBRANCH  24  25
ENDBRANCH   1  24
TORSDOF 18
ENDMDL
MODEL 2
REMARK VINA RESULT:     -11.4      5.761     11.189
REMARK SMILES Cc1ccsc1CNS(=O)(=O)c1ccc(C(=O)NCCCCNC(=O)c2ccc(-c3c4nc(c(-c5cc(S(=O)(=O)[O-])ccc5F)c5ccc([nH]5)c(-c5cc(S(=O)(=O)[O-])ccc5F)c5nc(c(-c6cc(S(=O)(=O)[O-])ccc6F)c6ccc3[nH]6)C=C5)C=C4)cc2)s1
REMARK SMILES IDX 20 1 19 2 18 3 16 4 17 5 15 7 12 8 13 9 89 10 14 11 9 12
REMARK SMILES IDX 10 13 11 14 8 15 7 17 6 18 1 19 2 20 3 21 4 22 5 23 21 24
REMARK SMILES IDX 22 25 23 26 24 27 25 29 26 30 27 31 88 32 28 33 87 34 29 35
REMARK SMILES IDX 30 36 31 37 81 38 32 39 86 40 80 41 82 42 33 43 85 44 79 45
REMARK SMILES IDX 78 46 34 48 66 49 46 50 65 51 47 52 50 53 64 54 83 55 48 56
REMARK SMILES IDX 49 57 63 59 84 60 51 61 35 62 36 63 44 64 37 65 43 66 45 67
REMARK SMILES IDX 42 68 38 69 39 70 40 71 41 72 67 73 68 74 76 75 69 76 75 77
REMARK SMILES IDX 77 78 74 79 70 80 71 81 72 82 73 83 52 84 53 85 61 86 54 87
REMARK SMILES IDX 60 88 62 89 59 90 55 91 56 92 57 93 58 94
REMARK H PARENT 18 6 8 16 23 28 82 47 50 58
REMARK Flexibility Score: inf
ROOT
ATOM      1  C   UNL A   1      35.409  22.098  26.560  1.00  0.00     0.023 C 
ENDROOT
BRANCH   1   2
ATOM      2  C   UNL A   1      34.174  21.578  27.294  1.00  0.00     0.116 C 
BRANCH   2   3
ATOM      3  N   UNL A   1      33.281  20.906  26.377  1.00  0.00    -0.351 N 
ATOM      4  C   UNL A   1      32.280  21.380  25.566  1.00  0.00     0.261 C 
ATOM      5  O   UNL A   1      31.707  20.522  24.889  1.00  0.00    -0.268 OA
ATOM      6  H   UNL A   1      33.413  19.932  26.325  1.00  0.00     0.163 HD
BRANCH   4   7
ATOM      7  C   UNL A   1      31.959  22.804  25.483  1.00  0.00     0.093 A 
ATOM      8  C   UNL A   1      32.213  25.213  24.894  1.00  0.00     0.135 A 
ATOM      9  C   UNL A   1      31.179  24.994  25.782  1.00  0.00     0.034 A 
ATOM     10  S   UNL A   1      32.895  23.744  24.382  1.00  0.00    -0.117 S 
ATOM     11  C   UNL A   1      31.011  23.610  26.090  1.00  0.00     0.027 A 
BRANCH   8  12
ATOM     12  S   UNL A   1      32.887  26.716  24.234  1.00  0.00     0.250 S 
ATOM     13  O   UNL A   1      33.498  26.325  22.980  1.00  0.00    -0.206 OA
ATOM     14  O   UNL A   1      33.686  27.261  25.309  1.00  0.00    -0.206 OA
BRANCH  12  15
ATOM     15  N   UNL A   1      31.704  27.856  23.895  1.00  0.00    -0.205 NA
ATOM     16  H   UNL A   1      30.971  27.756  24.596  1.00  0.00     0.141 HD
BRANCH  15  17
ATOM     17  C   UNL A   1      31.066  27.785  22.574  1.00  0.00     0.145 C 
BRANCH  17  18
ATOM     18  C   UNL A   1      29.705  28.427  22.644  1.00  0.00     0.022 A 
ATOM     19  C   UNL A   1      28.354  26.611  23.878  1.00  0.00     0.045 C 
ATOM     20  C   UNL A   1      28.532  27.933  23.202  1.00  0.00    -0.036 A 
ATOM     21  C   UNL A   1      27.460  28.879  23.071  1.00  0.00     0.015 A 
ATOM     22  C   UNL A   1      27.845  30.043  22.450  1.00  0.00     0.065 A 
ATOM     23  S   UNL A   1      29.495  30.022  22.031  1.00  0.00    -0.147 S 
ENDBRANCH  17  18
ENDBRANCH  15  17
ENDBRANCH  12  15
ENDBRANCH   8  12
ENDBRANCH   4   7
ENDBRANCH   2   3
ENDBRANCH   1   2
BRANCH   1  24
ATOM     24  C   UNL A   1      35.912  21.165  25.453  1.00  0.00     0.023 C 
BRANCH  24  25
ATOM     25  C   UNL A   1      37.361  21.389  25.026  1.00  0.00     0.116 C 
BRANCH  25  26
ATOM     26  N   UNL A   1      38.252  20.314  25.432  1.00  0.00    -0.352 N 
ATOM     27  C   UNL A   1      39.456  20.402  26.088  1.00  0.00     0.251 C 
ATOM     28  H   UNL A   1      37.953  19.403  25.208  1.00  0.00     0.163 HD
ATOM     29  O   UNL A   1      40.136  19.395  26.257  1.00  0.00    -0.269 OA
BRANCH  27  30
ATOM     30  C   UNL A   1      39.937  21.724  26.540  1.00  0.00     0.039 A 
ATOM     31  C   UNL A   1      40.972  21.779  27.476  1.00  0.00     0.014 A 
ATOM     32  C   UNL A   1      39.395  22.899  26.012  1.00  0.00     0.014 A 
ATOM     33  C   UNL A   1      41.514  23.016  27.829  1.00  0.00     0.010 A 
ATOM     34  C   UNL A   1      39.980  24.125  26.317  1.00  0.00     0.010 A 
ATOM     35  C   UNL A   1      41.049  24.194  27.223  1.00  0.00    -0.014 A 
BRANCH  35  36
ATOM     36  C   UNL A   1      41.670  25.510  27.521  1.00  0.00     0.031 A 
ATOM     37  C   UNL A   1      40.903  26.547  28.293  1.00  0.00     0.074 A 
ATOM     38  C   UNL A   1      42.895  25.793  27.034  1.00  0.00     0.049 A 
ATOM     39  N   UNL A   1      41.235  27.780  28.579  1.00  0.00    -0.248 NA
ATOM     40  C   UNL A   1      39.573  26.153  28.779  1.00  0.00     0.031 C 
ATOM     41  C   UNL A   1      43.717  24.881  26.234  1.00  0.00     0.029 A 
ATOM     42  N   UNL A   1      43.659  26.928  27.129  1.00  0.00    -0.354 N 
ATOM     43  C   UNL A   1      40.150  28.314  29.266  1.00  0.00     0.074 A 
ATOM     44  C   UNL A   1      39.128  27.288  29.296  1.00  0.00     0.031 C 
ATOM     45  C   UNL A   1      44.877  25.486  25.930  1.00  0.00     0.029 A 
ATOM     46  C   UNL A   1      44.865  26.841  26.474  1.00  0.00     0.049 A 
ATOM     47  H   UNL A   1      43.371  27.731  27.621  1.00  0.00     0.167 HD
ATOM     48  C   UNL A   1      40.026  29.538  29.837  1.00  0.00     0.034 A 
ATOM     49  C   UNL A   1      45.845  27.753  26.317  1.00  0.00     0.034 A 
ATOM     50  C   UNL A   1      41.061  30.544  29.807  1.00  0.00     0.049 A 
ATOM     51  C   UNL A   1      45.680  29.112  26.948  1.00  0.00     0.074 A 
ATOM     52  C   UNL A   1      41.066  31.795  30.400  1.00  0.00     0.029 A 
ATOM     53  N   UNL A   1      42.275  30.417  29.142  1.00  0.00    -0.354 N 
ATOM     54  N   UNL A   1      44.669  29.585  27.639  1.00  0.00    -0.248 NA
ATOM     55  C   UNL A   1      46.794  30.056  26.788  1.00  0.00     0.031 C 
ATOM     56  C   UNL A   1      42.251  32.446  30.041  1.00  0.00     0.029 A 
ATOM     57  C   UNL A   1      43.022  31.575  29.286  1.00  0.00     0.049 A 
ATOM     58  H   UNL A   1      42.562  29.619  28.641  1.00  0.00     0.167 HD
ATOM     59  C   UNL A   1      45.039  30.871  28.022  1.00  0.00     0.074 A 
ATOM     60  C   UNL A   1      46.370  31.092  27.496  1.00  0.00     0.031 C 
ATOM     61  C   UNL A   1      44.344  31.784  28.747  1.00  0.00     0.034 A 
BRANCH  48  62
ATOM     62  C   UNL A   1      38.716  29.855  30.518  1.00  0.00     0.023 A 
ATOM     63  C   UNL A   1      37.709  30.594  29.872  1.00  0.00     0.031 A 
ATOM     64  C   UNL A   1      38.482  29.444  31.842  1.00  0.00     0.131 A 
ATOM     65  C   UNL A   1      36.554  30.970  30.575  1.00  0.00     0.055 A 
ATOM     66  C   UNL A   1      37.293  29.747  32.508  1.00  0.00     0.041 A 
ATOM     67  F   UNL A   1      39.413  28.752  32.519  1.00  0.00    -0.206 F 
ATOM     68  C   UNL A   1      36.327  30.530  31.880  1.00  0.00     0.022 A 
BRANCH  65  69
ATOM     69  S   UNL A   1      35.427  32.166  29.809  1.00  0.00     0.124 S 
ATOM     70  O   UNL A   1      34.500  32.439  30.904  1.00  0.00    -0.237 OA
ATOM     71  O   UNL A   1      36.324  33.256  29.443  1.00  0.00    -0.237 OA
ATOM     72  O   UNL A   1      34.853  31.426  28.686  1.00  0.00    -0.744 OA
ENDBRANCH  65  69
ENDBRANCH  48  62
BRANCH  49  73
ATOM     73  C   UNL A   1      47.066  27.423  25.529  1.00  0.00     0.023 A 
ATOM     74  C   UNL A   1      47.186  27.812  24.185  1.00  0.00     0.031 A 
ATOM     75  C   UNL A   1      48.116  26.678  26.095  1.00  0.00     0.131 A 
ATOM     76  C   UNL A   1      48.306  27.416  23.439  1.00  0.00     0.055 A 
ATOM     77  C   UNL A   1      49.252  26.329  25.363  1.00  0.00     0.041 A 
ATOM     78  F   UNL A   1      48.055  26.285  27.378  1.00  0.00    -0.206 F 
ATOM     79  C   UNL A   1      49.346  26.687  24.021  1.00  0.00     0.022 A 
BRANCH  76  80
ATOM     80  S   UNL A   1      48.347  27.799  21.666  1.00  0.00     0.124 S 
ATOM     81  O   UNL A   1      48.584  26.484  21.084  1.00  0.00    -0.237 OA
ATOM     82  O   UNL A   1      47.022  28.369  21.449  1.00  0.00    -0.237 OA
ATOM     83  O   UNL A   1      49.457  28.745  21.549  1.00  0.00    -0.744 OA
ENDBRANCH  76  80
ENDBRANCH  49  73
BRANCH  61  84
ATOM     84  C   UNL A   1      45.039  33.090  29.048  1.00  0.00     0.023 A 
ATOM     85  C   UNL A   1      44.892  34.216  28.220  1.00  0.00     0.031 A 
ATOM     86  C   UNL A   1      45.872  33.201  30.176  1.00  0.00     0.131 A 
ATOM     87  C   UNL A   1      45.610  35.389  28.502  1.00  0.00     0.055 A 
ATOM     88  C   UNL A   1      46.536  34.388  30.485  1.00  0.00     0.041 A 
ATOM     89  F   UNL A   1      46.049  32.155  30.999  1.00  0.00    -0.206 F 
ATOM     90  C   UNL A   1      46.417  35.487  29.639  1.00  0.00     0.022 A 
BRANCH  87  91
ATOM     91  S   UNL A   1      45.540  36.759  27.317  1.00  0.00     0.124 S 
ATOM     92  O   UNL A   1      46.549  36.365  26.338  1.00  0.00    -0.237 OA
ATOM     93  O   UNL A   1      44.156  36.708  26.859  1.00  0.00    -0.237 OA
ATOM     94  O   UNL A   1      45.883  37.929  28.123  1.00  0.00    -0.744 OA
ENDBRANCH  87  91
ENDBRANCH  61  84
ENDBRANCH  35  36
ENDBRANCH  27  30
ENDBRANCH  25  26
ENDBRANCH  24  25
ENDBRANCH   1  24
TORSDOF 18
ENDMDL
MODEL 3
REMARK VINA RESULT:     -11.3      3.309      8.482
REMARK SMILES Cc1ccsc1CNS(=O)(=O)c1ccc(C(=O)NCCCCNC(=O)c2ccc(-c3c4nc(c(-c5cc(S(=O)(=O)[O-])ccc5F)c5ccc([nH]5)c(-c5cc(S(=O)(=O)[O-])ccc5F)c5nc(c(-c6cc(S(=O)(=O)[O-])ccc6F)c6ccc3[nH]6)C=C5)C=C4)cc2)s1
REMARK SMILES IDX 20 1 19 2 18 3 16 4 17 5 15 7 12 8 13 9 89 10 14 11 9 12
REMARK SMILES IDX 10 13 11 14 8 15 7 17 6 18 1 19 2 20 3 21 4 22 5 23 21 24
REMARK SMILES IDX 22 25 23 26 24 27 25 29 26 30 27 31 88 32 28 33 87 34 29 35
REMARK SMILES IDX 30 36 31 37 81 38 32 39 86 40 80 41 82 42 33 43 85 44 79 45
REMARK SMILES IDX 78 46 34 48 66 49 46 50 65 51 47 52 50 53 64 54 83 55 48 56
REMARK SMILES IDX 49 57 63 59 84 60 51 61 35 62 36 63 44 64 37 65 43 66 45 67
REMARK SMILES IDX 42 68 38 69 39 70 40 71 41 72 67 73 68 74 76 75 69 76 75 77
REMARK SMILES IDX 77 78 74 79 70 80 71 81 72 82 73 83 52 84 53 85 61 86 54 87
REMARK SMILES IDX 60 88 62 89 59 90 55 91 56 92 57 93 58 94
REMARK H PARENT 18 6 8 16 23 28 82 47 50 58
REMARK Flexibility Score: inf
ROOT
ATOM      1  C   UNL A   1      33.217  29.294  24.820  1.00  0.00     0.023 C 
ENDROOT
BRANCH   1   2
ATOM      2  C   UNL A   1      33.174  28.599  23.460  1.00  0.00     0.116 C 
BRANCH   2   3
ATOM      3  N   UNL A   1      31.842  28.657  22.899  1.00  0.00    -0.351 N 
ATOM      4  C   UNL A   1      30.885  27.690  22.720  1.00  0.00     0.261 C 
ATOM      5  O   UNL A   1      29.833  28.086  22.211  1.00  0.00    -0.268 OA
ATOM      6  H   UNL A   1      31.574  29.552  22.589  1.00  0.00     0.163 HD
BRANCH   4   7
ATOM      7  C   UNL A   1      31.089  26.308  23.149  1.00  0.00     0.093 A 
ATOM      8  C   UNL A   1      31.302  24.360  24.692  1.00  0.00     0.135 A 
ATOM      9  C   UNL A   1      31.693  24.057  23.404  1.00  0.00     0.034 A 
ATOM     10  S   UNL A   1      30.670  25.935  24.779  1.00  0.00    -0.117 S 
ATOM     11  C   UNL A   1      31.537  25.163  22.513  1.00  0.00     0.027 A 
BRANCH   8  12
ATOM     12  S   UNL A   1      31.343  23.399  26.182  1.00  0.00     0.250 S 
ATOM     13  O   UNL A   1      30.258  22.451  26.038  1.00  0.00    -0.206 OA
ATOM     14  O   UNL A   1      31.337  24.376  27.248  1.00  0.00    -0.206 OA
BRANCH  12  15
ATOM     15  N   UNL A   1      32.767  22.527  26.345  1.00  0.00    -0.205 NA
ATOM     16  H   UNL A   1      33.400  23.079  26.923  1.00  0.00     0.141 HD
BRANCH  15  17
ATOM     17  C   UNL A   1      33.483  22.179  25.111  1.00  0.00     0.145 C 
BRANCH  17  18
ATOM     18  C   UNL A   1      34.936  22.545  25.260  1.00  0.00     0.022 A 
ATOM     19  C   UNL A   1      34.812  25.120  25.226  1.00  0.00     0.045 C 
ATOM     20  C   UNL A   1      35.520  23.805  25.310  1.00  0.00    -0.036 A 
ATOM     21  C   UNL A   1      36.942  23.709  25.480  1.00  0.00     0.015 A 
ATOM     22  C   UNL A   1      37.385  22.411  25.568  1.00  0.00     0.065 A 
ATOM     23  S   UNL A   1      36.102  21.296  25.467  1.00  0.00    -0.147 S 
ENDBRANCH  17  18
ENDBRANCH  15  17
ENDBRANCH  12  15
ENDBRANCH   8  12
ENDBRANCH   4   7
ENDBRANCH   2   3
ENDBRANCH   1   2
BRANCH   1  24
ATOM     24  C   UNL A   1      33.512  28.349  25.991  1.00  0.00     0.023 C 
BRANCH  24  25
ATOM     25  C   UNL A   1      33.187  28.911  27.373  1.00  0.00     0.116 C 
BRANCH  25  26
ATOM     26  N   UNL A   1      33.329  30.356  27.453  1.00  0.00    -0.352 N 
ATOM     27  C   UNL A   1      34.396  31.086  27.917  1.00  0.00     0.251 C 
ATOM     28  H   UNL A   1      32.560  30.879  27.132  1.00  0.00     0.163 HD
ATOM     29  O   UNL A   1      34.306  32.305  28.018  1.00  0.00    -0.269 OA
BRANCH  27  30
ATOM     30  C   UNL A   1      35.626  30.382  28.335  1.00  0.00     0.039 A 
ATOM     31  C   UNL A   1      36.709  30.338  27.454  1.00  0.00     0.014 A 
ATOM     32  C   UNL A   1      35.721  29.805  29.604  1.00  0.00     0.014 A 
ATOM     33  C   UNL A   1      37.916  29.776  27.874  1.00  0.00     0.010 A 
ATOM     34  C   UNL A   1      36.944  29.304  30.043  1.00  0.00     0.010 A 
ATOM     35  C   UNL A   1      38.054  29.290  29.185  1.00  0.00    -0.014 A 
BRANCH  35  36
ATOM     36  C   UNL A   1      39.354  28.768  29.679  1.00  0.00     0.031 A 
ATOM     37  C   UNL A   1      40.075  29.477  30.791  1.00  0.00     0.074 A 
ATOM     38  C   UNL A   1      39.913  27.700  29.078  1.00  0.00     0.049 A 
ATOM     39  N   UNL A   1      41.254  29.231  31.303  1.00  0.00    -0.248 NA
ATOM     40  C   UNL A   1      39.391  30.637  31.383  1.00  0.00     0.031 C 
ATOM     41  C   UNL A   1      39.327  26.956  27.960  1.00  0.00     0.029 A 
ATOM     42  N   UNL A   1      41.103  27.058  29.312  1.00  0.00    -0.354 N 
ATOM     43  C   UNL A   1      41.461  30.213  32.266  1.00  0.00     0.074 A 
ATOM     44  C   UNL A   1      40.311  31.092  32.221  1.00  0.00     0.031 C 
ATOM     45  C   UNL A   1      40.149  25.950  27.621  1.00  0.00     0.029 A 
ATOM     46  C   UNL A   1      41.339  26.001  28.464  1.00  0.00     0.049 A 
ATOM     47  H   UNL A   1      41.731  27.330  30.021  1.00  0.00     0.167 HD
ATOM     48  C   UNL A   1      42.502  30.353  33.124  1.00  0.00     0.034 A 
ATOM     49  C   UNL A   1      42.399  25.174  28.369  1.00  0.00     0.034 A 
ATOM     50  C   UNL A   1      43.634  29.459  33.162  1.00  0.00     0.049 A 
ATOM     51  C   UNL A   1      43.553  25.359  29.322  1.00  0.00     0.074 A 
ATOM     52  C   UNL A   1      44.716  29.474  34.026  1.00  0.00     0.029 A 
ATOM     53  N   UNL A   1      43.835  28.392  32.295  1.00  0.00    -0.354 N 
ATOM     54  N   UNL A   1      43.710  26.261  30.264  1.00  0.00    -0.248 NA
ATOM     55  C   UNL A   1      44.664  24.406  29.209  1.00  0.00     0.031 C 
ATOM     56  C   UNL A   1      45.598  28.458  33.640  1.00  0.00     0.029 A 
ATOM     57  C   UNL A   1      45.034  27.760  32.585  1.00  0.00     0.049 A 
ATOM     58  H   UNL A   1      43.214  28.124  31.579  1.00  0.00     0.167 HD
ATOM     59  C   UNL A   1      44.926  25.965  30.874  1.00  0.00     0.074 A 
ATOM     60  C   UNL A   1      45.451  24.793  30.203  1.00  0.00     0.031 C 
ATOM     61  C   UNL A   1      45.549  26.599  31.899  1.00  0.00     0.034 A 
BRANCH  48  62
ATOM     62  C   UNL A   1      42.467  31.532  34.068  1.00  0.00     0.023 A 
ATOM     63  C   UNL A   1      41.706  31.508  35.249  1.00  0.00     0.031 A 
ATOM     64  C   UNL A   1      43.177  32.708  33.768  1.00  0.00     0.131 A 
ATOM     65  C   UNL A   1      41.605  32.661  36.042  1.00  0.00     0.055 A 
ATOM     66  C   UNL A   1      43.142  33.824  34.606  1.00  0.00     0.041 A 
ATOM     67  F   UNL A   1      43.907  32.799  32.644  1.00  0.00    -0.206 F 
ATOM     68  C   UNL A   1      42.338  33.811  35.743  1.00  0.00     0.022 A 
BRANCH  65  69
ATOM     69  S   UNL A   1      40.385  32.684  37.383  1.00  0.00     0.124 S 
ATOM     70  O   UNL A   1      41.216  32.366  38.542  1.00  0.00    -0.237 OA
ATOM     71  O   UNL A   1      39.870  34.046  37.320  1.00  0.00    -0.237 OA
ATOM     72  O   UNL A   1      39.436  31.640  37.002  1.00  0.00    -0.744 OA
ENDBRANCH  65  69
ENDBRANCH  48  62
BRANCH  49  73
ATOM     73  C   UNL A   1      42.432  24.103  27.334  1.00  0.00     0.023 A 
ATOM     74  C   UNL A   1      41.834  22.854  27.567  1.00  0.00     0.031 A 
ATOM     75  C   UNL A   1      43.097  24.296  26.110  1.00  0.00     0.131 A 
ATOM     76  C   UNL A   1      41.951  21.832  26.613  1.00  0.00     0.055 A 
ATOM     77  C   UNL A   1      43.169  23.293  25.142  1.00  0.00     0.041 A 
ATOM     78  F   UNL A   1      43.682  25.473  25.834  1.00  0.00    -0.206 F 
ATOM     79  C   UNL A   1      42.605  22.046  25.397  1.00  0.00     0.022 A 
BRANCH  76  80
ATOM     80  S   UNL A   1      41.306  20.187  27.020  1.00  0.00     0.124 S 
ATOM     81  O   UNL A   1      40.275  20.013  26.004  1.00  0.00    -0.237 OA
ATOM     82  O   UNL A   1      42.494  19.353  26.880  1.00  0.00    -0.237 OA
ATOM     83  O   UNL A   1      40.815  20.344  28.389  1.00  0.00    -0.744 OA
ENDBRANCH  76  80
ENDBRANCH  49  73
BRANCH  61  84
ATOM     84  C   UNL A   1      46.849  26.003  32.382  1.00  0.00     0.023 A 
ATOM     85  C   UNL A   1      46.890  25.058  33.422  1.00  0.00     0.031 A 
ATOM     86  C   UNL A   1      48.065  26.400  31.798  1.00  0.00     0.131 A 
ATOM     87  C   UNL A   1      48.127  24.581  33.883  1.00  0.00     0.055 A 
ATOM     88  C   UNL A   1      49.288  25.877  32.221  1.00  0.00     0.041 A 
ATOM     89  F   UNL A   1      48.084  27.301  30.803  1.00  0.00    -0.206 F 
ATOM     90  C   UNL A   1      49.324  24.972  33.278  1.00  0.00     0.022 A 
BRANCH  87  91
ATOM     91  S   UNL A   1      48.156  23.505  35.343  1.00  0.00     0.124 S 
ATOM     92  O   UNL A   1      47.191  24.159  36.221  1.00  0.00    -0.237 OA
ATOM     93  O   UNL A   1      47.745  22.218  34.792  1.00  0.00    -0.237 OA
ATOM     94  O   UNL A   1      49.546  23.572  35.790  1.00  0.00    -0.744 OA
ENDBRANCH  87  91
ENDBRANCH  61  84
ENDBRANCH  35  36
ENDBRANCH  27  30
ENDBRANCH  25  26
ENDBRANCH  24  25
ENDBRANCH   1  24
TORSDOF 18
ENDMDL
