MODEL 1
REMARK VINA RESULT:     -12.9      0.000      0.000
REMARK SMILES O=C(NCCCCNC(=O)c1ccc(-c2c3nc(c(-c4cc(S(=O)(=O)[O-])ccc4F)c4ccc([nH]4)c(-c4cc(S(=O)(=O)[O-])ccc4F)c4nc(c(-c5cc(S(=O)(=O)[O-])ccc5F)c5ccc2[nH]5)C=C4)C=C3)cc1)c1ccc(NC(=O)[C@@H]2CC=CC[C@@H]2C(=O)Nc2ccc(Br)cc2)cc1
REMARK SMILES IDX 5 1 4 2 3 3 1 4 2 5 74 7 75 8 98 9 76 10 97 11 77 12 78 13
REMARK SMILES IDX 79 14 80 16 81 17 82 18 86 19 83 20 85 21 84 22 87 23 88 24
REMARK SMILES IDX 89 25 90 27 91 28 96 29 92 30 95 31 93 32 94 33 6 34 7 35
REMARK SMILES IDX 8 36 9 37 10 39 11 40 12 41 73 42 13 43 72 44 14 45 15 46
REMARK SMILES IDX 16 47 66 48 17 49 71 50 65 51 67 52 18 53 70 54 64 55 63 56
REMARK SMILES IDX 19 58 51 59 31 60 50 61 32 62 35 63 49 64 68 65 33 66 34 67
REMARK SMILES IDX 48 69 69 70 36 71 20 72 21 73 29 74 22 75 28 76 30 77 27 78
REMARK SMILES IDX 23 79 24 80 25 81 26 82 52 83 53 84 61 85 54 86 60 87 62 88
REMARK SMILES IDX 59 89 55 90 56 91 57 92 58 93 37 94 38 95 46 96 39 97 45 98
REMARK SMILES IDX 47 99 44 100 40 101 41 102 42 103 43 104
REMARK H PARENT 3 6 78 15 89 26 8 38 67 57 35 68
REMARK Flexibility Score: inf
ROOT
ATOM      1  C   UNL A   1      37.052  21.787  24.527  1.00  0.00     0.023 C 
ENDROOT
BRANCH   1   2
ATOM      2  C   UNL A   1      35.528  21.782  24.444  1.00  0.00     0.116 C 
BRANCH   2   3
ATOM      3  N   UNL A   1      34.939  20.460  24.602  1.00  0.00    -0.352 N 
ATOM      4  O   UNL A   1      33.413  18.951  25.358  1.00  0.00    -0.269 OA
ATOM      5  C   UNL A   1      33.762  20.119  25.233  1.00  0.00     0.251 C 
ATOM      6  H   UNL A   1      35.447  19.713  24.208  1.00  0.00     0.163 HD
BRANCH   5   7
ATOM      7  C   UNL A   1      32.934  21.200  25.797  1.00  0.00     0.039 A 
ATOM      8  C   UNL A   1      31.810  21.648  25.107  1.00  0.00     0.016 A 
ATOM      9  C   UNL A   1      33.368  21.856  26.945  1.00  0.00     0.016 A 
ATOM     10  C   UNL A   1      31.222  22.862  25.469  1.00  0.00     0.027 A 
ATOM     11  C   UNL A   1      32.752  23.054  27.314  1.00  0.00     0.027 A 
ATOM     12  C   UNL A   1      31.730  23.614  26.526  1.00  0.00     0.041 A 
BRANCH  12  13
ATOM     13  N   UNL A   1      31.414  24.957  26.806  1.00  0.00    -0.326 N 
ATOM     14  C   UNL A   1      31.808  26.170  26.331  1.00  0.00     0.228 C 
ATOM     15  H   UNL A   1      30.745  25.040  27.523  1.00  0.00     0.169 HD
ATOM     16  O   UNL A   1      31.430  27.150  26.995  1.00  0.00    -0.274 OA
BRANCH  14  17
ATOM     17  C   UNL A   1      32.595  26.442  25.051  1.00  0.00     0.095 C 
ATOM     18  C   UNL A   1      33.358  27.773  25.223  1.00  0.00     0.041 C 
ATOM     19  C   UNL A   1      31.990  26.050  23.662  1.00  0.00     0.095 C 
ATOM     20  C   UNL A   1      33.602  28.566  23.988  1.00  0.00    -0.030 C 
ATOM     21  C   UNL A   1      32.512  26.900  22.473  1.00  0.00     0.041 C 
ATOM     22  C   UNL A   1      33.224  28.177  22.771  1.00  0.00    -0.030 C 
BRANCH  19  23
ATOM     23  C   UNL A   1      30.466  25.793  23.574  1.00  0.00     0.228 C 
ATOM     24  O   UNL A   1      29.960  24.767  23.133  1.00  0.00    -0.274 OA
ATOM     25  N   UNL A   1      29.611  26.775  24.001  1.00  0.00    -0.326 N 
ATOM     26  H   UNL A   1      28.992  26.526  24.725  1.00  0.00     0.169 HD
BRANCH  25  27
ATOM     27  C   UNL A   1      29.512  28.094  23.525  1.00  0.00     0.041 A 
ATOM     28  C   UNL A   1      30.141  29.098  24.268  1.00  0.00     0.027 A 
ATOM     29  C   UNL A   1      28.688  28.440  22.454  1.00  0.00     0.027 A 
ATOM     30  C   UNL A   1      29.949  30.442  23.943  1.00  0.00     0.018 A 
ATOM     31  C   UNL A   1      28.480  29.788  22.140  1.00  0.00     0.018 A 
ATOM     32  C   UNL A   1      29.109  30.782  22.887  1.00  0.00     0.018 A 
ATOM     33  Br  UNL A   1      28.790  32.601  22.486  1.00  0.00    -0.051 Br
ENDBRANCH  25  27
ENDBRANCH  19  23
ENDBRANCH  14  17
ENDBRANCH  12  13
ENDBRANCH   5   7
ENDBRANCH   2   3
ENDBRANCH   1   2
BRANCH   1  34
ATOM     34  C   UNL A   1      37.650  20.974  25.674  1.00  0.00     0.023 C 
BRANCH  34  35
ATOM     35  C   UNL A   1      39.141  21.178  25.932  1.00  0.00     0.116 C 
BRANCH  35  36
ATOM     36  N   UNL A   1      39.921  19.950  25.859  1.00  0.00    -0.352 N 
ATOM     37  C   UNL A   1      41.265  19.748  26.084  1.00  0.00     0.251 C 
ATOM     38  H   UNL A   1      39.412  19.145  25.613  1.00  0.00     0.163 HD
ATOM     39  O   UNL A   1      41.739  18.626  25.933  1.00  0.00    -0.269 OA
BRANCH  37  40
ATOM     40  C   UNL A   1      42.147  20.883  26.432  1.00  0.00     0.039 A 
ATOM     41  C   UNL A   1      42.669  21.657  25.390  1.00  0.00     0.014 A 
ATOM     42  C   UNL A   1      42.410  21.226  27.759  1.00  0.00     0.014 A 
ATOM     43  C   UNL A   1      43.348  22.842  25.680  1.00  0.00     0.010 A 
ATOM     44  C   UNL A   1      43.027  22.441  28.046  1.00  0.00     0.010 A 
ATOM     45  C   UNL A   1      43.470  23.276  27.009  1.00  0.00    -0.014 A 
BRANCH  45  46
ATOM     46  C   UNL A   1      43.970  24.639  27.328  1.00  0.00     0.031 A 
ATOM     47  C   UNL A   1      43.033  25.708  27.803  1.00  0.00     0.074 A 
ATOM     48  C   UNL A   1      45.263  24.933  27.082  1.00  0.00     0.049 A 
ATOM     49  N   UNL A   1      43.267  26.977  28.023  1.00  0.00    -0.248 NA
ATOM     50  C   UNL A   1      41.640  25.302  28.028  1.00  0.00     0.031 C 
ATOM     51  C   UNL A   1      46.258  23.991  26.560  1.00  0.00     0.029 A 
ATOM     52  N   UNL A   1      45.957  26.109  27.209  1.00  0.00    -0.354 N 
ATOM     53  C   UNL A   1      42.050  27.525  28.409  1.00  0.00     0.074 A 
ATOM     54  C   UNL A   1      41.071  26.460  28.329  1.00  0.00     0.031 C 
ATOM     55  C   UNL A   1      47.431  24.627  26.412  1.00  0.00     0.029 A 
ATOM     56  C   UNL A   1      47.263  26.027  26.787  1.00  0.00     0.049 A 
ATOM     57  H   UNL A   1      45.558  26.934  27.568  1.00  0.00     0.167 HD
ATOM     58  C   UNL A   1      41.781  28.794  28.811  1.00  0.00     0.034 A 
ATOM     59  C   UNL A   1      48.215  26.975  26.686  1.00  0.00     0.034 A 
ATOM     60  C   UNL A   1      42.770  29.843  28.876  1.00  0.00     0.049 A 
ATOM     61  C   UNL A   1      47.890  28.382  27.102  1.00  0.00     0.074 A 
ATOM     62  C   UNL A   1      42.627  31.139  29.342  1.00  0.00     0.029 A 
ATOM     63  N   UNL A   1      44.085  29.724  28.441  1.00  0.00    -0.354 N 
ATOM     64  N   UNL A   1      46.751  28.871  27.533  1.00  0.00    -0.248 NA
ATOM     65  C   UNL A   1      48.980  29.362  27.023  1.00  0.00     0.031 C 
ATOM     66  C   UNL A   1      43.832  31.820  29.127  1.00  0.00     0.029 A 
ATOM     67  C   UNL A   1      44.750  30.934  28.587  1.00  0.00     0.049 A 
ATOM     68  H   UNL A   1      44.487  28.901  28.080  1.00  0.00     0.167 HD
ATOM     69  C   UNL A   1      46.989  30.219  27.782  1.00  0.00     0.074 A 
ATOM     70  C   UNL A   1      48.385  30.458  27.472  1.00  0.00     0.031 C 
ATOM     71  C   UNL A   1      46.131  31.170  28.231  1.00  0.00     0.034 A 
BRANCH  58  72
ATOM     72  C   UNL A   1      40.349  29.105  29.181  1.00  0.00     0.023 A 
ATOM     73  C   UNL A   1      39.925  29.127  30.522  1.00  0.00     0.031 A 
ATOM     74  C   UNL A   1      39.383  29.323  28.183  1.00  0.00     0.131 A 
ATOM     75  C   UNL A   1      38.562  29.261  30.825  1.00  0.00     0.055 A 
ATOM     76  C   UNL A   1      38.040  29.544  28.496  1.00  0.00     0.041 A 
ATOM     77  F   UNL A   1      39.722  29.297  26.885  1.00  0.00    -0.206 F 
ATOM     78  C   UNL A   1      37.618  29.493  29.823  1.00  0.00     0.022 A 
BRANCH  75  79
ATOM     79  S   UNL A   1      38.023  28.948  32.529  1.00  0.00     0.124 S 
ATOM     80  O   UNL A   1      38.985  29.740  33.293  1.00  0.00    -0.237 OA
ATOM     81  O   UNL A   1      36.651  29.442  32.520  1.00  0.00    -0.237 OA
ATOM     82  O   UNL A   1      38.167  27.501  32.673  1.00  0.00    -0.744 OA
ENDBRANCH  75  79
ENDBRANCH  58  72
BRANCH  59  83
ATOM     83  C   UNL A   1      49.550  26.625  26.129  1.00  0.00     0.023 A 
ATOM     84  C   UNL A   1      49.923  27.016  24.836  1.00  0.00     0.031 A 
ATOM     85  C   UNL A   1      50.477  25.898  26.898  1.00  0.00     0.131 A 
ATOM     86  C   UNL A   1      51.185  26.656  24.337  1.00  0.00     0.055 A 
ATOM     87  C   UNL A   1      51.744  25.575  26.410  1.00  0.00     0.041 A 
ATOM     88  F   UNL A   1      50.170  25.515  28.147  1.00  0.00    -0.206 F 
ATOM     89  C   UNL A   1      52.101  25.949  25.119  1.00  0.00     0.022 A 
BRANCH  86  90
ATOM     90  S   UNL A   1      51.605  27.103  22.629  1.00  0.00     0.124 S 
ATOM     91  O   UNL A   1      52.050  28.483  22.782  1.00  0.00    -0.237 OA
ATOM     92  O   UNL A   1      52.641  26.127  22.306  1.00  0.00    -0.237 OA
ATOM     93  O   UNL A   1      50.344  26.927  21.912  1.00  0.00    -0.744 OA
ENDBRANCH  86  90
ENDBRANCH  59  83
BRANCH  71  94
ATOM     94  C   UNL A   1      46.694  32.556  28.414  1.00  0.00     0.023 A 
ATOM     95  C   UNL A   1      46.703  33.488  27.362  1.00  0.00     0.031 A 
ATOM     96  C   UNL A   1      47.246  32.942  29.648  1.00  0.00     0.131 A 
ATOM     97  C   UNL A   1      47.294  34.747  27.548  1.00  0.00     0.055 A 
ATOM     98  C   UNL A   1      47.787  34.214  29.843  1.00  0.00     0.041 A 
ATOM     99  F   UNL A   1      47.267  32.089  30.684  1.00  0.00    -0.206 F 
ATOM    100  C   UNL A   1      47.823  35.121  28.787  1.00  0.00     0.022 A 
BRANCH  97 101
ATOM    101  S   UNL A   1      47.430  35.866  26.128  1.00  0.00     0.124 S 
ATOM    102  O   UNL A   1      48.752  36.451  26.328  1.00  0.00    -0.237 OA
ATOM    103  O   UNL A   1      47.300  34.955  24.996  1.00  0.00    -0.237 OA
ATOM    104  O   UNL A   1      46.311  36.789  26.310  1.00  0.00    -0.744 OA
ENDBRANCH  97 101
ENDBRANCH  71  94
ENDBRANCH  45  46
ENDBRANCH  37  40
ENDBRANCH  35  36
ENDBRANCH  34  35
ENDBRANCH   1  34
TORSDOF 18
ENDMDL
MODEL 2
REMARK VINA RESULT:     -12.8      5.670      9.929
REMARK SMILES O=C(NCCCCNC(=O)c1ccc(-c2c3nc(c(-c4cc(S(=O)(=O)[O-])ccc4F)c4ccc([nH]4)c(-c4cc(S(=O)(=O)[O-])ccc4F)c4nc(c(-c5cc(S(=O)(=O)[O-])ccc5F)c5ccc2[nH]5)C=C4)C=C3)cc1)c1ccc(NC(=O)[C@@H]2CC=CC[C@@H]2C(=O)Nc2ccc(Br)cc2)cc1
REMARK SMILES IDX 5 1 4 2 3 3 1 4 2 5 74 7 75 8 98 9 76 10 97 11 77 12 78 13
REMARK SMILES IDX 79 14 80 16 81 17 82 18 86 19 83 20 85 21 84 22 87 23 88 24
REMARK SMILES IDX 89 25 90 27 91 28 96 29 92 30 95 31 93 32 94 33 6 34 7 35
REMARK SMILES IDX 8 36 9 37 10 39 11 40 12 41 73 42 13 43 72 44 14 45 15 46
REMARK SMILES IDX 16 47 66 48 17 49 71 50 65 51 67 52 18 53 70 54 64 55 63 56
REMARK SMILES IDX 19 58 51 59 31 60 50 61 32 62 35 63 49 64 68 65 33 66 34 67
REMARK SMILES IDX 48 69 69 70 36 71 20 72 21 73 29 74 22 75 28 76 30 77 27 78
REMARK SMILES IDX 23 79 24 80 25 81 26 82 52 83 53 84 61 85 54 86 60 87 62 88
REMARK SMILES IDX 59 89 55 90 56 91 57 92 58 93 37 94 38 95 46 96 39 97 45 98
REMARK SMILES IDX 47 99 44 100 40 101 41 102 42 103 43 104
REMARK H PARENT 3 6 78 15 89 26 8 38 67 57 35 68
REMARK Flexibility Score: inf
ROOT
ATOM      1  C   UNL A   1      35.358  31.125  27.808  1.00  0.00     0.023 C 
ENDROOT
BRANCH   1   2
ATOM      2  C   UNL A   1      34.691  30.016  26.998  1.00  0.00     0.116 C 
BRANCH   2   3
ATOM      3  N   UNL A   1      33.313  30.309  26.632  1.00  0.00    -0.352 N 
ATOM      4  O   UNL A   1      31.416  30.118  25.387  1.00  0.00    -0.269 OA
ATOM      5  C   UNL A   1      32.550  29.727  25.642  1.00  0.00     0.251 C 
ATOM      6  H   UNL A   1      32.868  31.014  27.157  1.00  0.00     0.163 HD
BRANCH   5   7
ATOM      7  C   UNL A   1      33.144  28.631  24.856  1.00  0.00     0.039 A 
ATOM      8  C   UNL A   1      33.187  28.715  23.465  1.00  0.00     0.016 A 
ATOM      9  C   UNL A   1      33.526  27.461  25.506  1.00  0.00     0.016 A 
ATOM     10  C   UNL A   1      33.446  27.565  22.716  1.00  0.00     0.027 A 
ATOM     11  C   UNL A   1      33.812  26.325  24.744  1.00  0.00     0.027 A 
ATOM     12  C   UNL A   1      33.687  26.345  23.343  1.00  0.00     0.041 A 
BRANCH  12  13
ATOM     13  N   UNL A   1      33.682  25.083  22.717  1.00  0.00    -0.326 N 
ATOM     14  C   UNL A   1      34.267  23.877  22.951  1.00  0.00     0.228 C 
ATOM     15  H   UNL A   1      33.116  25.071  21.911  1.00  0.00     0.169 HD
ATOM     16  O   UNL A   1      34.164  23.048  22.030  1.00  0.00    -0.274 OA
BRANCH  14  17
ATOM     17  C   UNL A   1      34.965  23.429  24.233  1.00  0.00     0.095 C 
ATOM     18  C   UNL A   1      36.475  23.301  23.944  1.00  0.00     0.041 C 
ATOM     19  C   UNL A   1      34.255  22.425  25.200  1.00  0.00     0.095 C 
ATOM     20  C   UNL A   1      37.221  22.284  24.734  1.00  0.00    -0.030 C 
ATOM     21  C   UNL A   1      35.224  21.574  26.063  1.00  0.00     0.041 C 
ATOM     22  C   UNL A   1      36.662  21.518  25.671  1.00  0.00    -0.030 C 
BRANCH  19  23
ATOM     23  C   UNL A   1      33.073  21.591  24.651  1.00  0.00     0.228 C 
ATOM     24  O   UNL A   1      33.190  20.637  23.890  1.00  0.00    -0.274 OA
ATOM     25  N   UNL A   1      31.799  21.939  25.020  1.00  0.00    -0.326 N 
ATOM     26  H   UNL A   1      31.278  21.244  25.483  1.00  0.00     0.169 HD
BRANCH  25  27
ATOM     27  C   UNL A   1      31.151  23.169  24.815  1.00  0.00     0.041 A 
ATOM     28  C   UNL A   1      30.786  23.496  23.506  1.00  0.00     0.027 A 
ATOM     29  C   UNL A   1      31.012  24.117  25.829  1.00  0.00     0.027 A 
ATOM     30  C   UNL A   1      30.285  24.766  23.209  1.00  0.00     0.018 A 
ATOM     31  C   UNL A   1      30.529  25.395  25.528  1.00  0.00     0.018 A 
ATOM     32  C   UNL A   1      30.171  25.714  24.220  1.00  0.00     0.018 A 
ATOM     33  Br  UNL A   1      29.560  27.455  23.813  1.00  0.00    -0.051 Br
ENDBRANCH  25  27
ENDBRANCH  19  23
ENDBRANCH  14  17
ENDBRANCH  12  13
ENDBRANCH   5   7
ENDBRANCH   2   3
ENDBRANCH   1   2
BRANCH   1  34
ATOM     34  C   UNL A   1      34.410  32.004  28.621  1.00  0.00     0.023 C 
BRANCH  34  35
ATOM     35  C   UNL A   1      34.231  33.435  28.120  1.00  0.00     0.116 C 
BRANCH  35  36
ATOM     36  N   UNL A   1      33.425  34.268  29.002  1.00  0.00    -0.352 N 
ATOM     37  C   UNL A   1      33.626  34.600  30.324  1.00  0.00     0.251 C 
ATOM     38  H   UNL A   1      32.615  34.650  28.593  1.00  0.00     0.163 HD
ATOM     39  O   UNL A   1      32.798  35.296  30.903  1.00  0.00    -0.269 OA
BRANCH  37  40
ATOM     40  C   UNL A   1      34.792  34.066  31.062  1.00  0.00     0.039 A 
ATOM     41  C   UNL A   1      34.576  33.024  31.970  1.00  0.00     0.014 A 
ATOM     42  C   UNL A   1      36.085  34.534  30.826  1.00  0.00     0.014 A 
ATOM     43  C   UNL A   1      35.667  32.369  32.545  1.00  0.00     0.010 A 
ATOM     44  C   UNL A   1      37.174  33.837  31.347  1.00  0.00     0.010 A 
ATOM     45  C   UNL A   1      36.974  32.727  32.182  1.00  0.00    -0.014 A 
BRANCH  45  46
ATOM     46  C   UNL A   1      38.138  31.897  32.589  1.00  0.00     0.031 A 
ATOM     47  C   UNL A   1      38.902  32.209  33.841  1.00  0.00     0.074 A 
ATOM     48  C   UNL A   1      38.565  30.923  31.760  1.00  0.00     0.049 A 
ATOM     49  N   UNL A   1      40.002  31.667  34.296  1.00  0.00    -0.248 NA
ATOM     50  C   UNL A   1      38.374  33.297  34.673  1.00  0.00     0.031 C 
ATOM     51  C   UNL A   1      37.940  30.566  30.483  1.00  0.00     0.029 A 
ATOM     52  N   UNL A   1      39.638  30.073  31.851  1.00  0.00    -0.354 N 
ATOM     53  C   UNL A   1      40.305  32.351  35.467  1.00  0.00     0.074 A 
ATOM     54  C   UNL A   1      39.303  33.387  35.613  1.00  0.00     0.031 C 
ATOM     55  C   UNL A   1      38.640  29.574  29.912  1.00  0.00     0.029 A 
ATOM     56  C   UNL A   1      39.784  29.252  30.758  1.00  0.00     0.049 A 
ATOM     57  H   UNL A   1      40.245  30.052  32.625  1.00  0.00     0.167 HD
ATOM     58  C   UNL A   1      41.312  32.119  36.347  1.00  0.00     0.034 A 
ATOM     59  C   UNL A   1      40.745  28.358  30.452  1.00  0.00     0.034 A 
ATOM     60  C   UNL A   1      42.306  31.086  36.179  1.00  0.00     0.049 A 
ATOM     61  C   UNL A   1      41.873  28.140  31.421  1.00  0.00     0.074 A 
ATOM     62  C   UNL A   1      43.321  30.712  37.043  1.00  0.00     0.029 A 
ATOM     63  N   UNL A   1      42.424  30.272  35.058  1.00  0.00    -0.354 N 
ATOM     64  N   UNL A   1      42.107  28.745  32.562  1.00  0.00    -0.248 NA
ATOM     65  C   UNL A   1      42.861  27.115  31.064  1.00  0.00     0.031 C 
ATOM     66  C   UNL A   1      44.090  29.722  36.418  1.00  0.00     0.029 A 
ATOM     67  C   UNL A   1      43.519  29.429  35.190  1.00  0.00     0.049 A 
ATOM     68  H   UNL A   1      41.818  30.290  34.282  1.00  0.00     0.167 HD
ATOM     69  C   UNL A   1      43.270  28.170  33.063  1.00  0.00     0.074 A 
ATOM     70  C   UNL A   1      43.677  27.157  32.109  1.00  0.00     0.031 C 
ATOM     71  C   UNL A   1      43.938  28.453  34.210  1.00  0.00     0.034 A 
BRANCH  58  72
ATOM     72  C   UNL A   1      41.392  33.030  37.551  1.00  0.00     0.023 A 
ATOM     73  C   UNL A   1      40.706  32.733  38.742  1.00  0.00     0.031 A 
ATOM     74  C   UNL A   1      42.109  34.238  37.490  1.00  0.00     0.131 A 
ATOM     75  C   UNL A   1      40.669  33.673  39.784  1.00  0.00     0.055 A 
ATOM     76  C   UNL A   1      42.140  35.129  38.564  1.00  0.00     0.041 A 
ATOM     77  F   UNL A   1      42.769  34.585  36.374  1.00  0.00    -0.206 F 
ATOM     78  C   UNL A   1      41.400  34.860  39.713  1.00  0.00     0.022 A 
BRANCH  75  79
ATOM     79  S   UNL A   1      39.508  33.398  41.151  1.00  0.00     0.124 S 
ATOM     80  O   UNL A   1      39.312  31.952  41.087  1.00  0.00    -0.237 OA
ATOM     81  O   UNL A   1      40.255  33.893  42.301  1.00  0.00    -0.237 OA
ATOM     82  O   UNL A   1      38.341  34.193  40.774  1.00  0.00    -0.744 OA
ENDBRANCH  75  79
ENDBRANCH  58  72
BRANCH  59  83
ATOM     83  C   UNL A   1      40.696  27.635  29.153  1.00  0.00     0.023 A 
ATOM     84  C   UNL A   1      41.581  27.952  28.112  1.00  0.00     0.031 A 
ATOM     85  C   UNL A   1      39.761  26.606  28.941  1.00  0.00     0.131 A 
ATOM     86  C   UNL A   1      41.498  27.260  26.893  1.00  0.00     0.055 A 
ATOM     87  C   UNL A   1      39.707  25.897  27.740  1.00  0.00     0.041 A 
ATOM     88  F   UNL A   1      38.903  26.259  29.913  1.00  0.00    -0.206 F 
ATOM     89  C   UNL A   1      40.575  26.228  26.705  1.00  0.00     0.022 A 
BRANCH  86  90
ATOM     90  S   UNL A   1      42.600  27.750  25.538  1.00  0.00     0.124 S 
ATOM     91  O   UNL A   1      42.595  26.555  24.702  1.00  0.00    -0.237 OA
ATOM     92  O   UNL A   1      41.911  28.916  24.994  1.00  0.00    -0.237 OA
ATOM     93  O   UNL A   1      43.864  28.037  26.213  1.00  0.00    -0.744 OA
ENDBRANCH  86  90
ENDBRANCH  59  83
BRANCH  71  94
ATOM     94  C   UNL A   1      45.178  27.641  34.488  1.00  0.00     0.023 A 
ATOM     95  C   UNL A   1      45.109  26.393  35.131  1.00  0.00     0.031 A 
ATOM     96  C   UNL A   1      46.444  28.131  34.122  1.00  0.00     0.131 A 
ATOM     97  C   UNL A   1      46.289  25.696  35.432  1.00  0.00     0.055 A 
ATOM     98  C   UNL A   1      47.611  27.409  34.378  1.00  0.00     0.041 A 
ATOM     99  F   UNL A   1      46.567  29.319  33.510  1.00  0.00    -0.206 F 
ATOM    100  C   UNL A   1      47.538  26.189  35.046  1.00  0.00     0.022 A 
BRANCH  97 101
ATOM    101  S   UNL A   1      46.176  24.167  36.400  1.00  0.00     0.124 S 
ATOM    102  O   UNL A   1      45.987  24.678  37.753  1.00  0.00    -0.237 OA
ATOM    103  O   UNL A   1      45.023  23.501  35.803  1.00  0.00    -0.237 OA
ATOM    104  O   UNL A   1      47.460  23.513  36.159  1.00  0.00    -0.744 OA
ENDBRANCH  97 101
ENDBRANCH  71  94
ENDBRANCH  45  46
ENDBRANCH  37  40
ENDBRANCH  35  36
ENDBRANCH  34  35
ENDBRANCH   1  34
TORSDOF 18
ENDMDL
MODEL 3
REMARK VINA RESULT:     -12.7      2.104      7.837
REMARK SMILES O=C(NCCCCNC(=O)c1ccc(-c2c3nc(c(-c4cc(S(=O)(=O)[O-])ccc4F)c4ccc([nH]4)c(-c4cc(S(=O)(=O)[O-])ccc4F)c4nc(c(-c5cc(S(=O)(=O)[O-])ccc5F)c5ccc2[nH]5)C=C4)C=C3)cc1)c1ccc(NC(=O)[C@@H]2CC=CC[C@@H]2C(=O)Nc2ccc(Br)cc2)cc1
REMARK SMILES IDX 5 1 4 2 3 3 1 4 2 5 74 7 75 8 98 9 76 10 97 11 77 12 78 13
REMARK SMILES IDX 79 14 80 16 81 17 82 18 86 19 83 20 85 21 84 22 87 23 88 24
REMARK SMILES IDX 89 25 90 27 91 28 96 29 92 30 95 31 93 32 94 33 6 34 7 35
REMARK SMILES IDX 8 36 9 37 10 39 11 40 12 41 73 42 13 43 72 44 14 45 15 46
REMARK SMILES IDX 16 47 66 48 17 49 71 50 65 51 67 52 18 53 70 54 64 55 63 56
REMARK SMILES IDX 19 58 51 59 31 60 50 61 32 62 35 63 49 64 68 65 33 66 34 67
REMARK SMILES IDX 48 69 69 70 36 71 20 72 21 73 29 74 22 75 28 76 30 77 27 78
REMARK SMILES IDX 23 79 24 80 25 81 26 82 52 83 53 84 61 85 54 86 60 87 62 88
REMARK SMILES IDX 59 89 55 90 56 91 57 92 58 93 37 94 38 95 46 96 39 97 45 98
REMARK SMILES IDX 47 99 44 100 40 101 41 102 42 103 43 104
REMARK H PARENT 3 6 78 15 89 26 8 38 67 57 35 68
REMARK Flexibility Score: inf
ROOT
ATOM      1  C   UNL A   1      39.664  22.763  26.919  1.00  0.00     0.023 C 
ENDROOT
BRANCH   1   2
ATOM      2  C   UNL A   1      38.244  22.987  26.407  1.00  0.00     0.116 C 
BRANCH   2   3
ATOM      3  N   UNL A   1      37.682  21.831  25.722  1.00  0.00    -0.352 N 
ATOM      4  O   UNL A   1      36.013  20.463  25.000  1.00  0.00    -0.269 OA
ATOM      5  C   UNL A   1      36.355  21.510  25.538  1.00  0.00     0.251 C 
ATOM      6  H   UNL A   1      38.334  21.198  25.341  1.00  0.00     0.163 HD
BRANCH   5   7
ATOM      7  C   UNL A   1      35.333  22.446  26.041  1.00  0.00     0.039 A 
ATOM      8  C   UNL A   1      34.375  22.007  26.952  1.00  0.00     0.016 A 
ATOM      9  C   UNL A   1      35.252  23.721  25.489  1.00  0.00     0.016 A 
ATOM     10  C   UNL A   1      33.235  22.783  27.177  1.00  0.00     0.027 A 
ATOM     11  C   UNL A   1      34.121  24.499  25.745  1.00  0.00     0.027 A 
ATOM     12  C   UNL A   1      33.060  24.000  26.522  1.00  0.00     0.041 A 
BRANCH  12  13
ATOM     13  N   UNL A   1      31.857  24.727  26.445  1.00  0.00    -0.326 N 
ATOM     14  C   UNL A   1      31.518  26.040  26.335  1.00  0.00     0.228 C 
ATOM     15  H   UNL A   1      31.067  24.141  26.480  1.00  0.00     0.169 HD
ATOM     16  O   UNL A   1      30.312  26.294  26.502  1.00  0.00    -0.274 OA
BRANCH  14  17
ATOM     17  C   UNL A   1      32.442  27.199  25.969  1.00  0.00     0.095 C 
ATOM     18  C   UNL A   1      32.623  28.090  27.216  1.00  0.00     0.041 C 
ATOM     19  C   UNL A   1      32.367  27.839  24.543  1.00  0.00     0.095 C 
ATOM     20  C   UNL A   1      32.862  29.538  26.973  1.00  0.00    -0.030 C 
ATOM     21  C   UNL A   1      32.827  29.320  24.480  1.00  0.00     0.041 C 
ATOM     22  C   UNL A   1      32.950  30.080  25.758  1.00  0.00    -0.030 C 
BRANCH  19  23
ATOM     23  C   UNL A   1      31.101  27.582  23.691  1.00  0.00     0.228 C 
ATOM     24  O   UNL A   1      30.010  28.103  23.894  1.00  0.00    -0.274 OA
ATOM     25  N   UNL A   1      31.185  26.704  22.642  1.00  0.00    -0.326 N 
ATOM     26  H   UNL A   1      30.964  27.067  21.754  1.00  0.00     0.169 HD
BRANCH  25  27
ATOM     27  C   UNL A   1      31.547  25.346  22.685  1.00  0.00     0.041 A 
ATOM     28  C   UNL A   1      30.651  24.457  23.287  1.00  0.00     0.027 A 
ATOM     29  C   UNL A   1      32.811  24.899  22.302  1.00  0.00     0.027 A 
ATOM     30  C   UNL A   1      31.016  23.127  23.506  1.00  0.00     0.018 A 
ATOM     31  C   UNL A   1      33.184  23.571  22.539  1.00  0.00     0.018 A 
ATOM     32  C   UNL A   1      32.287  22.693  23.143  1.00  0.00     0.018 A 
ATOM     33  Br  UNL A   1      32.812  20.914  23.500  1.00  0.00    -0.051 Br
ENDBRANCH  25  27
ENDBRANCH  19  23
ENDBRANCH  14  17
ENDBRANCH  12  13
ENDBRANCH   5   7
ENDBRANCH   2   3
ENDBRANCH   1   2
BRANCH   1  34
ATOM     34  C   UNL A   1      40.540  21.861  26.052  1.00  0.00     0.023 C 
BRANCH  34  35
ATOM     35  C   UNL A   1      41.039  20.579  26.714  1.00  0.00     0.116 C 
BRANCH  35  36
ATOM     36  N   UNL A   1      41.950  19.806  25.881  1.00  0.00    -0.352 N 
ATOM     37  C   UNL A   1      43.188  20.148  25.381  1.00  0.00     0.251 C 
ATOM     38  H   UNL A   1      41.635  18.906  25.638  1.00  0.00     0.163 HD
ATOM     39  O   UNL A   1      43.786  19.355  24.659  1.00  0.00    -0.269 OA
BRANCH  37  40
ATOM     40  C   UNL A   1      43.763  21.484  25.649  1.00  0.00     0.039 A 
ATOM     41  C   UNL A   1      43.715  22.439  24.628  1.00  0.00     0.014 A 
ATOM     42  C   UNL A   1      44.284  21.820  26.899  1.00  0.00     0.014 A 
ATOM     43  C   UNL A   1      44.073  23.762  24.898  1.00  0.00     0.010 A 
ATOM     44  C   UNL A   1      44.577  23.152  27.186  1.00  0.00     0.010 A 
ATOM     45  C   UNL A   1      44.440  24.139  26.199  1.00  0.00    -0.014 A 
BRANCH  45  46
ATOM     46  C   UNL A   1      44.592  25.570  26.568  1.00  0.00     0.031 A 
ATOM     47  C   UNL A   1      45.938  26.230  26.540  1.00  0.00     0.074 A 
ATOM     48  C   UNL A   1      43.519  26.242  27.031  1.00  0.00     0.049 A 
ATOM     49  N   UNL A   1      46.280  27.432  26.931  1.00  0.00    -0.248 NA
ATOM     50  C   UNL A   1      47.053  25.418  26.036  1.00  0.00     0.031 C 
ATOM     51  C   UNL A   1      42.168  25.687  27.162  1.00  0.00     0.029 A 
ATOM     52  N   UNL A   1      43.396  27.524  27.504  1.00  0.00    -0.354 N 
ATOM     53  C   UNL A   1      47.652  27.521  26.726  1.00  0.00     0.074 A 
ATOM     54  C   UNL A   1      48.083  26.227  26.235  1.00  0.00     0.031 C 
ATOM     55  C   UNL A   1      41.357  26.622  27.681  1.00  0.00     0.029 A 
ATOM     56  C   UNL A   1      42.134  27.826  27.957  1.00  0.00     0.049 A 
ATOM     57  H   UNL A   1      44.142  28.167  27.517  1.00  0.00     0.167 HD
ATOM     58  C   UNL A   1      48.468  28.590  26.910  1.00  0.00     0.034 A 
ATOM     59  C   UNL A   1      41.656  28.935  28.554  1.00  0.00     0.034 A 
ATOM     60  C   UNL A   1      48.019  29.868  27.408  1.00  0.00     0.049 A 
ATOM     61  C   UNL A   1      42.583  30.096  28.784  1.00  0.00     0.074 A 
ATOM     62  C   UNL A   1      48.741  31.040  27.559  1.00  0.00     0.029 A 
ATOM     63  N   UNL A   1      46.732  30.139  27.858  1.00  0.00    -0.354 N 
ATOM     64  N   UNL A   1      43.865  30.192  28.518  1.00  0.00    -0.248 NA
ATOM     65  C   UNL A   1      41.997  31.299  29.387  1.00  0.00     0.031 C 
ATOM     66  C   UNL A   1      47.911  31.995  28.160  1.00  0.00     0.029 A 
ATOM     67  C   UNL A   1      46.651  31.443  28.326  1.00  0.00     0.049 A 
ATOM     68  H   UNL A   1      45.985  29.498  27.846  1.00  0.00     0.167 HD
ATOM     69  C   UNL A   1      44.239  31.470  28.919  1.00  0.00     0.074 A 
ATOM     70  C   UNL A   1      43.042  32.114  29.425  1.00  0.00     0.031 C 
ATOM     71  C   UNL A   1      45.461  32.058  28.869  1.00  0.00     0.034 A 
BRANCH  58  72
ATOM     72  C   UNL A   1      49.933  28.393  26.595  1.00  0.00     0.023 A 
ATOM     73  C   UNL A   1      50.437  28.591  25.297  1.00  0.00     0.031 A 
ATOM     74  C   UNL A   1      50.826  27.946  27.585  1.00  0.00     0.131 A 
ATOM     75  C   UNL A   1      51.765  28.248  25.000  1.00  0.00     0.055 A 
ATOM     76  C   UNL A   1      52.169  27.690  27.302  1.00  0.00     0.041 A 
ATOM     77  F   UNL A   1      50.401  27.722  28.838  1.00  0.00    -0.206 F 
ATOM     78  C   UNL A   1      52.642  27.821  25.999  1.00  0.00     0.022 A 
BRANCH  75  79
ATOM     79  S   UNL A   1      52.274  28.199  23.259  1.00  0.00     0.124 S 
ATOM     80  O   UNL A   1      51.093  28.742  22.591  1.00  0.00    -0.237 OA
ATOM     81  O   UNL A   1      53.459  29.048  23.254  1.00  0.00    -0.237 OA
ATOM     82  O   UNL A   1      52.519  26.780  23.014  1.00  0.00    -0.744 OA
ENDBRANCH  75  79
ENDBRANCH  58  72
BRANCH  59  83
ATOM     83  C   UNL A   1      40.241  28.978  29.010  1.00  0.00     0.023 A 
ATOM     84  C   UNL A   1      39.908  28.820  30.363  1.00  0.00     0.031 A 
ATOM     85  C   UNL A   1      39.198  29.189  28.089  1.00  0.00     0.131 A 
ATOM     86  C   UNL A   1      38.561  28.851  30.757  1.00  0.00     0.055 A 
ATOM     87  C   UNL A   1      37.864  29.256  28.491  1.00  0.00     0.041 A 
ATOM     88  F   UNL A   1      39.470  29.361  26.786  1.00  0.00    -0.206 F 
ATOM     89  C   UNL A   1      37.538  29.079  29.832  1.00  0.00     0.022 A 
BRANCH  86  90
ATOM     90  S   UNL A   1      38.157  28.558  32.501  1.00  0.00     0.124 S 
ATOM     91  O   UNL A   1      38.244  27.105  32.587  1.00  0.00    -0.237 OA
ATOM     92  O   UNL A   1      39.208  29.305  33.185  1.00  0.00    -0.237 OA
ATOM     93  O   UNL A   1      36.813  29.115  32.638  1.00  0.00    -0.744 OA
ENDBRANCH  86  90
ENDBRANCH  59  83
BRANCH  71  94
ATOM     94  C   UNL A   1      45.550  33.476  29.374  1.00  0.00     0.023 A 
ATOM     95  C   UNL A   1      45.264  34.571  28.541  1.00  0.00     0.031 A 
ATOM     96  C   UNL A   1      45.945  33.734  30.699  1.00  0.00     0.131 A 
ATOM     97  C   UNL A   1      45.420  35.878  29.026  1.00  0.00     0.055 A 
ATOM     98  C   UNL A   1      46.050  35.036  31.191  1.00  0.00     0.041 A 
ATOM     99  F   UNL A   1      46.235  32.725  31.534  1.00  0.00    -0.206 F 
ATOM    100  C   UNL A   1      45.798  36.117  30.351  1.00  0.00     0.022 A 
BRANCH  97 101
ATOM    101  S   UNL A   1      45.195  37.266  27.882  1.00  0.00     0.124 S 
ATOM    102  O   UNL A   1      44.640  38.293  28.757  1.00  0.00    -0.237 OA
ATOM    103  O   UNL A   1      46.554  37.503  27.404  1.00  0.00    -0.237 OA
ATOM    104  O   UNL A   1      44.271  36.739  26.880  1.00  0.00    -0.744 OA
ENDBRANCH  97 101
ENDBRANCH  71  94
ENDBRANCH  45  46
ENDBRANCH  37  40
ENDBRANCH  35  36
ENDBRANCH  34  35
ENDBRANCH   1  34
TORSDOF 18
ENDMDL
