MODEL 1
REMARK VINA RESULT:     -10.1      0.000      0.000
REMARK SMILES CN(CCOCC1CC1)C(=O)N1CC[C@H](C(=O)NCCCCNC(=O)c2ccc(-c3c4nc(c(-c5cc(S(=O)(=O)[O-])ccc5F)c5ccc([nH]5)c(-c5cc(S(=O)(=O)[O-])ccc5F)c5nc(c(-c6cc(S(=O)(=O)[O-])ccc6F)c6ccc3[nH]6)C=C5)C=C4)cc2)C1
REMARK SMILES IDX 16 1 17 2 18 3 15 5 12 6 13 7 89 8 14 9 10 10 11 11 2 12
REMARK SMILES IDX 1 13 3 14 4 15 5 16 6 17 7 18 8 19 9 20 19 21 20 22 21 23
REMARK SMILES IDX 22 24 23 25 24 26 25 28 26 29 27 30 88 31 28 32 87 33 29 34
REMARK SMILES IDX 30 35 31 36 81 37 32 38 86 39 80 40 82 41 33 42 85 43 79 44
REMARK SMILES IDX 78 45 34 47 66 48 46 49 65 50 47 51 50 52 64 53 83 54 48 55
REMARK SMILES IDX 49 56 63 58 84 59 51 60 35 61 36 62 44 63 37 64 43 65 45 66
REMARK SMILES IDX 42 67 38 68 39 69 40 70 41 71 67 72 68 73 76 74 69 75 75 76
REMARK SMILES IDX 77 77 74 78 70 79 71 80 72 81 73 82 52 83 53 84 61 85 54 86
REMARK SMILES IDX 60 87 62 88 59 89 55 90 56 91 57 92 58 93
REMARK H PARENT 18 4 23 27 82 46 50 57
REMARK Flexibility Score: inf
ROOT
ATOM      1  C   UNL A   1      37.596  23.233  25.700  1.00  0.00     0.224 C 
ATOM      2  O   UNL A   1      38.535  23.847  26.216  1.00  0.00    -0.275 OA
ATOM      3  N   UNL A   1      37.555  21.884  25.879  1.00  0.00    -0.356 N 
ATOM      4  H   UNL A   1      38.329  21.511  26.360  1.00  0.00     0.163 HD
ENDROOT
BRANCH   1   5
ATOM      5  C   UNL A   1      36.572  23.991  24.868  1.00  0.00     0.100 C 
ATOM      6  N   UNL A   1      34.238  23.537  24.948  1.00  0.00    -0.324 N 
ATOM      7  C   UNL A   1      34.645  23.356  23.561  1.00  0.00     0.122 C 
ATOM      8  C   UNL A   1      35.283  24.312  25.614  1.00  0.00     0.134 C 
ATOM      9  C   UNL A   1      36.159  23.242  23.603  1.00  0.00     0.037 C 
BRANCH   6  10
ATOM     10  C   UNL A   1      33.126  23.214  25.690  1.00  0.00     0.319 C 
ATOM     11  O   UNL A   1      33.084  23.597  26.866  1.00  0.00    -0.248 OA
BRANCH  10  12
ATOM     12  N   UNL A   1      32.082  22.470  25.184  1.00  0.00    -0.325 N 
ATOM     13  C   UNL A   1      30.740  23.050  25.289  1.00  0.00     0.148 C 
BRANCH  12  14
ATOM     14  C   UNL A   1      32.097  21.137  24.584  1.00  0.00     0.149 C 
BRANCH  14  15
ATOM     15  C   UNL A   1      32.797  20.062  25.436  1.00  0.00     0.181 C 
BRANCH  15  16
ATOM     16  O   UNL A   1      32.173  18.780  25.462  1.00  0.00    -0.379 OA
BRANCH  16  17
ATOM     17  C   UNL A   1      32.389  17.957  24.317  1.00  0.00     0.163 C 
BRANCH  17  18
ATOM     18  C   UNL A   1      33.830  17.841  23.951  1.00  0.00     0.015 C 
ATOM     19  C   UNL A   1      34.683  16.722  24.498  1.00  0.00     0.006 C 
ATOM     20  C   UNL A   1      34.241  16.691  23.065  1.00  0.00     0.006 C 
ENDBRANCH  17  18
ENDBRANCH  16  17
ENDBRANCH  15  16
ENDBRANCH  14  15
ENDBRANCH  12  14
ENDBRANCH  10  12
ENDBRANCH   6  10
ENDBRANCH   1   5
BRANCH   3  21
ATOM     21  C   UNL A   1      36.564  20.904  25.481  1.00  0.00     0.116 C 
BRANCH  21  22
ATOM     22  C   UNL A   1      37.152  19.707  24.745  1.00  0.00     0.023 C 
BRANCH  22  23
ATOM     23  C   UNL A   1      38.309  19.031  25.468  1.00  0.00     0.023 C 
BRANCH  23  24
ATOM     24  C   UNL A   1      39.530  19.914  25.676  1.00  0.00     0.116 C 
BRANCH  24  25
ATOM     25  N   UNL A   1      40.757  19.161  25.901  1.00  0.00    -0.352 N 
ATOM     26  C   UNL A   1      41.980  19.644  26.304  1.00  0.00     0.251 C 
ATOM     27  H   UNL A   1      40.704  18.191  25.745  1.00  0.00     0.163 HD
ATOM     28  O   UNL A   1      42.961  18.908  26.326  1.00  0.00    -0.269 OA
BRANCH  26  29
ATOM     29  C   UNL A   1      42.091  21.072  26.667  1.00  0.00     0.039 A 
ATOM     30  C   UNL A   1      42.205  21.426  28.013  1.00  0.00     0.014 A 
ATOM     31  C   UNL A   1      42.160  22.048  25.668  1.00  0.00     0.014 A 
ATOM     32  C   UNL A   1      42.454  22.756  28.352  1.00  0.00     0.010 A 
ATOM     33  C   UNL A   1      42.499  23.352  26.004  1.00  0.00     0.010 A 
ATOM     34  C   UNL A   1      42.639  23.724  27.349  1.00  0.00    -0.014 A 
BRANCH  34  35
ATOM     35  C   UNL A   1      42.940  25.139  27.689  1.00  0.00     0.031 A 
ATOM     36  C   UNL A   1      44.343  25.659  27.530  1.00  0.00     0.074 A 
ATOM     37  C   UNL A   1      41.970  25.934  28.185  1.00  0.00     0.049 A 
ATOM     38  N   UNL A   1      44.830  26.837  27.824  1.00  0.00    -0.248 NA
ATOM     39  C   UNL A   1      45.340  24.715  26.999  1.00  0.00     0.031 C 
ATOM     40  C   UNL A   1      40.584  25.528  28.429  1.00  0.00     0.029 A 
ATOM     41  N   UNL A   1      42.002  27.249  28.576  1.00  0.00    -0.354 N 
ATOM     42  C   UNL A   1      46.187  26.770  27.526  1.00  0.00     0.074 A 
ATOM     43  C   UNL A   1      46.458  25.414  27.104  1.00  0.00     0.031 C 
ATOM     44  C   UNL A   1      39.893  26.583  28.893  1.00  0.00     0.029 A 
ATOM     45  C   UNL A   1      40.790  27.726  29.021  1.00  0.00     0.049 A 
ATOM     46  H   UNL A   1      42.817  27.801  28.540  1.00  0.00     0.167 HD
ATOM     47  C   UNL A   1      47.116  27.758  27.568  1.00  0.00     0.034 A 
ATOM     48  C   UNL A   1      40.446  28.945  29.483  1.00  0.00     0.034 A 
ATOM     49  C   UNL A   1      46.824  29.109  27.976  1.00  0.00     0.049 A 
ATOM     50  C   UNL A   1      41.500  30.024  29.533  1.00  0.00     0.074 A 
ATOM     51  C   UNL A   1      47.676  30.199  28.024  1.00  0.00     0.029 A 
ATOM     52  N   UNL A   1      45.582  29.558  28.409  1.00  0.00    -0.354 N 
ATOM     53  N   UNL A   1      42.770  29.958  29.205  1.00  0.00    -0.248 NA
ATOM     54  C   UNL A   1      41.068  31.348  29.999  1.00  0.00     0.031 C 
ATOM     55  C   UNL A   1      46.966  31.288  28.543  1.00  0.00     0.029 A 
ATOM     56  C   UNL A   1      45.651  30.902  28.744  1.00  0.00     0.049 A 
ATOM     57  H   UNL A   1      44.772  29.003  28.470  1.00  0.00     0.167 HD
ATOM     58  C   UNL A   1      43.276  31.243  29.385  1.00  0.00     0.074 A 
ATOM     59  C   UNL A   1      42.170  32.063  29.836  1.00  0.00     0.031 C 
ATOM     60  C   UNL A   1      44.538  31.706  29.191  1.00  0.00     0.034 A 
BRANCH  47  61
ATOM     61  C   UNL A   1      48.529  27.396  27.176  1.00  0.00     0.023 A 
ATOM     62  C   UNL A   1      49.045  27.713  25.906  1.00  0.00     0.031 A 
ATOM     63  C   UNL A   1      49.362  26.697  28.066  1.00  0.00     0.131 A 
ATOM     64  C   UNL A   1      50.319  27.260  25.533  1.00  0.00     0.055 A 
ATOM     65  C   UNL A   1      50.663  26.325  27.720  1.00  0.00     0.041 A 
ATOM     66  F   UNL A   1      48.920  26.345  29.284  1.00  0.00    -0.206 F 
ATOM     67  C   UNL A   1      51.143  26.593  26.440  1.00  0.00     0.022 A 
BRANCH  64  68
ATOM     68  S   UNL A   1      50.823  27.426  23.799  1.00  0.00     0.124 S 
ATOM     69  O   UNL A   1      52.009  26.575  23.754  1.00  0.00    -0.237 OA
ATOM     70  O   UNL A   1      49.653  26.930  23.081  1.00  0.00    -0.237 OA
ATOM     71  O   UNL A   1      51.085  28.856  23.652  1.00  0.00    -0.744 OA
ENDBRANCH  64  68
ENDBRANCH  47  61
BRANCH  48  72
ATOM     72  C   UNL A   1      39.050  29.225  29.927  1.00  0.00     0.023 A 
ATOM     73  C   UNL A   1      38.143  29.888  29.084  1.00  0.00     0.031 A 
ATOM     74  C   UNL A   1      38.617  28.888  31.222  1.00  0.00     0.131 A 
ATOM     75  C   UNL A   1      36.873  30.247  29.563  1.00  0.00     0.055 A 
ATOM     76  C   UNL A   1      37.332  29.195  31.675  1.00  0.00     0.041 A 
ATOM     77  F   UNL A   1      39.440  28.248  32.068  1.00  0.00    -0.206 F 
ATOM     78  C   UNL A   1      36.457  29.893  30.849  1.00  0.00     0.022 A 
BRANCH  75  79
ATOM     79  S   UNL A   1      35.808  31.273  28.514  1.00  0.00     0.124 S 
ATOM     80  O   UNL A   1      35.460  30.344  27.444  1.00  0.00    -0.237 OA
ATOM     81  O   UNL A   1      34.731  31.628  29.431  1.00  0.00    -0.237 OA
ATOM     82  O   UNL A   1      36.681  32.378  28.122  1.00  0.00    -0.744 OA
ENDBRANCH  75  79
ENDBRANCH  48  72
BRANCH  60  83
ATOM     83  C   UNL A   1      44.766  33.183  29.406  1.00  0.00     0.023 A 
ATOM     84  C   UNL A   1      44.653  34.112  28.358  1.00  0.00     0.031 A 
ATOM     85  C   UNL A   1      45.124  33.662  30.679  1.00  0.00     0.131 A 
ATOM     86  C   UNL A   1      44.961  35.462  28.586  1.00  0.00     0.055 A 
ATOM     87  C   UNL A   1      45.363  35.015  30.914  1.00  0.00     0.041 A 
ATOM     88  F   UNL A   1      45.248  32.819  31.716  1.00  0.00    -0.206 F 
ATOM     89  C   UNL A   1      45.298  35.922  29.861  1.00  0.00     0.022 A 
BRANCH  86  90
ATOM     90  S   UNL A   1      45.022  36.592  27.167  1.00  0.00     0.124 S 
ATOM     91  O   UNL A   1      45.666  35.767  26.149  1.00  0.00    -0.237 OA
ATOM     92  O   UNL A   1      43.612  36.892  26.945  1.00  0.00    -0.237 OA
ATOM     93  O   UNL A   1      45.825  37.711  27.656  1.00  0.00    -0.744 OA
ENDBRANCH  86  90
ENDBRANCH  60  83
ENDBRANCH  34  35
ENDBRANCH  26  29
ENDBRANCH  24  25
ENDBRANCH  23  24
ENDBRANCH  22  23
ENDBRANCH  21  22
ENDBRANCH   3  21
TORSDOF 21
ENDMDL
MODEL 2
REMARK VINA RESULT:     -10.0      2.357      8.475
REMARK SMILES CN(CCOCC1CC1)C(=O)N1CC[C@H](C(=O)NCCCCNC(=O)c2ccc(-c3c4nc(c(-c5cc(S(=O)(=O)[O-])ccc5F)c5ccc([nH]5)c(-c5cc(S(=O)(=O)[O-])ccc5F)c5nc(c(-c6cc(S(=O)(=O)[O-])ccc6F)c6ccc3[nH]6)C=C5)C=C4)cc2)C1
REMARK SMILES IDX 16 1 17 2 18 3 15 5 12 6 13 7 89 8 14 9 10 10 11 11 2 12
REMARK SMILES IDX 1 13 3 14 4 15 5 16 6 17 7 18 8 19 9 20 19 21 20 22 21 23
REMARK SMILES IDX 22 24 23 25 24 26 25 28 26 29 27 30 88 31 28 32 87 33 29 34
REMARK SMILES IDX 30 35 31 36 81 37 32 38 86 39 80 40 82 41 33 42 85 43 79 44
REMARK SMILES IDX 78 45 34 47 66 48 46 49 65 50 47 51 50 52 64 53 83 54 48 55
REMARK SMILES IDX 49 56 63 58 84 59 51 60 35 61 36 62 44 63 37 64 43 65 45 66
REMARK SMILES IDX 42 67 38 68 39 69 40 70 41 71 67 72 68 73 76 74 69 75 75 76
REMARK SMILES IDX 77 77 74 78 70 79 71 80 72 81 73 82 52 83 53 84 61 85 54 86
REMARK SMILES IDX 60 87 62 88 59 89 55 90 56 91 57 92 58 93
REMARK H PARENT 18 4 23 27 82 46 50 57
REMARK Flexibility Score: inf
ROOT
ATOM      1  C   UNL A   1      34.511  22.922  25.956  1.00  0.00     0.224 C 
ATOM      2  O   UNL A   1      33.657  22.535  26.759  1.00  0.00    -0.275 OA
ATOM      3  N   UNL A   1      35.817  22.707  26.276  1.00  0.00    -0.356 N 
ATOM      4  H   UNL A   1      35.961  22.311  27.166  1.00  0.00     0.163 HD
ENDROOT
BRANCH   1   5
ATOM      5  C   UNL A   1      34.076  23.647  24.690  1.00  0.00     0.100 C 
ATOM      6  N   UNL A   1      32.151  25.042  24.589  1.00  0.00    -0.324 N 
ATOM      7  C   UNL A   1      31.960  24.005  23.585  1.00  0.00     0.122 C 
ATOM      8  C   UNL A   1      33.572  25.065  24.932  1.00  0.00     0.134 C 
ATOM      9  C   UNL A   1      32.963  22.920  23.940  1.00  0.00     0.037 C 
BRANCH   6  10
ATOM     10  C   UNL A   1      31.346  25.983  25.187  1.00  0.00     0.319 C 
ATOM     11  O   UNL A   1      31.362  26.058  26.422  1.00  0.00    -0.248 OA
BRANCH  10  12
ATOM     12  N   UNL A   1      30.516  26.819  24.471  1.00  0.00    -0.325 N 
ATOM     13  C   UNL A   1      29.147  26.353  24.233  1.00  0.00     0.148 C 
BRANCH  12  14
ATOM     14  C   UNL A   1      30.808  28.113  23.855  1.00  0.00     0.149 C 
BRANCH  14  15
ATOM     15  C   UNL A   1      32.300  28.495  23.855  1.00  0.00     0.181 C 
BRANCH  15  16
ATOM     16  O   UNL A   1      32.731  29.334  24.925  1.00  0.00    -0.379 OA
BRANCH  16  17
ATOM     17  C   UNL A   1      33.729  28.787  25.784  1.00  0.00     0.163 C 
BRANCH  17  18
ATOM     18  C   UNL A   1      33.706  29.381  27.151  1.00  0.00     0.015 C 
ATOM     19  C   UNL A   1      34.631  30.516  27.521  1.00  0.00     0.006 C 
ATOM     20  C   UNL A   1      33.172  30.785  27.301  1.00  0.00     0.006 C 
ENDBRANCH  17  18
ENDBRANCH  16  17
ENDBRANCH  15  16
ENDBRANCH  14  15
ENDBRANCH  12  14
ENDBRANCH  10  12
ENDBRANCH   6  10
ENDBRANCH   1   5
BRANCH   3  21
ATOM     21  C   UNL A   1      37.032  22.963  25.527  1.00  0.00     0.116 C 
BRANCH  21  22
ATOM     22  C   UNL A   1      37.420  21.826  24.590  1.00  0.00     0.023 C 
BRANCH  22  23
ATOM     23  C   UNL A   1      37.963  20.590  25.293  1.00  0.00     0.023 C 
BRANCH  23  24
ATOM     24  C   UNL A   1      39.267  20.809  26.046  1.00  0.00     0.116 C 
BRANCH  24  25
ATOM     25  N   UNL A   1      40.157  19.656  26.011  1.00  0.00    -0.352 N 
ATOM     26  C   UNL A   1      41.530  19.649  26.092  1.00  0.00     0.251 C 
ATOM     27  H   UNL A   1      39.723  18.778  25.918  1.00  0.00     0.163 HD
ATOM     28  O   UNL A   1      42.155  18.608  25.917  1.00  0.00    -0.269 OA
BRANCH  26  29
ATOM     29  C   UNL A   1      42.229  20.924  26.350  1.00  0.00     0.039 A 
ATOM     30  C   UNL A   1      42.544  21.757  25.276  1.00  0.00     0.014 A 
ATOM     31  C   UNL A   1      42.498  21.326  27.662  1.00  0.00     0.014 A 
ATOM     32  C   UNL A   1      43.074  23.024  25.524  1.00  0.00     0.010 A 
ATOM     33  C   UNL A   1      42.937  22.619  27.909  1.00  0.00     0.010 A 
ATOM     34  C   UNL A   1      43.241  23.480  26.844  1.00  0.00    -0.014 A 
BRANCH  34  35
ATOM     35  C   UNL A   1      43.769  24.839  27.129  1.00  0.00     0.031 A 
ATOM     36  C   UNL A   1      42.851  25.890  27.691  1.00  0.00     0.074 A 
ATOM     37  C   UNL A   1      45.051  25.139  26.838  1.00  0.00     0.049 A 
ATOM     38  N   UNL A   1      43.093  27.148  27.955  1.00  0.00    -0.248 NA
ATOM     39  C   UNL A   1      41.464  25.478  27.961  1.00  0.00     0.031 C 
ATOM     40  C   UNL A   1      46.024  24.216  26.246  1.00  0.00     0.029 A 
ATOM     41  N   UNL A   1      45.758  26.304  26.997  1.00  0.00    -0.354 N 
ATOM     42  C   UNL A   1      41.889  27.678  28.408  1.00  0.00     0.074 A 
ATOM     43  C   UNL A   1      40.903  26.625  28.307  1.00  0.00     0.031 C 
ATOM     44  C   UNL A   1      47.207  24.842  26.128  1.00  0.00     0.029 A 
ATOM     45  C   UNL A   1      47.070  26.218  26.591  1.00  0.00     0.049 A 
ATOM     46  H   UNL A   1      45.362  27.126  27.369  1.00  0.00     0.167 HD
ATOM     47  C   UNL A   1      41.636  28.918  28.895  1.00  0.00     0.034 A 
ATOM     48  C   UNL A   1      48.048  27.146  26.592  1.00  0.00     0.034 A 
ATOM     49  C   UNL A   1      42.636  29.951  29.003  1.00  0.00     0.049 A 
ATOM     50  C   UNL A   1      47.739  28.524  27.126  1.00  0.00     0.074 A 
ATOM     51  C   UNL A   1      42.503  31.231  29.513  1.00  0.00     0.029 A 
ATOM     52  N   UNL A   1      43.958  29.824  28.593  1.00  0.00    -0.354 N 
ATOM     53  N   UNL A   1      46.606  28.996  27.594  1.00  0.00    -0.248 NA
ATOM     54  C   UNL A   1      48.847  29.486  27.150  1.00  0.00     0.031 C 
ATOM     55  C   UNL A   1      43.724  31.896  29.355  1.00  0.00     0.029 A 
ATOM     56  C   UNL A   1      44.643  31.007  28.820  1.00  0.00     0.049 A 
ATOM     57  H   UNL A   1      44.350  29.012  28.198  1.00  0.00     0.167 HD
ATOM     58  C   UNL A   1      46.880  30.298  28.005  1.00  0.00     0.074 A 
ATOM     59  C   UNL A   1      48.286  30.528  27.743  1.00  0.00     0.031 C 
ATOM     60  C   UNL A   1      46.047  31.220  28.554  1.00  0.00     0.034 A 
BRANCH  47  61
ATOM     61  C   UNL A   1      40.220  29.217  29.328  1.00  0.00     0.023 A 
ATOM     62  C   UNL A   1      39.858  29.256  30.687  1.00  0.00     0.031 A 
ATOM     63  C   UNL A   1      39.210  29.431  28.374  1.00  0.00     0.131 A 
ATOM     64  C   UNL A   1      38.514  29.420  31.051  1.00  0.00     0.055 A 
ATOM     65  C   UNL A   1      37.888  29.681  28.746  1.00  0.00     0.041 A 
ATOM     66  F   UNL A   1      39.487  29.383  27.062  1.00  0.00    -0.206 F 
ATOM     67  C   UNL A   1      37.529  29.660  30.091  1.00  0.00     0.022 A 
BRANCH  64  68
ATOM     68  S   UNL A   1      38.050  29.164  32.785  1.00  0.00     0.124 S 
ATOM     69  O   UNL A   1      39.291  29.503  33.476  1.00  0.00    -0.237 OA
ATOM     70  O   UNL A   1      36.945  30.102  32.958  1.00  0.00    -0.237 OA
ATOM     71  O   UNL A   1      37.682  27.751  32.838  1.00  0.00    -0.744 OA
ENDBRANCH  64  68
ENDBRANCH  47  61
BRANCH  48  72
ATOM     72  C   UNL A   1      49.411  26.817  26.082  1.00  0.00     0.023 A 
ATOM     73  C   UNL A   1      49.835  27.257  24.817  1.00  0.00     0.031 A 
ATOM     74  C   UNL A   1      50.290  26.010  26.826  1.00  0.00     0.131 A 
ATOM     75  C   UNL A   1      51.075  26.838  24.308  1.00  0.00     0.055 A 
ATOM     76  C   UNL A   1      51.547  25.644  26.340  1.00  0.00     0.041 A 
ATOM     77  F   UNL A   1      49.940  25.566  28.044  1.00  0.00    -0.206 F 
ATOM     78  C   UNL A   1      51.939  26.046  25.066  1.00  0.00     0.022 A 
BRANCH  75  79
ATOM     79  S   UNL A   1      51.498  27.264  22.597  1.00  0.00     0.124 S 
ATOM     80  O   UNL A   1      52.718  26.491  22.391  1.00  0.00    -0.237 OA
ATOM     81  O   UNL A   1      50.318  26.806  21.871  1.00  0.00    -0.237 OA
ATOM     82  O   UNL A   1      51.677  28.714  22.642  1.00  0.00    -0.744 OA
ENDBRANCH  75  79
ENDBRANCH  48  72
BRANCH  60  83
ATOM     83  C   UNL A   1      46.659  32.537  28.967  1.00  0.00     0.023 A 
ATOM     84  C   UNL A   1      46.675  33.650  28.110  1.00  0.00     0.031 A 
ATOM     85  C   UNL A   1      47.256  32.669  30.234  1.00  0.00     0.131 A 
ATOM     86  C   UNL A   1      47.333  34.825  28.504  1.00  0.00     0.055 A 
ATOM     87  C   UNL A   1      47.849  33.862  30.645  1.00  0.00     0.041 A 
ATOM     88  F   UNL A   1      47.271  31.637  31.093  1.00  0.00    -0.206 F 
ATOM     89  C   UNL A   1      47.905  34.943  29.773  1.00  0.00     0.022 A 
BRANCH  86  90
ATOM     90  S   UNL A   1      47.529  36.161  27.292  1.00  0.00     0.124 S 
ATOM     91  O   UNL A   1      46.342  36.973  27.540  1.00  0.00    -0.237 OA
ATOM     92  O   UNL A   1      48.801  36.756  27.685  1.00  0.00    -0.237 OA
ATOM     93  O   UNL A   1      47.543  35.459  26.009  1.00  0.00    -0.744 OA
ENDBRANCH  86  90
ENDBRANCH  60  83
ENDBRANCH  34  35
ENDBRANCH  26  29
ENDBRANCH  24  25
ENDBRANCH  23  24
ENDBRANCH  22  23
ENDBRANCH  21  22
ENDBRANCH   3  21
TORSDOF 21
ENDMDL
MODEL 3
REMARK VINA RESULT:      -9.9      2.853      8.546
REMARK SMILES CN(CCOCC1CC1)C(=O)N1CC[C@H](C(=O)NCCCCNC(=O)c2ccc(-c3c4nc(c(-c5cc(S(=O)(=O)[O-])ccc5F)c5ccc([nH]5)c(-c5cc(S(=O)(=O)[O-])ccc5F)c5nc(c(-c6cc(S(=O)(=O)[O-])ccc6F)c6ccc3[nH]6)C=C5)C=C4)cc2)C1
REMARK SMILES IDX 16 1 17 2 18 3 15 5 12 6 13 7 89 8 14 9 10 10 11 11 2 12
REMARK SMILES IDX 1 13 3 14 4 15 5 16 6 17 7 18 8 19 9 20 19 21 20 22 21 23
REMARK SMILES IDX 22 24 23 25 24 26 25 28 26 29 27 30 88 31 28 32 87 33 29 34
REMARK SMILES IDX 30 35 31 36 81 37 32 38 86 39 80 40 82 41 33 42 85 43 79 44
REMARK SMILES IDX 78 45 34 47 66 48 46 49 65 50 47 51 50 52 64 53 83 54 48 55
REMARK SMILES IDX 49 56 63 58 84 59 51 60 35 61 36 62 44 63 37 64 43 65 45 66
REMARK SMILES IDX 42 67 38 68 39 69 40 70 41 71 67 72 68 73 76 74 69 75 75 76
REMARK SMILES IDX 77 77 74 78 70 79 71 80 72 81 73 82 52 83 53 84 61 85 54 86
REMARK SMILES IDX 60 87 62 88 59 89 55 90 56 91 57 92 58 93
REMARK H PARENT 18 4 23 27 82 46 50 57
REMARK Flexibility Score: inf
ROOT
ATOM      1  C   UNL A   1      36.595  23.058  23.937  1.00  0.00     0.224 C 
ATOM      2  O   UNL A   1      36.610  22.980  22.705  1.00  0.00    -0.275 OA
ATOM      3  N   UNL A   1      37.764  22.825  24.595  1.00  0.00    -0.356 N 
ATOM      4  H   UNL A   1      38.512  22.549  24.017  1.00  0.00     0.163 HD
ENDROOT
BRANCH   1   5
ATOM      5  C   UNL A   1      35.287  23.361  24.653  1.00  0.00     0.100 C 
ATOM      6  N   UNL A   1      33.842  25.143  24.020  1.00  0.00    -0.324 N 
ATOM      7  C   UNL A   1      34.198  25.378  25.413  1.00  0.00     0.122 C 
ATOM      8  C   UNL A   1      34.145  23.745  23.719  1.00  0.00     0.134 C 
ATOM      9  C   UNL A   1      35.411  24.497  25.666  1.00  0.00     0.037 C 
BRANCH   6  10
ATOM     10  C   UNL A   1      33.258  25.888  23.022  1.00  0.00     0.319 C 
ATOM     11  O   UNL A   1      33.972  26.253  22.079  1.00  0.00    -0.248 OA
BRANCH  10  12
ATOM     12  N   UNL A   1      31.930  26.257  23.047  1.00  0.00    -0.325 N 
ATOM     13  C   UNL A   1      31.014  25.502  22.187  1.00  0.00     0.148 C 
BRANCH  12  14
ATOM     14  C   UNL A   1      31.281  27.341  23.782  1.00  0.00     0.149 C 
BRANCH  14  15
ATOM     15  C   UNL A   1      31.753  28.752  23.383  1.00  0.00     0.181 C 
BRANCH  15  16
ATOM     16  O   UNL A   1      30.988  29.405  22.372  1.00  0.00    -0.379 OA
BRANCH  16  17
ATOM     17  C   UNL A   1      29.629  28.988  22.250  1.00  0.00     0.163 C 
BRANCH  17  18
ATOM     18  C   UNL A   1      28.674  30.133  22.202  1.00  0.00     0.015 C 
ATOM     19  C   UNL A   1      27.694  30.375  23.324  1.00  0.00     0.006 C 
ATOM     20  C   UNL A   1      28.888  31.270  23.170  1.00  0.00     0.006 C 
ENDBRANCH  17  18
ENDBRANCH  16  17
ENDBRANCH  15  16
ENDBRANCH  14  15
ENDBRANCH  12  14
ENDBRANCH  10  12
ENDBRANCH   6  10
ENDBRANCH   1   5
BRANCH   3  21
ATOM     21  C   UNL A   1      38.094  22.916  26.004  1.00  0.00     0.116 C 
BRANCH  21  22
ATOM     22  C   UNL A   1      39.415  22.246  26.364  1.00  0.00     0.023 C 
BRANCH  22  23
ATOM     23  C   UNL A   1      39.594  20.854  25.776  1.00  0.00     0.023 C 
BRANCH  23  24
ATOM     24  C   UNL A   1      40.349  19.880  26.669  1.00  0.00     0.116 C 
BRANCH  24  25
ATOM     25  N   UNL A   1      41.485  19.251  26.009  1.00  0.00    -0.352 N 
ATOM     26  C   UNL A   1      42.670  19.838  25.630  1.00  0.00     0.251 C 
ATOM     27  H   UNL A   1      41.393  18.291  25.811  1.00  0.00     0.163 HD
ATOM     28  O   UNL A   1      43.487  19.211  24.964  1.00  0.00    -0.269 OA
BRANCH  26  29
ATOM     29  C   UNL A   1      42.913  21.246  26.006  1.00  0.00     0.039 A 
ATOM     30  C   UNL A   1      43.168  21.558  27.342  1.00  0.00     0.014 A 
ATOM     31  C   UNL A   1      42.964  22.238  25.022  1.00  0.00     0.014 A 
ATOM     32  C   UNL A   1      43.539  22.860  27.681  1.00  0.00     0.010 A 
ATOM     33  C   UNL A   1      43.423  23.507  25.349  1.00  0.00     0.010 A 
ATOM     34  C   UNL A   1      43.705  23.837  26.683  1.00  0.00    -0.014 A 
BRANCH  34  35
ATOM     35  C   UNL A   1      44.134  25.219  27.019  1.00  0.00     0.031 A 
ATOM     36  C   UNL A   1      43.133  26.191  27.583  1.00  0.00     0.074 A 
ATOM     37  C   UNL A   1      45.401  25.610  26.774  1.00  0.00     0.049 A 
ATOM     38  N   UNL A   1      43.284  27.454  27.887  1.00  0.00    -0.248 NA
ATOM     39  C   UNL A   1      41.770  25.682  27.800  1.00  0.00     0.031 C 
ATOM     40  C   UNL A   1      46.448  24.770  26.186  1.00  0.00     0.029 A 
ATOM     41  N   UNL A   1      46.025  26.814  26.985  1.00  0.00    -0.354 N 
ATOM     42  C   UNL A   1      42.036  27.891  28.319  1.00  0.00     0.074 A 
ATOM     43  C   UNL A   1      41.125  26.779  28.161  1.00  0.00     0.031 C 
ATOM     44  C   UNL A   1      47.590  25.475  26.119  1.00  0.00     0.029 A 
ATOM     45  C   UNL A   1      47.350  26.825  26.615  1.00  0.00     0.049 A 
ATOM     46  H   UNL A   1      45.565  27.597  27.367  1.00  0.00     0.167 HD
ATOM     47  C   UNL A   1      41.689  29.098  28.832  1.00  0.00     0.034 A 
ATOM     48  C   UNL A   1      48.264  27.814  26.669  1.00  0.00     0.034 A 
ATOM     49  C   UNL A   1      42.615  30.190  28.996  1.00  0.00     0.049 A 
ATOM     50  C   UNL A   1      47.851  29.153  27.231  1.00  0.00     0.074 A 
ATOM     51  C   UNL A   1      42.383  31.444  29.536  1.00  0.00     0.029 A 
ATOM     52  N   UNL A   1      43.953  30.161  28.622  1.00  0.00    -0.354 N 
ATOM     53  N   UNL A   1      46.676  29.537  27.678  1.00  0.00    -0.248 NA
ATOM     54  C   UNL A   1      48.891  30.185  27.312  1.00  0.00     0.031 C 
ATOM     55  C   UNL A   1      43.562  32.190  29.432  1.00  0.00     0.029 A 
ATOM     56  C   UNL A   1      44.552  31.380  28.900  1.00  0.00     0.049 A 
ATOM     57  H   UNL A   1      44.408  29.389  28.217  1.00  0.00     0.167 HD
ATOM     58  C   UNL A   1      46.852  30.842  28.132  1.00  0.00     0.074 A 
ATOM     59  C   UNL A   1      48.246  31.170  27.917  1.00  0.00     0.031 C 
ATOM     60  C   UNL A   1      45.946  31.691  28.681  1.00  0.00     0.034 A 
BRANCH  47  61
ATOM     61  C   UNL A   1      40.245  29.291  29.231  1.00  0.00     0.023 A 
ATOM     62  C   UNL A   1      39.845  29.273  30.579  1.00  0.00     0.031 A 
ATOM     63  C   UNL A   1      39.248  29.459  28.254  1.00  0.00     0.131 A 
ATOM     64  C   UNL A   1      38.484  29.338  30.909  1.00  0.00     0.055 A 
ATOM     65  C   UNL A   1      37.902  29.611  28.594  1.00  0.00     0.041 A 
ATOM     66  F   UNL A   1      39.563  29.461  26.949  1.00  0.00    -0.206 F 
ATOM     67  C   UNL A   1      37.511  29.535  29.928  1.00  0.00     0.022 A 
BRANCH  64  68
ATOM     68  S   UNL A   1      37.992  29.011  32.624  1.00  0.00     0.124 S 
ATOM     69  O   UNL A   1      39.045  29.695  33.369  1.00  0.00    -0.237 OA
ATOM     70  O   UNL A   1      36.665  29.615  32.693  1.00  0.00    -0.237 OA
ATOM     71  O   UNL A   1      38.019  27.553  32.718  1.00  0.00    -0.744 OA
ENDBRANCH  64  68
ENDBRANCH  47  61
BRANCH  48  72
ATOM     72  C   UNL A   1      49.659  27.590  26.191  1.00  0.00     0.023 A 
ATOM     73  C   UNL A   1      50.056  27.995  24.906  1.00  0.00     0.031 A 
ATOM     74  C   UNL A   1      50.601  26.916  26.987  1.00  0.00     0.131 A 
ATOM     75  C   UNL A   1      51.337  27.670  24.432  1.00  0.00     0.055 A 
ATOM     76  C   UNL A   1      51.894  26.646  26.534  1.00  0.00     0.041 A 
ATOM     77  F   UNL A   1      50.279  26.511  28.226  1.00  0.00    -0.206 F 
ATOM     78  C   UNL A   1      52.263  27.009  25.242  1.00  0.00     0.022 A 
BRANCH  75  79
ATOM     79  S   UNL A   1      51.741  28.035  22.702  1.00  0.00     0.124 S 
ATOM     80  O   UNL A   1      50.545  28.744  22.260  1.00  0.00    -0.237 OA
ATOM     81  O   UNL A   1      52.951  28.839  22.837  1.00  0.00    -0.237 OA
ATOM     82  O   UNL A   1      51.937  26.712  22.112  1.00  0.00    -0.744 OA
ENDBRANCH  75  79
ENDBRANCH  48  72
BRANCH  60  83
ATOM     83  C   UNL A   1      46.458  33.032  29.147  1.00  0.00     0.023 A 
ATOM     84  C   UNL A   1      46.404  34.174  28.328  1.00  0.00     0.031 A 
ATOM     85  C   UNL A   1      47.029  33.163  30.426  1.00  0.00     0.131 A 
ATOM     86  C   UNL A   1      46.973  35.378  28.771  1.00  0.00     0.055 A 
ATOM     87  C   UNL A   1      47.532  34.379  30.886  1.00  0.00     0.041 A 
ATOM     88  F   UNL A   1      47.108  32.105  31.249  1.00  0.00    -0.206 F 
ATOM     89  C   UNL A   1      47.521  35.491  30.051  1.00  0.00     0.022 A 
BRANCH  86  90
ATOM     90  S   UNL A   1      47.087  36.765  27.608  1.00  0.00     0.124 S 
ATOM     91  O   UNL A   1      45.928  37.571  27.980  1.00  0.00    -0.237 OA
ATOM     92  O   UNL A   1      48.390  37.337  27.931  1.00  0.00    -0.237 OA
ATOM     93  O   UNL A   1      47.000  36.121  26.298  1.00  0.00    -0.744 OA
ENDBRANCH  86  90
ENDBRANCH  60  83
ENDBRANCH  34  35
ENDBRANCH  26  29
ENDBRANCH  24  25
ENDBRANCH  23  24
ENDBRANCH  22  23
ENDBRANCH  21  22
ENDBRANCH   3  21
TORSDOF 21
ENDMDL
