MODEL 1
REMARK VINA RESULT:     -12.1      0.000      0.000
REMARK SMILES COc1ccc(C(=O)NCCCCNC(=O)c2ccc(-c3c4nc(c(-c5cc(S(=O)(=O)[O-])ccc5F)c5ccc([nH]5)c(-c5cc(S(=O)(=O)[O-])ccc5F)c5nc(c(-c6cc(S(=O)(=O)[O-])ccc6F)c6ccc3[nH]6)C=C5)C=C4)cc2)cc1S(=O)(=O)N(C)Cc1cccc(F)c1
REMARK SMILES IDX 11 1 10 2 9 3 7 4 8 5 6 7 3 8 4 9 81 10 5 11 80 12 2 13 1 14
REMARK SMILES IDX 82 15 83 16 84 17 85 18 86 19 87 20 88 21 89 22 94 23 90 24
REMARK SMILES IDX 92 25 91 26 93 27 12 28 13 29 14 30 15 31 16 33 17 34 18 35
REMARK SMILES IDX 79 36 19 37 78 38 20 39 21 40 22 41 72 42 23 43 77 44 71 45
REMARK SMILES IDX 73 46 24 47 76 48 70 49 69 50 25 52 57 53 37 54 56 55 38 56
REMARK SMILES IDX 41 57 55 58 74 59 39 60 40 61 54 63 75 64 42 65 26 66 27 67
REMARK SMILES IDX 35 68 28 69 34 70 36 71 33 72 29 73 30 74 31 75 32 76 58 77
REMARK SMILES IDX 59 78 67 79 60 80 66 81 68 82 65 83 61 84 62 85 63 86 64 87
REMARK SMILES IDX 43 88 44 89 52 90 45 91 51 92 53 93 50 94 46 95 47 96 48 97
REMARK SMILES IDX 49 98
REMARK H PARENT 9 6 14 32 73 51 41 62
REMARK Flexibility Score: inf
ROOT
ATOM      1  C   UNL A   1      33.744  28.149  23.624  1.00  0.00     0.023 C 
ENDROOT
BRANCH   1   2
ATOM      2  C   UNL A   1      32.533  28.070  22.690  1.00  0.00     0.116 C 
BRANCH   2   3
ATOM      3  N   UNL A   1      32.797  27.155  21.591  1.00  0.00    -0.352 N 
ATOM      4  C   UNL A   1      32.879  25.787  21.521  1.00  0.00     0.251 C 
ATOM      5  O   UNL A   1      33.103  25.271  20.426  1.00  0.00    -0.269 OA
ATOM      6  H   UNL A   1      32.946  27.606  20.728  1.00  0.00     0.163 HD
BRANCH   4   7
ATOM      7  C   UNL A   1      32.644  24.898  22.693  1.00  0.00     0.041 A 
ATOM      8  C   UNL A   1      32.054  23.376  24.998  1.00  0.00     0.138 A 
ATOM      9  C   UNL A   1      31.030  23.807  24.150  1.00  0.00     0.049 A 
ATOM     10  C   UNL A   1      33.376  23.633  24.646  1.00  0.00     0.125 A 
ATOM     11  C   UNL A   1      31.320  24.579  23.018  1.00  0.00     0.018 A 
ATOM     12  C   UNL A   1      33.661  24.354  23.470  1.00  0.00     0.039 A 
BRANCH   8  13
ATOM     13  O   UNL A   1      31.676  22.617  26.066  1.00  0.00    -0.495 OA
ATOM     14  C   UNL A   1      30.428  23.039  26.614  1.00  0.00     0.278 C 
ENDBRANCH   8  13
BRANCH  10  15
ATOM     15  S   UNL A   1      34.801  23.194  25.601  1.00  0.00     0.246 S 
ATOM     16  O   UNL A   1      35.847  24.112  25.197  1.00  0.00    -0.207 OA
ATOM     17  O   UNL A   1      34.348  23.150  26.977  1.00  0.00    -0.207 OA
BRANCH  15  18
ATOM     18  N   UNL A   1      35.309  21.629  25.175  1.00  0.00    -0.196 NA
ATOM     19  C   UNL A   1      36.734  21.327  25.424  1.00  0.00     0.125 C 
BRANCH  18  20
ATOM     20  C   UNL A   1      34.382  20.556  25.658  1.00  0.00     0.137 C 
BRANCH  20  21
ATOM     21  C   UNL A   1      33.864  19.622  24.586  1.00  0.00    -0.030 A 
ATOM     22  C   UNL A   1      32.722  19.951  23.836  1.00  0.00     0.005 A 
ATOM     23  C   UNL A   1      34.446  18.360  24.402  1.00  0.00     0.044 A 
ATOM     24  C   UNL A   1      32.144  19.015  22.972  1.00  0.00     0.003 A 
ATOM     25  C   UNL A   1      33.848  17.429  23.562  1.00  0.00     0.123 A 
ATOM     26  C   UNL A   1      32.697  17.741  22.853  1.00  0.00     0.039 A 
ATOM     27  F   UNL A   1      34.378  16.202  23.463  1.00  0.00    -0.207 F 
ENDBRANCH  20  21
ENDBRANCH  18  20
ENDBRANCH  15  18
ENDBRANCH  10  15
ENDBRANCH   4   7
ENDBRANCH   2   3
ENDBRANCH   1   2
BRANCH   1  28
ATOM     28  C   UNL A   1      33.431  27.771  25.075  1.00  0.00     0.023 C 
BRANCH  28  29
ATOM     29  C   UNL A   1      34.353  28.405  26.114  1.00  0.00     0.116 C 
BRANCH  29  30
ATOM     30  N   UNL A   1      33.944  29.748  26.496  1.00  0.00    -0.352 N 
ATOM     31  C   UNL A   1      34.548  30.603  27.387  1.00  0.00     0.251 C 
ATOM     32  H   UNL A   1      33.130  30.088  26.060  1.00  0.00     0.163 HD
ATOM     33  O   UNL A   1      34.003  31.659  27.690  1.00  0.00    -0.269 OA
BRANCH  31  34
ATOM     34  C   UNL A   1      35.833  30.214  28.007  1.00  0.00     0.039 A 
ATOM     35  C   UNL A   1      35.816  29.638  29.279  1.00  0.00     0.014 A 
ATOM     36  C   UNL A   1      37.040  30.385  27.325  1.00  0.00     0.014 A 
ATOM     37  C   UNL A   1      37.008  29.172  29.840  1.00  0.00     0.010 A 
ATOM     38  C   UNL A   1      38.214  29.858  27.855  1.00  0.00     0.010 A 
ATOM     39  C   UNL A   1      38.209  29.244  29.117  1.00  0.00    -0.014 A 
BRANCH  39  40
ATOM     40  C   UNL A   1      39.470  28.681  29.667  1.00  0.00     0.031 A 
ATOM     41  C   UNL A   1      40.088  29.281  30.900  1.00  0.00     0.074 A 
ATOM     42  C   UNL A   1      40.083  27.668  29.025  1.00  0.00     0.049 A 
ATOM     43  N   UNL A   1      41.211  28.973  31.497  1.00  0.00    -0.248 NA
ATOM     44  C   UNL A   1      39.359  30.394  31.527  1.00  0.00     0.031 C 
ATOM     45  C   UNL A   1      39.601  27.032  27.796  1.00  0.00     0.029 A 
ATOM     46  N   UNL A   1      41.245  26.996  29.310  1.00  0.00    -0.354 N 
ATOM     47  C   UNL A   1      41.328  29.857  32.564  1.00  0.00     0.074 A 
ATOM     48  C   UNL A   1      40.195  30.756  32.487  1.00  0.00     0.031 C 
ATOM     49  C   UNL A   1      40.445  26.046  27.451  1.00  0.00     0.029 A 
ATOM     50  C   UNL A   1      41.550  26.007  28.403  1.00  0.00     0.049 A 
ATOM     51  H   UNL A   1      41.809  27.202  30.091  1.00  0.00     0.167 HD
ATOM     52  C   UNL A   1      42.276  29.899  33.534  1.00  0.00     0.034 A 
ATOM     53  C   UNL A   1      42.604  25.169  28.341  1.00  0.00     0.034 A 
ATOM     54  C   UNL A   1      43.397  28.992  33.596  1.00  0.00     0.049 A 
ATOM     55  C   UNL A   1      43.660  25.250  29.414  1.00  0.00     0.074 A 
ATOM     56  C   UNL A   1      44.396  28.918  34.552  1.00  0.00     0.029 A 
ATOM     57  N   UNL A   1      43.673  28.003  32.659  1.00  0.00    -0.354 N 
ATOM     58  N   UNL A   1      43.734  26.064  30.442  1.00  0.00    -0.248 NA
ATOM     59  C   UNL A   1      44.766  24.289  29.326  1.00  0.00     0.031 C 
ATOM     60  C   UNL A   1      45.308  27.932  34.160  1.00  0.00     0.029 A 
ATOM     61  C   UNL A   1      44.840  27.334  33.001  1.00  0.00     0.049 A 
ATOM     62  H   UNL A   1      43.123  27.806  31.869  1.00  0.00     0.167 HD
ATOM     63  C   UNL A   1      44.881  25.692  31.138  1.00  0.00     0.074 A 
ATOM     64  C   UNL A   1      45.454  24.571  30.422  1.00  0.00     0.031 C 
ATOM     65  C   UNL A   1      45.408  26.226  32.270  1.00  0.00     0.034 A 
BRANCH  52  66
ATOM     66  C   UNL A   1      42.144  30.975  34.586  1.00  0.00     0.023 A 
ATOM     67  C   UNL A   1      42.780  32.222  34.447  1.00  0.00     0.031 A 
ATOM     68  C   UNL A   1      41.404  30.744  35.759  1.00  0.00     0.131 A 
ATOM     69  C   UNL A   1      42.733  33.155  35.493  1.00  0.00     0.055 A 
ATOM     70  C   UNL A   1      41.289  31.711  36.760  1.00  0.00     0.041 A 
ATOM     71  F   UNL A   1      40.791  29.567  35.959  1.00  0.00    -0.206 F 
ATOM     72  C   UNL A   1      41.970  32.918  36.638  1.00  0.00     0.022 A 
BRANCH  69  73
ATOM     73  S   UNL A   1      43.808  34.613  35.401  1.00  0.00     0.124 S 
ATOM     74  O   UNL A   1      43.067  35.577  36.210  1.00  0.00    -0.237 OA
ATOM     75  O   UNL A   1      45.056  34.123  35.972  1.00  0.00    -0.237 OA
ATOM     76  O   UNL A   1      43.851  34.916  33.971  1.00  0.00    -0.744 OA
ENDBRANCH  69  73
ENDBRANCH  52  66
BRANCH  53  77
ATOM     77  C   UNL A   1      42.721  24.186  27.226  1.00  0.00     0.023 A 
ATOM     78  C   UNL A   1      42.053  22.952  27.277  1.00  0.00     0.031 A 
ATOM     79  C   UNL A   1      43.530  24.453  26.108  1.00  0.00     0.131 A 
ATOM     80  C   UNL A   1      42.242  22.012  26.252  1.00  0.00     0.055 A 
ATOM     81  C   UNL A   1      43.673  23.536  25.065  1.00  0.00     0.041 A 
ATOM     82  F   UNL A   1      44.185  25.620  26.006  1.00  0.00    -0.206 F 
ATOM     83  C   UNL A   1      43.036  22.301  25.140  1.00  0.00     0.022 A 
BRANCH  80  84
ATOM     84  S   UNL A   1      41.494  20.369  26.432  1.00  0.00     0.124 S 
ATOM     85  O   UNL A   1      41.863  20.022  27.799  1.00  0.00    -0.237 OA
ATOM     86  O   UNL A   1      40.081  20.654  26.200  1.00  0.00    -0.237 OA
ATOM     87  O   UNL A   1      42.147  19.582  25.388  1.00  0.00    -0.744 OA
ENDBRANCH  80  84
ENDBRANCH  53  77
BRANCH  65  88
ATOM     88  C   UNL A   1      46.650  25.566  32.823  1.00  0.00     0.023 A 
ATOM     89  C   UNL A   1      47.926  25.830  32.299  1.00  0.00     0.031 A 
ATOM     90  C   UNL A   1      46.547  24.647  33.883  1.00  0.00     0.131 A 
ATOM     91  C   UNL A   1      49.042  25.139  32.794  1.00  0.00     0.055 A 
ATOM     92  C   UNL A   1      47.670  24.010  34.414  1.00  0.00     0.041 A 
ATOM     93  F   UNL A   1      45.352  24.354  34.421  1.00  0.00    -0.206 F 
ATOM     94  C   UNL A   1      48.924  24.244  33.859  1.00  0.00     0.022 A 
BRANCH  91  95
ATOM     95  S   UNL A   1      50.640  25.352  31.961  1.00  0.00     0.124 S 
ATOM     96  O   UNL A   1      50.467  24.542  30.760  1.00  0.00    -0.237 OA
ATOM     97  O   UNL A   1      50.694  26.796  31.754  1.00  0.00    -0.237 OA
ATOM     98  O   UNL A   1      51.603  24.829  32.928  1.00  0.00    -0.744 OA
ENDBRANCH  91  95
ENDBRANCH  65  88
ENDBRANCH  39  40
ENDBRANCH  31  34
ENDBRANCH  29  30
ENDBRANCH  28  29
ENDBRANCH   1  28
TORSDOF 19
ENDMDL
MODEL 2
REMARK VINA RESULT:     -11.9      2.830      7.813
REMARK SMILES COc1ccc(C(=O)NCCCCNC(=O)c2ccc(-c3c4nc(c(-c5cc(S(=O)(=O)[O-])ccc5F)c5ccc([nH]5)c(-c5cc(S(=O)(=O)[O-])ccc5F)c5nc(c(-c6cc(S(=O)(=O)[O-])ccc6F)c6ccc3[nH]6)C=C5)C=C4)cc2)cc1S(=O)(=O)N(C)Cc1cccc(F)c1
REMARK SMILES IDX 11 1 10 2 9 3 7 4 8 5 6 7 3 8 4 9 81 10 5 11 80 12 2 13 1 14
REMARK SMILES IDX 82 15 83 16 84 17 85 18 86 19 87 20 88 21 89 22 94 23 90 24
REMARK SMILES IDX 92 25 91 26 93 27 12 28 13 29 14 30 15 31 16 33 17 34 18 35
REMARK SMILES IDX 79 36 19 37 78 38 20 39 21 40 22 41 72 42 23 43 77 44 71 45
REMARK SMILES IDX 73 46 24 47 76 48 70 49 69 50 25 52 57 53 37 54 56 55 38 56
REMARK SMILES IDX 41 57 55 58 74 59 39 60 40 61 54 63 75 64 42 65 26 66 27 67
REMARK SMILES IDX 35 68 28 69 34 70 36 71 33 72 29 73 30 74 31 75 32 76 58 77
REMARK SMILES IDX 59 78 67 79 60 80 66 81 68 82 65 83 61 84 62 85 63 86 64 87
REMARK SMILES IDX 43 88 44 89 52 90 45 91 51 92 53 93 50 94 46 95 47 96 48 97
REMARK SMILES IDX 49 98
REMARK H PARENT 9 6 14 32 73 51 41 62
REMARK Flexibility Score: inf
ROOT
ATOM      1  C   UNL A   1      32.278  28.654  23.376  1.00  0.00     0.023 C 
ENDROOT
BRANCH   1   2
ATOM      2  C   UNL A   1      31.352  27.834  22.473  1.00  0.00     0.116 C 
BRANCH   2   3
ATOM      3  N   UNL A   1      32.128  27.012  21.559  1.00  0.00    -0.352 N 
ATOM      4  C   UNL A   1      32.666  25.754  21.671  1.00  0.00     0.251 C 
ATOM      5  O   UNL A   1      33.275  25.292  20.706  1.00  0.00    -0.269 OA
ATOM      6  H   UNL A   1      32.304  27.442  20.691  1.00  0.00     0.163 HD
BRANCH   4   7
ATOM      7  C   UNL A   1      32.489  24.899  22.877  1.00  0.00     0.041 A 
ATOM      8  C   UNL A   1      32.014  23.444  25.252  1.00  0.00     0.138 A 
ATOM      9  C   UNL A   1      30.949  23.861  24.449  1.00  0.00     0.049 A 
ATOM     10  C   UNL A   1      33.316  23.681  24.822  1.00  0.00     0.125 A 
ATOM     11  C   UNL A   1      31.183  24.600  23.283  1.00  0.00     0.018 A 
ATOM     12  C   UNL A   1      33.543  24.367  23.613  1.00  0.00     0.039 A 
BRANCH   8  13
ATOM     13  O   UNL A   1      31.689  22.718  26.360  1.00  0.00    -0.495 OA
ATOM     14  C   UNL A   1      30.278  22.583  26.522  1.00  0.00     0.278 C 
ENDBRANCH   8  13
BRANCH  10  15
ATOM     15  S   UNL A   1      34.788  23.255  25.710  1.00  0.00     0.246 S 
ATOM     16  O   UNL A   1      35.793  24.213  25.294  1.00  0.00    -0.207 OA
ATOM     17  O   UNL A   1      34.390  23.160  27.100  1.00  0.00    -0.207 OA
BRANCH  15  18
ATOM     18  N   UNL A   1      35.321  21.717  25.222  1.00  0.00    -0.196 NA
ATOM     19  C   UNL A   1      36.762  21.447  25.410  1.00  0.00     0.125 C 
BRANCH  18  20
ATOM     20  C   UNL A   1      34.441  20.606  25.705  1.00  0.00     0.137 C 
BRANCH  20  21
ATOM     21  C   UNL A   1      33.867  19.721  24.621  1.00  0.00    -0.030 A 
ATOM     22  C   UNL A   1      32.794  20.161  23.826  1.00  0.00     0.005 A 
ATOM     23  C   UNL A   1      34.318  18.403  24.466  1.00  0.00     0.044 A 
ATOM     24  C   UNL A   1      32.151  19.282  22.948  1.00  0.00     0.003 A 
ATOM     25  C   UNL A   1      33.655  17.532  23.611  1.00  0.00     0.123 A 
ATOM     26  C   UNL A   1      32.570  17.956  22.857  1.00  0.00     0.039 A 
ATOM     27  F   UNL A   1      34.055  16.255  23.539  1.00  0.00    -0.207 F 
ENDBRANCH  20  21
ENDBRANCH  18  20
ENDBRANCH  15  18
ENDBRANCH  10  15
ENDBRANCH   4   7
ENDBRANCH   2   3
ENDBRANCH   1   2
BRANCH   1  28
ATOM     28  C   UNL A   1      31.759  28.818  24.808  1.00  0.00     0.023 C 
BRANCH  28  29
ATOM     29  C   UNL A   1      32.745  29.469  25.775  1.00  0.00     0.116 C 
BRANCH  29  30
ATOM     30  N   UNL A   1      32.366  30.821  26.154  1.00  0.00    -0.352 N 
ATOM     31  C   UNL A   1      32.996  31.668  27.034  1.00  0.00     0.251 C 
ATOM     32  H   UNL A   1      31.553  31.174  25.726  1.00  0.00     0.163 HD
ATOM     33  O   UNL A   1      32.474  32.736  27.338  1.00  0.00    -0.269 OA
BRANCH  31  34
ATOM     34  C   UNL A   1      34.279  31.258  27.643  1.00  0.00     0.039 A 
ATOM     35  C   UNL A   1      35.264  32.226  27.849  1.00  0.00     0.014 A 
ATOM     36  C   UNL A   1      34.495  29.936  28.038  1.00  0.00     0.014 A 
ATOM     37  C   UNL A   1      36.443  31.880  28.514  1.00  0.00     0.010 A 
ATOM     38  C   UNL A   1      35.639  29.608  28.762  1.00  0.00     0.010 A 
ATOM     39  C   UNL A   1      36.623  30.578  29.008  1.00  0.00    -0.014 A 
BRANCH  39  40
ATOM     40  C   UNL A   1      37.836  30.215  29.786  1.00  0.00     0.031 A 
ATOM     41  C   UNL A   1      38.841  29.255  29.211  1.00  0.00     0.074 A 
ATOM     42  C   UNL A   1      38.002  30.707  31.029  1.00  0.00     0.049 A 
ATOM     43  N   UNL A   1      39.927  28.768  29.755  1.00  0.00    -0.248 NA
ATOM     44  C   UNL A   1      38.572  28.755  27.855  1.00  0.00     0.031 C 
ATOM     45  C   UNL A   1      37.073  31.613  31.710  1.00  0.00     0.029 A 
ATOM     46  N   UNL A   1      39.005  30.514  31.945  1.00  0.00    -0.354 N 
ATOM     47  C   UNL A   1      40.468  27.901  28.812  1.00  0.00     0.074 A 
ATOM     48  C   UNL A   1      39.550  27.877  27.692  1.00  0.00     0.031 C 
ATOM     49  C   UNL A   1      37.564  31.917  32.922  1.00  0.00     0.029 A 
ATOM     50  C   UNL A   1      38.817  31.196  33.125  1.00  0.00     0.049 A 
ATOM     51  H   UNL A   1      39.787  29.940  31.774  1.00  0.00     0.167 HD
ATOM     52  C   UNL A   1      41.633  27.209  28.863  1.00  0.00     0.034 A 
ATOM     53  C   UNL A   1      39.564  31.231  34.247  1.00  0.00     0.034 A 
ATOM     54  C   UNL A   1      42.538  27.247  29.988  1.00  0.00     0.049 A 
ATOM     55  C   UNL A   1      40.843  30.434  34.292  1.00  0.00     0.074 A 
ATOM     56  C   UNL A   1      43.762  26.617  30.132  1.00  0.00     0.029 A 
ATOM     57  N   UNL A   1      42.313  27.949  31.166  1.00  0.00    -0.354 N 
ATOM     58  N   UNL A   1      41.362  29.651  33.375  1.00  0.00    -0.248 NA
ATOM     59  C   UNL A   1      41.642  30.537  35.519  1.00  0.00     0.031 C 
ATOM     60  C   UNL A   1      44.246  26.885  31.417  1.00  0.00     0.029 A 
ATOM     61  C   UNL A   1      43.363  27.747  32.050  1.00  0.00     0.049 A 
ATOM     62  H   UNL A   1      41.525  28.509  31.347  1.00  0.00     0.167 HD
ATOM     63  C   UNL A   1      42.565  29.192  33.905  1.00  0.00     0.074 A 
ATOM     64  C   UNL A   1      42.700  29.801  35.213  1.00  0.00     0.031 C 
ATOM     65  C   UNL A   1      43.478  28.349  33.358  1.00  0.00     0.034 A 
BRANCH  52  66
ATOM     66  C   UNL A   1      41.976  26.340  27.675  1.00  0.00     0.023 A 
ATOM     67  C   UNL A   1      41.599  24.986  27.621  1.00  0.00     0.031 A 
ATOM     68  C   UNL A   1      42.718  26.857  26.599  1.00  0.00     0.131 A 
ATOM     69  C   UNL A   1      42.032  24.178  26.560  1.00  0.00     0.055 A 
ATOM     70  C   UNL A   1      43.072  26.068  25.502  1.00  0.00     0.041 A 
ATOM     71  F   UNL A   1      43.125  28.136  26.602  1.00  0.00    -0.206 F 
ATOM     72  C   UNL A   1      42.744  24.717  25.486  1.00  0.00     0.022 A 
BRANCH  69  73
ATOM     73  S   UNL A   1      41.782  22.385  26.680  1.00  0.00     0.124 S 
ATOM     74  O   UNL A   1      42.651  22.042  27.803  1.00  0.00    -0.237 OA
ATOM     75  O   UNL A   1      40.350  22.281  26.923  1.00  0.00    -0.237 OA
ATOM     76  O   UNL A   1      42.233  21.890  25.380  1.00  0.00    -0.744 OA
ENDBRANCH  69  73
ENDBRANCH  52  66
BRANCH  53  77
ATOM     77  C   UNL A   1      39.126  32.041  35.419  1.00  0.00     0.023 A 
ATOM     78  C   UNL A   1      38.470  31.442  36.507  1.00  0.00     0.031 A 
ATOM     79  C   UNL A   1      39.325  33.432  35.453  1.00  0.00     0.131 A 
ATOM     80  C   UNL A   1      37.998  32.238  37.562  1.00  0.00     0.055 A 
ATOM     81  C   UNL A   1      38.900  34.212  36.530  1.00  0.00     0.041 A 
ATOM     82  F   UNL A   1      39.952  34.054  34.442  1.00  0.00    -0.206 F 
ATOM     83  C   UNL A   1      38.220  33.617  37.587  1.00  0.00     0.022 A 
BRANCH  80  84
ATOM     84  S   UNL A   1      37.015  31.453  38.870  1.00  0.00     0.124 S 
ATOM     85  O   UNL A   1      35.816  32.283  38.880  1.00  0.00    -0.237 OA
ATOM     86  O   UNL A   1      36.853  30.097  38.353  1.00  0.00    -0.237 OA
ATOM     87  O   UNL A   1      37.866  31.569  40.052  1.00  0.00    -0.744 OA
ENDBRANCH  80  84
ENDBRANCH  53  77
BRANCH  65  88
ATOM     88  C   UNL A   1      44.725  28.074  34.164  1.00  0.00     0.023 A 
ATOM     89  C   UNL A   1      44.797  27.010  35.080  1.00  0.00     0.031 A 
ATOM     90  C   UNL A   1      45.854  28.902  34.022  1.00  0.00     0.131 A 
ATOM     91  C   UNL A   1      45.949  26.838  35.861  1.00  0.00     0.055 A 
ATOM     92  C   UNL A   1      47.020  28.686  34.757  1.00  0.00     0.041 A 
ATOM     93  F   UNL A   1      45.840  29.935  33.164  1.00  0.00    -0.206 F 
ATOM     94  C   UNL A   1      47.067  27.658  35.693  1.00  0.00     0.022 A 
BRANCH  91  95
ATOM     95  S   UNL A   1      45.933  25.585  37.173  1.00  0.00     0.124 S 
ATOM     96  O   UNL A   1      44.605  25.000  37.018  1.00  0.00    -0.237 OA
ATOM     97  O   UNL A   1      47.054  24.728  36.801  1.00  0.00    -0.237 OA
ATOM     98  O   UNL A   1      46.129  26.364  38.394  1.00  0.00    -0.744 OA
ENDBRANCH  91  95
ENDBRANCH  65  88
ENDBRANCH  39  40
ENDBRANCH  31  34
ENDBRANCH  29  30
ENDBRANCH  28  29
ENDBRANCH   1  28
TORSDOF 19
ENDMDL
MODEL 3
REMARK VINA RESULT:     -11.8      4.324      9.650
REMARK SMILES COc1ccc(C(=O)NCCCCNC(=O)c2ccc(-c3c4nc(c(-c5cc(S(=O)(=O)[O-])ccc5F)c5ccc([nH]5)c(-c5cc(S(=O)(=O)[O-])ccc5F)c5nc(c(-c6cc(S(=O)(=O)[O-])ccc6F)c6ccc3[nH]6)C=C5)C=C4)cc2)cc1S(=O)(=O)N(C)Cc1cccc(F)c1
REMARK SMILES IDX 11 1 10 2 9 3 7 4 8 5 6 7 3 8 4 9 81 10 5 11 80 12 2 13 1 14
REMARK SMILES IDX 82 15 83 16 84 17 85 18 86 19 87 20 88 21 89 22 94 23 90 24
REMARK SMILES IDX 92 25 91 26 93 27 12 28 13 29 14 30 15 31 16 33 17 34 18 35
REMARK SMILES IDX 79 36 19 37 78 38 20 39 21 40 22 41 72 42 23 43 77 44 71 45
REMARK SMILES IDX 73 46 24 47 76 48 70 49 69 50 25 52 57 53 37 54 56 55 38 56
REMARK SMILES IDX 41 57 55 58 74 59 39 60 40 61 54 63 75 64 42 65 26 66 27 67
REMARK SMILES IDX 35 68 28 69 34 70 36 71 33 72 29 73 30 74 31 75 32 76 58 77
REMARK SMILES IDX 59 78 67 79 60 80 66 81 68 82 65 83 61 84 62 85 63 86 64 87
REMARK SMILES IDX 43 88 44 89 52 90 45 91 51 92 53 93 50 94 46 95 47 96 48 97
REMARK SMILES IDX 49 98
REMARK H PARENT 9 6 14 32 73 51 41 62
REMARK Flexibility Score: inf
ROOT
ATOM      1  C   UNL A   1      35.541  21.364  25.853  1.00  0.00     0.023 C 
ENDROOT
BRANCH   1   2
ATOM      2  C   UNL A   1      35.418  20.132  24.952  1.00  0.00     0.116 C 
BRANCH   2   3
ATOM      3  N   UNL A   1      34.202  19.397  25.257  1.00  0.00    -0.352 N 
ATOM      4  C   UNL A   1      32.872  19.731  25.184  1.00  0.00     0.251 C 
ATOM      5  O   UNL A   1      32.039  18.881  25.498  1.00  0.00    -0.269 OA
ATOM      6  H   UNL A   1      34.363  18.481  25.580  1.00  0.00     0.163 HD
BRANCH   4   7
ATOM      7  C   UNL A   1      32.392  21.048  24.682  1.00  0.00     0.041 A 
ATOM      8  C   UNL A   1      31.681  23.562  23.607  1.00  0.00     0.138 A 
ATOM      9  C   UNL A   1      31.998  22.493  22.764  1.00  0.00     0.049 A 
ATOM     10  C   UNL A   1      31.636  23.348  24.982  1.00  0.00     0.125 A 
ATOM     11  C   UNL A   1      32.371  21.253  23.297  1.00  0.00     0.018 A 
ATOM     12  C   UNL A   1      31.948  22.078  25.505  1.00  0.00     0.039 A 
BRANCH   8  13
ATOM     13  O   UNL A   1      31.315  24.726  22.998  1.00  0.00    -0.495 OA
ATOM     14  C   UNL A   1      32.344  25.239  22.152  1.00  0.00     0.278 C 
ENDBRANCH   8  13
BRANCH  10  15
ATOM     15  S   UNL A   1      31.282  24.578  26.205  1.00  0.00     0.246 S 
ATOM     16  O   UNL A   1      30.025  25.181  25.809  1.00  0.00    -0.207 OA
ATOM     17  O   UNL A   1      31.408  23.904  27.482  1.00  0.00    -0.207 OA
BRANCH  15  18
ATOM     18  N   UNL A   1      32.467  25.795  26.147  1.00  0.00    -0.196 NA
ATOM     19  C   UNL A   1      33.818  25.356  25.740  1.00  0.00     0.125 C 
BRANCH  18  20
ATOM     20  C   UNL A   1      32.007  27.033  25.441  1.00  0.00     0.137 C 
BRANCH  20  21
ATOM     21  C   UNL A   1      32.540  28.332  26.006  1.00  0.00    -0.030 A 
ATOM     22  C   UNL A   1      33.810  28.388  26.605  1.00  0.00     0.005 A 
ATOM     23  C   UNL A   1      31.730  29.475  26.045  1.00  0.00     0.044 A 
ATOM     24  C   UNL A   1      34.228  29.539  27.281  1.00  0.00     0.003 A 
ATOM     25  C   UNL A   1      32.144  30.603  26.742  1.00  0.00     0.123 A 
ATOM     26  C   UNL A   1      33.382  30.643  27.368  1.00  0.00     0.039 A 
ATOM     27  F   UNL A   1      31.319  31.655  26.833  1.00  0.00    -0.207 F 
ENDBRANCH  20  21
ENDBRANCH  18  20
ENDBRANCH  15  18
ENDBRANCH  10  15
ENDBRANCH   4   7
ENDBRANCH   2   3
ENDBRANCH   1   2
BRANCH   1  28
ATOM     28  C   UNL A   1      35.766  22.672  25.085  1.00  0.00     0.023 C 
BRANCH  28  29
ATOM     29  C   UNL A   1      37.123  23.328  25.325  1.00  0.00     0.116 C 
BRANCH  29  30
ATOM     30  N   UNL A   1      38.129  22.400  25.818  1.00  0.00    -0.352 N 
ATOM     31  C   UNL A   1      39.275  22.678  26.523  1.00  0.00     0.251 C 
ATOM     32  H   UNL A   1      37.967  21.449  25.620  1.00  0.00     0.163 HD
ATOM     33  O   UNL A   1      40.084  21.786  26.756  1.00  0.00    -0.269 OA
BRANCH  31  34
ATOM     34  C   UNL A   1      39.542  24.068  26.953  1.00  0.00     0.039 A 
ATOM     35  C   UNL A   1      39.251  24.431  28.269  1.00  0.00     0.014 A 
ATOM     36  C   UNL A   1      40.108  24.994  26.072  1.00  0.00     0.014 A 
ATOM     37  C   UNL A   1      39.589  25.708  28.722  1.00  0.00     0.010 A 
ATOM     38  C   UNL A   1      40.507  26.241  26.545  1.00  0.00     0.010 A 
ATOM     39  C   UNL A   1      40.254  26.610  27.875  1.00  0.00    -0.014 A 
BRANCH  39  40
ATOM     40  C   UNL A   1      40.690  27.943  28.366  1.00  0.00     0.031 A 
ATOM     41  C   UNL A   1      42.156  28.256  28.494  1.00  0.00     0.074 A 
ATOM     42  C   UNL A   1      39.767  28.847  28.747  1.00  0.00     0.049 A 
ATOM     43  N   UNL A   1      42.734  29.334  28.958  1.00  0.00    -0.248 NA
ATOM     44  C   UNL A   1      43.093  27.206  28.070  1.00  0.00     0.031 C 
ATOM     45  C   UNL A   1      38.317  28.641  28.709  1.00  0.00     0.029 A 
ATOM     46  N   UNL A   1      39.906  30.118  29.245  1.00  0.00    -0.354 N 
ATOM     47  C   UNL A   1      44.102  29.090  28.889  1.00  0.00     0.074 A 
ATOM     48  C   UNL A   1      44.260  27.735  28.404  1.00  0.00     0.031 C 
ATOM     49  C   UNL A   1      37.703  29.755  29.138  1.00  0.00     0.029 A 
ATOM     50  C   UNL A   1      38.710  30.738  29.524  1.00  0.00     0.049 A 
ATOM     51  H   UNL A   1      40.782  30.546  29.391  1.00  0.00     0.167 HD
ATOM     52  C   UNL A   1      45.131  29.926  29.177  1.00  0.00     0.034 A 
ATOM     53  C   UNL A   1      38.454  31.957  30.039  1.00  0.00     0.034 A 
ATOM     54  C   UNL A   1      44.954  31.277  29.657  1.00  0.00     0.049 A 
ATOM     55  C   UNL A   1      39.612  32.860  30.377  1.00  0.00     0.074 A 
ATOM     56  C   UNL A   1      45.921  32.223  29.945  1.00  0.00     0.029 A 
ATOM     57  N   UNL A   1      43.726  31.870  29.928  1.00  0.00    -0.354 N 
ATOM     58  N   UNL A   1      40.900  32.630  30.266  1.00  0.00    -0.248 NA
ATOM     59  C   UNL A   1      39.281  34.193  30.896  1.00  0.00     0.031 C 
ATOM     60  C   UNL A   1      45.285  33.363  30.449  1.00  0.00     0.029 A 
ATOM     61  C   UNL A   1      43.915  33.160  30.403  1.00  0.00     0.049 A 
ATOM     62  H   UNL A   1      42.851  31.439  29.800  1.00  0.00     0.167 HD
ATOM     63  C   UNL A   1      41.531  33.803  30.675  1.00  0.00     0.074 A 
ATOM     64  C   UNL A   1      40.481  34.740  31.017  1.00  0.00     0.031 C 
ATOM     65  C   UNL A   1      42.858  34.080  30.755  1.00  0.00     0.034 A 
BRANCH  52  66
ATOM     66  C   UNL A   1      46.531  29.389  28.999  1.00  0.00     0.023 A 
ATOM     67  C   UNL A   1      47.056  29.110  27.724  1.00  0.00     0.031 A 
ATOM     68  C   UNL A   1      47.342  29.117  30.115  1.00  0.00     0.131 A 
ATOM     69  C   UNL A   1      48.315  28.504  27.600  1.00  0.00     0.055 A 
ATOM     70  C   UNL A   1      48.629  28.594  29.980  1.00  0.00     0.041 A 
ATOM     71  F   UNL A   1      46.890  29.342  31.359  1.00  0.00    -0.206 F 
ATOM     72  C   UNL A   1      49.116  28.268  28.719  1.00  0.00     0.022 A 
BRANCH  69  73
ATOM     73  S   UNL A   1      48.822  27.889  25.970  1.00  0.00     0.124 S 
ATOM     74  O   UNL A   1      48.542  26.461  26.095  1.00  0.00    -0.237 OA
ATOM     75  O   UNL A   1      47.955  28.634  25.067  1.00  0.00    -0.237 OA
ATOM     76  O   UNL A   1      50.241  28.233  25.902  1.00  0.00    -0.744 OA
ENDBRANCH  69  73
ENDBRANCH  52  66
BRANCH  53  77
ATOM     77  C   UNL A   1      37.049  32.395  30.274  1.00  0.00     0.023 A 
ATOM     78  C   UNL A   1      36.323  33.062  29.274  1.00  0.00     0.031 A 
ATOM     79  C   UNL A   1      36.421  32.185  31.515  1.00  0.00     0.131 A 
ATOM     80  C   UNL A   1      35.030  33.534  29.546  1.00  0.00     0.055 A 
ATOM     81  C   UNL A   1      35.115  32.610  31.763  1.00  0.00     0.041 A 
ATOM     82  F   UNL A   1      37.068  31.547  32.503  1.00  0.00    -0.206 F 
ATOM     83  C   UNL A   1      34.416  33.301  30.778  1.00  0.00     0.022 A 
BRANCH  80  84
ATOM     84  S   UNL A   1      34.186  34.531  28.286  1.00  0.00     0.124 S 
ATOM     85  O   UNL A   1      34.410  35.885  28.780  1.00  0.00    -0.237 OA
ATOM     86  O   UNL A   1      34.910  34.161  27.073  1.00  0.00    -0.237 OA
ATOM     87  O   UNL A   1      32.803  34.063  28.351  1.00  0.00    -0.744 OA
ENDBRANCH  80  84
ENDBRANCH  53  77
BRANCH  65  88
ATOM     88  C   UNL A   1      43.240  35.475  31.191  1.00  0.00     0.023 A 
ATOM     89  C   UNL A   1      43.434  36.514  30.266  1.00  0.00     0.031 A 
ATOM     90  C   UNL A   1      43.427  35.761  32.555  1.00  0.00     0.131 A 
ATOM     91  C   UNL A   1      43.860  37.775  30.710  1.00  0.00     0.055 A 
ATOM     92  C   UNL A   1      43.790  37.034  32.996  1.00  0.00     0.041 A 
ATOM     93  F   UNL A   1      43.259  34.804  33.484  1.00  0.00    -0.206 F 
ATOM     94  C   UNL A   1      44.022  38.046  32.070  1.00  0.00     0.022 A 
BRANCH  91  95
ATOM     95  S   UNL A   1      44.295  39.032  29.476  1.00  0.00     0.124 S 
ATOM     96  O   UNL A   1      42.994  39.610  29.159  1.00  0.00    -0.237 OA
ATOM     97  O   UNL A   1      45.212  39.893  30.218  1.00  0.00    -0.237 OA
ATOM     98  O   UNL A   1      44.909  38.258  28.399  1.00  0.00    -0.744 OA
ENDBRANCH  91  95
ENDBRANCH  65  88
ENDBRANCH  39  40
ENDBRANCH  31  34
ENDBRANCH  29  30
ENDBRANCH  28  29
ENDBRANCH   1  28
TORSDOF 19
ENDMDL
