MODEL 1
REMARK VINA RESULT:     -11.0      0.000      0.000
REMARK SMILES CN(CC(C)(C)O)C(=O)N1CCCC[C@H]1CC(=O)NCCCCNC(=O)c1ccc(-c2c3nc(c(-c4cc(S(=O)(=O)[O-])ccc4F)c4ccc([nH]4)c(-c4cc(S(=O)(=O)[O-])ccc4F)c4nc(c(-c5cc(S(=O)(=O)[O-])ccc5F)c5ccc2[nH]5)C=C4)C=C3)cc1
REMARK SMILES IDX 20 1 19 2 17 3 18 4 16 6 15 7 10 8 11 9 12 10 14 11 13 12
REMARK SMILES IDX 8 13 9 14 2 15 1 16 3 17 4 18 5 19 6 20 7 21 21 23 22 24
REMARK SMILES IDX 23 25 24 26 25 27 26 29 27 30 28 31 89 32 29 33 88 34 30 35
REMARK SMILES IDX 31 36 32 37 82 38 33 39 87 40 81 41 83 42 34 43 86 44 80 45
REMARK SMILES IDX 79 46 35 48 67 49 47 50 66 51 48 52 51 53 65 54 84 55 49 56
REMARK SMILES IDX 50 57 64 59 85 60 52 61 36 62 37 63 45 64 38 65 44 66 46 67
REMARK SMILES IDX 43 68 39 69 40 70 41 71 42 72 68 73 69 74 77 75 70 76 76 77
REMARK SMILES IDX 78 78 75 79 71 80 72 81 73 82 74 83 53 84 54 85 62 86 55 87
REMARK SMILES IDX 61 88 63 89 60 90 56 91 57 92 58 93 59 94
REMARK H PARENT 19 5 7 22 24 28 83 47 51 58
REMARK Flexibility Score: inf
ROOT
ATOM      1  C   UNL A   1      31.806  28.391  26.323  1.00  0.00     0.116 C 
ENDROOT
BRANCH   1   2
ATOM      2  N   UNL A   1      31.679  27.122  27.018  1.00  0.00    -0.356 N 
ATOM      3  C   UNL A   1      31.663  25.858  26.512  1.00  0.00     0.222 C 
ATOM      4  O   UNL A   1      31.459  24.916  27.281  1.00  0.00    -0.275 OA
ATOM      5  H   UNL A   1      31.592  27.186  27.996  1.00  0.00     0.163 HD
BRANCH   3   6
ATOM      6  C   UNL A   1      31.865  25.608  25.033  1.00  0.00     0.125 C 
BRANCH   6   7
ATOM      7  C   UNL A   1      33.280  25.101  24.670  1.00  0.00     0.096 C 
ATOM      8  N   UNL A   1      33.398  23.640  24.513  1.00  0.00    -0.321 N 
ATOM      9  C   UNL A   1      32.629  23.095  23.377  1.00  0.00     0.121 C 
ATOM     10  C   UNL A   1      33.017  23.742  22.053  1.00  0.00     0.022 C 
ATOM     11  C   UNL A   1      33.766  25.754  23.354  1.00  0.00     0.026 C 
ATOM     12  C   UNL A   1      32.968  25.265  22.144  1.00  0.00     0.004 C 
BRANCH   8  13
ATOM     13  C   UNL A   1      34.396  22.814  25.019  1.00  0.00     0.320 C 
ATOM     14  O   UNL A   1      35.577  23.086  24.764  1.00  0.00    -0.248 OA
BRANCH  13  15
ATOM     15  N   UNL A   1      34.111  21.628  25.694  1.00  0.00    -0.325 N 
ATOM     16  C   UNL A   1      34.222  21.756  27.151  1.00  0.00     0.148 C 
BRANCH  15  17
ATOM     17  C   UNL A   1      34.152  20.231  25.220  1.00  0.00     0.155 C 
BRANCH  17  18
ATOM     18  C   UNL A   1      32.774  19.559  24.936  1.00  0.00     0.077 C 
ATOM     19  C   UNL A   1      32.484  19.328  23.453  1.00  0.00     0.043 C 
ATOM     20  C   UNL A   1      32.711  18.219  25.679  1.00  0.00     0.043 C 
BRANCH  18  21
ATOM     21  O   UNL A   1      31.705  20.362  25.451  1.00  0.00    -0.389 OA
ATOM     22  H   UNL A   1      31.883  20.579  26.380  1.00  0.00     0.211 HD
ENDBRANCH  18  21
ENDBRANCH  17  18
ENDBRANCH  15  17
ENDBRANCH  13  15
ENDBRANCH   8  13
ENDBRANCH   6   7
ENDBRANCH   3   6
ENDBRANCH   1   2
BRANCH   1  23
ATOM     23  C   UNL A   1      32.615  29.397  27.137  1.00  0.00     0.023 C 
BRANCH  23  24
ATOM     24  C   UNL A   1      32.395  30.859  26.801  1.00  0.00     0.023 C 
BRANCH  24  25
ATOM     25  C   UNL A   1      33.252  31.815  27.607  1.00  0.00     0.116 C 
BRANCH  25  26
ATOM     26  N   UNL A   1      32.761  33.188  27.639  1.00  0.00    -0.352 N 
ATOM     27  C   UNL A   1      33.211  34.219  28.435  1.00  0.00     0.251 C 
ATOM     28  H   UNL A   1      32.024  33.402  27.021  1.00  0.00     0.163 HD
ATOM     29  O   UNL A   1      32.672  35.321  28.400  1.00  0.00    -0.269 OA
BRANCH  27  30
ATOM     30  C   UNL A   1      34.314  33.937  29.376  1.00  0.00     0.039 A 
ATOM     31  C   UNL A   1      34.066  33.144  30.496  1.00  0.00     0.014 A 
ATOM     32  C   UNL A   1      35.615  34.323  29.049  1.00  0.00     0.014 A 
ATOM     33  C   UNL A   1      35.144  32.659  31.239  1.00  0.00     0.010 A 
ATOM     34  C   UNL A   1      36.682  33.736  29.709  1.00  0.00     0.010 A 
ATOM     35  C   UNL A   1      36.463  32.904  30.818  1.00  0.00    -0.014 A 
BRANCH  35  36
ATOM     36  C   UNL A   1      37.634  32.334  31.534  1.00  0.00     0.031 A 
ATOM     37  C   UNL A   1      38.415  31.217  30.890  1.00  0.00     0.074 A 
ATOM     38  C   UNL A   1      37.940  32.751  32.779  1.00  0.00     0.049 A 
ATOM     39  N   UNL A   1      39.380  30.486  31.385  1.00  0.00    -0.248 NA
ATOM     40  C   UNL A   1      38.013  30.834  29.528  1.00  0.00     0.031 C 
ATOM     41  C   UNL A   1      37.219  33.779  33.533  1.00  0.00     0.029 A 
ATOM     42  N   UNL A   1      38.936  32.354  33.637  1.00  0.00    -0.354 N 
ATOM     43  C   UNL A   1      39.673  29.539  30.408  1.00  0.00     0.074 A 
ATOM     44  C   UNL A   1      38.723  29.736  29.334  1.00  0.00     0.031 C 
ATOM     45  C   UNL A   1      37.819  33.958  34.721  1.00  0.00     0.029 A 
ATOM     46  C   UNL A   1      38.937  33.028  34.836  1.00  0.00     0.049 A 
ATOM     47  H   UNL A   1      39.588  31.651  33.414  1.00  0.00     0.167 HD
ATOM     48  C   UNL A   1      40.665  28.617  30.388  1.00  0.00     0.034 A 
ATOM     49  C   UNL A   1      39.745  32.904  35.908  1.00  0.00     0.034 A 
ATOM     50  C   UNL A   1      41.631  28.471  31.448  1.00  0.00     0.049 A 
ATOM     51  C   UNL A   1      40.859  31.888  35.858  1.00  0.00     0.074 A 
ATOM     52  C   UNL A   1      42.722  27.624  31.510  1.00  0.00     0.029 A 
ATOM     53  N   UNL A   1      41.622  29.197  32.633  1.00  0.00    -0.354 N 
ATOM     54  N   UNL A   1      41.157  31.034  34.904  1.00  0.00    -0.248 NA
ATOM     55  C   UNL A   1      41.751  31.824  37.022  1.00  0.00     0.031 C 
ATOM     56  C   UNL A   1      43.340  27.797  32.754  1.00  0.00     0.029 A 
ATOM     57  C   UNL A   1      42.677  28.802  33.440  1.00  0.00     0.049 A 
ATOM     58  H   UNL A   1      40.964  29.891  32.865  1.00  0.00     0.167 HD
ATOM     59  C   UNL A   1      42.291  30.356  35.343  1.00  0.00     0.074 A 
ATOM     60  C   UNL A   1      42.629  30.910  36.638  1.00  0.00     0.031 C 
ATOM     61  C   UNL A   1      42.992  29.367  34.731  1.00  0.00     0.034 A 
BRANCH  48  62
ATOM     62  C   UNL A   1      40.736  27.701  29.190  1.00  0.00     0.023 A 
ATOM     63  C   UNL A   1      41.681  27.896  28.165  1.00  0.00     0.031 A 
ATOM     64  C   UNL A   1      39.813  26.652  29.037  1.00  0.00     0.131 A 
ATOM     65  C   UNL A   1      41.620  27.126  26.996  1.00  0.00     0.055 A 
ATOM     66  C   UNL A   1      39.818  25.825  27.911  1.00  0.00     0.041 A 
ATOM     67  F   UNL A   1      38.873  26.427  29.968  1.00  0.00    -0.206 F 
ATOM     68  C   UNL A   1      40.712  26.072  26.873  1.00  0.00     0.022 A 
BRANCH  65  69
ATOM     69  S   UNL A   1      42.628  27.631  25.575  1.00  0.00     0.124 S 
ATOM     70  O   UNL A   1      43.910  27.919  26.215  1.00  0.00    -0.237 OA
ATOM     71  O   UNL A   1      42.591  26.448  24.724  1.00  0.00    -0.237 OA
ATOM     72  O   UNL A   1      41.924  28.800  25.053  1.00  0.00    -0.744 OA
ENDBRANCH  65  69
ENDBRANCH  48  62
BRANCH  49  73
ATOM     73  C   UNL A   1      39.548  33.760  37.113  1.00  0.00     0.023 A 
ATOM     74  C   UNL A   1      38.885  33.268  38.249  1.00  0.00     0.031 A 
ATOM     75  C   UNL A   1      39.985  35.097  37.136  1.00  0.00     0.131 A 
ATOM     76  C   UNL A   1      38.634  34.116  39.339  1.00  0.00     0.055 A 
ATOM     77  C   UNL A   1      39.779  35.922  38.243  1.00  0.00     0.041 A 
ATOM     78  F   UNL A   1      40.632  35.618  36.080  1.00  0.00    -0.206 F 
ATOM     79  C   UNL A   1      39.087  35.437  39.348  1.00  0.00     0.022 A 
BRANCH  76  80
ATOM     80  S   UNL A   1      37.632  33.490  40.715  1.00  0.00     0.124 S 
ATOM     81  O   UNL A   1      37.223  34.726  41.372  1.00  0.00    -0.237 OA
ATOM     82  O   UNL A   1      36.582  32.757  40.015  1.00  0.00    -0.237 OA
ATOM     83  O   UNL A   1      38.570  32.661  41.469  1.00  0.00    -0.744 OA
ENDBRANCH  76  80
ENDBRANCH  49  73
BRANCH  61  84
ATOM     84  C   UNL A   1      44.221  28.861  35.442  1.00  0.00     0.023 A 
ATOM     85  C   UNL A   1      44.156  27.818  36.382  1.00  0.00     0.031 A 
ATOM     86  C   UNL A   1      45.476  29.435  35.174  1.00  0.00     0.131 A 
ATOM     87  C   UNL A   1      45.316  27.418  37.060  1.00  0.00     0.055 A 
ATOM     88  C   UNL A   1      46.637  28.991  35.809  1.00  0.00     0.041 A 
ATOM     89  F   UNL A   1      45.596  30.435  34.285  1.00  0.00    -0.206 F 
ATOM     90  C   UNL A   1      46.559  27.985  36.768  1.00  0.00     0.022 A 
BRANCH  87  91
ATOM     91  S   UNL A   1      45.165  26.201  38.397  1.00  0.00     0.124 S 
ATOM     92  O   UNL A   1      46.549  25.772  38.575  1.00  0.00    -0.237 OA
ATOM     93  O   UNL A   1      44.600  26.997  39.482  1.00  0.00    -0.237 OA
ATOM     94  O   UNL A   1      44.269  25.189  37.840  1.00  0.00    -0.744 OA
ENDBRANCH  87  91
ENDBRANCH  61  84
ENDBRANCH  35  36
ENDBRANCH  27  30
ENDBRANCH  25  26
ENDBRANCH  24  25
ENDBRANCH  23  24
ENDBRANCH   1  23
TORSDOF 20
ENDMDL
MODEL 2
REMARK VINA RESULT:     -10.8      5.853     11.159
REMARK SMILES CN(CC(C)(C)O)C(=O)N1CCCC[C@H]1CC(=O)NCCCCNC(=O)c1ccc(-c2c3nc(c(-c4cc(S(=O)(=O)[O-])ccc4F)c4ccc([nH]4)c(-c4cc(S(=O)(=O)[O-])ccc4F)c4nc(c(-c5cc(S(=O)(=O)[O-])ccc5F)c5ccc2[nH]5)C=C4)C=C3)cc1
REMARK SMILES IDX 20 1 19 2 17 3 18 4 16 6 15 7 10 8 11 9 12 10 14 11 13 12
REMARK SMILES IDX 8 13 9 14 2 15 1 16 3 17 4 18 5 19 6 20 7 21 21 23 22 24
REMARK SMILES IDX 23 25 24 26 25 27 26 29 27 30 28 31 89 32 29 33 88 34 30 35
REMARK SMILES IDX 31 36 32 37 82 38 33 39 87 40 81 41 83 42 34 43 86 44 80 45
REMARK SMILES IDX 79 46 35 48 67 49 47 50 66 51 48 52 51 53 65 54 84 55 49 56
REMARK SMILES IDX 50 57 64 59 85 60 52 61 36 62 37 63 45 64 38 65 44 66 46 67
REMARK SMILES IDX 43 68 39 69 40 70 41 71 42 72 68 73 69 74 77 75 70 76 76 77
REMARK SMILES IDX 78 78 75 79 71 80 72 81 73 82 74 83 53 84 54 85 62 86 55 87
REMARK SMILES IDX 61 88 63 89 60 90 56 91 57 92 58 93 59 94
REMARK H PARENT 19 5 7 22 24 28 83 47 51 58
REMARK Flexibility Score: inf
ROOT
ATOM      1  C   UNL A   1      35.524  23.653  24.232  1.00  0.00     0.116 C 
ENDROOT
BRANCH   1   2
ATOM      2  N   UNL A   1      34.642  23.947  23.118  1.00  0.00    -0.356 N 
ATOM      3  C   UNL A   1      33.320  24.275  23.125  1.00  0.00     0.222 C 
ATOM      4  O   UNL A   1      32.736  24.403  22.046  1.00  0.00    -0.275 OA
ATOM      5  H   UNL A   1      35.060  23.902  22.228  1.00  0.00     0.163 HD
BRANCH   3   6
ATOM      6  C   UNL A   1      32.569  24.456  24.427  1.00  0.00     0.125 C 
BRANCH   6   7
ATOM      7  C   UNL A   1      32.212  25.925  24.746  1.00  0.00     0.096 C 
ATOM      8  N   UNL A   1      31.360  26.592  23.745  1.00  0.00    -0.321 N 
ATOM      9  C   UNL A   1      30.006  26.016  23.629  1.00  0.00     0.121 C 
ATOM     10  C   UNL A   1      29.260  26.024  24.959  1.00  0.00     0.022 C 
ATOM     11  C   UNL A   1      31.491  26.021  26.112  1.00  0.00     0.026 C 
ATOM     12  C   UNL A   1      30.097  25.391  26.068  1.00  0.00     0.004 C 
BRANCH   8  13
ATOM     13  C   UNL A   1      31.522  27.867  23.213  1.00  0.00     0.320 C 
ATOM     14  O   UNL A   1      32.394  28.043  22.351  1.00  0.00    -0.248 OA
BRANCH  13  15
ATOM     15  N   UNL A   1      30.827  28.972  23.700  1.00  0.00    -0.325 N 
ATOM     16  C   UNL A   1      31.391  29.502  24.946  1.00  0.00     0.148 C 
BRANCH  15  17
ATOM     17  C   UNL A   1      29.439  29.410  23.449  1.00  0.00     0.155 C 
BRANCH  17  18
ATOM     18  C   UNL A   1      29.234  30.405  22.267  1.00  0.00     0.077 C 
ATOM     19  C   UNL A   1      28.036  30.081  21.375  1.00  0.00     0.043 C 
ATOM     20  C   UNL A   1      29.075  31.822  22.833  1.00  0.00     0.043 C 
BRANCH  18  21
ATOM     21  O   UNL A   1      30.391  30.431  21.422  1.00  0.00    -0.389 OA
ATOM     22  H   UNL A   1      31.114  30.889  21.878  1.00  0.00     0.211 HD
ENDBRANCH  18  21
ENDBRANCH  17  18
ENDBRANCH  15  17
ENDBRANCH  13  15
ENDBRANCH   8  13
ENDBRANCH   6   7
ENDBRANCH   3   6
ENDBRANCH   1   2
BRANCH   1  23
ATOM     23  C   UNL A   1      36.741  22.847  23.786  1.00  0.00     0.023 C 
BRANCH  23  24
ATOM     24  C   UNL A   1      36.799  21.407  24.261  1.00  0.00     0.023 C 
BRANCH  24  25
ATOM     25  C   UNL A   1      37.423  21.232  25.631  1.00  0.00     0.116 C 
BRANCH  25  26
ATOM     26  N   UNL A   1      38.486  20.236  25.689  1.00  0.00    -0.352 N 
ATOM     27  C   UNL A   1      39.756  20.396  26.200  1.00  0.00     0.251 C 
ATOM     28  H   UNL A   1      38.271  19.348  25.322  1.00  0.00     0.163 HD
ATOM     29  O   UNL A   1      40.576  19.486  26.140  1.00  0.00    -0.269 OA
BRANCH  27  30
ATOM     30  C   UNL A   1      40.116  21.714  26.761  1.00  0.00     0.039 A 
ATOM     31  C   UNL A   1      41.072  21.784  27.773  1.00  0.00     0.014 A 
ATOM     32  C   UNL A   1      39.624  22.876  26.162  1.00  0.00     0.014 A 
ATOM     33  C   UNL A   1      41.606  23.027  28.122  1.00  0.00     0.010 A 
ATOM     34  C   UNL A   1      40.249  24.086  26.418  1.00  0.00     0.010 A 
ATOM     35  C   UNL A   1      41.240  24.181  27.408  1.00  0.00    -0.014 A 
BRANCH  35  36
ATOM     36  C   UNL A   1      41.849  25.506  27.691  1.00  0.00     0.031 A 
ATOM     37  C   UNL A   1      41.052  26.532  28.456  1.00  0.00     0.074 A 
ATOM     38  C   UNL A   1      43.064  25.818  27.195  1.00  0.00     0.049 A 
ATOM     39  N   UNL A   1      41.329  27.787  28.698  1.00  0.00    -0.248 NA
ATOM     40  C   UNL A   1      39.741  26.100  28.964  1.00  0.00     0.031 C 
ATOM     41  C   UNL A   1      43.904  24.933  26.385  1.00  0.00     0.029 A 
ATOM     42  N   UNL A   1      43.802  26.971  27.292  1.00  0.00    -0.354 N 
ATOM     43  C   UNL A   1      40.213  28.298  29.354  1.00  0.00     0.074 A 
ATOM     44  C   UNL A   1      39.226  27.241  29.390  1.00  0.00     0.031 C 
ATOM     45  C   UNL A   1      45.055  25.560  26.095  1.00  0.00     0.029 A 
ATOM     46  C   UNL A   1      45.019  26.907  26.654  1.00  0.00     0.049 A 
ATOM     47  H   UNL A   1      43.489  27.771  27.774  1.00  0.00     0.167 HD
ATOM     48  C   UNL A   1      40.040  29.522  29.910  1.00  0.00     0.034 A 
ATOM     49  C   UNL A   1      45.992  27.832  26.531  1.00  0.00     0.034 A 
ATOM     50  C   UNL A   1      41.056  30.544  29.905  1.00  0.00     0.049 A 
ATOM     51  C   UNL A   1      45.791  29.180  27.176  1.00  0.00     0.074 A 
ATOM     52  C   UNL A   1      41.026  31.794  30.496  1.00  0.00     0.029 A 
ATOM     53  N   UNL A   1      42.292  30.429  29.279  1.00  0.00    -0.354 N 
ATOM     54  N   UNL A   1      44.750  29.633  27.840  1.00  0.00    -0.248 NA
ATOM     55  C   UNL A   1      46.896  30.139  27.067  1.00  0.00     0.031 C 
ATOM     56  C   UNL A   1      42.217  32.456  30.181  1.00  0.00     0.029 A 
ATOM     57  C   UNL A   1      43.022  31.594  29.453  1.00  0.00     0.049 A 
ATOM     58  H   UNL A   1      42.603  29.637  28.785  1.00  0.00     0.167 HD
ATOM     59  C   UNL A   1      45.092  30.917  28.253  1.00  0.00     0.074 A 
ATOM     60  C   UNL A   1      46.438  31.160  27.776  1.00  0.00     0.031 C 
ATOM     61  C   UNL A   1      44.363  31.815  28.964  1.00  0.00     0.034 A 
BRANCH  48  62
ATOM     62  C   UNL A   1      38.704  29.808  30.552  1.00  0.00     0.023 A 
ATOM     63  C   UNL A   1      37.699  30.527  29.878  1.00  0.00     0.031 A 
ATOM     64  C   UNL A   1      38.446  29.407  31.875  1.00  0.00     0.131 A 
ATOM     65  C   UNL A   1      36.533  30.909  30.556  1.00  0.00     0.055 A 
ATOM     66  C   UNL A   1      37.241  29.708  32.513  1.00  0.00     0.041 A 
ATOM     67  F   UNL A   1      39.371  28.737  32.579  1.00  0.00    -0.206 F 
ATOM     68  C   UNL A   1      36.284  30.480  31.861  1.00  0.00     0.022 A 
BRANCH  65  69
ATOM     69  S   UNL A   1      35.430  32.112  29.765  1.00  0.00     0.124 S 
ATOM     70  O   UNL A   1      34.480  32.387  30.841  1.00  0.00    -0.237 OA
ATOM     71  O   UNL A   1      36.339  33.198  29.422  1.00  0.00    -0.237 OA
ATOM     72  O   UNL A   1      34.877  31.375  28.630  1.00  0.00    -0.744 OA
ENDBRANCH  65  69
ENDBRANCH  48  62
BRANCH  49  73
ATOM     73  C   UNL A   1      47.243  27.526  25.779  1.00  0.00     0.023 A 
ATOM     74  C   UNL A   1      47.345  27.796  24.405  1.00  0.00     0.031 A 
ATOM     75  C   UNL A   1      48.344  26.922  26.414  1.00  0.00     0.131 A 
ATOM     76  C   UNL A   1      48.500  27.422  23.699  1.00  0.00     0.055 A 
ATOM     77  C   UNL A   1      49.510  26.598  25.718  1.00  0.00     0.041 A 
ATOM     78  F   UNL A   1      48.303  26.648  27.728  1.00  0.00    -0.206 F 
ATOM     79  C   UNL A   1      49.588  26.835  24.349  1.00  0.00     0.022 A 
BRANCH  76  80
ATOM     80  S   UNL A   1      48.526  27.639  21.899  1.00  0.00     0.124 S 
ATOM     81  O   UNL A   1      49.649  28.553  21.725  1.00  0.00    -0.237 OA
ATOM     82  O   UNL A   1      48.734  26.272  21.432  1.00  0.00    -0.237 OA
ATOM     83  O   UNL A   1      47.210  28.201  21.604  1.00  0.00    -0.744 OA
ENDBRANCH  76  80
ENDBRANCH  49  73
BRANCH  61  84
ATOM     84  C   UNL A   1      45.033  33.122  29.306  1.00  0.00     0.023 A 
ATOM     85  C   UNL A   1      44.873  34.266  28.508  1.00  0.00     0.031 A 
ATOM     86  C   UNL A   1      45.846  33.218  30.450  1.00  0.00     0.131 A 
ATOM     87  C   UNL A   1      45.560  35.444  28.833  1.00  0.00     0.055 A 
ATOM     88  C   UNL A   1      46.479  34.411  30.801  1.00  0.00     0.041 A 
ATOM     89  F   UNL A   1      46.033  32.154  31.248  1.00  0.00    -0.206 F 
ATOM     90  C   UNL A   1      46.348  35.529  29.983  1.00  0.00     0.022 A 
BRANCH  87  91
ATOM     91  S   UNL A   1      45.479  36.844  27.682  1.00  0.00     0.124 S 
ATOM     92  O   UNL A   1      44.622  36.319  26.624  1.00  0.00    -0.237 OA
ATOM     93  O   UNL A   1      44.896  37.896  28.510  1.00  0.00    -0.237 OA
ATOM     94  O   UNL A   1      46.874  37.057  27.302  1.00  0.00    -0.744 OA
ENDBRANCH  87  91
ENDBRANCH  61  84
ENDBRANCH  35  36
ENDBRANCH  27  30
ENDBRANCH  25  26
ENDBRANCH  24  25
ENDBRANCH  23  24
ENDBRANCH   1  23
TORSDOF 20
ENDMDL
MODEL 3
REMARK VINA RESULT:     -10.6      2.231      7.692
REMARK SMILES CN(CC(C)(C)O)C(=O)N1CCCC[C@H]1CC(=O)NCCCCNC(=O)c1ccc(-c2c3nc(c(-c4cc(S(=O)(=O)[O-])ccc4F)c4ccc([nH]4)c(-c4cc(S(=O)(=O)[O-])ccc4F)c4nc(c(-c5cc(S(=O)(=O)[O-])ccc5F)c5ccc2[nH]5)C=C4)C=C3)cc1
REMARK SMILES IDX 20 1 19 2 17 3 18 4 16 6 15 7 10 8 11 9 12 10 14 11 13 12
REMARK SMILES IDX 8 13 9 14 2 15 1 16 3 17 4 18 5 19 6 20 7 21 21 23 22 24
REMARK SMILES IDX 23 25 24 26 25 27 26 29 27 30 28 31 89 32 29 33 88 34 30 35
REMARK SMILES IDX 31 36 32 37 82 38 33 39 87 40 81 41 83 42 34 43 86 44 80 45
REMARK SMILES IDX 79 46 35 48 67 49 47 50 66 51 48 52 51 53 65 54 84 55 49 56
REMARK SMILES IDX 50 57 64 59 85 60 52 61 36 62 37 63 45 64 38 65 44 66 46 67
REMARK SMILES IDX 43 68 39 69 40 70 41 71 42 72 68 73 69 74 77 75 70 76 76 77
REMARK SMILES IDX 78 78 75 79 71 80 72 81 73 82 74 83 53 84 54 85 62 86 55 87
REMARK SMILES IDX 61 88 63 89 60 90 56 91 57 92 58 93 59 94
REMARK H PARENT 19 5 7 22 24 28 83 47 51 58
REMARK Flexibility Score: inf
ROOT
ATOM      1  C   UNL A   1      34.261  29.337  27.335  1.00  0.00     0.116 C 
ENDROOT
BRANCH   1   2
ATOM      2  N   UNL A   1      33.048  28.797  27.921  1.00  0.00    -0.356 N 
ATOM      3  C   UNL A   1      32.032  28.111  27.326  1.00  0.00     0.222 C 
ATOM      4  O   UNL A   1      31.044  27.815  28.002  1.00  0.00    -0.275 OA
ATOM      5  H   UNL A   1      32.944  28.950  28.888  1.00  0.00     0.163 HD
BRANCH   3   6
ATOM      6  C   UNL A   1      32.096  27.739  25.861  1.00  0.00     0.125 C 
BRANCH   6   7
ATOM      7  C   UNL A   1      32.669  26.327  25.597  1.00  0.00     0.096 C 
ATOM      8  N   UNL A   1      31.695  25.227  25.709  1.00  0.00    -0.321 N 
ATOM      9  C   UNL A   1      30.626  25.266  24.692  1.00  0.00     0.121 C 
ATOM     10  C   UNL A   1      31.180  25.260  23.271  1.00  0.00     0.022 C 
ATOM     11  C   UNL A   1      33.296  26.255  24.184  1.00  0.00     0.026 C 
ATOM     12  C   UNL A   1      32.238  26.344  23.084  1.00  0.00     0.004 C 
BRANCH   8  13
ATOM     13  C   UNL A   1      31.867  24.009  26.358  1.00  0.00     0.320 C 
ATOM     14  O   UNL A   1      31.149  23.751  27.333  1.00  0.00    -0.248 OA
BRANCH  13  15
ATOM     15  N   UNL A   1      32.895  23.127  26.029  1.00  0.00    -0.325 N 
ATOM     16  C   UNL A   1      34.027  23.192  26.961  1.00  0.00     0.148 C 
BRANCH  15  17
ATOM     17  C   UNL A   1      33.231  22.496  24.738  1.00  0.00     0.155 C 
BRANCH  17  18
ATOM     18  C   UNL A   1      32.828  20.999  24.578  1.00  0.00     0.077 C 
ATOM     19  C   UNL A   1      32.268  20.645  23.200  1.00  0.00     0.043 C 
ATOM     20  C   UNL A   1      34.051  20.121  24.868  1.00  0.00     0.043 C 
BRANCH  18  21
ATOM     21  O   UNL A   1      31.830  20.639  25.540  1.00  0.00    -0.389 OA
ATOM     22  H   UNL A   1      31.887  19.689  25.725  1.00  0.00     0.211 HD
ENDBRANCH  18  21
ENDBRANCH  17  18
ENDBRANCH  15  17
ENDBRANCH  13  15
ENDBRANCH   8  13
ENDBRANCH   6   7
ENDBRANCH   3   6
ENDBRANCH   1   2
BRANCH   1  23
ATOM     23  C   UNL A   1      34.518  30.768  27.798  1.00  0.00     0.023 C 
BRANCH  23  24
ATOM     24  C   UNL A   1      33.351  31.729  27.676  1.00  0.00     0.023 C 
BRANCH  24  25
ATOM     25  C   UNL A   1      33.746  33.135  27.270  1.00  0.00     0.116 C 
BRANCH  25  26
ATOM     26  N   UNL A   1      33.020  34.192  27.963  1.00  0.00    -0.352 N 
ATOM     27  C   UNL A   1      33.297  34.723  29.204  1.00  0.00     0.251 C 
ATOM     28  H   UNL A   1      32.243  34.569  27.490  1.00  0.00     0.163 HD
ATOM     29  O   UNL A   1      32.570  35.579  29.698  1.00  0.00    -0.269 OA
BRANCH  27  30
ATOM     30  C   UNL A   1      34.454  34.183  29.946  1.00  0.00     0.039 A 
ATOM     31  C   UNL A   1      34.240  33.218  30.930  1.00  0.00     0.014 A 
ATOM     32  C   UNL A   1      35.748  34.517  29.544  1.00  0.00     0.014 A 
ATOM     33  C   UNL A   1      35.333  32.517  31.446  1.00  0.00     0.010 A 
ATOM     34  C   UNL A   1      36.812  33.733  29.962  1.00  0.00     0.010 A 
ATOM     35  C   UNL A   1      36.621  32.729  30.925  1.00  0.00    -0.014 A 
BRANCH  35  36
ATOM     36  C   UNL A   1      37.794  31.943  31.388  1.00  0.00     0.031 A 
ATOM     37  C   UNL A   1      38.378  32.228  32.747  1.00  0.00     0.074 A 
ATOM     38  C   UNL A   1      38.382  31.050  30.567  1.00  0.00     0.049 A 
ATOM     39  N   UNL A   1      39.471  31.763  33.296  1.00  0.00    -0.248 NA
ATOM     40  C   UNL A   1      37.666  33.212  33.575  1.00  0.00     0.031 C 
ATOM     41  C   UNL A   1      37.949  30.735  29.203  1.00  0.00     0.029 A 
ATOM     42  N   UNL A   1      39.479  30.246  30.755  1.00  0.00    -0.354 N 
ATOM     43  C   UNL A   1      39.591  32.426  34.514  1.00  0.00     0.074 A 
ATOM     44  C   UNL A   1      38.509  33.384  34.579  1.00  0.00     0.031 C 
ATOM     45  C   UNL A   1      38.745  29.780  28.696  1.00  0.00     0.029 A 
ATOM     46  C   UNL A   1      39.774  29.447  29.675  1.00  0.00     0.049 A 
ATOM     47  H   UNL A   1      40.006  30.243  31.587  1.00  0.00     0.167 HD
ATOM     48  C   UNL A   1      40.494  32.227  35.504  1.00  0.00     0.034 A 
ATOM     49  C   UNL A   1      40.766  28.551  29.495  1.00  0.00     0.034 A 
ATOM     50  C   UNL A   1      41.535  31.232  35.438  1.00  0.00     0.049 A 
ATOM     51  C   UNL A   1      41.748  28.328  30.618  1.00  0.00     0.074 A 
ATOM     52  C   UNL A   1      42.463  30.889  36.405  1.00  0.00     0.029 A 
ATOM     53  N   UNL A   1      41.780  30.415  34.342  1.00  0.00    -0.354 N 
ATOM     54  N   UNL A   1      41.818  28.924  31.787  1.00  0.00    -0.248 NA
ATOM     55  C   UNL A   1      42.778  27.304  30.404  1.00  0.00     0.031 C 
ATOM     56  C   UNL A   1      43.304  29.905  35.873  1.00  0.00     0.029 A 
ATOM     57  C   UNL A   1      42.858  29.583  34.601  1.00  0.00     0.049 A 
ATOM     58  H   UNL A   1      41.265  30.425  33.504  1.00  0.00     0.167 HD
ATOM     59  C   UNL A   1      42.880  28.324  32.458  1.00  0.00     0.074 A 
ATOM     60  C   UNL A   1      43.410  27.310  31.568  1.00  0.00     0.031 C 
ATOM     61  C   UNL A   1      43.372  28.582  33.696  1.00  0.00     0.034 A 
BRANCH  48  62
ATOM     62  C   UNL A   1      40.391  33.113  36.723  1.00  0.00     0.023 A 
ATOM     63  C   UNL A   1      41.265  34.198  36.925  1.00  0.00     0.031 A 
ATOM     64  C   UNL A   1      39.445  32.840  37.727  1.00  0.00     0.131 A 
ATOM     65  C   UNL A   1      41.244  34.901  38.136  1.00  0.00     0.055 A 
ATOM     66  C   UNL A   1      39.365  33.607  38.892  1.00  0.00     0.041 A 
ATOM     67  F   UNL A   1      38.597  31.806  37.605  1.00  0.00    -0.206 F 
ATOM     68  C   UNL A   1      40.280  34.632  39.111  1.00  0.00     0.022 A 
BRANCH  65  69
ATOM     69  S   UNL A   1      42.597  36.057  38.487  1.00  0.00     0.124 S 
ATOM     70  O   UNL A   1      42.528  36.947  37.330  1.00  0.00    -0.237 OA
ATOM     71  O   UNL A   1      42.195  36.637  39.763  1.00  0.00    -0.237 OA
ATOM     72  O   UNL A   1      43.778  35.199  38.534  1.00  0.00    -0.744 OA
ENDBRANCH  65  69
ENDBRANCH  48  62
BRANCH  49  73
ATOM     73  C   UNL A   1      40.883  27.792  28.217  1.00  0.00     0.023 A 
ATOM     74  C   UNL A   1      40.364  26.492  28.098  1.00  0.00     0.031 A 
ATOM     75  C   UNL A   1      41.551  28.337  27.106  1.00  0.00     0.131 A 
ATOM     76  C   UNL A   1      40.560  25.763  26.915  1.00  0.00     0.055 A 
ATOM     77  C   UNL A   1      41.699  27.627  25.912  1.00  0.00     0.041 A 
ATOM     78  F   UNL A   1      42.060  29.578  27.162  1.00  0.00    -0.206 F 
ATOM     79  C   UNL A   1      41.214  26.326  25.817  1.00  0.00     0.022 A 
BRANCH  76  80
ATOM     80  S   UNL A   1      40.019  24.033  26.860  1.00  0.00     0.124 S 
ATOM     81  O   UNL A   1      41.141  23.390  26.186  1.00  0.00    -0.237 OA
ATOM     82  O   UNL A   1      39.857  23.722  28.277  1.00  0.00    -0.237 OA
ATOM     83  O   UNL A   1      38.777  24.089  26.092  1.00  0.00    -0.744 OA
ENDBRANCH  76  80
ENDBRANCH  49  73
BRANCH  61  84
ATOM     84  C   UNL A   1      44.512  27.718  34.172  1.00  0.00     0.023 A 
ATOM     85  C   UNL A   1      44.295  26.451  34.738  1.00  0.00     0.031 A 
ATOM     86  C   UNL A   1      45.837  28.176  34.058  1.00  0.00     0.131 A 
ATOM     87  C   UNL A   1      45.381  25.707  35.219  1.00  0.00     0.055 A 
ATOM     88  C   UNL A   1      46.919  27.404  34.484  1.00  0.00     0.041 A 
ATOM     89  F   UNL A   1      46.102  29.380  33.525  1.00  0.00    -0.206 F 
ATOM     90  C   UNL A   1      46.693  26.167  35.080  1.00  0.00     0.022 A 
BRANCH  87  91
ATOM     91  S   UNL A   1      45.051  24.161  36.109  1.00  0.00     0.124 S 
ATOM     92  O   UNL A   1      45.546  24.469  37.447  1.00  0.00    -0.237 OA
ATOM     93  O   UNL A   1      43.602  24.031  35.980  1.00  0.00    -0.237 OA
ATOM     94  O   UNL A   1      45.830  23.168  35.372  1.00  0.00    -0.744 OA
ENDBRANCH  87  91
ENDBRANCH  61  84
ENDBRANCH  35  36
ENDBRANCH  27  30
ENDBRANCH  25  26
ENDBRANCH  24  25
ENDBRANCH  23  24
ENDBRANCH   1  23
TORSDOF 20
ENDMDL
