MODEL 1
REMARK VINA RESULT:     -11.4      0.000      0.000
REMARK SMILES CCCN1C(=O)CO[C@H](C(=O)NCCCCNC(=O)c2ccc(-c3c4nc(c(-c5cc(S(=O)(=O)[O-])ccc5F)c5ccc([nH]5)c(-c5cc(S(=O)(=O)[O-])ccc5F)c5nc(c(-c6cc(S(=O)(=O)[O-])ccc6F)c6ccc3[nH]6)C=C5)C=C4)cc2)[C@@H]1c1cncn1C1CC1
REMARK SMILES IDX 15 1 14 2 13 3 12 4 10 5 11 6 9 8 4 9 5 10 83 11 6 12 7 13
REMARK SMILES IDX 8 14 3 15 2 16 1 17 84 18 85 19 88 20 86 21 87 22 89 23
REMARK SMILES IDX 90 24 91 25 16 26 17 27 18 28 19 30 20 31 21 32 82 33 22 34
REMARK SMILES IDX 81 35 23 36 24 37 25 38 75 39 26 40 80 41 74 42 76 43 27 44
REMARK SMILES IDX 79 45 73 46 72 47 28 49 60 50 40 51 59 52 41 53 44 54 58 55
REMARK SMILES IDX 77 56 42 57 43 58 57 60 78 61 45 62 29 63 30 64 38 65 31 66
REMARK SMILES IDX 37 67 39 68 36 69 32 70 33 71 34 72 35 73 61 74 62 75 70 76
REMARK SMILES IDX 63 77 69 78 71 79 68 80 64 81 65 82 66 83 67 84 46 85 47 86
REMARK SMILES IDX 55 87 48 88 54 89 56 90 53 91 49 92 50 93 51 94 52 95
REMARK H PARENT 12 7 17 29 76 48 44 59
REMARK Flexibility Score: inf
ROOT
ATOM      1  C   UNL A   1      32.030  30.942  26.876  1.00  0.00     0.023 C 
ENDROOT
BRANCH   1   2
ATOM      2  C   UNL A   1      32.332  29.831  25.870  1.00  0.00     0.023 C 
BRANCH   2   3
ATOM      3  C   UNL A   1      31.895  28.433  26.283  1.00  0.00     0.116 C 
BRANCH   3   4
ATOM      4  N   UNL A   1      31.080  27.745  25.304  1.00  0.00    -0.354 N 
ATOM      5  C   UNL A   1      30.899  26.400  25.155  1.00  0.00     0.251 C 
ATOM      6  O   UNL A   1      29.962  26.017  24.446  1.00  0.00    -0.272 OA
ATOM      7  H   UNL A   1      30.597  28.318  24.666  1.00  0.00     0.163 HD
BRANCH   5   8
ATOM      8  C   UNL A   1      31.810  25.364  25.848  1.00  0.00     0.236 C 
ATOM      9  N   UNL A   1      33.996  24.093  25.783  1.00  0.00    -0.329 N 
ATOM     10  C   UNL A   1      33.497  23.289  26.808  1.00  0.00     0.249 C 
ATOM     11  C   UNL A   1      33.145  25.081  25.110  1.00  0.00     0.172 C 
ATOM     12  O   UNL A   1      34.191  22.474  27.417  1.00  0.00    -0.272 OA
ATOM     13  C   UNL A   1      32.016  23.479  27.186  1.00  0.00     0.261 C 
ATOM     14  O   UNL A   1      31.182  24.157  26.260  1.00  0.00    -0.356 OA
BRANCH   9  15
ATOM     15  C   UNL A   1      35.413  23.998  25.407  1.00  0.00     0.120 C 
BRANCH  15  16
ATOM     16  C   UNL A   1      35.772  22.755  24.594  1.00  0.00     0.018 C 
ATOM     17  C   UNL A   1      36.543  23.075  23.322  1.00  0.00     0.006 C 
ENDBRANCH  15  16
ENDBRANCH   9  15
BRANCH  11  18
ATOM     18  C   UNL A   1      33.071  24.892  23.615  1.00  0.00     0.064 A 
ATOM     19  C   UNL A   1      33.584  25.837  22.723  1.00  0.00     0.136 A 
ATOM     20  N   UNL A   1      32.588  23.897  22.771  1.00  0.00    -0.330 N 
ATOM     21  N   UNL A   1      33.434  25.473  21.425  1.00  0.00    -0.245 NA
ATOM     22  C   UNL A   1      32.852  24.304  21.480  1.00  0.00     0.199 A 
BRANCH  20  23
ATOM     23  C   UNL A   1      31.855  22.650  22.926  1.00  0.00     0.088 C 
ATOM     24  C   UNL A   1      32.082  21.334  22.232  1.00  0.00     0.027 C 
ATOM     25  C   UNL A   1      32.376  21.453  23.686  1.00  0.00     0.027 C 
ENDBRANCH  20  23
ENDBRANCH  11  18
ENDBRANCH   5   8
ENDBRANCH   3   4
ENDBRANCH   2   3
ENDBRANCH   1   2
BRANCH   1  26
ATOM     26  C   UNL A   1      33.200  31.847  27.254  1.00  0.00     0.116 C 
BRANCH  26  27
ATOM     27  N   UNL A   1      32.805  33.224  27.510  1.00  0.00    -0.352 N 
ATOM     28  C   UNL A   1      33.286  34.126  28.434  1.00  0.00     0.251 C 
ATOM     29  H   UNL A   1      32.083  33.564  26.933  1.00  0.00     0.163 HD
ATOM     30  O   UNL A   1      32.743  35.215  28.556  1.00  0.00    -0.269 OA
BRANCH  28  31
ATOM     31  C   UNL A   1      34.426  33.751  29.303  1.00  0.00     0.039 A 
ATOM     32  C   UNL A   1      34.194  32.907  30.392  1.00  0.00     0.014 A 
ATOM     33  C   UNL A   1      35.721  34.200  29.030  1.00  0.00     0.014 A 
ATOM     34  C   UNL A   1      35.273  32.437  31.147  1.00  0.00     0.010 A 
ATOM     35  C   UNL A   1      36.800  33.668  29.733  1.00  0.00     0.010 A 
ATOM     36  C   UNL A   1      36.590  32.772  30.792  1.00  0.00    -0.014 A 
BRANCH  36  37
ATOM     37  C   UNL A   1      37.757  32.179  31.503  1.00  0.00     0.031 A 
ATOM     38  C   UNL A   1      38.571  31.093  30.854  1.00  0.00     0.074 A 
ATOM     39  C   UNL A   1      38.038  32.568  32.764  1.00  0.00     0.049 A 
ATOM     40  N   UNL A   1      39.569  30.402  31.341  1.00  0.00    -0.248 NA
ATOM     41  C   UNL A   1      38.190  30.716  29.485  1.00  0.00     0.031 C 
ATOM     42  C   UNL A   1      37.294  33.575  33.525  1.00  0.00     0.029 A 
ATOM     43  N   UNL A   1      39.018  32.155  33.635  1.00  0.00    -0.354 N 
ATOM     44  C   UNL A   1      39.927  29.498  30.346  1.00  0.00     0.074 A 
ATOM     45  C   UNL A   1      38.995  29.690  29.255  1.00  0.00     0.031 C 
ATOM     46  C   UNL A   1      37.855  33.715  34.737  1.00  0.00     0.029 A 
ATOM     47  C   UNL A   1      38.968  32.780  34.860  1.00  0.00     0.049 A 
ATOM     48  H   UNL A   1      39.692  31.477  33.404  1.00  0.00     0.167 HD
ATOM     49  C   UNL A   1      40.951  28.607  30.334  1.00  0.00     0.034 A 
ATOM     50  C   UNL A   1      39.723  32.611  35.965  1.00  0.00     0.034 A 
ATOM     51  C   UNL A   1      41.879  28.433  31.426  1.00  0.00     0.049 A 
ATOM     52  C   UNL A   1      40.845  31.603  35.936  1.00  0.00     0.074 A 
ATOM     53  C   UNL A   1      42.986  27.605  31.494  1.00  0.00     0.029 A 
ATOM     54  N   UNL A   1      41.804  29.090  32.648  1.00  0.00    -0.354 N 
ATOM     55  N   UNL A   1      41.207  30.798  34.963  1.00  0.00    -0.248 NA
ATOM     56  C   UNL A   1      41.666  31.491  37.148  1.00  0.00     0.031 C 
ATOM     57  C   UNL A   1      43.538  27.710  32.776  1.00  0.00     0.029 A 
ATOM     58  C   UNL A   1      42.823  28.662  33.485  1.00  0.00     0.049 A 
ATOM     59  H   UNL A   1      41.124  29.762  32.885  1.00  0.00     0.167 HD
ATOM     60  C   UNL A   1      42.318  30.106  35.439  1.00  0.00     0.074 A 
ATOM     61  C   UNL A   1      42.573  30.599  36.776  1.00  0.00     0.031 C 
ATOM     62  C   UNL A   1      43.061  29.151  34.823  1.00  0.00     0.034 A 
BRANCH  49  63
ATOM     63  C   UNL A   1      41.098  27.738  29.106  1.00  0.00     0.023 A 
ATOM     64  C   UNL A   1      42.112  27.966  28.158  1.00  0.00     0.031 A 
ATOM     65  C   UNL A   1      40.194  26.689  28.861  1.00  0.00     0.131 A 
ATOM     66  C   UNL A   1      42.147  27.216  26.973  1.00  0.00     0.055 A 
ATOM     67  C   UNL A   1      40.286  25.889  27.719  1.00  0.00     0.041 A 
ATOM     68  F   UNL A   1      39.193  26.433  29.718  1.00  0.00    -0.206 F 
ATOM     69  C   UNL A   1      41.256  26.162  26.759  1.00  0.00     0.022 A 
BRANCH  66  70
ATOM     70  S   UNL A   1      43.272  27.738  25.651  1.00  0.00     0.124 S 
ATOM     71  O   UNL A   1      44.086  26.539  25.464  1.00  0.00    -0.237 OA
ATOM     72  O   UNL A   1      42.354  28.062  24.565  1.00  0.00    -0.237 OA
ATOM     73  O   UNL A   1      43.979  28.877  26.232  1.00  0.00    -0.744 OA
ENDBRANCH  66  70
ENDBRANCH  49  63
BRANCH  50  74
ATOM     74  C   UNL A   1      39.442  33.398  37.201  1.00  0.00     0.023 A 
ATOM     75  C   UNL A   1      40.080  34.626  37.438  1.00  0.00     0.031 A 
ATOM     76  C   UNL A   1      38.559  32.913  38.181  1.00  0.00     0.131 A 
ATOM     77  C   UNL A   1      39.863  35.305  38.648  1.00  0.00     0.055 A 
ATOM     78  C   UNL A   1      38.306  33.616  39.360  1.00  0.00     0.041 A 
ATOM     79  F   UNL A   1      37.918  31.747  38.001  1.00  0.00    -0.206 F 
ATOM     80  C   UNL A   1      38.970  34.815  39.604  1.00  0.00     0.022 A 
BRANCH  77  81
ATOM     81  S   UNL A   1      40.828  36.802  38.990  1.00  0.00     0.124 S 
ATOM     82  O   UNL A   1      39.790  37.825  39.016  1.00  0.00    -0.237 OA
ATOM     83  O   UNL A   1      41.444  36.478  40.272  1.00  0.00    -0.237 OA
ATOM     84  O   UNL A   1      41.752  36.876  37.859  1.00  0.00    -0.744 OA
ENDBRANCH  77  81
ENDBRANCH  50  74
BRANCH  62  85
ATOM     85  C   UNL A   1      44.251  28.614  35.582  1.00  0.00     0.023 A 
ATOM     86  C   UNL A   1      44.126  27.569  36.515  1.00  0.00     0.031 A 
ATOM     87  C   UNL A   1      45.527  29.170  35.379  1.00  0.00     0.131 A 
ATOM     88  C   UNL A   1      45.246  27.151  37.250  1.00  0.00     0.055 A 
ATOM     89  C   UNL A   1      46.648  28.708  36.069  1.00  0.00     0.041 A 
ATOM     90  F   UNL A   1      45.705  30.171  34.503  1.00  0.00    -0.206 F 
ATOM     91  C   UNL A   1      46.509  27.702  37.021  1.00  0.00     0.022 A 
BRANCH  88  92
ATOM     92  S   UNL A   1      45.014  25.939  38.580  1.00  0.00     0.124 S 
ATOM     93  O   UNL A   1      43.798  26.425  39.225  1.00  0.00    -0.237 OA
ATOM     94  O   UNL A   1      44.887  24.686  37.842  1.00  0.00    -0.237 OA
ATOM     95  O   UNL A   1      46.232  26.067  39.379  1.00  0.00    -0.744 OA
ENDBRANCH  88  92
ENDBRANCH  62  85
ENDBRANCH  36  37
ENDBRANCH  28  31
ENDBRANCH  26  27
ENDBRANCH   1  26
TORSDOF 18
ENDMDL
MODEL 2
REMARK VINA RESULT:     -11.3      1.690      2.096
REMARK SMILES CCCN1C(=O)CO[C@H](C(=O)NCCCCNC(=O)c2ccc(-c3c4nc(c(-c5cc(S(=O)(=O)[O-])ccc5F)c5ccc([nH]5)c(-c5cc(S(=O)(=O)[O-])ccc5F)c5nc(c(-c6cc(S(=O)(=O)[O-])ccc6F)c6ccc3[nH]6)C=C5)C=C4)cc2)[C@@H]1c1cncn1C1CC1
REMARK SMILES IDX 15 1 14 2 13 3 12 4 10 5 11 6 9 8 4 9 5 10 83 11 6 12 7 13
REMARK SMILES IDX 8 14 3 15 2 16 1 17 84 18 85 19 88 20 86 21 87 22 89 23
REMARK SMILES IDX 90 24 91 25 16 26 17 27 18 28 19 30 20 31 21 32 82 33 22 34
REMARK SMILES IDX 81 35 23 36 24 37 25 38 75 39 26 40 80 41 74 42 76 43 27 44
REMARK SMILES IDX 79 45 73 46 72 47 28 49 60 50 40 51 59 52 41 53 44 54 58 55
REMARK SMILES IDX 77 56 42 57 43 58 57 60 78 61 45 62 29 63 30 64 38 65 31 66
REMARK SMILES IDX 37 67 39 68 36 69 32 70 33 71 34 72 35 73 61 74 62 75 70 76
REMARK SMILES IDX 63 77 69 78 71 79 68 80 64 81 65 82 66 83 67 84 46 85 47 86
REMARK SMILES IDX 55 87 48 88 54 89 56 90 53 91 49 92 50 93 51 94 52 95
REMARK H PARENT 12 7 17 29 76 48 44 59
REMARK Flexibility Score: inf
ROOT
ATOM      1  C   UNL A   1      31.409  30.708  25.582  1.00  0.00     0.023 C 
ENDROOT
BRANCH   1   2
ATOM      2  C   UNL A   1      32.239  29.596  24.939  1.00  0.00     0.023 C 
BRANCH   2   3
ATOM      3  C   UNL A   1      32.129  28.229  25.599  1.00  0.00     0.116 C 
BRANCH   3   4
ATOM      4  N   UNL A   1      31.041  27.411  25.107  1.00  0.00    -0.354 N 
ATOM      5  C   UNL A   1      30.800  26.090  25.358  1.00  0.00     0.251 C 
ATOM      6  O   UNL A   1      29.684  25.642  25.075  1.00  0.00    -0.272 OA
ATOM      7  H   UNL A   1      30.393  27.863  24.520  1.00  0.00     0.163 HD
BRANCH   5   8
ATOM      8  C   UNL A   1      31.863  25.164  25.984  1.00  0.00     0.236 C 
ATOM      9  N   UNL A   1      34.198  24.205  25.812  1.00  0.00    -0.329 N 
ATOM     10  C   UNL A   1      33.844  23.303  26.816  1.00  0.00     0.249 C 
ATOM     11  C   UNL A   1      33.201  25.092  25.202  1.00  0.00     0.172 C 
ATOM     12  O   UNL A   1      34.660  22.569  27.373  1.00  0.00    -0.272 OA
ATOM     13  C   UNL A   1      32.363  23.276  27.239  1.00  0.00     0.261 C 
ATOM     14  O   UNL A   1      31.417  23.868  26.363  1.00  0.00    -0.356 OA
BRANCH   9  15
ATOM     15  C   UNL A   1      35.603  24.318  25.397  1.00  0.00     0.120 C 
BRANCH  15  16
ATOM     16  C   UNL A   1      36.189  23.044  24.787  1.00  0.00     0.018 C 
ATOM     17  C   UNL A   1      35.888  22.898  23.304  1.00  0.00     0.006 C 
ENDBRANCH  15  16
ENDBRANCH   9  15
BRANCH  11  18
ATOM     18  C   UNL A   1      33.108  24.949  23.703  1.00  0.00     0.064 A 
ATOM     19  C   UNL A   1      33.607  25.922  22.833  1.00  0.00     0.136 A 
ATOM     20  N   UNL A   1      32.614  23.981  22.835  1.00  0.00    -0.330 N 
ATOM     21  N   UNL A   1      33.440  25.598  21.527  1.00  0.00    -0.245 NA
ATOM     22  C   UNL A   1      32.860  24.428  21.553  1.00  0.00     0.199 A 
BRANCH  20  23
ATOM     23  C   UNL A   1      31.884  22.729  22.961  1.00  0.00     0.088 C 
ATOM     24  C   UNL A   1      32.163  21.407  22.297  1.00  0.00     0.027 C 
ATOM     25  C   UNL A   1      32.369  21.546  23.764  1.00  0.00     0.027 C 
ENDBRANCH  20  23
ENDBRANCH  11  18
ENDBRANCH   5   8
ENDBRANCH   3   4
ENDBRANCH   2   3
ENDBRANCH   1   2
BRANCH   1  26
ATOM     26  C   UNL A   1      31.869  31.184  26.958  1.00  0.00     0.116 C 
BRANCH  26  27
ATOM     27  N   UNL A   1      31.941  32.633  27.073  1.00  0.00    -0.352 N 
ATOM     28  C   UNL A   1      32.930  33.431  27.606  1.00  0.00     0.251 C 
ATOM     29  H   UNL A   1      31.163  33.118  26.712  1.00  0.00     0.163 HD
ATOM     30  O   UNL A   1      32.750  34.637  27.699  1.00  0.00    -0.269 OA
BRANCH  28  31
ATOM     31  C   UNL A   1      34.181  32.816  28.107  1.00  0.00     0.039 A 
ATOM     32  C   UNL A   1      35.338  33.597  28.168  1.00  0.00     0.014 A 
ATOM     33  C   UNL A   1      34.209  31.489  28.542  1.00  0.00     0.014 A 
ATOM     34  C   UNL A   1      36.495  33.077  28.757  1.00  0.00     0.010 A 
ATOM     35  C   UNL A   1      35.338  31.000  29.200  1.00  0.00     0.010 A 
ATOM     36  C   UNL A   1      36.489  31.792  29.324  1.00  0.00    -0.014 A 
BRANCH  36  37
ATOM     37  C   UNL A   1      37.669  31.270  30.068  1.00  0.00     0.031 A 
ATOM     38  C   UNL A   1      38.559  30.227  29.446  1.00  0.00     0.074 A 
ATOM     39  C   UNL A   1      37.898  31.682  31.332  1.00  0.00     0.049 A 
ATOM     40  N   UNL A   1      39.582  29.596  29.962  1.00  0.00    -0.248 NA
ATOM     41  C   UNL A   1      38.233  29.821  28.071  1.00  0.00     0.031 C 
ATOM     42  C   UNL A   1      37.080  32.650  32.068  1.00  0.00     0.029 A 
ATOM     43  N   UNL A   1      38.877  31.329  32.230  1.00  0.00    -0.354 N 
ATOM     44  C   UNL A   1      40.014  28.708  28.983  1.00  0.00     0.074 A 
ATOM     45  C   UNL A   1      39.099  28.841  27.869  1.00  0.00     0.031 C 
ATOM     46  C   UNL A   1      37.602  32.828  33.292  1.00  0.00     0.029 A 
ATOM     47  C   UNL A   1      38.762  31.957  33.449  1.00  0.00     0.049 A 
ATOM     48  H   UNL A   1      39.593  30.688  32.020  1.00  0.00     0.167 HD
ATOM     49  C   UNL A   1      41.085  27.875  29.002  1.00  0.00     0.034 A 
ATOM     50  C   UNL A   1      39.498  31.836  34.573  1.00  0.00     0.034 A 
ATOM     51  C   UNL A   1      41.994  27.759  30.118  1.00  0.00     0.049 A 
ATOM     52  C   UNL A   1      40.674  30.893  34.578  1.00  0.00     0.074 A 
ATOM     53  C   UNL A   1      43.144  26.995  30.219  1.00  0.00     0.029 A 
ATOM     54  N   UNL A   1      41.852  28.418  31.333  1.00  0.00    -0.354 N 
ATOM     55  N   UNL A   1      41.105  30.104  33.620  1.00  0.00    -0.248 NA
ATOM     56  C   UNL A   1      41.470  30.834  35.811  1.00  0.00     0.031 C 
ATOM     57  C   UNL A   1      43.657  27.138  31.513  1.00  0.00     0.029 A 
ATOM     58  C   UNL A   1      42.873  28.053  32.197  1.00  0.00     0.049 A 
ATOM     59  H   UNL A   1      41.131  29.053  31.549  1.00  0.00     0.167 HD
ATOM     60  C   UNL A   1      42.240  29.477  34.129  1.00  0.00     0.074 A 
ATOM     61  C   UNL A   1      42.434  29.992  35.467  1.00  0.00     0.031 C 
ATOM     62  C   UNL A   1      43.051  28.562  33.538  1.00  0.00     0.034 A 
BRANCH  49  63
ATOM     63  C   UNL A   1      41.310  27.008  27.784  1.00  0.00     0.023 A 
ATOM     64  C   UNL A   1      40.911  25.659  27.755  1.00  0.00     0.031 A 
ATOM     65  C   UNL A   1      41.962  27.525  26.651  1.00  0.00     0.131 A 
ATOM     66  C   UNL A   1      41.242  24.853  26.655  1.00  0.00     0.055 A 
ATOM     67  C   UNL A   1      42.212  26.739  25.523  1.00  0.00     0.041 A 
ATOM     68  F   UNL A   1      42.384  28.799  26.624  1.00  0.00    -0.206 F 
ATOM     69  C   UNL A   1      41.867  25.390  25.528  1.00  0.00     0.022 A 
BRANCH  66  70
ATOM     70  S   UNL A   1      40.982  23.064  26.785  1.00  0.00     0.124 S 
ATOM     71  O   UNL A   1      41.851  22.561  25.723  1.00  0.00    -0.237 OA
ATOM     72  O   UNL A   1      41.412  22.781  28.149  1.00  0.00    -0.237 OA
ATOM     73  O   UNL A   1      39.551  22.906  26.535  1.00  0.00    -0.744 OA
ENDBRANCH  66  70
ENDBRANCH  49  63
BRANCH  50  74
ATOM     74  C   UNL A   1      39.143  32.614  35.796  1.00  0.00     0.023 A 
ATOM     75  C   UNL A   1      39.591  33.933  35.971  1.00  0.00     0.031 A 
ATOM     76  C   UNL A   1      38.382  32.033  36.826  1.00  0.00     0.131 A 
ATOM     77  C   UNL A   1      39.315  34.612  37.169  1.00  0.00     0.055 A 
ATOM     78  C   UNL A   1      38.066  32.730  37.993  1.00  0.00     0.041 A 
ATOM     79  F   UNL A   1      37.924  30.777  36.706  1.00  0.00    -0.206 F 
ATOM     80  C   UNL A   1      38.544  34.025  38.174  1.00  0.00     0.022 A 
BRANCH  77  81
ATOM     81  S   UNL A   1      40.048  36.251  37.426  1.00  0.00     0.124 S 
ATOM     82  O   UNL A   1      39.914  36.848  36.103  1.00  0.00    -0.237 OA
ATOM     83  O   UNL A   1      39.192  36.804  38.471  1.00  0.00    -0.237 OA
ATOM     84  O   UNL A   1      41.417  35.949  37.841  1.00  0.00    -0.744 OA
ENDBRANCH  77  81
ENDBRANCH  50  74
BRANCH  62  85
ATOM     85  C   UNL A   1      44.250  28.097  34.329  1.00  0.00     0.023 A 
ATOM     86  C   UNL A   1      44.178  27.003  35.210  1.00  0.00     0.031 A 
ATOM     87  C   UNL A   1      45.479  28.770  34.210  1.00  0.00     0.131 A 
ATOM     88  C   UNL A   1      45.297  26.651  35.980  1.00  0.00     0.055 A 
ATOM     89  C   UNL A   1      46.605  28.376  34.932  1.00  0.00     0.041 A 
ATOM     90  F   UNL A   1      45.604  29.823  33.386  1.00  0.00    -0.206 F 
ATOM     91  C   UNL A   1      46.515  27.320  35.834  1.00  0.00     0.022 A 
BRANCH  88  92
ATOM     92  S   UNL A   1      45.116  25.363  37.245  1.00  0.00     0.124 S 
ATOM     93  O   UNL A   1      46.445  25.344  37.850  1.00  0.00    -0.237 OA
ATOM     94  O   UNL A   1      44.043  25.893  38.079  1.00  0.00    -0.237 OA
ATOM     95  O   UNL A   1      44.770  24.170  36.475  1.00  0.00    -0.744 OA
ENDBRANCH  88  92
ENDBRANCH  62  85
ENDBRANCH  36  37
ENDBRANCH  28  31
ENDBRANCH  26  27
ENDBRANCH   1  26
TORSDOF 18
ENDMDL
MODEL 3
REMARK VINA RESULT:     -11.3      5.524     11.179
REMARK SMILES CCCN1C(=O)CO[C@H](C(=O)NCCCCNC(=O)c2ccc(-c3c4nc(c(-c5cc(S(=O)(=O)[O-])ccc5F)c5ccc([nH]5)c(-c5cc(S(=O)(=O)[O-])ccc5F)c5nc(c(-c6cc(S(=O)(=O)[O-])ccc6F)c6ccc3[nH]6)C=C5)C=C4)cc2)[C@@H]1c1cncn1C1CC1
REMARK SMILES IDX 15 1 14 2 13 3 12 4 10 5 11 6 9 8 4 9 5 10 83 11 6 12 7 13
REMARK SMILES IDX 8 14 3 15 2 16 1 17 84 18 85 19 88 20 86 21 87 22 89 23
REMARK SMILES IDX 90 24 91 25 16 26 17 27 18 28 19 30 20 31 21 32 82 33 22 34
REMARK SMILES IDX 81 35 23 36 24 37 25 38 75 39 26 40 80 41 74 42 76 43 27 44
REMARK SMILES IDX 79 45 73 46 72 47 28 49 60 50 40 51 59 52 41 53 44 54 58 55
REMARK SMILES IDX 77 56 42 57 43 58 57 60 78 61 45 62 29 63 30 64 38 65 31 66
REMARK SMILES IDX 37 67 39 68 36 69 32 70 33 71 34 72 35 73 61 74 62 75 70 76
REMARK SMILES IDX 63 77 69 78 71 79 68 80 64 81 65 82 66 83 67 84 46 85 47 86
REMARK SMILES IDX 55 87 48 88 54 89 56 90 53 91 49 92 50 93 51 94 52 95
REMARK H PARENT 12 7 17 29 76 48 44 59
REMARK Flexibility Score: inf
ROOT
ATOM      1  C   UNL A   1      37.656  21.074  24.779  1.00  0.00     0.023 C 
ENDROOT
BRANCH   1   2
ATOM      2  C   UNL A   1      37.020  22.349  24.223  1.00  0.00     0.023 C 
BRANCH   2   3
ATOM      3  C   UNL A   1      35.728  22.786  24.898  1.00  0.00     0.116 C 
BRANCH   3   4
ATOM      4  N   UNL A   1      34.524  22.427  24.178  1.00  0.00    -0.354 N 
ATOM      5  C   UNL A   1      33.737  23.228  23.401  1.00  0.00     0.251 C 
ATOM      6  O   UNL A   1      32.915  22.683  22.656  1.00  0.00    -0.272 OA
ATOM      7  H   UNL A   1      34.237  21.489  24.260  1.00  0.00     0.163 HD
BRANCH   5   8
ATOM      8  C   UNL A   1      33.853  24.766  23.420  1.00  0.00     0.236 C 
ATOM      9  N   UNL A   1      33.588  26.891  24.769  1.00  0.00    -0.329 N 
ATOM     10  C   UNL A   1      33.732  27.601  23.577  1.00  0.00     0.249 C 
ATOM     11  C   UNL A   1      33.472  25.427  24.771  1.00  0.00     0.172 C 
ATOM     12  O   UNL A   1      33.866  28.825  23.541  1.00  0.00    -0.272 OA
ATOM     13  C   UNL A   1      33.751  26.782  22.273  1.00  0.00     0.261 C 
ATOM     14  O   UNL A   1      33.260  25.451  22.325  1.00  0.00    -0.356 OA
BRANCH   9  15
ATOM     15  C   UNL A   1      33.613  27.606  26.051  1.00  0.00     0.120 C 
BRANCH  15  16
ATOM     16  C   UNL A   1      32.394  28.491  26.309  1.00  0.00     0.018 C 
ATOM     17  C   UNL A   1      31.641  28.116  27.577  1.00  0.00     0.006 C 
ENDBRANCH  15  16
ENDBRANCH   9  15
BRANCH  11  18
ATOM     18  C   UNL A   1      32.220  24.925  25.447  1.00  0.00     0.064 A 
ATOM     19  C   UNL A   1      32.262  24.202  26.642  1.00  0.00     0.136 A 
ATOM     20  N   UNL A   1      30.857  25.011  25.183  1.00  0.00    -0.330 N 
ATOM     21  N   UNL A   1      31.031  23.857  27.093  1.00  0.00    -0.245 NA
ATOM     22  C   UNL A   1      30.208  24.365  26.214  1.00  0.00     0.199 A 
BRANCH  20  23
ATOM     23  C   UNL A   1      30.024  25.526  24.107  1.00  0.00     0.088 C 
ATOM     24  C   UNL A   1      28.825  26.432  24.198  1.00  0.00     0.027 C 
ATOM     25  C   UNL A   1      30.086  26.945  23.597  1.00  0.00     0.027 C 
ENDBRANCH  20  23
ENDBRANCH  11  18
ENDBRANCH   5   8
ENDBRANCH   3   4
ENDBRANCH   2   3
ENDBRANCH   1   2
BRANCH   1  26
ATOM     26  C   UNL A   1      38.816  21.267  25.753  1.00  0.00     0.116 C 
BRANCH  26  27
ATOM     27  N   UNL A   1      39.674  20.098  25.867  1.00  0.00    -0.352 N 
ATOM     28  C   UNL A   1      41.022  20.012  26.144  1.00  0.00     0.251 C 
ATOM     29  H   UNL A   1      39.222  19.234  25.727  1.00  0.00     0.163 HD
ATOM     30  O   UNL A   1      41.581  18.926  26.095  1.00  0.00    -0.269 OA
BRANCH  28  31
ATOM     31  C   UNL A   1      41.789  21.241  26.451  1.00  0.00     0.039 A 
ATOM     32  C   UNL A   1      42.215  22.052  25.395  1.00  0.00     0.014 A 
ATOM     33  C   UNL A   1      42.061  21.612  27.770  1.00  0.00     0.014 A 
ATOM     34  C   UNL A   1      42.825  23.280  25.666  1.00  0.00     0.010 A 
ATOM     35  C   UNL A   1      42.597  22.871  28.038  1.00  0.00     0.010 A 
ATOM     36  C   UNL A   1      42.975  23.723  26.990  1.00  0.00    -0.014 A 
BRANCH  36  37
ATOM     37  C   UNL A   1      43.505  25.082  27.295  1.00  0.00     0.031 A 
ATOM     38  C   UNL A   1      42.601  26.139  27.868  1.00  0.00     0.074 A 
ATOM     39  C   UNL A   1      44.783  25.384  26.988  1.00  0.00     0.049 A 
ATOM     40  N   UNL A   1      42.855  27.396  28.126  1.00  0.00    -0.248 NA
ATOM     41  C   UNL A   1      41.218  25.733  28.160  1.00  0.00     0.031 C 
ATOM     42  C   UNL A   1      45.748  24.463  26.381  1.00  0.00     0.029 A 
ATOM     43  N   UNL A   1      45.490  26.554  27.130  1.00  0.00    -0.354 N 
ATOM     44  C   UNL A   1      41.663  27.937  28.596  1.00  0.00     0.074 A 
ATOM     45  C   UNL A   1      40.673  26.883  28.526  1.00  0.00     0.031 C 
ATOM     46  C   UNL A   1      46.922  25.097  26.223  1.00  0.00     0.029 A 
ATOM     47  C   UNL A   1      46.786  26.478  26.672  1.00  0.00     0.049 A 
ATOM     48  H   UNL A   1      45.105  27.370  27.522  1.00  0.00     0.167 HD
ATOM     49  C   UNL A   1      41.422  29.187  29.064  1.00  0.00     0.034 A 
ATOM     50  C   UNL A   1      47.752  27.416  26.607  1.00  0.00     0.034 A 
ATOM     51  C   UNL A   1      42.422  30.226  29.137  1.00  0.00     0.049 A 
ATOM     52  C   UNL A   1      47.458  28.805  27.117  1.00  0.00     0.074 A 
ATOM     53  C   UNL A   1      42.301  31.506  29.650  1.00  0.00     0.029 A 
ATOM     54  N   UNL A   1      43.727  30.109  28.674  1.00  0.00    -0.354 N 
ATOM     55  N   UNL A   1      46.340  29.282  27.616  1.00  0.00    -0.248 NA
ATOM     56  C   UNL A   1      48.558  29.776  27.068  1.00  0.00     0.031 C 
ATOM     57  C   UNL A   1      43.507  32.183  29.436  1.00  0.00     0.029 A 
ATOM     58  C   UNL A   1      44.409  31.303  28.860  1.00  0.00     0.049 A 
ATOM     59  H   UNL A   1      44.111  29.297  28.272  1.00  0.00     0.167 HD
ATOM     60  C   UNL A   1      46.615  30.602  27.965  1.00  0.00     0.074 A 
ATOM     61  C   UNL A   1      48.005  30.837  27.636  1.00  0.00     0.031 C 
ATOM     62  C   UNL A   1      45.792  31.533  28.514  1.00  0.00     0.034 A 
BRANCH  49  63
ATOM     63  C   UNL A   1      40.011  29.501  29.509  1.00  0.00     0.023 A 
ATOM     64  C   UNL A   1      39.669  29.590  30.871  1.00  0.00     0.031 A 
ATOM     65  C   UNL A   1      38.987  29.679  28.562  1.00  0.00     0.131 A 
ATOM     66  C   UNL A   1      38.330  29.764  31.248  1.00  0.00     0.055 A 
ATOM     67  C   UNL A   1      37.668  29.939  28.944  1.00  0.00     0.041 A 
ATOM     68  F   UNL A   1      39.245  29.588  27.248  1.00  0.00    -0.206 F 
ATOM     69  C   UNL A   1      37.331  29.965  30.294  1.00  0.00     0.022 A 
BRANCH  66  70
ATOM     70  S   UNL A   1      37.892  29.570  32.997  1.00  0.00     0.124 S 
ATOM     71  O   UNL A   1      36.872  30.605  33.163  1.00  0.00    -0.237 OA
ATOM     72  O   UNL A   1      37.418  28.192  33.053  1.00  0.00    -0.237 OA
ATOM     73  O   UNL A   1      39.148  29.827  33.696  1.00  0.00    -0.744 OA
ENDBRANCH  66  70
ENDBRANCH  49  63
BRANCH  50  74
ATOM     74  C   UNL A   1      49.086  27.088  26.026  1.00  0.00     0.023 A 
ATOM     75  C   UNL A   1      49.420  27.470  24.717  1.00  0.00     0.031 A 
ATOM     76  C   UNL A   1      50.033  26.352  26.760  1.00  0.00     0.131 A 
ATOM     77  C   UNL A   1      50.649  27.075  24.164  1.00  0.00     0.055 A 
ATOM     78  C   UNL A   1      51.274  26.006  26.225  1.00  0.00     0.041 A 
ATOM     79  F   UNL A   1      49.766  25.967  28.018  1.00  0.00    -0.206 F 
ATOM     80  C   UNL A   1      51.583  26.357  24.914  1.00  0.00     0.022 A 
BRANCH  77  81
ATOM     81  S   UNL A   1      50.976  27.445  22.419  1.00  0.00     0.124 S 
ATOM     82  O   UNL A   1      49.852  26.790  21.760  1.00  0.00    -0.237 OA
ATOM     83  O   UNL A   1      50.963  28.904  22.412  1.00  0.00    -0.237 OA
ATOM     84  O   UNL A   1      52.283  26.834  22.181  1.00  0.00    -0.744 OA
ENDBRANCH  77  81
ENDBRANCH  50  74
BRANCH  62  85
ATOM     85  C   UNL A   1      46.398  32.879  28.832  1.00  0.00     0.023 A 
ATOM     86  C   UNL A   1      46.368  33.941  27.911  1.00  0.00     0.031 A 
ATOM     87  C   UNL A   1      47.027  33.095  30.071  1.00  0.00     0.131 A 
ATOM     88  C   UNL A   1      47.006  35.152  28.220  1.00  0.00     0.055 A 
ATOM     89  C   UNL A   1      47.607  34.322  30.396  1.00  0.00     0.041 A 
ATOM     90  F   UNL A   1      47.088  32.116  30.986  1.00  0.00    -0.206 F 
ATOM     91  C   UNL A   1      47.610  35.354  29.464  1.00  0.00     0.022 A 
BRANCH  88  92
ATOM     92  S   UNL A   1      47.118  36.432  26.939  1.00  0.00     0.124 S 
ATOM     93  O   UNL A   1      45.812  37.075  27.037  1.00  0.00    -0.237 OA
ATOM     94  O   UNL A   1      48.256  37.227  27.389  1.00  0.00    -0.237 OA
ATOM     95  O   UNL A   1      47.343  35.671  25.710  1.00  0.00    -0.744 OA
ENDBRANCH  88  92
ENDBRANCH  62  85
ENDBRANCH  36  37
ENDBRANCH  28  31
ENDBRANCH  26  27
ENDBRANCH   1  26
TORSDOF 18
ENDMDL
