MODEL 1
REMARK VINA RESULT:     -11.6      0.000      0.000
REMARK SMILES O=C(CCCN1C(=O)/C(=C/c2cc(Br)ccc2O)SC1=S)NCCCCNC(=O)c1ccc(-c2c3nc(c(-c4cc(S(=O)(=O)[O-])ccc4F)c4ccc([nH]4)c(-c4cc(S(=O)(=O)[O-])ccc4F)c4nc(c(-c5cc(S(=O)(=O)[O-])ccc5F)c5ccc2[nH]5)C=C4)C=C3)cc1
REMARK SMILES IDX 23 1 22 2 1 3 2 4 3 6 4 7 5 8 6 9 7 10 20 11 8 12 9 13 19 14
REMARK SMILES IDX 21 15 10 16 11 17 12 18 17 19 13 20 16 21 14 22 15 23 18 24
REMARK SMILES IDX 24 26 25 27 26 28 27 29 28 30 29 32 30 33 31 34 92 35 32 36
REMARK SMILES IDX 91 37 33 38 34 39 35 40 85 41 36 42 90 43 84 44 86 45 37 46
REMARK SMILES IDX 89 47 83 48 82 49 38 51 70 52 50 53 69 54 51 55 54 56 68 57
REMARK SMILES IDX 87 58 52 59 53 60 67 62 88 63 55 64 39 65 40 66 48 67 41 68
REMARK SMILES IDX 47 69 49 70 46 71 42 72 43 73 44 74 45 75 71 76 72 77 80 78
REMARK SMILES IDX 73 79 79 80 81 81 78 82 74 83 75 84 76 85 77 86 56 87 57 88
REMARK SMILES IDX 65 89 58 90 64 91 66 92 63 93 59 94 60 95 61 96 62 97
REMARK H PARENT 22 5 18 25 27 31 86 50 54 61
REMARK Flexibility Score: inf
ROOT
ATOM      1  C   UNL A   1      34.633  29.598  27.085  1.00  0.00     0.116 C 
ENDROOT
BRANCH   1   2
ATOM      2  N   UNL A   1      33.668  29.649  26.005  1.00  0.00    -0.356 N 
ATOM      3  O   UNL A   1      31.861  28.864  27.169  1.00  0.00    -0.275 OA
ATOM      4  C   UNL A   1      32.342  29.319  26.136  1.00  0.00     0.220 C 
ATOM      5  H   UNL A   1      33.985  29.939  25.118  1.00  0.00     0.163 HD
BRANCH   4   6
ATOM      6  C   UNL A   1      31.503  29.537  24.881  1.00  0.00     0.102 C 
BRANCH   6   7
ATOM      7  C   UNL A   1      32.121  29.029  23.572  1.00  0.00     0.032 C 
BRANCH   7   8
ATOM      8  C   UNL A   1      31.634  27.704  22.961  1.00  0.00     0.128 C 
BRANCH   8   9
ATOM      9  N   UNL A   1      32.178  26.439  23.490  1.00  0.00    -0.293 N 
ATOM     10  C   UNL A   1      33.287  25.888  22.839  1.00  0.00     0.266 C 
ATOM     11  C   UNL A   1      31.818  25.802  24.661  1.00  0.00     0.148 C 
ATOM     12  O   UNL A   1      33.758  26.260  21.776  1.00  0.00    -0.268 OA
ATOM     13  C   UNL A   1      33.823  24.740  23.619  1.00  0.00     0.081 C 
ATOM     14  S   UNL A   1      33.055  24.676  25.151  1.00  0.00    -0.054 SA
ATOM     15  S   UNL A   1      30.463  25.937  25.614  1.00  0.00    -0.052 S 
ATOM     16  C   UNL A   1      34.715  23.853  23.157  1.00  0.00     0.033 C 
BRANCH  16  17
ATOM     17  C   UNL A   1      35.039  22.632  23.914  1.00  0.00     0.019 A 
ATOM     18  C   UNL A   1      34.063  21.653  24.119  1.00  0.00     0.027 A 
ATOM     19  C   UNL A   1      36.360  22.381  24.336  1.00  0.00     0.122 A 
ATOM     20  C   UNL A   1      34.419  20.444  24.722  1.00  0.00     0.018 A 
ATOM     21  C   UNL A   1      36.717  21.159  24.902  1.00  0.00     0.048 A 
ATOM     22  Br  UNL A   1      33.103  19.138  25.068  1.00  0.00    -0.051 Br
ATOM     23  C   UNL A   1      35.740  20.185  25.089  1.00  0.00     0.019 A 
BRANCH  19  24
ATOM     24  O   UNL A   1      37.318  23.345  24.149  1.00  0.00    -0.507 OA
ATOM     25  H   UNL A   1      38.203  23.097  23.966  1.00  0.00     0.293 HD
ENDBRANCH  19  24
ENDBRANCH  16  17
ENDBRANCH   8   9
ENDBRANCH   7   8
ENDBRANCH   6   7
ENDBRANCH   4   6
ENDBRANCH   1   2
BRANCH   1  26
ATOM     26  C   UNL A   1      34.545  30.827  27.995  1.00  0.00     0.023 C 
BRANCH  26  27
ATOM     27  C   UNL A   1      34.108  32.136  27.325  1.00  0.00     0.023 C 
BRANCH  27  28
ATOM     28  C   UNL A   1      32.707  32.631  27.660  1.00  0.00     0.116 C 
BRANCH  28  29
ATOM     29  N   UNL A   1      32.661  34.063  27.881  1.00  0.00    -0.352 N 
ATOM     30  C   UNL A   1      33.410  34.853  28.721  1.00  0.00     0.251 C 
ATOM     31  H   UNL A   1      31.988  34.544  27.348  1.00  0.00     0.163 HD
ATOM     32  O   UNL A   1      33.079  36.025  28.884  1.00  0.00    -0.269 OA
BRANCH  30  33
ATOM     33  C   UNL A   1      34.582  34.305  29.449  1.00  0.00     0.039 A 
ATOM     34  C   UNL A   1      34.360  33.598  30.634  1.00  0.00     0.014 A 
ATOM     35  C   UNL A   1      35.890  34.502  28.999  1.00  0.00     0.014 A 
ATOM     36  C   UNL A   1      35.437  33.039  31.329  1.00  0.00     0.010 A 
ATOM     37  C   UNL A   1      36.956  33.877  29.649  1.00  0.00     0.010 A 
ATOM     38  C   UNL A   1      36.744  33.136  30.822  1.00  0.00    -0.014 A 
BRANCH  38  39
ATOM     39  C   UNL A   1      37.888  32.470  31.506  1.00  0.00     0.031 A 
ATOM     40  C   UNL A   1      38.591  31.305  30.861  1.00  0.00     0.074 A 
ATOM     41  C   UNL A   1      38.271  32.887  32.730  1.00  0.00     0.049 A 
ATOM     42  N   UNL A   1      39.555  30.554  31.332  1.00  0.00    -0.248 NA
ATOM     43  C   UNL A   1      38.132  30.920  29.519  1.00  0.00     0.031 C 
ATOM     44  C   UNL A   1      37.659  33.990  33.473  1.00  0.00     0.029 A 
ATOM     45  N   UNL A   1      39.261  32.434  33.570  1.00  0.00    -0.354 N 
ATOM     46  C   UNL A   1      39.815  29.606  30.348  1.00  0.00     0.074 A 
ATOM     47  C   UNL A   1      38.859  29.838  29.285  1.00  0.00     0.031 C 
ATOM     48  C   UNL A   1      38.307  34.149  34.638  1.00  0.00     0.029 A 
ATOM     49  C   UNL A   1      39.337  33.123  34.759  1.00  0.00     0.049 A 
ATOM     50  H   UNL A   1      39.860  31.688  33.341  1.00  0.00     0.167 HD
ATOM     51  C   UNL A   1      40.775  28.648  30.322  1.00  0.00     0.034 A 
ATOM     52  C   UNL A   1      40.127  32.937  35.838  1.00  0.00     0.034 A 
ATOM     53  C   UNL A   1      41.724  28.429  31.388  1.00  0.00     0.049 A 
ATOM     54  C   UNL A   1      41.138  31.817  35.816  1.00  0.00     0.074 A 
ATOM     55  C   UNL A   1      42.761  27.513  31.444  1.00  0.00     0.029 A 
ATOM     56  N   UNL A   1      41.746  29.123  32.592  1.00  0.00    -0.354 N 
ATOM     57  N   UNL A   1      41.394  30.951  34.861  1.00  0.00    -0.248 NA
ATOM     58  C   UNL A   1      41.970  31.650  37.015  1.00  0.00     0.031 C 
ATOM     59  C   UNL A   1      43.357  27.598  32.707  1.00  0.00     0.029 A 
ATOM     60  C   UNL A   1      42.754  28.630  33.409  1.00  0.00     0.049 A 
ATOM     61  H   UNL A   1      41.136  29.857  32.831  1.00  0.00     0.167 HD
ATOM     62  C   UNL A   1      42.446  30.167  35.331  1.00  0.00     0.074 A 
ATOM     63  C   UNL A   1      42.781  30.669  36.648  1.00  0.00     0.031 C 
ATOM     64  C   UNL A   1      43.080  29.131  34.725  1.00  0.00     0.034 A 
BRANCH  51  65
ATOM     65  C   UNL A   1      40.826  27.746  29.109  1.00  0.00     0.023 A 
ATOM     66  C   UNL A   1      41.770  27.941  28.084  1.00  0.00     0.031 A 
ATOM     67  C   UNL A   1      39.908  26.692  28.962  1.00  0.00     0.131 A 
ATOM     68  C   UNL A   1      41.721  27.150  26.926  1.00  0.00     0.055 A 
ATOM     69  C   UNL A   1      39.923  25.851  27.847  1.00  0.00     0.041 A 
ATOM     70  F   UNL A   1      38.969  26.468  29.894  1.00  0.00    -0.206 F 
ATOM     71  C   UNL A   1      40.823  26.088  26.813  1.00  0.00     0.022 A 
BRANCH  68  72
ATOM     72  S   UNL A   1      42.744  27.631  25.507  1.00  0.00     0.124 S 
ATOM     73  O   UNL A   1      42.651  26.443  24.661  1.00  0.00    -0.237 OA
ATOM     74  O   UNL A   1      42.060  28.821  25.014  1.00  0.00    -0.237 OA
ATOM     75  O   UNL A   1      44.060  27.865  26.096  1.00  0.00    -0.744 OA
ENDBRANCH  68  72
ENDBRANCH  51  65
BRANCH  52  76
ATOM     76  C   UNL A   1      39.973  33.800  37.047  1.00  0.00     0.023 A 
ATOM     77  C   UNL A   1      39.506  33.284  38.266  1.00  0.00     0.031 A 
ATOM     78  C   UNL A   1      40.251  35.178  36.985  1.00  0.00     0.131 A 
ATOM     79  C   UNL A   1      39.281  34.144  39.353  1.00  0.00     0.055 A 
ATOM     80  C   UNL A   1      40.082  36.019  38.086  1.00  0.00     0.041 A 
ATOM     81  F   UNL A   1      40.716  35.720  35.849  1.00  0.00    -0.206 F 
ATOM     82  C   UNL A   1      39.578  35.506  39.274  1.00  0.00     0.022 A 
BRANCH  79  83
ATOM     83  S   UNL A   1      38.509  33.474  40.851  1.00  0.00     0.124 S 
ATOM     84  O   UNL A   1      37.341  34.336  40.995  1.00  0.00    -0.237 OA
ATOM     85  O   UNL A   1      38.244  32.093  40.460  1.00  0.00    -0.237 OA
ATOM     86  O   UNL A   1      39.541  33.644  41.871  1.00  0.00    -0.744 OA
ENDBRANCH  79  83
ENDBRANCH  52  76
BRANCH  64  87
ATOM     87  C   UNL A   1      44.248  28.512  35.458  1.00  0.00     0.023 A 
ATOM     88  C   UNL A   1      44.079  27.463  36.378  1.00  0.00     0.031 A 
ATOM     89  C   UNL A   1      45.553  28.989  35.235  1.00  0.00     0.131 A 
ATOM     90  C   UNL A   1      45.187  26.968  37.085  1.00  0.00     0.055 A 
ATOM     91  C   UNL A   1      46.659  28.446  35.889  1.00  0.00     0.041 A 
ATOM     92  F   UNL A   1      45.775  29.993  34.371  1.00  0.00    -0.206 F 
ATOM     93  C   UNL A   1      46.478  27.439  36.832  1.00  0.00     0.022 A 
BRANCH  90  94
ATOM     94  S   UNL A   1      44.907  25.768  38.416  1.00  0.00     0.124 S 
ATOM     95  O   UNL A   1      44.179  26.567  39.397  1.00  0.00    -0.237 OA
ATOM     96  O   UNL A   1      44.135  24.728  37.744  1.00  0.00    -0.237 OA
ATOM     97  O   UNL A   1      46.257  25.376  38.815  1.00  0.00    -0.744 OA
ENDBRANCH  90  94
ENDBRANCH  64  87
ENDBRANCH  38  39
ENDBRANCH  30  33
ENDBRANCH  28  29
ENDBRANCH  27  28
ENDBRANCH  26  27
ENDBRANCH   1  26
TORSDOF 19
ENDMDL
MODEL 2
REMARK VINA RESULT:     -11.4      0.521      7.620
REMARK SMILES O=C(CCCN1C(=O)/C(=C/c2cc(Br)ccc2O)SC1=S)NCCCCNC(=O)c1ccc(-c2c3nc(c(-c4cc(S(=O)(=O)[O-])ccc4F)c4ccc([nH]4)c(-c4cc(S(=O)(=O)[O-])ccc4F)c4nc(c(-c5cc(S(=O)(=O)[O-])ccc5F)c5ccc2[nH]5)C=C4)C=C3)cc1
REMARK SMILES IDX 23 1 22 2 1 3 2 4 3 6 4 7 5 8 6 9 7 10 20 11 8 12 9 13 19 14
REMARK SMILES IDX 21 15 10 16 11 17 12 18 17 19 13 20 16 21 14 22 15 23 18 24
REMARK SMILES IDX 24 26 25 27 26 28 27 29 28 30 29 32 30 33 31 34 92 35 32 36
REMARK SMILES IDX 91 37 33 38 34 39 35 40 85 41 36 42 90 43 84 44 86 45 37 46
REMARK SMILES IDX 89 47 83 48 82 49 38 51 70 52 50 53 69 54 51 55 54 56 68 57
REMARK SMILES IDX 87 58 52 59 53 60 67 62 88 63 55 64 39 65 40 66 48 67 41 68
REMARK SMILES IDX 47 69 49 70 46 71 42 72 43 73 44 74 45 75 71 76 72 77 80 78
REMARK SMILES IDX 73 79 79 80 81 81 78 82 74 83 75 84 76 85 77 86 56 87 57 88
REMARK SMILES IDX 65 89 58 90 64 91 66 92 63 93 59 94 60 95 61 96 62 97
REMARK H PARENT 22 5 18 25 27 31 86 50 54 61
REMARK Flexibility Score: inf
ROOT
ATOM      1  C   UNL A   1      34.448  29.795  27.012  1.00  0.00     0.116 C 
ENDROOT
BRANCH   1   2
ATOM      2  N   UNL A   1      33.507  29.822  25.911  1.00  0.00    -0.356 N 
ATOM      3  O   UNL A   1      31.844  28.597  26.896  1.00  0.00    -0.275 OA
ATOM      4  C   UNL A   1      32.256  29.259  25.948  1.00  0.00     0.220 C 
ATOM      5  H   UNL A   1      33.782  30.276  25.080  1.00  0.00     0.163 HD
BRANCH   4   6
ATOM      6  C   UNL A   1      31.412  29.494  24.699  1.00  0.00     0.102 C 
BRANCH   6   7
ATOM      7  C   UNL A   1      31.997  28.949  23.390  1.00  0.00     0.032 C 
BRANCH   7   8
ATOM      8  C   UNL A   1      31.502  27.602  22.835  1.00  0.00     0.128 C 
BRANCH   8   9
ATOM      9  N   UNL A   1      32.071  26.358  23.385  1.00  0.00    -0.293 N 
ATOM     10  C   UNL A   1      33.213  25.839  22.765  1.00  0.00     0.266 C 
ATOM     11  C   UNL A   1      31.702  25.715  24.550  1.00  0.00     0.148 C 
ATOM     12  O   UNL A   1      33.699  26.221  21.713  1.00  0.00    -0.268 OA
ATOM     13  C   UNL A   1      33.765  24.712  23.565  1.00  0.00     0.081 C 
ATOM     14  S   UNL A   1      32.961  24.632  25.078  1.00  0.00    -0.054 SA
ATOM     15  S   UNL A   1      30.319  25.812  25.467  1.00  0.00    -0.052 S 
ATOM     16  C   UNL A   1      34.696  23.852  23.132  1.00  0.00     0.033 C 
BRANCH  16  17
ATOM     17  C   UNL A   1      35.039  22.645  23.903  1.00  0.00     0.019 A 
ATOM     18  C   UNL A   1      34.078  21.655  24.123  1.00  0.00     0.027 A 
ATOM     19  C   UNL A   1      36.364  22.418  24.326  1.00  0.00     0.122 A 
ATOM     20  C   UNL A   1      34.452  20.459  24.740  1.00  0.00     0.018 A 
ATOM     21  C   UNL A   1      36.740  21.210  24.907  1.00  0.00     0.048 A 
ATOM     22  Br  UNL A   1      33.156  19.138  25.106  1.00  0.00    -0.051 Br
ATOM     23  C   UNL A   1      35.777  20.224  25.109  1.00  0.00     0.019 A 
BRANCH  19  24
ATOM     24  O   UNL A   1      37.308  23.394  24.125  1.00  0.00    -0.507 OA
ATOM     25  H   UNL A   1      37.955  23.563  24.781  1.00  0.00     0.293 HD
ENDBRANCH  19  24
ENDBRANCH  16  17
ENDBRANCH   8   9
ENDBRANCH   7   8
ENDBRANCH   6   7
ENDBRANCH   4   6
ENDBRANCH   1   2
BRANCH   1  26
ATOM     26  C   UNL A   1      34.303  31.015  27.926  1.00  0.00     0.023 C 
BRANCH  26  27
ATOM     27  C   UNL A   1      33.836  32.314  27.253  1.00  0.00     0.023 C 
BRANCH  27  28
ATOM     28  C   UNL A   1      32.506  32.882  27.731  1.00  0.00     0.116 C 
BRANCH  28  29
ATOM     29  N   UNL A   1      32.566  34.311  27.969  1.00  0.00    -0.352 N 
ATOM     30  C   UNL A   1      33.395  35.038  28.790  1.00  0.00     0.251 C 
ATOM     31  H   UNL A   1      31.911  34.844  27.463  1.00  0.00     0.163 HD
ATOM     32  O   UNL A   1      33.151  36.228  28.976  1.00  0.00    -0.269 OA
BRANCH  30  33
ATOM     33  C   UNL A   1      34.550  34.402  29.472  1.00  0.00     0.039 A 
ATOM     34  C   UNL A   1      34.316  33.675  30.643  1.00  0.00     0.014 A 
ATOM     35  C   UNL A   1      35.857  34.537  28.994  1.00  0.00     0.014 A 
ATOM     36  C   UNL A   1      35.376  33.035  31.294  1.00  0.00     0.010 A 
ATOM     37  C   UNL A   1      36.900  33.833  29.599  1.00  0.00     0.010 A 
ATOM     38  C   UNL A   1      36.674  33.072  30.757  1.00  0.00    -0.014 A 
BRANCH  38  39
ATOM     39  C   UNL A   1      37.793  32.322  31.392  1.00  0.00     0.031 A 
ATOM     40  C   UNL A   1      38.336  32.746  32.731  1.00  0.00     0.074 A 
ATOM     41  C   UNL A   1      38.353  31.279  30.744  1.00  0.00     0.049 A 
ATOM     42  N   UNL A   1      39.349  32.264  33.405  1.00  0.00    -0.248 NA
ATOM     43  C   UNL A   1      37.663  33.877  33.385  1.00  0.00     0.031 C 
ATOM     44  C   UNL A   1      37.935  30.781  29.433  1.00  0.00     0.029 A 
ATOM     45  N   UNL A   1      39.394  30.452  31.093  1.00  0.00    -0.354 N 
ATOM     46  C   UNL A   1      39.440  33.035  34.560  1.00  0.00     0.074 A 
ATOM     47  C   UNL A   1      38.419  34.058  34.458  1.00  0.00     0.031 C 
ATOM     48  C   UNL A   1      38.686  29.718  29.106  1.00  0.00     0.029 A 
ATOM     49  C   UNL A   1      39.683  29.495  30.148  1.00  0.00     0.049 A 
ATOM     50  H   UNL A   1      39.886  30.537  31.942  1.00  0.00     0.167 HD
ATOM     51  C   UNL A   1      40.278  32.889  35.617  1.00  0.00     0.034 A 
ATOM     52  C   UNL A   1      40.654  28.558  30.109  1.00  0.00     0.034 A 
ATOM     53  C   UNL A   1      41.289  31.863  35.707  1.00  0.00     0.049 A 
ATOM     54  C   UNL A   1      41.622  28.463  31.262  1.00  0.00     0.074 A 
ATOM     55  C   UNL A   1      42.162  31.603  36.750  1.00  0.00     0.029 A 
ATOM     56  N   UNL A   1      41.575  30.934  34.713  1.00  0.00    -0.354 N 
ATOM     57  N   UNL A   1      41.670  29.178  32.363  1.00  0.00    -0.248 NA
ATOM     58  C   UNL A   1      42.664  27.433  31.171  1.00  0.00     0.031 C 
ATOM     59  C   UNL A   1      43.025  30.575  36.358  1.00  0.00     0.029 A 
ATOM     60  C   UNL A   1      42.634  30.126  35.106  1.00  0.00     0.049 A 
ATOM     61  H   UNL A   1      41.097  30.859  33.857  1.00  0.00     0.167 HD
ATOM     62  C   UNL A   1      42.721  28.653  33.113  1.00  0.00     0.074 A 
ATOM     63  C   UNL A   1      43.272  27.557  32.342  1.00  0.00     0.031 C 
ATOM     64  C   UNL A   1      43.183  29.037  34.330  1.00  0.00     0.034 A 
BRANCH  51  65
ATOM     65  C   UNL A   1      40.150  33.884  36.749  1.00  0.00     0.023 A 
ATOM     66  C   UNL A   1      39.602  33.520  37.993  1.00  0.00     0.031 A 
ATOM     67  C   UNL A   1      40.559  35.217  36.579  1.00  0.00     0.131 A 
ATOM     68  C   UNL A   1      39.404  34.493  38.984  1.00  0.00     0.055 A 
ATOM     69  C   UNL A   1      40.442  36.161  37.602  1.00  0.00     0.041 A 
ATOM     70  F   UNL A   1      41.069  35.632  35.409  1.00  0.00    -0.206 F 
ATOM     71  C   UNL A   1      39.846  35.805  38.808  1.00  0.00     0.022 A 
BRANCH  68  72
ATOM     72  S   UNL A   1      38.418  34.054  40.442  1.00  0.00     0.124 S 
ATOM     73  O   UNL A   1      38.322  35.340  41.130  1.00  0.00    -0.237 OA
ATOM     74  O   UNL A   1      37.184  33.553  39.850  1.00  0.00    -0.237 OA
ATOM     75  O   UNL A   1      39.238  33.052  41.121  1.00  0.00    -0.744 OA
ENDBRANCH  68  72
ENDBRANCH  51  65
BRANCH  52  76
ATOM     76  C   UNL A   1      40.791  27.659  28.923  1.00  0.00     0.023 A 
ATOM     77  C   UNL A   1      41.785  27.866  27.954  1.00  0.00     0.031 A 
ATOM     78  C   UNL A   1      39.891  26.598  28.720  1.00  0.00     0.131 A 
ATOM     79  C   UNL A   1      41.823  27.059  26.804  1.00  0.00     0.055 A 
ATOM     80  C   UNL A   1      39.968  25.762  27.605  1.00  0.00     0.041 A 
ATOM     81  F   UNL A   1      38.932  26.346  29.625  1.00  0.00    -0.206 F 
ATOM     82  C   UNL A   1      40.928  26.002  26.630  1.00  0.00     0.022 A 
BRANCH  79  83
ATOM     83  S   UNL A   1      43.004  27.469  25.491  1.00  0.00     0.124 S 
ATOM     84  O   UNL A   1      43.272  26.157  24.912  1.00  0.00    -0.237 OA
ATOM     85  O   UNL A   1      42.230  28.390  24.666  1.00  0.00    -0.237 OA
ATOM     86  O   UNL A   1      44.122  28.072  26.215  1.00  0.00    -0.744 OA
ENDBRANCH  79  83
ENDBRANCH  52  76
BRANCH  64  87
ATOM     87  C   UNL A   1      44.305  28.223  34.933  1.00  0.00     0.023 A 
ATOM     88  C   UNL A   1      44.067  27.024  35.626  1.00  0.00     0.031 A 
ATOM     89  C   UNL A   1      45.636  28.665  34.818  1.00  0.00     0.131 A 
ATOM     90  C   UNL A   1      45.135  26.340  36.228  1.00  0.00     0.055 A 
ATOM     91  C   UNL A   1      46.701  27.945  35.359  1.00  0.00     0.041 A 
ATOM     92  F   UNL A   1      45.924  29.806  34.172  1.00  0.00    -0.206 F 
ATOM     93  C   UNL A   1      46.452  26.782  36.082  1.00  0.00     0.022 A 
BRANCH  90  94
ATOM     94  S   UNL A   1      44.771  24.917  37.293  1.00  0.00     0.124 S 
ATOM     95  O   UNL A   1      44.354  25.565  38.532  1.00  0.00    -0.237 OA
ATOM     96  O   UNL A   1      43.721  24.229  36.548  1.00  0.00    -0.237 OA
ATOM     97  O   UNL A   1      46.046  24.207  37.364  1.00  0.00    -0.744 OA
ENDBRANCH  90  94
ENDBRANCH  64  87
ENDBRANCH  38  39
ENDBRANCH  30  33
ENDBRANCH  28  29
ENDBRANCH  27  28
ENDBRANCH  26  27
ENDBRANCH   1  26
TORSDOF 19
ENDMDL
MODEL 3
REMARK VINA RESULT:     -11.1      2.947      8.800
REMARK SMILES O=C(CCCN1C(=O)/C(=C/c2cc(Br)ccc2O)SC1=S)NCCCCNC(=O)c1ccc(-c2c3nc(c(-c4cc(S(=O)(=O)[O-])ccc4F)c4ccc([nH]4)c(-c4cc(S(=O)(=O)[O-])ccc4F)c4nc(c(-c5cc(S(=O)(=O)[O-])ccc5F)c5ccc2[nH]5)C=C4)C=C3)cc1
REMARK SMILES IDX 23 1 22 2 1 3 2 4 3 6 4 7 5 8 6 9 7 10 20 11 8 12 9 13 19 14
REMARK SMILES IDX 21 15 10 16 11 17 12 18 17 19 13 20 16 21 14 22 15 23 18 24
REMARK SMILES IDX 24 26 25 27 26 28 27 29 28 30 29 32 30 33 31 34 92 35 32 36
REMARK SMILES IDX 91 37 33 38 34 39 35 40 85 41 36 42 90 43 84 44 86 45 37 46
REMARK SMILES IDX 89 47 83 48 82 49 38 51 70 52 50 53 69 54 51 55 54 56 68 57
REMARK SMILES IDX 87 58 52 59 53 60 67 62 88 63 55 64 39 65 40 66 48 67 41 68
REMARK SMILES IDX 47 69 49 70 46 71 42 72 43 73 44 74 45 75 71 76 72 77 80 78
REMARK SMILES IDX 73 79 79 80 81 81 78 82 74 83 75 84 76 85 77 86 56 87 57 88
REMARK SMILES IDX 65 89 58 90 64 91 66 92 63 93 59 94 60 95 61 96 62 97
REMARK H PARENT 22 5 18 25 27 31 86 50 54 61
REMARK Flexibility Score: inf
ROOT
ATOM      1  C   UNL A   1      33.661  27.282  26.472  1.00  0.00     0.116 C 
ENDROOT
BRANCH   1   2
ATOM      2  N   UNL A   1      33.918  26.571  25.236  1.00  0.00    -0.356 N 
ATOM      3  O   UNL A   1      34.289  24.502  26.140  1.00  0.00    -0.275 OA
ATOM      4  C   UNL A   1      34.171  25.224  25.156  1.00  0.00     0.220 C 
ATOM      5  H   UNL A   1      33.910  27.089  24.397  1.00  0.00     0.163 HD
BRANCH   4   6
ATOM      6  C   UNL A   1      34.323  24.687  23.736  1.00  0.00     0.102 C 
BRANCH   6   7
ATOM      7  C   UNL A   1      33.505  23.432  23.408  1.00  0.00     0.032 C 
BRANCH   7   8
ATOM      8  C   UNL A   1      32.002  23.558  23.106  1.00  0.00     0.128 C 
BRANCH   8   9
ATOM      9  N   UNL A   1      31.310  24.809  23.466  1.00  0.00    -0.293 N 
ATOM     10  C   UNL A   1      31.213  25.801  22.483  1.00  0.00     0.266 C 
ATOM     11  C   UNL A   1      30.599  25.067  24.622  1.00  0.00     0.148 C 
ATOM     12  O   UNL A   1      31.782  25.805  21.404  1.00  0.00    -0.268 OA
ATOM     13  C   UNL A   1      30.316  26.896  22.945  1.00  0.00     0.081 C 
ATOM     14  S   UNL A   1      29.527  26.421  24.392  1.00  0.00    -0.054 SA
ATOM     15  S   UNL A   1      30.615  24.325  26.109  1.00  0.00    -0.052 S 
ATOM     16  C   UNL A   1      30.206  28.093  22.355  1.00  0.00     0.033 C 
BRANCH  16  17
ATOM     17  C   UNL A   1      29.456  29.190  22.988  1.00  0.00     0.019 A 
ATOM     18  C   UNL A   1      30.134  30.195  23.684  1.00  0.00     0.027 A 
ATOM     19  C   UNL A   1      28.064  29.308  22.801  1.00  0.00     0.122 A 
ATOM     20  C   UNL A   1      29.423  31.297  24.165  1.00  0.00     0.018 A 
ATOM     21  C   UNL A   1      27.367  30.426  23.249  1.00  0.00     0.048 A 
ATOM     22  Br  UNL A   1      30.309  32.629  25.164  1.00  0.00    -0.051 Br
ATOM     23  C   UNL A   1      28.054  31.428  23.930  1.00  0.00     0.019 A 
BRANCH  19  24
ATOM     24  O   UNL A   1      27.392  28.317  22.130  1.00  0.00    -0.507 OA
ATOM     25  H   UNL A   1      27.746  27.963  21.338  1.00  0.00     0.293 HD
ENDBRANCH  19  24
ENDBRANCH  16  17
ENDBRANCH   8   9
ENDBRANCH   7   8
ENDBRANCH   6   7
ENDBRANCH   4   6
ENDBRANCH   1   2
BRANCH   1  26
ATOM     26  C   UNL A   1      32.200  27.727  26.588  1.00  0.00     0.023 C 
BRANCH  26  27
ATOM     27  C   UNL A   1      31.958  29.241  26.672  1.00  0.00     0.023 C 
BRANCH  27  28
ATOM     28  C   UNL A   1      33.070  30.133  26.138  1.00  0.00     0.116 C 
BRANCH  28  29
ATOM     29  N   UNL A   1      32.979  31.492  26.635  1.00  0.00    -0.352 N 
ATOM     30  C   UNL A   1      33.748  32.146  27.568  1.00  0.00     0.251 C 
ATOM     31  H   UNL A   1      32.254  32.030  26.243  1.00  0.00     0.163 HD
ATOM     32  O   UNL A   1      33.380  33.246  27.974  1.00  0.00    -0.269 OA
BRANCH  30  33
ATOM     33  C   UNL A   1      34.986  31.532  28.110  1.00  0.00     0.039 A 
ATOM     34  C   UNL A   1      36.152  32.304  28.149  1.00  0.00     0.014 A 
ATOM     35  C   UNL A   1      35.023  30.206  28.548  1.00  0.00     0.014 A 
ATOM     36  C   UNL A   1      37.329  31.769  28.683  1.00  0.00     0.010 A 
ATOM     37  C   UNL A   1      36.175  29.700  29.153  1.00  0.00     0.010 A 
ATOM     38  C   UNL A   1      37.343  30.475  29.230  1.00  0.00    -0.014 A 
BRANCH  38  39
ATOM     39  C   UNL A   1      38.565  29.926  29.881  1.00  0.00     0.031 A 
ATOM     40  C   UNL A   1      38.994  30.416  31.239  1.00  0.00     0.074 A 
ATOM     41  C   UNL A   1      39.318  29.013  29.232  1.00  0.00     0.049 A 
ATOM     42  N   UNL A   1      40.063  30.111  31.931  1.00  0.00    -0.248 NA
ATOM     43  C   UNL A   1      38.114  31.395  31.893  1.00  0.00     0.031 C 
ATOM     44  C   UNL A   1      39.024  28.473  27.904  1.00  0.00     0.029 A 
ATOM     45  N   UNL A   1      40.483  28.381  29.595  1.00  0.00    -0.354 N 
ATOM     46  C   UNL A   1      39.989  30.864  33.098  1.00  0.00     0.074 A 
ATOM     47  C   UNL A   1      38.802  31.688  32.987  1.00  0.00     0.031 C 
ATOM     48  C   UNL A   1      39.962  27.568  27.580  1.00  0.00     0.029 A 
ATOM     49  C   UNL A   1      40.960  27.509  28.643  1.00  0.00     0.049 A 
ATOM     50  H   UNL A   1      40.934  28.537  30.456  1.00  0.00     0.167 HD
ATOM     51  C   UNL A   1      40.816  30.851  34.173  1.00  0.00     0.034 A 
ATOM     52  C   UNL A   1      42.084  26.763  28.613  1.00  0.00     0.034 A 
ATOM     53  C   UNL A   1      41.994  30.022  34.273  1.00  0.00     0.049 A 
ATOM     54  C   UNL A   1      43.029  26.822  29.789  1.00  0.00     0.074 A 
ATOM     55  C   UNL A   1      42.877  29.905  35.334  1.00  0.00     0.029 A 
ATOM     56  N   UNL A   1      42.464  29.179  33.273  1.00  0.00    -0.354 N 
ATOM     57  N   UNL A   1      42.924  27.513  30.901  1.00  0.00    -0.248 NA
ATOM     58  C   UNL A   1      44.242  25.998  29.708  1.00  0.00     0.031 C 
ATOM     59  C   UNL A   1      43.920  29.055  34.947  1.00  0.00     0.029 A 
ATOM     60  C   UNL A   1      43.642  28.567  33.679  1.00  0.00     0.049 A 
ATOM     61  H   UNL A   1      42.025  29.035  32.405  1.00  0.00     0.167 HD
ATOM     62  C   UNL A   1      44.036  27.171  31.668  1.00  0.00     0.074 A 
ATOM     63  C   UNL A   1      44.792  26.207  30.895  1.00  0.00     0.031 C 
ATOM     64  C   UNL A   1      44.395  27.610  32.901  1.00  0.00     0.034 A 
BRANCH  51  65
ATOM     65  C   UNL A   1      40.487  31.785  35.317  1.00  0.00     0.023 A 
ATOM     66  C   UNL A   1      39.512  31.461  36.277  1.00  0.00     0.031 A 
ATOM     67  C   UNL A   1      41.139  33.025  35.437  1.00  0.00     0.131 A 
ATOM     68  C   UNL A   1      39.160  32.395  37.263  1.00  0.00     0.055 A 
ATOM     69  C   UNL A   1      40.847  33.913  36.475  1.00  0.00     0.041 A 
ATOM     70  F   UNL A   1      42.063  33.402  34.541  1.00  0.00    -0.206 F 
ATOM     71  C   UNL A   1      39.841  33.608  37.386  1.00  0.00     0.022 A 
BRANCH  68  72
ATOM     72  S   UNL A   1      37.695  32.068  38.281  1.00  0.00     0.124 S 
ATOM     73  O   UNL A   1      36.780  33.112  37.823  1.00  0.00    -0.237 OA
ATOM     74  O   UNL A   1      37.347  30.703  37.904  1.00  0.00    -0.237 OA
ATOM     75  O   UNL A   1      38.183  32.234  39.648  1.00  0.00    -0.744 OA
ENDBRANCH  68  72
ENDBRANCH  51  65
BRANCH  52  76
ATOM     76  C   UNL A   1      42.407  25.926  27.418  1.00  0.00     0.023 A 
ATOM     77  C   UNL A   1      42.024  24.578  27.340  1.00  0.00     0.031 A 
ATOM     78  C   UNL A   1      43.150  26.458  26.349  1.00  0.00     0.131 A 
ATOM     79  C   UNL A   1      42.428  23.796  26.245  1.00  0.00     0.055 A 
ATOM     80  C   UNL A   1      43.499  25.692  25.236  1.00  0.00     0.041 A 
ATOM     81  F   UNL A   1      43.527  27.746  26.366  1.00  0.00    -0.206 F 
ATOM     82  C   UNL A   1      43.154  24.348  25.187  1.00  0.00     0.022 A 
BRANCH  79  83
ATOM     83  S   UNL A   1      42.070  22.018  26.264  1.00  0.00     0.124 S 
ATOM     84  O   UNL A   1      42.540  21.634  27.591  1.00  0.00    -0.237 OA
ATOM     85  O   UNL A   1      40.625  22.000  26.063  1.00  0.00    -0.237 OA
ATOM     86  O   UNL A   1      42.859  21.500  25.148  1.00  0.00    -0.744 OA
ENDBRANCH  79  83
ENDBRANCH  52  76
BRANCH  64  87
ATOM     87  C   UNL A   1      45.632  27.000  33.520  1.00  0.00     0.023 A 
ATOM     88  C   UNL A   1      45.580  25.823  34.287  1.00  0.00     0.031 A 
ATOM     89  C   UNL A   1      46.885  27.616  33.343  1.00  0.00     0.131 A 
ATOM     90  C   UNL A   1      46.745  25.334  34.898  1.00  0.00     0.055 A 
ATOM     91  C   UNL A   1      48.051  27.087  33.895  1.00  0.00     0.041 A 
ATOM     92  F   UNL A   1      46.996  28.745  32.624  1.00  0.00    -0.206 F 
ATOM     93  C   UNL A   1      47.984  25.947  34.691  1.00  0.00     0.022 A 
BRANCH  90  94
ATOM     94  S   UNL A   1      46.607  23.942  36.053  1.00  0.00     0.124 S 
ATOM     95  O   UNL A   1      47.980  23.803  36.526  1.00  0.00    -0.237 OA
ATOM     96  O   UNL A   1      45.643  24.440  37.030  1.00  0.00    -0.237 OA
ATOM     97  O   UNL A   1      46.126  22.846  35.213  1.00  0.00    -0.744 OA
ENDBRANCH  90  94
ENDBRANCH  64  87
ENDBRANCH  38  39
ENDBRANCH  30  33
ENDBRANCH  28  29
ENDBRANCH  27  28
ENDBRANCH  26  27
ENDBRANCH   1  26
TORSDOF 19
ENDMDL
