MODEL 1
REMARK VINA RESULT:     -13.6      0.000      0.000
REMARK SMILES COc1cccc(-c2nn(-c3cc4c(cc3C(N)=O)OCO4)cc2C(=O)NCCCCNC(=O)c2ccc(-c3c4nc(c(-c5cc(S(=O)(=O)[O-])ccc5F)c5ccc([nH]5)c(-c5cc(S(=O)(=O)[O-])ccc5F)c5nc(c(-c6cc(S(=O)(=O)[O-])ccc6F)c6ccc3[nH]6)C=C5)C=C4)cc2)c1
REMARK SMILES IDX 30 1 29 2 28 3 27 4 25 5 26 6 24 8 8 9 9 10 10 11 23 12 7 13
REMARK SMILES IDX 3 14 4 15 98 16 5 17 6 18 2 19 1 20 11 21 12 22 16 23 13 24
REMARK SMILES IDX 15 25 14 26 22 27 20 28 21 29 17 30 18 31 19 32 31 35 32 36
REMARK SMILES IDX 33 37 34 39 35 40 36 41 97 42 37 43 96 44 38 45 39 46 40 47
REMARK SMILES IDX 90 48 41 49 95 50 89 51 91 52 42 53 94 54 88 55 87 56 43 58
REMARK SMILES IDX 75 59 55 60 74 61 56 62 59 63 73 64 92 65 57 66 58 67 72 69
REMARK SMILES IDX 93 70 60 71 44 72 45 73 53 74 46 75 52 76 54 77 51 78 47 79
REMARK SMILES IDX 48 80 49 81 50 82 76 83 77 84 85 85 78 86 84 87 86 88 83 89
REMARK SMILES IDX 79 90 80 91 81 92 82 93 61 94 62 95 70 96 63 97 69 98 71 99
REMARK SMILES IDX 68 100 64 101 65 102 66 103 67 104
REMARK H PARENT 27 7 18 33 18 34 32 38 91 57 59 68
REMARK Flexibility Score: inf
ROOT
ATOM      1  C   UNL A   1      34.679  30.845  27.583  1.00  0.00     0.023 C 
ENDROOT
BRANCH   1   2
ATOM      2  C   UNL A   1      33.883  30.345  26.365  1.00  0.00     0.023 C 
BRANCH   2   3
ATOM      3  C   UNL A   1      32.369  30.553  26.465  1.00  0.00     0.116 C 
BRANCH   3   4
ATOM      4  N   UNL A   1      31.747  29.505  27.251  1.00  0.00    -0.352 N 
ATOM      5  C   UNL A   1      31.641  28.146  27.092  1.00  0.00     0.255 C 
ATOM      6  O   UNL A   1      31.026  27.559  27.982  1.00  0.00    -0.269 OA
ATOM      7  H   UNL A   1      31.309  29.838  28.067  1.00  0.00     0.163 HD
BRANCH   5   8
ATOM      8  C   UNL A   1      32.237  27.435  25.966  1.00  0.00     0.086 A 
ATOM      9  C   UNL A   1      31.697  27.257  24.639  1.00  0.00     0.106 A 
ATOM     10  N   UNL A   1      32.471  26.437  23.893  1.00  0.00    -0.167 NA
ATOM     11  N   UNL A   1      33.362  25.956  24.788  1.00  0.00    -0.239 N 
ATOM     12  C   UNL A   1      33.446  26.779  25.884  1.00  0.00     0.129 A 
BRANCH   9  13
ATOM     13  C   UNL A   1      30.487  27.874  24.086  1.00  0.00     0.007 A 
ATOM     14  C   UNL A   1      29.331  29.766  23.105  1.00  0.00     0.119 A 
ATOM     15  C   UNL A   1      28.198  28.975  22.902  1.00  0.00     0.046 A 
ATOM     16  C   UNL A   1      30.471  29.226  23.713  1.00  0.00     0.056 A 
ATOM     17  C   UNL A   1      28.204  27.636  23.285  1.00  0.00     0.005 A 
ATOM     18  C   UNL A   1      29.340  27.092  23.883  1.00  0.00     0.011 A 
BRANCH  14  19
ATOM     19  O   UNL A   1      29.217  31.081  22.742  1.00  0.00    -0.497 OA
ATOM     20  C   UNL A   1      27.960  31.655  23.094  1.00  0.00     0.278 C 
ENDBRANCH  14  19
ENDBRANCH   9  13
BRANCH  11  21
ATOM     21  C   UNL A   1      34.238  24.872  24.527  1.00  0.00     0.081 A 
ATOM     22  C   UNL A   1      35.366  24.718  25.352  1.00  0.00     0.079 A 
ATOM     23  C   UNL A   1      33.925  23.904  23.522  1.00  0.00     0.069 A 
ATOM     24  C   UNL A   1      36.099  23.557  25.208  1.00  0.00     0.167 A 
ATOM     25  C   UNL A   1      34.647  22.701  23.485  1.00  0.00     0.066 A 
ATOM     26  C   UNL A   1      35.729  22.570  24.323  1.00  0.00     0.166 A 
ATOM     27  O   UNL A   1      37.230  23.223  25.889  1.00  0.00    -0.454 OA
ATOM     28  O   UNL A   1      36.573  21.503  24.345  1.00  0.00    -0.454 OA
ATOM     29  C   UNL A   1      37.624  22.029  25.178  1.00  0.00     0.468 C 
BRANCH  23  30
ATOM     30  C   UNL A   1      32.992  24.206  22.383  1.00  0.00     0.251 C 
ATOM     31  N   UNL A   1      31.665  23.920  22.535  1.00  0.00    -0.366 N 
ATOM     32  O   UNL A   1      33.368  24.628  21.294  1.00  0.00    -0.269 OA
ATOM     33  H   UNL A   1      31.330  23.580  23.396  1.00  0.00     0.159 HD
ATOM     34  H   UNL A   1      31.044  24.055  21.784  1.00  0.00     0.159 HD
ENDBRANCH  23  30
ENDBRANCH  11  21
ENDBRANCH   5   8
ENDBRANCH   3   4
ENDBRANCH   2   3
ENDBRANCH   1   2
BRANCH   1  35
ATOM     35  C   UNL A   1      35.435  29.754  28.335  1.00  0.00     0.116 C 
BRANCH  35  36
ATOM     36  N   UNL A   1      35.642  30.078  29.746  1.00  0.00    -0.352 N 
ATOM     37  C   UNL A   1      36.628  29.596  30.586  1.00  0.00     0.251 C 
ATOM     38  H   UNL A   1      35.004  30.714  30.144  1.00  0.00     0.163 HD
ATOM     39  O   UNL A   1      36.463  29.596  31.801  1.00  0.00    -0.269 OA
BRANCH  37  40
ATOM     40  C   UNL A   1      37.885  29.104  29.992  1.00  0.00     0.039 A 
ATOM     41  C   UNL A   1      38.535  29.792  28.964  1.00  0.00     0.014 A 
ATOM     42  C   UNL A   1      38.419  27.922  30.506  1.00  0.00     0.014 A 
ATOM     43  C   UNL A   1      39.769  29.320  28.516  1.00  0.00     0.010 A 
ATOM     44  C   UNL A   1      39.689  27.535  30.160  1.00  0.00     0.010 A 
ATOM     45  C   UNL A   1      40.350  28.198  29.132  1.00  0.00    -0.014 A 
BRANCH  45  46
ATOM     46  C   UNL A   1      41.727  27.798  28.847  1.00  0.00     0.031 A 
ATOM     47  C   UNL A   1      41.822  26.525  28.080  1.00  0.00     0.074 A 
ATOM     48  C   UNL A   1      42.787  28.621  29.028  1.00  0.00     0.049 A 
ATOM     49  N   UNL A   1      42.251  25.383  28.502  1.00  0.00    -0.248 NA
ATOM     50  C   UNL A   1      41.189  26.455  26.750  1.00  0.00     0.031 C 
ATOM     51  C   UNL A   1      42.782  30.011  29.497  1.00  0.00     0.029 A 
ATOM     52  N   UNL A   1      44.101  28.425  28.726  1.00  0.00    -0.354 N 
ATOM     53  C   UNL A   1      42.204  24.528  27.404  1.00  0.00     0.074 A 
ATOM     54  C   UNL A   1      41.326  25.160  26.459  1.00  0.00     0.031 C 
ATOM     55  C   UNL A   1      43.974  30.593  29.224  1.00  0.00     0.029 A 
ATOM     56  C   UNL A   1      44.884  29.584  28.709  1.00  0.00     0.049 A 
ATOM     57  H   UNL A   1      44.473  27.534  28.534  1.00  0.00     0.167 HD
ATOM     58  C   UNL A   1      43.116  23.524  27.264  1.00  0.00     0.034 A 
ATOM     59  C   UNL A   1      46.177  29.713  28.290  1.00  0.00     0.034 A 
ATOM     60  C   UNL A   1      43.803  23.287  28.519  1.00  0.00     0.049 A 
ATOM     61  C   UNL A   1      46.766  28.351  28.341  1.00  0.00     0.074 A 
ATOM     62  C   UNL A   1      43.395  22.952  29.797  1.00  0.00     0.029 A 
ATOM     63  N   UNL A   1      45.073  23.805  28.663  1.00  0.00    -0.354 N 
ATOM     64  N   UNL A   1      46.932  27.692  29.456  1.00  0.00    -0.248 NA
ATOM     65  C   UNL A   1      46.669  27.527  27.145  1.00  0.00     0.031 C 
ATOM     66  C   UNL A   1      44.199  23.760  30.656  1.00  0.00     0.029 A 
ATOM     67  C   UNL A   1      45.125  24.451  29.874  1.00  0.00     0.049 A 
ATOM     68  H   UNL A   1      45.809  23.727  28.014  1.00  0.00     0.167 HD
ATOM     69  C   UNL A   1      46.507  26.402  29.175  1.00  0.00     0.074 A 
ATOM     70  C   UNL A   1      46.441  26.339  27.712  1.00  0.00     0.031 C 
ATOM     71  C   UNL A   1      45.964  25.606  30.144  1.00  0.00     0.034 A 
BRANCH  58  72
ATOM     72  C   UNL A   1      43.684  23.037  25.944  1.00  0.00     0.023 A 
ATOM     73  C   UNL A   1      43.665  21.645  25.721  1.00  0.00     0.031 A 
ATOM     74  C   UNL A   1      44.490  23.782  25.053  1.00  0.00     0.131 A 
ATOM     75  C   UNL A   1      44.507  21.050  24.767  1.00  0.00     0.055 A 
ATOM     76  C   UNL A   1      45.277  23.190  24.059  1.00  0.00     0.041 A 
ATOM     77  F   UNL A   1      44.636  25.109  25.133  1.00  0.00    -0.206 F 
ATOM     78  C   UNL A   1      45.320  21.813  23.936  1.00  0.00     0.022 A 
BRANCH  75  79
ATOM     79  S   UNL A   1      44.662  19.246  24.773  1.00  0.00     0.124 S 
ATOM     80  O   UNL A   1      44.598  18.945  23.347  1.00  0.00    -0.237 OA
ATOM     81  O   UNL A   1      45.959  19.060  25.415  1.00  0.00    -0.237 OA
ATOM     82  O   UNL A   1      43.509  18.810  25.557  1.00  0.00    -0.744 OA
ENDBRANCH  75  79
ENDBRANCH  58  72
BRANCH  59  83
ATOM     83  C   UNL A   1      46.801  30.849  27.539  1.00  0.00     0.023 A 
ATOM     84  C   UNL A   1      46.065  31.913  26.956  1.00  0.00     0.031 A 
ATOM     85  C   UNL A   1      48.201  31.029  27.612  1.00  0.00     0.131 A 
ATOM     86  C   UNL A   1      46.731  33.075  26.483  1.00  0.00     0.055 A 
ATOM     87  C   UNL A   1      48.849  32.179  27.151  1.00  0.00     0.041 A 
ATOM     88  F   UNL A   1      48.985  30.122  28.215  1.00  0.00    -0.206 F 
ATOM     89  C   UNL A   1      48.116  33.213  26.594  1.00  0.00     0.022 A 
BRANCH  86  90
ATOM     90  S   UNL A   1      45.801  34.483  25.772  1.00  0.00     0.124 S 
ATOM     91  O   UNL A   1      44.989  33.836  24.748  1.00  0.00    -0.237 OA
ATOM     92  O   UNL A   1      45.089  35.009  26.931  1.00  0.00    -0.237 OA
ATOM     93  O   UNL A   1      46.851  35.362  25.254  1.00  0.00    -0.744 OA
ENDBRANCH  86  90
ENDBRANCH  59  83
BRANCH  71  94
ATOM     94  C   UNL A   1      46.083  26.043  31.595  1.00  0.00     0.023 A 
ATOM     95  C   UNL A   1      45.034  26.572  32.385  1.00  0.00     0.031 A 
ATOM     96  C   UNL A   1      47.310  25.789  32.231  1.00  0.00     0.131 A 
ATOM     97  C   UNL A   1      45.246  26.831  33.757  1.00  0.00     0.055 A 
ATOM     98  C   UNL A   1      47.508  26.022  33.590  1.00  0.00     0.041 A 
ATOM     99  F   UNL A   1      48.339  25.268  31.542  1.00  0.00    -0.206 F 
ATOM    100  C   UNL A   1      46.477  26.550  34.357  1.00  0.00     0.022 A 
BRANCH  97 101
ATOM    101  S   UNL A   1      43.934  27.565  34.791  1.00  0.00     0.124 S 
ATOM    102  O   UNL A   1      42.710  26.979  34.257  1.00  0.00    -0.237 OA
ATOM    103  O   UNL A   1      44.312  27.140  36.136  1.00  0.00    -0.237 OA
ATOM    104  O   UNL A   1      44.073  29.002  34.549  1.00  0.00    -0.744 OA
ENDBRANCH  97 101
ENDBRANCH  71  94
ENDBRANCH  45  46
ENDBRANCH  37  40
ENDBRANCH  35  36
ENDBRANCH   1  35
TORSDOF 18
ENDMDL
MODEL 2
REMARK VINA RESULT:     -13.5      3.135      8.977
REMARK SMILES COc1cccc(-c2nn(-c3cc4c(cc3C(N)=O)OCO4)cc2C(=O)NCCCCNC(=O)c2ccc(-c3c4nc(c(-c5cc(S(=O)(=O)[O-])ccc5F)c5ccc([nH]5)c(-c5cc(S(=O)(=O)[O-])ccc5F)c5nc(c(-c6cc(S(=O)(=O)[O-])ccc6F)c6ccc3[nH]6)C=C5)C=C4)cc2)c1
REMARK SMILES IDX 30 1 29 2 28 3 27 4 25 5 26 6 24 8 8 9 9 10 10 11 23 12 7 13
REMARK SMILES IDX 3 14 4 15 98 16 5 17 6 18 2 19 1 20 11 21 12 22 16 23 13 24
REMARK SMILES IDX 15 25 14 26 22 27 20 28 21 29 17 30 18 31 19 32 31 35 32 36
REMARK SMILES IDX 33 37 34 39 35 40 36 41 97 42 37 43 96 44 38 45 39 46 40 47
REMARK SMILES IDX 90 48 41 49 95 50 89 51 91 52 42 53 94 54 88 55 87 56 43 58
REMARK SMILES IDX 75 59 55 60 74 61 56 62 59 63 73 64 92 65 57 66 58 67 72 69
REMARK SMILES IDX 93 70 60 71 44 72 45 73 53 74 46 75 52 76 54 77 51 78 47 79
REMARK SMILES IDX 48 80 49 81 50 82 76 83 77 84 85 85 78 86 84 87 86 88 83 89
REMARK SMILES IDX 79 90 80 91 81 92 82 93 61 94 62 95 70 96 63 97 69 98 71 99
REMARK SMILES IDX 68 100 64 101 65 102 66 103 67 104
REMARK H PARENT 27 7 18 33 18 34 32 38 91 57 59 68
REMARK Flexibility Score: inf
ROOT
ATOM      1  C   UNL A   1      38.549  19.570  24.941  1.00  0.00     0.023 C 
ENDROOT
BRANCH   1   2
ATOM      2  C   UNL A   1      37.105  19.878  25.372  1.00  0.00     0.023 C 
BRANCH   2   3
ATOM      3  C   UNL A   1      36.760  21.369  25.425  1.00  0.00     0.116 C 
BRANCH   3   4
ATOM      4  N   UNL A   1      36.940  21.995  24.130  1.00  0.00    -0.352 N 
ATOM      5  C   UNL A   1      36.247  22.963  23.447  1.00  0.00     0.255 C 
ATOM      6  O   UNL A   1      36.702  23.255  22.341  1.00  0.00    -0.269 OA
ATOM      7  H   UNL A   1      37.723  21.656  23.638  1.00  0.00     0.163 HD
BRANCH   5   8
ATOM      8  C   UNL A   1      35.068  23.624  23.996  1.00  0.00     0.086 A 
ATOM      9  C   UNL A   1      33.713  23.128  24.049  1.00  0.00     0.106 A 
ATOM     10  N   UNL A   1      32.859  24.066  24.519  1.00  0.00    -0.167 NA
ATOM     11  N   UNL A   1      33.622  25.180  24.571  1.00  0.00    -0.239 N 
ATOM     12  C   UNL A   1      34.957  24.856  24.602  1.00  0.00     0.129 A 
BRANCH   9  13
ATOM     13  C   UNL A   1      33.247  21.787  23.686  1.00  0.00     0.007 A 
ATOM     14  C   UNL A   1      32.978  19.430  24.182  1.00  0.00     0.119 A 
ATOM     15  C   UNL A   1      32.214  19.267  23.024  1.00  0.00     0.046 A 
ATOM     16  C   UNL A   1      33.511  20.682  24.508  1.00  0.00     0.056 A 
ATOM     17  C   UNL A   1      31.961  20.358  22.196  1.00  0.00     0.005 A 
ATOM     18  C   UNL A   1      32.484  21.610  22.521  1.00  0.00     0.011 A 
BRANCH  14  19
ATOM     19  O   UNL A   1      33.213  18.293  24.908  1.00  0.00    -0.497 OA
ATOM     20  C   UNL A   1      34.270  17.495  24.378  1.00  0.00     0.278 C 
ENDBRANCH  14  19
ENDBRANCH   9  13
BRANCH  11  21
ATOM     21  C   UNL A   1      33.106  26.483  24.780  1.00  0.00     0.081 A 
ATOM     22  C   UNL A   1      32.844  26.889  26.101  1.00  0.00     0.079 A 
ATOM     23  C   UNL A   1      32.955  27.394  23.689  1.00  0.00     0.069 A 
ATOM     24  C   UNL A   1      32.525  28.216  26.303  1.00  0.00     0.167 A 
ATOM     25  C   UNL A   1      32.722  28.752  23.961  1.00  0.00     0.066 A 
ATOM     26  C   UNL A   1      32.498  29.122  25.266  1.00  0.00     0.166 A 
ATOM     27  O   UNL A   1      32.219  28.805  27.492  1.00  0.00    -0.454 OA
ATOM     28  O   UNL A   1      32.177  30.378  25.676  1.00  0.00    -0.454 OA
ATOM     29  C   UNL A   1      31.798  30.111  27.040  1.00  0.00     0.468 C 
BRANCH  23  30
ATOM     30  C   UNL A   1      32.836  26.927  22.266  1.00  0.00     0.251 C 
ATOM     31  N   UNL A   1      31.604  26.934  21.678  1.00  0.00    -0.366 N 
ATOM     32  O   UNL A   1      33.777  26.469  21.624  1.00  0.00    -0.269 OA
ATOM     33  H   UNL A   1      30.828  27.295  22.166  1.00  0.00     0.159 HD
ATOM     34  H   UNL A   1      31.490  26.579  20.768  1.00  0.00     0.159 HD
ENDBRANCH  23  30
ENDBRANCH  11  21
ENDBRANCH   5   8
ENDBRANCH   3   4
ENDBRANCH   2   3
ENDBRANCH   1   2
BRANCH   1  35
ATOM     35  C   UNL A   1      39.604  19.883  25.998  1.00  0.00     0.116 C 
BRANCH  35  36
ATOM     36  N   UNL A   1      40.847  19.140  25.795  1.00  0.00    -0.352 N 
ATOM     37  C   UNL A   1      42.127  19.650  25.690  1.00  0.00     0.251 C 
ATOM     38  H   UNL A   1      40.761  18.161  25.725  1.00  0.00     0.163 HD
ATOM     39  O   UNL A   1      43.004  19.014  25.118  1.00  0.00    -0.269 OA
BRANCH  37  40
ATOM     40  C   UNL A   1      42.417  20.963  26.298  1.00  0.00     0.039 A 
ATOM     41  C   UNL A   1      42.594  22.112  25.521  1.00  0.00     0.014 A 
ATOM     42  C   UNL A   1      42.494  21.025  27.689  1.00  0.00     0.014 A 
ATOM     43  C   UNL A   1      42.770  23.336  26.166  1.00  0.00     0.010 A 
ATOM     44  C   UNL A   1      42.533  22.241  28.320  1.00  0.00     0.010 A 
ATOM     45  C   UNL A   1      42.721  23.397  27.570  1.00  0.00    -0.014 A 
BRANCH  45  46
ATOM     46  C   UNL A   1      42.684  24.675  28.278  1.00  0.00     0.031 A 
ATOM     47  C   UNL A   1      41.357  25.347  28.208  1.00  0.00     0.074 A 
ATOM     48  C   UNL A   1      43.661  25.079  29.124  1.00  0.00     0.049 A 
ATOM     49  N   UNL A   1      41.053  26.422  27.562  1.00  0.00    -0.248 NA
ATOM     50  C   UNL A   1      40.182  24.643  28.757  1.00  0.00     0.031 C 
ATOM     51  C   UNL A   1      44.881  24.359  29.506  1.00  0.00     0.029 A 
ATOM     52  N   UNL A   1      43.723  26.186  29.915  1.00  0.00    -0.354 N 
ATOM     53  C   UNL A   1      39.717  26.680  27.857  1.00  0.00     0.074 A 
ATOM     54  C   UNL A   1      39.189  25.447  28.370  1.00  0.00     0.031 C 
ATOM     55  C   UNL A   1      45.425  24.926  30.608  1.00  0.00     0.029 A 
ATOM     56  C   UNL A   1      44.693  26.141  30.922  1.00  0.00     0.049 A 
ATOM     57  H   UNL A   1      43.131  26.962  29.788  1.00  0.00     0.167 HD
ATOM     58  C   UNL A   1      39.253  27.961  27.917  1.00  0.00     0.034 A 
ATOM     59  C   UNL A   1      44.874  27.025  31.948  1.00  0.00     0.034 A 
ATOM     60  C   UNL A   1      40.194  28.869  27.293  1.00  0.00     0.049 A 
ATOM     61  C   UNL A   1      44.216  28.287  31.528  1.00  0.00     0.074 A 
ATOM     62  C   UNL A   1      40.756  28.965  26.033  1.00  0.00     0.029 A 
ATOM     63  N   UNL A   1      41.014  29.610  28.117  1.00  0.00    -0.354 N 
ATOM     64  N   UNL A   1      44.631  28.998  30.514  1.00  0.00    -0.248 NA
ATOM     65  C   UNL A   1      42.816  28.470  31.881  1.00  0.00     0.031 C 
ATOM     66  C   UNL A   1      42.124  29.295  26.271  1.00  0.00     0.029 A 
ATOM     67  C   UNL A   1      42.298  29.497  27.641  1.00  0.00     0.049 A 
ATOM     68  H   UNL A   1      40.731  30.127  28.906  1.00  0.00     0.167 HD
ATOM     69  C   UNL A   1      43.476  29.352  29.831  1.00  0.00     0.074 A 
ATOM     70  C   UNL A   1      42.385  29.074  30.769  1.00  0.00     0.031 C 
ATOM     71  C   UNL A   1      43.484  29.549  28.478  1.00  0.00     0.034 A 
BRANCH  58  72
ATOM     72  C   UNL A   1      38.183  28.459  28.872  1.00  0.00     0.023 A 
ATOM     73  C   UNL A   1      37.265  29.398  28.360  1.00  0.00     0.031 A 
ATOM     74  C   UNL A   1      38.183  28.315  30.278  1.00  0.00     0.131 A 
ATOM     75  C   UNL A   1      36.517  30.225  29.215  1.00  0.00     0.055 A 
ATOM     76  C   UNL A   1      37.387  29.095  31.124  1.00  0.00     0.041 A 
ATOM     77  F   UNL A   1      39.003  27.483  30.928  1.00  0.00    -0.206 F 
ATOM     78  C   UNL A   1      36.576  30.084  30.597  1.00  0.00     0.022 A 
BRANCH  75  79
ATOM     79  S   UNL A   1      35.618  31.617  28.486  1.00  0.00     0.124 S 
ATOM     80  O   UNL A   1      36.694  32.578  28.275  1.00  0.00    -0.237 OA
ATOM     81  O   UNL A   1      35.049  31.009  27.288  1.00  0.00    -0.237 OA
ATOM     82  O   UNL A   1      34.653  31.975  29.523  1.00  0.00    -0.744 OA
ENDBRANCH  75  79
ENDBRANCH  58  72
BRANCH  59  83
ATOM     83  C   UNL A   1      45.262  26.733  33.366  1.00  0.00     0.023 A 
ATOM     84  C   UNL A   1      44.547  25.855  34.220  1.00  0.00     0.031 A 
ATOM     85  C   UNL A   1      46.536  27.144  33.822  1.00  0.00     0.131 A 
ATOM     86  C   UNL A   1      45.109  25.434  35.455  1.00  0.00     0.055 A 
ATOM     87  C   UNL A   1      47.086  26.720  35.036  1.00  0.00     0.041 A 
ATOM     88  F   UNL A   1      47.331  27.910  33.059  1.00  0.00    -0.206 F 
ATOM     89  C   UNL A   1      46.379  25.855  35.854  1.00  0.00     0.022 A 
BRANCH  86  90
ATOM     90  S   UNL A   1      44.228  24.263  36.552  1.00  0.00     0.124 S 
ATOM     91  O   UNL A   1      44.854  22.989  36.214  1.00  0.00    -0.237 OA
ATOM     92  O   UNL A   1      44.513  24.797  37.878  1.00  0.00    -0.237 OA
ATOM     93  O   UNL A   1      42.831  24.385  36.134  1.00  0.00    -0.744 OA
ENDBRANCH  86  90
ENDBRANCH  59  83
BRANCH  71  94
ATOM     94  C   UNL A   1      44.822  29.652  27.766  1.00  0.00     0.023 A 
ATOM     95  C   UNL A   1      45.541  28.570  27.202  1.00  0.00     0.031 A 
ATOM     96  C   UNL A   1      45.325  30.947  27.552  1.00  0.00     0.131 A 
ATOM     97  C   UNL A   1      46.720  28.815  26.465  1.00  0.00     0.055 A 
ATOM     98  C   UNL A   1      46.474  31.186  26.801  1.00  0.00     0.041 A 
ATOM     99  F   UNL A   1      44.678  32.017  28.042  1.00  0.00    -0.206 F 
ATOM    100  C   UNL A   1      47.179  30.119  26.259  1.00  0.00     0.022 A 
BRANCH  97 101
ATOM    101  S   UNL A   1      47.701  27.440  25.772  1.00  0.00     0.124 S 
ATOM    102  O   UNL A   1      48.856  28.106  25.182  1.00  0.00    -0.237 OA
ATOM    103  O   UNL A   1      47.969  26.616  26.948  1.00  0.00    -0.237 OA
ATOM    104  O   UNL A   1      46.791  26.829  24.801  1.00  0.00    -0.744 OA
ENDBRANCH  97 101
ENDBRANCH  71  94
ENDBRANCH  45  46
ENDBRANCH  37  40
ENDBRANCH  35  36
ENDBRANCH   1  35
TORSDOF 18
ENDMDL
MODEL 3
REMARK VINA RESULT:     -13.1      3.778      9.271
REMARK SMILES COc1cccc(-c2nn(-c3cc4c(cc3C(N)=O)OCO4)cc2C(=O)NCCCCNC(=O)c2ccc(-c3c4nc(c(-c5cc(S(=O)(=O)[O-])ccc5F)c5ccc([nH]5)c(-c5cc(S(=O)(=O)[O-])ccc5F)c5nc(c(-c6cc(S(=O)(=O)[O-])ccc6F)c6ccc3[nH]6)C=C5)C=C4)cc2)c1
REMARK SMILES IDX 30 1 29 2 28 3 27 4 25 5 26 6 24 8 8 9 9 10 10 11 23 12 7 13
REMARK SMILES IDX 3 14 4 15 98 16 5 17 6 18 2 19 1 20 11 21 12 22 16 23 13 24
REMARK SMILES IDX 15 25 14 26 22 27 20 28 21 29 17 30 18 31 19 32 31 35 32 36
REMARK SMILES IDX 33 37 34 39 35 40 36 41 97 42 37 43 96 44 38 45 39 46 40 47
REMARK SMILES IDX 90 48 41 49 95 50 89 51 91 52 42 53 94 54 88 55 87 56 43 58
REMARK SMILES IDX 75 59 55 60 74 61 56 62 59 63 73 64 92 65 57 66 58 67 72 69
REMARK SMILES IDX 93 70 60 71 44 72 45 73 53 74 46 75 52 76 54 77 51 78 47 79
REMARK SMILES IDX 48 80 49 81 50 82 76 83 77 84 85 85 78 86 84 87 86 88 83 89
REMARK SMILES IDX 79 90 80 91 81 92 82 93 61 94 62 95 70 96 63 97 69 98 71 99
REMARK SMILES IDX 68 100 64 101 65 102 66 103 67 104
REMARK H PARENT 27 7 18 33 18 34 32 38 91 57 59 68
REMARK Flexibility Score: inf
ROOT
ATOM      1  C   UNL A   1      40.004  21.520  26.645  1.00  0.00     0.023 C 
ENDROOT
BRANCH   1   2
ATOM      2  C   UNL A   1      38.737  21.221  25.827  1.00  0.00     0.023 C 
BRANCH   2   3
ATOM      3  C   UNL A   1      37.806  22.421  25.632  1.00  0.00     0.116 C 
BRANCH   3   4
ATOM      4  N   UNL A   1      37.397  22.548  24.247  1.00  0.00    -0.352 N 
ATOM      5  C   UNL A   1      36.247  22.989  23.641  1.00  0.00     0.255 C 
ATOM      6  O   UNL A   1      36.255  22.956  22.410  1.00  0.00    -0.269 OA
ATOM      7  H   UNL A   1      38.088  22.258  23.608  1.00  0.00     0.163 HD
BRANCH   5   8
ATOM      8  C   UNL A   1      35.102  23.489  24.393  1.00  0.00     0.086 A 
ATOM      9  C   UNL A   1      33.811  22.867  24.569  1.00  0.00     0.106 A 
ATOM     10  N   UNL A   1      32.953  23.679  25.228  1.00  0.00    -0.167 NA
ATOM     11  N   UNL A   1      33.623  24.851  25.288  1.00  0.00    -0.239 N 
ATOM     12  C   UNL A   1      34.972  24.652  25.121  1.00  0.00     0.129 A 
BRANCH   9  13
ATOM     13  C   UNL A   1      33.412  21.522  24.143  1.00  0.00     0.007 A 
ATOM     14  C   UNL A   1      33.352  19.123  24.481  1.00  0.00     0.119 A 
ATOM     15  C   UNL A   1      32.509  18.983  23.377  1.00  0.00     0.046 A 
ATOM     16  C   UNL A   1      33.821  20.387  24.857  1.00  0.00     0.056 A 
ATOM     17  C   UNL A   1      32.111  20.106  22.655  1.00  0.00     0.005 A 
ATOM     18  C   UNL A   1      32.569  21.368  23.032  1.00  0.00     0.011 A 
BRANCH  14  19
ATOM     19  O   UNL A   1      33.728  17.960  25.099  1.00  0.00    -0.497 OA
ATOM     20  C   UNL A   1      32.633  17.086  25.368  1.00  0.00     0.278 C 
ENDBRANCH  14  19
ENDBRANCH   9  13
BRANCH  11  21
ATOM     21  C   UNL A   1      33.034  26.079  25.681  1.00  0.00     0.081 A 
ATOM     22  C   UNL A   1      33.885  27.122  26.090  1.00  0.00     0.079 A 
ATOM     23  C   UNL A   1      31.624  26.284  25.565  1.00  0.00     0.069 A 
ATOM     24  C   UNL A   1      33.313  28.363  26.285  1.00  0.00     0.167 A 
ATOM     25  C   UNL A   1      31.112  27.586  25.683  1.00  0.00     0.066 A 
ATOM     26  C   UNL A   1      31.974  28.589  26.057  1.00  0.00     0.166 A 
ATOM     27  O   UNL A   1      33.950  29.493  26.698  1.00  0.00    -0.454 OA
ATOM     28  O   UNL A   1      31.614  29.880  26.293  1.00  0.00    -0.454 OA
ATOM     29  C   UNL A   1      32.823  30.374  26.898  1.00  0.00     0.468 C 
BRANCH  23  30
ATOM     30  C   UNL A   1      30.649  25.141  25.522  1.00  0.00     0.251 C 
ATOM     31  N   UNL A   1      30.345  24.590  24.310  1.00  0.00    -0.366 N 
ATOM     32  O   UNL A   1      30.055  24.721  26.510  1.00  0.00    -0.269 OA
ATOM     33  H   UNL A   1      30.804  24.905  23.497  1.00  0.00     0.159 HD
ATOM     34  H   UNL A   1      29.667  23.880  24.248  1.00  0.00     0.159 HD
ENDBRANCH  23  30
ENDBRANCH  11  21
ENDBRANCH   5   8
ENDBRANCH   3   4
ENDBRANCH   2   3
ENDBRANCH   1   2
BRANCH   1  35
ATOM     35  C   UNL A   1      40.451  22.978  26.607  1.00  0.00     0.116 C 
BRANCH  35  36
ATOM     36  N   UNL A   1      41.749  23.156  25.957  1.00  0.00    -0.352 N 
ATOM     37  C   UNL A   1      42.432  24.339  25.749  1.00  0.00     0.251 C 
ATOM     38  H   UNL A   1      42.186  22.337  25.628  1.00  0.00     0.163 HD
ATOM     39  O   UNL A   1      43.267  24.425  24.856  1.00  0.00    -0.269 OA
BRANCH  37  40
ATOM     40  C   UNL A   1      42.151  25.484  26.636  1.00  0.00     0.039 A 
ATOM     41  C   UNL A   1      42.722  25.590  27.907  1.00  0.00     0.014 A 
ATOM     42  C   UNL A   1      41.299  26.477  26.152  1.00  0.00     0.014 A 
ATOM     43  C   UNL A   1      42.489  26.746  28.652  1.00  0.00     0.010 A 
ATOM     44  C   UNL A   1      41.179  27.665  26.826  1.00  0.00     0.010 A 
ATOM     45  C   UNL A   1      41.727  27.790  28.098  1.00  0.00    -0.014 A 
BRANCH  45  46
ATOM     46  C   UNL A   1      41.636  29.097  28.747  1.00  0.00     0.031 A 
ATOM     47  C   UNL A   1      42.728  30.028  28.348  1.00  0.00     0.074 A 
ATOM     48  C   UNL A   1      40.541  29.508  29.428  1.00  0.00     0.049 A 
ATOM     49  N   UNL A   1      43.710  30.446  29.074  1.00  0.00    -0.248 NA
ATOM     50  C   UNL A   1      42.861  30.387  26.923  1.00  0.00     0.031 C 
ATOM     51  C   UNL A   1      39.279  28.786  29.632  1.00  0.00     0.029 A 
ATOM     52  N   UNL A   1      40.275  30.715  30.001  1.00  0.00    -0.354 N 
ATOM     53  C   UNL A   1      44.419  31.341  28.279  1.00  0.00     0.074 A 
ATOM     54  C   UNL A   1      44.008  31.069  26.929  1.00  0.00     0.031 C 
ATOM     55  C   UNL A   1      38.324  29.643  30.063  1.00  0.00     0.029 A 
ATOM     56  C   UNL A   1      38.932  30.936  30.321  1.00  0.00     0.049 A 
ATOM     57  H   UNL A   1      40.977  31.383  30.178  1.00  0.00     0.167 HD
ATOM     58  C   UNL A   1      45.061  32.409  28.834  1.00  0.00     0.034 A 
ATOM     59  C   UNL A   1      38.356  32.098  30.751  1.00  0.00     0.034 A 
ATOM     60  C   UNL A   1      45.191  32.229  30.267  1.00  0.00     0.049 A 
ATOM     61  C   UNL A   1      39.456  32.926  31.305  1.00  0.00     0.074 A 
ATOM     62  C   UNL A   1      45.766  31.264  31.072  1.00  0.00     0.029 A 
ATOM     63  N   UNL A   1      44.313  32.912  31.082  1.00  0.00    -0.354 N 
ATOM     64  N   UNL A   1      40.137  32.581  32.365  1.00  0.00    -0.248 NA
ATOM     65  C   UNL A   1      40.143  33.834  30.398  1.00  0.00     0.031 C 
ATOM     66  C   UNL A   1      44.836  31.082  32.139  1.00  0.00     0.029 A 
ATOM     67  C   UNL A   1      43.810  32.018  31.995  1.00  0.00     0.049 A 
ATOM     68  H   UNL A   1      44.087  33.868  31.019  1.00  0.00     0.167 HD
ATOM     69  C   UNL A   1      41.460  32.843  32.040  1.00  0.00     0.074 A 
ATOM     70  C   UNL A   1      41.393  33.696  30.851  1.00  0.00     0.031 C 
ATOM     71  C   UNL A   1      42.481  32.108  32.575  1.00  0.00     0.034 A 
BRANCH  58  72
ATOM     72  C   UNL A   1      45.205  33.775  28.189  1.00  0.00     0.023 A 
ATOM     73  C   UNL A   1      44.164  34.697  28.418  1.00  0.00     0.031 A 
ATOM     74  C   UNL A   1      46.106  34.122  27.156  1.00  0.00     0.131 A 
ATOM     75  C   UNL A   1      43.972  35.802  27.573  1.00  0.00     0.055 A 
ATOM     76  C   UNL A   1      45.948  35.261  26.358  1.00  0.00     0.041 A 
ATOM     77  F   UNL A   1      47.138  33.352  26.795  1.00  0.00    -0.206 F 
ATOM     78  C   UNL A   1      44.855  36.089  26.538  1.00  0.00     0.022 A 
BRANCH  75  79
ATOM     79  S   UNL A   1      42.434  36.743  27.734  1.00  0.00     0.124 S 
ATOM     80  O   UNL A   1      42.441  37.524  26.502  1.00  0.00    -0.237 OA
ATOM     81  O   UNL A   1      41.441  35.677  27.818  1.00  0.00    -0.237 OA
ATOM     82  O   UNL A   1      42.633  37.508  28.962  1.00  0.00    -0.744 OA
ENDBRANCH  75  79
ENDBRANCH  58  72
BRANCH  59  83
ATOM     83  C   UNL A   1      37.010  32.653  30.396  1.00  0.00     0.023 A 
ATOM     84  C   UNL A   1      36.115  33.224  31.337  1.00  0.00     0.031 A 
ATOM     85  C   UNL A   1      36.694  32.858  29.033  1.00  0.00     0.131 A 
ATOM     86  C   UNL A   1      34.977  33.953  30.897  1.00  0.00     0.055 A 
ATOM     87  C   UNL A   1      35.577  33.583  28.608  1.00  0.00     0.041 A 
ATOM     88  F   UNL A   1      37.515  32.430  28.061  1.00  0.00    -0.206 F 
ATOM     89  C   UNL A   1      34.717  34.142  29.538  1.00  0.00     0.022 A 
BRANCH  86  90
ATOM     90  S   UNL A   1      33.833  34.742  32.089  1.00  0.00     0.124 S 
ATOM     91  O   UNL A   1      33.650  33.694  33.087  1.00  0.00    -0.237 OA
ATOM     92  O   UNL A   1      34.581  35.920  32.512  1.00  0.00    -0.237 OA
ATOM     93  O   UNL A   1      32.645  35.032  31.284  1.00  0.00    -0.744 OA
ENDBRANCH  86  90
ENDBRANCH  59  83
BRANCH  71  94
ATOM     94  C   UNL A   1      42.178  31.184  33.742  1.00  0.00     0.023 A 
ATOM     95  C   UNL A   1      42.038  29.776  33.665  1.00  0.00     0.031 A 
ATOM     96  C   UNL A   1      42.151  31.768  35.020  1.00  0.00     0.131 A 
ATOM     97  C   UNL A   1      41.871  29.018  34.844  1.00  0.00     0.055 A 
ATOM     98  C   UNL A   1      42.013  31.014  36.183  1.00  0.00     0.041 A 
ATOM     99  F   UNL A   1      42.300  33.096  35.163  1.00  0.00    -0.206 F 
ATOM    100  C   UNL A   1      41.866  29.636  36.099  1.00  0.00     0.022 A 
BRANCH  97 101
ATOM    101  S   UNL A   1      41.632  27.210  34.776  1.00  0.00     0.124 S 
ATOM    102  O   UNL A   1      42.833  26.731  34.101  1.00  0.00    -0.237 OA
ATOM    103  O   UNL A   1      41.506  26.851  36.186  1.00  0.00    -0.237 OA
ATOM    104  O   UNL A   1      40.399  27.059  34.000  1.00  0.00    -0.744 OA
ENDBRANCH  97 101
ENDBRANCH  71  94
ENDBRANCH  45  46
ENDBRANCH  37  40
ENDBRANCH  35  36
ENDBRANCH   1  35
TORSDOF 18
ENDMDL
