MODEL 1
REMARK VINA RESULT:     -12.0      0.000      0.000
REMARK SMILES O=C(NCCCCNC(=O)[C@@H]1C=C[C@H](NC(=O)c2ccc(CO)cc2)C1)c1ccc(-c2c3nc(c(-c4cc(S(=O)(=O)[O-])ccc4F)c4ccc([nH]4)c(-c4cc(S(=O)(=O)[O-])ccc4F)c4nc(c(-c5cc(S(=O)(=O)[O-])ccc5F)c5ccc2[nH]5)C=C4)C=C3)cc1
REMARK SMILES IDX 6 1 5 2 4 3 3 4 1 5 2 6 27 8 28 9 89 10 29 11 88 12 30 13
REMARK SMILES IDX 31 14 32 15 82 16 33 17 87 18 81 19 83 20 34 21 86 22 80 23
REMARK SMILES IDX 79 24 35 26 67 27 47 28 66 29 48 30 51 31 65 32 84 33 49 34
REMARK SMILES IDX 50 35 64 37 85 38 52 39 36 40 37 41 45 42 38 43 44 44 46 45
REMARK SMILES IDX 43 46 39 47 40 48 41 49 42 50 68 51 69 52 77 53 70 54 76 55
REMARK SMILES IDX 78 56 75 57 71 58 72 59 73 60 74 61 53 62 54 63 62 64 55 65
REMARK SMILES IDX 61 66 63 67 60 68 56 69 57 70 58 71 59 72 7 73 8 74 9 75
REMARK SMILES IDX 10 77 11 78 12 79 26 80 13 81 14 82 15 83 16 84 17 86 18 87
REMARK SMILES IDX 19 88 25 89 20 90 24 91 21 92 22 93 23 94
REMARK H PARENT 3 7 83 25 51 36 8 76 15 85 23 95
REMARK Flexibility Score: inf
ROOT
ATOM      1  C   UNL A   1      31.450  30.857  26.163  1.00  0.00     0.023 C 
ENDROOT
BRANCH   1   2
ATOM      2  C   UNL A   1      31.439  32.300  26.692  1.00  0.00     0.023 C 
BRANCH   2   3
ATOM      3  C   UNL A   1      32.772  32.796  27.245  1.00  0.00     0.116 C 
BRANCH   3   4
ATOM      4  N   UNL A   1      32.696  34.176  27.702  1.00  0.00    -0.352 N 
ATOM      5  O   UNL A   1      32.981  35.911  29.103  1.00  0.00    -0.269 OA
ATOM      6  C   UNL A   1      33.345  34.801  28.742  1.00  0.00     0.251 C 
ATOM      7  H   UNL A   1      32.085  34.751  27.186  1.00  0.00     0.163 HD
BRANCH   6   8
ATOM      8  C   UNL A   1      34.472  34.125  29.426  1.00  0.00     0.039 A 
ATOM      9  C   UNL A   1      35.786  34.340  29.007  1.00  0.00     0.014 A 
ATOM     10  C   UNL A   1      34.214  33.295  30.521  1.00  0.00     0.014 A 
ATOM     11  C   UNL A   1      36.824  33.619  29.588  1.00  0.00     0.010 A 
ATOM     12  C   UNL A   1      35.271  32.639  31.161  1.00  0.00     0.010 A 
ATOM     13  C   UNL A   1      36.584  32.775  30.685  1.00  0.00    -0.014 A 
BRANCH  13  14
ATOM     14  C   UNL A   1      37.731  32.107  31.354  1.00  0.00     0.031 A 
ATOM     15  C   UNL A   1      38.486  30.992  30.683  1.00  0.00     0.074 A 
ATOM     16  C   UNL A   1      38.102  32.536  32.577  1.00  0.00     0.049 A 
ATOM     17  N   UNL A   1      39.505  30.301  31.129  1.00  0.00    -0.248 NA
ATOM     18  C   UNL A   1      38.033  30.594  29.343  1.00  0.00     0.031 C 
ATOM     19  C   UNL A   1      37.440  33.608  33.326  1.00  0.00     0.029 A 
ATOM     20  N   UNL A   1      39.126  32.144  33.402  1.00  0.00    -0.354 N 
ATOM     21  C   UNL A   1      39.807  29.377  30.135  1.00  0.00     0.074 A 
ATOM     22  C   UNL A   1      38.839  29.576  29.076  1.00  0.00     0.031 C 
ATOM     23  C   UNL A   1      38.098  33.816  34.475  1.00  0.00     0.029 A 
ATOM     24  C   UNL A   1      39.179  32.843  34.584  1.00  0.00     0.049 A 
ATOM     25  H   UNL A   1      39.763  31.430  33.168  1.00  0.00     0.167 HD
ATOM     26  C   UNL A   1      40.804  28.456  30.109  1.00  0.00     0.034 A 
ATOM     27  C   UNL A   1      39.984  32.702  35.655  1.00  0.00     0.034 A 
ATOM     28  C   UNL A   1      41.758  28.275  31.180  1.00  0.00     0.049 A 
ATOM     29  C   UNL A   1      41.050  31.641  35.621  1.00  0.00     0.074 A 
ATOM     30  C   UNL A   1      42.828  27.397  31.242  1.00  0.00     0.029 A 
ATOM     31  N   UNL A   1      41.755  28.973  32.382  1.00  0.00    -0.354 N 
ATOM     32  N   UNL A   1      41.335  30.789  34.663  1.00  0.00    -0.248 NA
ATOM     33  C   UNL A   1      41.905  31.526  36.807  1.00  0.00     0.031 C 
ATOM     34  C   UNL A   1      43.417  27.507  32.506  1.00  0.00     0.029 A 
ATOM     35  C   UNL A   1      42.777  28.518  33.204  1.00  0.00     0.049 A 
ATOM     36  H   UNL A   1      41.119  29.687  32.618  1.00  0.00     0.167 HD
ATOM     37  C   UNL A   1      42.420  30.051  35.124  1.00  0.00     0.074 A 
ATOM     38  C   UNL A   1      42.749  30.575  36.435  1.00  0.00     0.031 C 
ATOM     39  C   UNL A   1      43.085  29.034  34.519  1.00  0.00     0.034 A 
BRANCH  26  40
ATOM     40  C   UNL A   1      40.884  27.539  28.910  1.00  0.00     0.023 A 
ATOM     41  C   UNL A   1      41.884  27.676  27.931  1.00  0.00     0.031 A 
ATOM     42  C   UNL A   1      39.941  26.508  28.741  1.00  0.00     0.131 A 
ATOM     43  C   UNL A   1      41.880  26.842  26.801  1.00  0.00     0.055 A 
ATOM     44  C   UNL A   1      39.990  25.631  27.656  1.00  0.00     0.041 A 
ATOM     45  F   UNL A   1      38.949  26.338  29.630  1.00  0.00    -0.206 F 
ATOM     46  C   UNL A   1      40.956  25.804  26.671  1.00  0.00     0.022 A 
BRANCH  43  47
ATOM     47  S   UNL A   1      43.016  27.220  25.438  1.00  0.00     0.124 S 
ATOM     48  O   UNL A   1      43.215  25.900  24.844  1.00  0.00    -0.237 OA
ATOM     49  O   UNL A   1      42.248  28.170  24.642  1.00  0.00    -0.237 OA
ATOM     50  O   UNL A   1      44.189  27.774  26.112  1.00  0.00    -0.744 OA
ENDBRANCH  43  47
ENDBRANCH  26  40
BRANCH  27  51
ATOM     51  C   UNL A   1      39.782  33.555  36.861  1.00  0.00     0.023 A 
ATOM     52  C   UNL A   1      40.634  34.633  37.142  1.00  0.00     0.031 A 
ATOM     53  C   UNL A   1      38.741  33.283  37.769  1.00  0.00     0.131 A 
ATOM     54  C   UNL A   1      40.456  35.375  38.321  1.00  0.00     0.055 A 
ATOM     55  C   UNL A   1      38.530  34.061  38.907  1.00  0.00     0.041 A 
ATOM     56  F   UNL A   1      37.896  32.264  37.547  1.00  0.00    -0.206 F 
ATOM     57  C   UNL A   1      39.400  35.107  39.196  1.00  0.00     0.022 A 
BRANCH  54  58
ATOM     58  S   UNL A   1      41.682  36.642  38.742  1.00  0.00     0.124 S 
ATOM     59  O   UNL A   1      42.616  35.888  39.570  1.00  0.00    -0.237 OA
ATOM     60  O   UNL A   1      42.169  37.042  37.427  1.00  0.00    -0.237 OA
ATOM     61  O   UNL A   1      40.898  37.653  39.448  1.00  0.00    -0.744 OA
ENDBRANCH  54  58
ENDBRANCH  27  51
BRANCH  39  62
ATOM     62  C   UNL A   1      44.264  28.453  35.261  1.00  0.00     0.023 A 
ATOM     63  C   UNL A   1      44.103  27.482  36.266  1.00  0.00     0.031 A 
ATOM     64  C   UNL A   1      45.567  28.899  34.977  1.00  0.00     0.131 A 
ATOM     65  C   UNL A   1      45.218  27.036  36.992  1.00  0.00     0.055 A 
ATOM     66  C   UNL A   1      46.680  28.401  35.655  1.00  0.00     0.041 A 
ATOM     67  F   UNL A   1      45.780  29.830  34.032  1.00  0.00    -0.206 F 
ATOM     68  C   UNL A   1      46.508  27.475  36.681  1.00  0.00     0.022 A 
BRANCH  65  69
ATOM     69  S   UNL A   1      44.949  25.956  38.424  1.00  0.00     0.124 S 
ATOM     70  O   UNL A   1      46.193  26.122  39.167  1.00  0.00    -0.237 OA
ATOM     71  O   UNL A   1      43.757  26.539  39.034  1.00  0.00    -0.237 OA
ATOM     72  O   UNL A   1      44.755  24.636  37.826  1.00  0.00    -0.744 OA
ENDBRANCH  65  69
ENDBRANCH  39  62
ENDBRANCH  13  14
ENDBRANCH   6   8
ENDBRANCH   3   4
ENDBRANCH   2   3
ENDBRANCH   1   2
BRANCH   1  73
ATOM     73  C   UNL A   1      32.835  30.199  26.086  1.00  0.00     0.116 C 
BRANCH  73  74
ATOM     74  N   UNL A   1      32.955  29.441  24.855  1.00  0.00    -0.356 N 
ATOM     75  C   UNL A   1      32.759  28.128  24.565  1.00  0.00     0.227 C 
ATOM     76  H   UNL A   1      33.230  29.982  24.081  1.00  0.00     0.163 HD
ATOM     77  O   UNL A   1      33.183  27.757  23.467  1.00  0.00    -0.274 OA
BRANCH  75  78
ATOM     78  C   UNL A   1      32.008  27.186  25.516  1.00  0.00     0.103 C 
ATOM     79  C   UNL A   1      33.003  26.270  26.172  1.00  0.00    -0.016 C 
ATOM     80  C   UNL A   1      31.071  26.154  24.852  1.00  0.00     0.047 C 
ATOM     81  C   UNL A   1      32.936  25.017  25.698  1.00  0.00    -0.006 C 
ATOM     82  C   UNL A   1      31.858  24.838  24.661  1.00  0.00     0.106 C 
BRANCH  82  83
ATOM     83  N   UNL A   1      32.529  24.442  23.418  1.00  0.00    -0.346 N 
ATOM     84  C   UNL A   1      33.540  23.546  23.125  1.00  0.00     0.251 C 
ATOM     85  H   UNL A   1      32.188  24.916  22.625  1.00  0.00     0.164 HD
ATOM     86  O   UNL A   1      34.440  23.889  22.360  1.00  0.00    -0.269 OA
BRANCH  84  87
ATOM     87  C   UNL A   1      33.510  22.152  23.620  1.00  0.00     0.039 A 
ATOM     88  C   UNL A   1      34.505  21.607  24.432  1.00  0.00     0.014 A 
ATOM     89  C   UNL A   1      32.512  21.312  23.163  1.00  0.00     0.014 A 
ATOM     90  C   UNL A   1      34.364  20.298  24.930  1.00  0.00     0.007 A 
ATOM     91  C   UNL A   1      32.307  20.058  23.720  1.00  0.00     0.007 A 
ATOM     92  C   UNL A   1      33.214  19.551  24.644  1.00  0.00    -0.023 A 
BRANCH  92  93
ATOM     93  C   UNL A   1      32.932  18.205  25.250  1.00  0.00     0.191 C 
BRANCH  93  94
ATOM     94  O   UNL A   1      32.577  18.328  26.620  1.00  0.00    -0.392 OA
ATOM     95  H   UNL A   1      32.877  17.542  27.102  1.00  0.00     0.211 HD
ENDBRANCH  93  94
ENDBRANCH  92  93
ENDBRANCH  84  87
ENDBRANCH  82  83
ENDBRANCH  75  78
ENDBRANCH  73  74
ENDBRANCH   1  73
TORSDOF 18
ENDMDL
MODEL 2
REMARK VINA RESULT:     -12.0      1.931      2.182
REMARK SMILES O=C(NCCCCNC(=O)[C@@H]1C=C[C@H](NC(=O)c2ccc(CO)cc2)C1)c1ccc(-c2c3nc(c(-c4cc(S(=O)(=O)[O-])ccc4F)c4ccc([nH]4)c(-c4cc(S(=O)(=O)[O-])ccc4F)c4nc(c(-c5cc(S(=O)(=O)[O-])ccc5F)c5ccc2[nH]5)C=C4)C=C3)cc1
REMARK SMILES IDX 6 1 5 2 4 3 3 4 1 5 2 6 27 8 28 9 89 10 29 11 88 12 30 13
REMARK SMILES IDX 31 14 32 15 82 16 33 17 87 18 81 19 83 20 34 21 86 22 80 23
REMARK SMILES IDX 79 24 35 26 67 27 47 28 66 29 48 30 51 31 65 32 84 33 49 34
REMARK SMILES IDX 50 35 64 37 85 38 52 39 36 40 37 41 45 42 38 43 44 44 46 45
REMARK SMILES IDX 43 46 39 47 40 48 41 49 42 50 68 51 69 52 77 53 70 54 76 55
REMARK SMILES IDX 78 56 75 57 71 58 72 59 73 60 74 61 53 62 54 63 62 64 55 65
REMARK SMILES IDX 61 66 63 67 60 68 56 69 57 70 58 71 59 72 7 73 8 74 9 75
REMARK SMILES IDX 10 77 11 78 12 79 26 80 13 81 14 82 15 83 16 84 17 86 18 87
REMARK SMILES IDX 19 88 25 89 20 90 24 91 21 92 22 93 23 94
REMARK H PARENT 3 7 83 25 51 36 8 76 15 85 23 95
REMARK Flexibility Score: inf
ROOT
ATOM      1  C   UNL A   1      31.163  30.799  25.748  1.00  0.00     0.023 C 
ENDROOT
BRANCH   1   2
ATOM      2  C   UNL A   1      31.153  32.132  26.512  1.00  0.00     0.023 C 
BRANCH   2   3
ATOM      3  C   UNL A   1      32.502  32.558  27.087  1.00  0.00     0.116 C 
BRANCH   3   4
ATOM      4  N   UNL A   1      32.504  33.955  27.499  1.00  0.00    -0.352 N 
ATOM      5  O   UNL A   1      32.936  35.721  28.822  1.00  0.00    -0.269 OA
ATOM      6  C   UNL A   1      33.236  34.586  28.479  1.00  0.00     0.251 C 
ATOM      7  H   UNL A   1      31.886  34.537  27.000  1.00  0.00     0.163 HD
BRANCH   6   8
ATOM      8  C   UNL A   1      34.375  33.889  29.119  1.00  0.00     0.039 A 
ATOM      9  C   UNL A   1      35.680  34.346  28.934  1.00  0.00     0.014 A 
ATOM     10  C   UNL A   1      34.130  32.786  29.944  1.00  0.00     0.014 A 
ATOM     11  C   UNL A   1      36.748  33.622  29.454  1.00  0.00     0.010 A 
ATOM     12  C   UNL A   1      35.201  32.111  30.538  1.00  0.00     0.010 A 
ATOM     13  C   UNL A   1      36.523  32.507  30.279  1.00  0.00    -0.014 A 
BRANCH  13  14
ATOM     14  C   UNL A   1      37.682  31.823  30.911  1.00  0.00     0.031 A 
ATOM     15  C   UNL A   1      38.486  30.796  30.160  1.00  0.00     0.074 A 
ATOM     16  C   UNL A   1      38.018  32.157  32.173  1.00  0.00     0.049 A 
ATOM     17  N   UNL A   1      39.521  30.104  30.565  1.00  0.00    -0.248 NA
ATOM     18  C   UNL A   1      38.069  30.500  28.783  1.00  0.00     0.031 C 
ATOM     19  C   UNL A   1      37.306  33.137  32.998  1.00  0.00     0.029 A 
ATOM     20  N   UNL A   1      39.041  31.729  32.980  1.00  0.00    -0.354 N 
ATOM     21  C   UNL A   1      39.872  29.280  29.501  1.00  0.00     0.074 A 
ATOM     22  C   UNL A   1      38.914  29.538  28.444  1.00  0.00     0.031 C 
ATOM     23  C   UNL A   1      37.938  33.266  34.173  1.00  0.00     0.029 A 
ATOM     24  C   UNL A   1      39.050  32.324  34.219  1.00  0.00     0.049 A 
ATOM     25  H   UNL A   1      39.707  31.060  32.698  1.00  0.00     0.167 HD
ATOM     26  C   UNL A   1      40.901  28.399  29.415  1.00  0.00     0.034 A 
ATOM     27  C   UNL A   1      39.842  32.118  35.289  1.00  0.00     0.034 A 
ATOM     28  C   UNL A   1      41.844  28.159  30.485  1.00  0.00     0.049 A 
ATOM     29  C   UNL A   1      40.945  31.101  35.184  1.00  0.00     0.074 A 
ATOM     30  C   UNL A   1      42.943  27.315  30.491  1.00  0.00     0.029 A 
ATOM     31  N   UNL A   1      41.796  28.749  31.742  1.00  0.00    -0.354 N 
ATOM     32  N   UNL A   1      41.275  30.345  34.162  1.00  0.00    -0.248 NA
ATOM     33  C   UNL A   1      41.784  30.913  36.372  1.00  0.00     0.031 C 
ATOM     34  C   UNL A   1      43.507  27.335  31.771  1.00  0.00     0.029 A 
ATOM     35  C   UNL A   1      42.820  28.259  32.541  1.00  0.00     0.049 A 
ATOM     36  H   UNL A   1      41.132  29.418  32.026  1.00  0.00     0.167 HD
ATOM     37  C   UNL A   1      42.378  29.607  34.579  1.00  0.00     0.074 A 
ATOM     38  C   UNL A   1      42.668  30.026  35.936  1.00  0.00     0.031 C 
ATOM     39  C   UNL A   1      43.088  28.669  33.901  1.00  0.00     0.034 A 
BRANCH  26  40
ATOM     40  C   UNL A   1      41.033  27.592  28.143  1.00  0.00     0.023 A 
ATOM     41  C   UNL A   1      40.704  26.226  28.089  1.00  0.00     0.031 A 
ATOM     42  C   UNL A   1      41.497  28.200  26.962  1.00  0.00     0.131 A 
ATOM     43  C   UNL A   1      40.902  25.502  26.903  1.00  0.00     0.055 A 
ATOM     44  C   UNL A   1      41.617  27.493  25.764  1.00  0.00     0.041 A 
ATOM     45  F   UNL A   1      41.847  29.496  26.953  1.00  0.00    -0.206 F 
ATOM     46  C   UNL A   1      41.331  26.132  25.733  1.00  0.00     0.022 A 
BRANCH  43  47
ATOM     47  S   UNL A   1      40.722  23.697  26.946  1.00  0.00     0.124 S 
ATOM     48  O   UNL A   1      41.195  23.385  28.293  1.00  0.00    -0.237 OA
ATOM     49  O   UNL A   1      39.294  23.517  26.713  1.00  0.00    -0.237 OA
ATOM     50  O   UNL A   1      41.595  23.240  25.867  1.00  0.00    -0.744 OA
ENDBRANCH  43  47
ENDBRANCH  26  40
BRANCH  27  51
ATOM     51  C   UNL A   1      39.590  32.857  36.560  1.00  0.00     0.023 A 
ATOM     52  C   UNL A   1      38.692  32.369  37.521  1.00  0.00     0.031 A 
ATOM     53  C   UNL A   1      40.231  34.083  36.818  1.00  0.00     0.131 A 
ATOM     54  C   UNL A   1      38.429  33.122  38.676  1.00  0.00     0.055 A 
ATOM     55  C   UNL A   1      40.013  34.798  37.995  1.00  0.00     0.041 A 
ATOM     56  F   UNL A   1      41.101  34.595  35.932  1.00  0.00    -0.206 F 
ATOM     57  C   UNL A   1      39.095  34.324  38.927  1.00  0.00     0.022 A 
BRANCH  54  58
ATOM     58  S   UNL A   1      37.131  32.553  39.806  1.00  0.00     0.124 S 
ATOM     59  O   UNL A   1      36.000  32.386  38.901  1.00  0.00    -0.237 OA
ATOM     60  O   UNL A   1      37.712  31.326  40.340  1.00  0.00    -0.237 OA
ATOM     61  O   UNL A   1      37.009  33.650  40.764  1.00  0.00    -0.744 OA
ENDBRANCH  54  58
ENDBRANCH  27  51
BRANCH  39  62
ATOM     62  C   UNL A   1      44.275  28.067  34.613  1.00  0.00     0.023 A 
ATOM     63  C   UNL A   1      44.172  26.872  35.347  1.00  0.00     0.031 A 
ATOM     64  C   UNL A   1      45.523  28.714  34.578  1.00  0.00     0.131 A 
ATOM     65  C   UNL A   1      45.278  26.395  36.068  1.00  0.00     0.055 A 
ATOM     66  C   UNL A   1      46.638  28.198  35.240  1.00  0.00     0.041 A 
ATOM     67  F   UNL A   1      45.680  29.862  33.898  1.00  0.00    -0.206 F 
ATOM     68  C   UNL A   1      46.515  27.041  36.004  1.00  0.00     0.022 A 
BRANCH  65  69
ATOM     69  S   UNL A   1      45.049  24.981  37.179  1.00  0.00     0.124 S 
ATOM     70  O   UNL A   1      46.383  24.823  37.748  1.00  0.00    -0.237 OA
ATOM     71  O   UNL A   1      44.018  25.465  38.092  1.00  0.00    -0.237 OA
ATOM     72  O   UNL A   1      44.626  23.906  36.283  1.00  0.00    -0.744 OA
ENDBRANCH  65  69
ENDBRANCH  39  62
ENDBRANCH  13  14
ENDBRANCH   6   8
ENDBRANCH   3   4
ENDBRANCH   2   3
ENDBRANCH   1   2
BRANCH   1  73
ATOM     73  C   UNL A   1      32.492  30.031  25.791  1.00  0.00     0.116 C 
BRANCH  73  74
ATOM     74  N   UNL A   1      32.716  29.357  24.526  1.00  0.00    -0.356 N 
ATOM     75  C   UNL A   1      32.442  28.097  24.098  1.00  0.00     0.227 C 
ATOM     76  H   UNL A   1      33.148  29.922  23.846  1.00  0.00     0.163 HD
ATOM     77  O   UNL A   1      32.981  27.765  23.038  1.00  0.00    -0.274 OA
BRANCH  75  78
ATOM     78  C   UNL A   1      31.478  27.171  24.853  1.00  0.00     0.103 C 
ATOM     79  C   UNL A   1      32.280  26.269  25.750  1.00  0.00    -0.016 C 
ATOM     80  C   UNL A   1      30.730  26.124  23.998  1.00  0.00     0.047 C 
ATOM     81  C   UNL A   1      32.328  25.008  25.298  1.00  0.00    -0.006 C 
ATOM     82  C   UNL A   1      31.537  24.806  24.032  1.00  0.00     0.106 C 
BRANCH  82  83
ATOM     83  N   UNL A   1      32.492  24.389  22.999  1.00  0.00    -0.346 N 
ATOM     84  C   UNL A   1      33.589  23.548  23.000  1.00  0.00     0.251 C 
ATOM     85  H   UNL A   1      32.316  24.797  22.119  1.00  0.00     0.164 HD
ATOM     86  O   UNL A   1      34.619  23.908  22.434  1.00  0.00    -0.269 OA
BRANCH  84  87
ATOM     87  C   UNL A   1      33.520  22.183  23.569  1.00  0.00     0.039 A 
ATOM     88  C   UNL A   1      34.480  21.669  24.441  1.00  0.00     0.014 A 
ATOM     89  C   UNL A   1      32.524  21.334  23.126  1.00  0.00     0.014 A 
ATOM     90  C   UNL A   1      34.302  20.392  25.005  1.00  0.00     0.007 A 
ATOM     91  C   UNL A   1      32.281  20.116  23.743  1.00  0.00     0.007 A 
ATOM     92  C   UNL A   1      33.150  19.648  24.722  1.00  0.00    -0.023 A 
BRANCH  92  93
ATOM     93  C   UNL A   1      32.826  18.341  25.391  1.00  0.00     0.191 C 
BRANCH  93  94
ATOM     94  O   UNL A   1      32.805  18.484  26.804  1.00  0.00    -0.392 OA
ATOM     95  H   UNL A   1      32.605  19.405  27.032  1.00  0.00     0.211 HD
ENDBRANCH  93  94
ENDBRANCH  92  93
ENDBRANCH  84  87
ENDBRANCH  82  83
ENDBRANCH  75  78
ENDBRANCH  73  74
ENDBRANCH   1  73
TORSDOF 18
ENDMDL
MODEL 3
REMARK VINA RESULT:     -11.9      5.743     11.631
REMARK SMILES O=C(NCCCCNC(=O)[C@@H]1C=C[C@H](NC(=O)c2ccc(CO)cc2)C1)c1ccc(-c2c3nc(c(-c4cc(S(=O)(=O)[O-])ccc4F)c4ccc([nH]4)c(-c4cc(S(=O)(=O)[O-])ccc4F)c4nc(c(-c5cc(S(=O)(=O)[O-])ccc5F)c5ccc2[nH]5)C=C4)C=C3)cc1
REMARK SMILES IDX 6 1 5 2 4 3 3 4 1 5 2 6 27 8 28 9 89 10 29 11 88 12 30 13
REMARK SMILES IDX 31 14 32 15 82 16 33 17 87 18 81 19 83 20 34 21 86 22 80 23
REMARK SMILES IDX 79 24 35 26 67 27 47 28 66 29 48 30 51 31 65 32 84 33 49 34
REMARK SMILES IDX 50 35 64 37 85 38 52 39 36 40 37 41 45 42 38 43 44 44 46 45
REMARK SMILES IDX 43 46 39 47 40 48 41 49 42 50 68 51 69 52 77 53 70 54 76 55
REMARK SMILES IDX 78 56 75 57 71 58 72 59 73 60 74 61 53 62 54 63 62 64 55 65
REMARK SMILES IDX 61 66 63 67 60 68 56 69 57 70 58 71 59 72 7 73 8 74 9 75
REMARK SMILES IDX 10 77 11 78 12 79 26 80 13 81 14 82 15 83 16 84 17 86 18 87
REMARK SMILES IDX 19 88 25 89 20 90 24 91 21 92 22 93 23 94
REMARK H PARENT 3 7 83 25 51 36 8 76 15 85 23 95
REMARK Flexibility Score: inf
ROOT
ATOM      1  C   UNL A   1      36.997  20.586  24.968  1.00  0.00     0.023 C 
ENDROOT
BRANCH   1   2
ATOM      2  C   UNL A   1      38.217  19.663  25.115  1.00  0.00     0.023 C 
BRANCH   2   3
ATOM      3  C   UNL A   1      39.292  20.160  26.078  1.00  0.00     0.116 C 
BRANCH   3   4
ATOM      4  N   UNL A   1      40.440  19.265  26.126  1.00  0.00    -0.352 N 
ATOM      5  O   UNL A   1      42.599  18.661  25.970  1.00  0.00    -0.269 OA
ATOM      6  C   UNL A   1      41.785  19.554  26.153  1.00  0.00     0.251 C 
ATOM      7  H   UNL A   1      40.219  18.306  26.141  1.00  0.00     0.163 HD
BRANCH   6   8
ATOM      8  C   UNL A   1      42.241  20.943  26.395  1.00  0.00     0.039 A 
ATOM      9  C   UNL A   1      42.561  21.369  27.685  1.00  0.00     0.014 A 
ATOM     10  C   UNL A   1      42.385  21.817  25.314  1.00  0.00     0.014 A 
ATOM     11  C   UNL A   1      42.886  22.702  27.913  1.00  0.00     0.010 A 
ATOM     12  C   UNL A   1      42.798  23.136  25.535  1.00  0.00     0.010 A 
ATOM     13  C   UNL A   1      43.029  23.598  26.840  1.00  0.00    -0.014 A 
BRANCH  13  14
ATOM     14  C   UNL A   1      43.487  24.987  27.107  1.00  0.00     0.031 A 
ATOM     15  C   UNL A   1      42.557  26.018  27.685  1.00  0.00     0.074 A 
ATOM     16  C   UNL A   1      44.770  25.304  26.840  1.00  0.00     0.049 A 
ATOM     17  N   UNL A   1      42.795  27.274  27.973  1.00  0.00    -0.248 NA
ATOM     18  C   UNL A   1      41.179  25.590  27.966  1.00  0.00     0.031 C 
ATOM     19  C   UNL A   1      45.760  24.384  26.274  1.00  0.00     0.029 A 
ATOM     20  N   UNL A   1      45.468  26.471  27.018  1.00  0.00    -0.354 N 
ATOM     21  C   UNL A   1      41.598  27.791  28.456  1.00  0.00     0.074 A 
ATOM     22  C   UNL A   1      40.626  26.718  28.387  1.00  0.00     0.031 C 
ATOM     23  C   UNL A   1      46.945  25.007  26.193  1.00  0.00     0.029 A 
ATOM     24  C   UNL A   1      46.783  26.391  26.623  1.00  0.00     0.049 A 
ATOM     25  H   UNL A   1      45.067  27.288  27.394  1.00  0.00     0.167 HD
ATOM     26  C   UNL A   1      41.340  29.041  28.918  1.00  0.00     0.034 A 
ATOM     27  C   UNL A   1      47.748  27.329  26.581  1.00  0.00     0.034 A 
ATOM     28  C   UNL A   1      42.327  30.095  28.974  1.00  0.00     0.049 A 
ATOM     29  C   UNL A   1      47.423  28.719  27.053  1.00  0.00     0.074 A 
ATOM     30  C   UNL A   1      42.183  31.386  29.456  1.00  0.00     0.029 A 
ATOM     31  N   UNL A   1      43.639  29.990  28.526  1.00  0.00    -0.354 N 
ATOM     32  N   UNL A   1      46.290  29.186  27.526  1.00  0.00    -0.248 NA
ATOM     33  C   UNL A   1      48.505  29.708  26.992  1.00  0.00     0.031 C 
ATOM     34  C   UNL A   1      43.375  32.080  29.225  1.00  0.00     0.029 A 
ATOM     35  C   UNL A   1      44.299  31.201  28.683  1.00  0.00     0.049 A 
ATOM     36  H   UNL A   1      44.042  29.174  28.150  1.00  0.00     0.167 HD
ATOM     37  C   UNL A   1      46.532  30.520  27.840  1.00  0.00     0.074 A 
ATOM     38  C   UNL A   1      47.924  30.773  27.524  1.00  0.00     0.031 C 
ATOM     39  C   UNL A   1      45.682  31.450  28.345  1.00  0.00     0.034 A 
BRANCH  26  40
ATOM     40  C   UNL A   1      39.925  29.354  29.349  1.00  0.00     0.023 A 
ATOM     41  C   UNL A   1      39.570  29.484  30.703  1.00  0.00     0.031 A 
ATOM     42  C   UNL A   1      38.912  29.524  28.388  1.00  0.00     0.131 A 
ATOM     43  C   UNL A   1      38.231  29.712  31.060  1.00  0.00     0.055 A 
ATOM     44  C   UNL A   1      37.597  29.829  28.746  1.00  0.00     0.041 A 
ATOM     45  F   UNL A   1      39.182  29.391  27.079  1.00  0.00    -0.206 F 
ATOM     46  C   UNL A   1      37.247  29.911  30.090  1.00  0.00     0.022 A 
BRANCH  43  47
ATOM     47  S   UNL A   1      37.768  29.607  32.811  1.00  0.00     0.124 S 
ATOM     48  O   UNL A   1      36.667  30.565  32.883  1.00  0.00    -0.237 OA
ATOM     49  O   UNL A   1      37.403  28.203  32.958  1.00  0.00    -0.237 OA
ATOM     50  O   UNL A   1      38.984  30.014  33.512  1.00  0.00    -0.744 OA
ENDBRANCH  43  47
ENDBRANCH  26  40
BRANCH  27  51
ATOM     51  C   UNL A   1      49.094  26.995  26.032  1.00  0.00     0.023 A 
ATOM     52  C   UNL A   1      49.479  27.404  24.747  1.00  0.00     0.031 A 
ATOM     53  C   UNL A   1      50.008  26.232  26.783  1.00  0.00     0.131 A 
ATOM     54  C   UNL A   1      50.727  27.015  24.235  1.00  0.00     0.055 A 
ATOM     55  C   UNL A   1      51.272  25.901  26.294  1.00  0.00     0.041 A 
ATOM     56  F   UNL A   1      49.691  25.816  28.019  1.00  0.00    -0.206 F 
ATOM     57  C   UNL A   1      51.632  26.282  25.006  1.00  0.00     0.022 A 
BRANCH  54  58
ATOM     58  S   UNL A   1      51.118  27.406  22.509  1.00  0.00     0.124 S 
ATOM     59  O   UNL A   1      51.055  28.864  22.512  1.00  0.00    -0.237 OA
ATOM     60  O   UNL A   1      52.446  26.822  22.359  1.00  0.00    -0.237 OA
ATOM     61  O   UNL A   1      50.057  26.737  21.759  1.00  0.00    -0.744 OA
ENDBRANCH  54  58
ENDBRANCH  27  51
BRANCH  39  62
ATOM     62  C   UNL A   1      46.256  32.817  28.625  1.00  0.00     0.023 A 
ATOM     63  C   UNL A   1      46.329  33.809  27.630  1.00  0.00     0.031 A 
ATOM     64  C   UNL A   1      46.763  33.124  29.900  1.00  0.00     0.131 A 
ATOM     65  C   UNL A   1      46.952  35.035  27.909  1.00  0.00     0.055 A 
ATOM     66  C   UNL A   1      47.319  34.370  30.191  1.00  0.00     0.041 A 
ATOM     67  F   UNL A   1      46.726  32.214  30.888  1.00  0.00    -0.206 F 
ATOM     68  C   UNL A   1      47.431  35.329  29.188  1.00  0.00     0.022 A 
BRANCH  65  69
ATOM     69  S   UNL A   1      47.228  36.201  26.547  1.00  0.00     0.124 S 
ATOM     70  O   UNL A   1      46.010  37.004  26.584  1.00  0.00    -0.237 OA
ATOM     71  O   UNL A   1      48.453  36.878  26.959  1.00  0.00    -0.237 OA
ATOM     72  O   UNL A   1      47.364  35.334  25.377  1.00  0.00    -0.744 OA
ENDBRANCH  65  69
ENDBRANCH  39  62
ENDBRANCH  13  14
ENDBRANCH   6   8
ENDBRANCH   3   4
ENDBRANCH   2   3
ENDBRANCH   1   2
BRANCH   1  73
ATOM     73  C   UNL A   1      35.642  19.870  24.884  1.00  0.00     0.116 C 
BRANCH  73  74
ATOM     74  N   UNL A   1      34.647  20.602  25.644  1.00  0.00    -0.356 N 
ATOM     75  C   UNL A   1      33.834  21.643  25.326  1.00  0.00     0.227 C 
ATOM     76  H   UNL A   1      34.538  20.281  26.568  1.00  0.00     0.163 HD
ATOM     77  O   UNL A   1      33.272  22.191  26.279  1.00  0.00    -0.274 OA
BRANCH  75  78
ATOM     78  C   UNL A   1      33.588  22.070  23.873  1.00  0.00     0.103 C 
ATOM     79  C   UNL A   1      33.922  23.530  23.735  1.00  0.00    -0.016 C 
ATOM     80  C   UNL A   1      32.115  22.075  23.405  1.00  0.00     0.047 C 
ATOM     81  C   UNL A   1      32.829  24.296  23.610  1.00  0.00    -0.006 C 
ATOM     82  C   UNL A   1      31.550  23.500  23.598  1.00  0.00     0.106 C 
BRANCH  82  83
ATOM     83  N   UNL A   1      30.771  23.936  24.762  1.00  0.00    -0.346 N 
ATOM     84  C   UNL A   1      30.624  25.148  25.411  1.00  0.00     0.251 C 
ATOM     85  H   UNL A   1      30.242  23.211  25.168  1.00  0.00     0.164 HD
ATOM     86  O   UNL A   1      30.656  25.176  26.639  1.00  0.00    -0.269 OA
BRANCH  84  87
ATOM     87  C   UNL A   1      30.323  26.393  24.670  1.00  0.00     0.039 A 
ATOM     88  C   UNL A   1      31.193  27.483  24.621  1.00  0.00     0.014 A 
ATOM     89  C   UNL A   1      29.073  26.534  24.097  1.00  0.00     0.014 A 
ATOM     90  C   UNL A   1      30.872  28.601  23.828  1.00  0.00     0.007 A 
ATOM     91  C   UNL A   1      28.784  27.581  23.236  1.00  0.00     0.007 A 
ATOM     92  C   UNL A   1      29.700  28.611  23.061  1.00  0.00    -0.023 A 
BRANCH  92  93
ATOM     93  C   UNL A   1      29.360  29.706  22.088  1.00  0.00     0.191 C 
BRANCH  93  94
ATOM     94  O   UNL A   1      30.534  30.357  21.624  1.00  0.00    -0.392 OA
ATOM     95  H   UNL A   1      30.301  31.232  21.275  1.00  0.00     0.211 HD
ENDBRANCH  93  94
ENDBRANCH  92  93
ENDBRANCH  84  87
ENDBRANCH  82  83
ENDBRANCH  75  78
ENDBRANCH  73  74
ENDBRANCH   1  73
TORSDOF 18
ENDMDL
