MODEL 1
REMARK VINA RESULT:     -12.3      0.000      0.000
REMARK SMILES COc1ccc(F)c(NC(=O)N[C@H]2CCC[C@H]2C(=O)NCCCCNC(=O)c2ccc(-c3c4nc(c(-c5cc(S(=O)(=O)[O-])ccc5F)c5ccc([nH]5)c(-c5cc(S(=O)(=O)[O-])ccc5F)c5nc(c(-c6cc(S(=O)(=O)[O-])ccc6F)c6ccc3[nH]6)C=C5)C=C4)cc2)c1
REMARK SMILES IDX 22 1 21 2 20 3 18 4 19 5 17 7 13 8 14 9 15 10 16 11 12 12
REMARK SMILES IDX 9 13 10 14 11 16 8 18 3 19 4 20 91 21 5 22 6 23 7 24 2 25
REMARK SMILES IDX 1 26 23 27 24 28 25 29 26 30 27 32 28 33 29 34 90 35 30 36
REMARK SMILES IDX 89 37 31 38 32 39 33 40 83 41 34 42 88 43 82 44 84 45 35 46
REMARK SMILES IDX 87 47 81 48 80 49 36 51 68 52 48 53 67 54 49 55 52 56 66 57
REMARK SMILES IDX 85 58 50 59 51 60 65 62 86 63 53 64 37 65 38 66 46 67 39 68
REMARK SMILES IDX 45 69 47 70 44 71 40 72 41 73 42 74 43 75 69 76 70 77 78 78
REMARK SMILES IDX 71 79 77 80 79 81 76 82 72 83 73 84 74 85 75 86 54 87 55 88
REMARK SMILES IDX 63 89 56 90 62 91 64 92 61 93 57 94 58 95 59 96 60 97
REMARK H PARENT 20 6 9 15 12 17 25 31 84 50 52 61
REMARK Flexibility Score: inf
ROOT
ATOM      1  C   UNL A   1      31.469  30.759  25.545  1.00  0.00     0.023 C 
ENDROOT
BRANCH   1   2
ATOM      2  C   UNL A   1      32.609  29.791  25.850  1.00  0.00     0.116 C 
BRANCH   2   3
ATOM      3  N   UNL A   1      32.202  28.849  26.865  1.00  0.00    -0.356 N 
ATOM      4  C   UNL A   1      31.555  27.666  26.740  1.00  0.00     0.225 C 
ATOM      5  O   UNL A   1      31.117  27.143  27.768  1.00  0.00    -0.275 OA
ATOM      6  H   UNL A   1      32.430  29.105  27.788  1.00  0.00     0.163 HD
BRANCH   4   7
ATOM      7  C   UNL A   1      31.408  26.957  25.410  1.00  0.00     0.101 C 
ATOM      8  C   UNL A   1      31.409  25.419  25.346  1.00  0.00     0.096 C 
ATOM      9  C   UNL A   1      30.846  25.184  23.932  1.00  0.00     0.026 C 
ATOM     10  C   UNL A   1      29.762  26.243  23.773  1.00  0.00     0.003 C 
ATOM     11  C   UNL A   1      30.333  27.479  24.451  1.00  0.00     0.016 C 
BRANCH   8  12
ATOM     12  N   UNL A   1      30.616  24.618  26.265  1.00  0.00    -0.334 N 
ATOM     13  N   UNL A   1      31.855  22.659  26.900  1.00  0.00    -0.305 N 
ATOM     14  C   UNL A   1      30.767  23.444  26.900  1.00  0.00     0.319 C 
ATOM     15  H   UNL A   1      31.801  21.973  27.605  1.00  0.00     0.171 HD
ATOM     16  O   UNL A   1      29.821  23.095  27.618  1.00  0.00    -0.248 OA
ATOM     17  H   UNL A   1      29.752  25.043  26.474  1.00  0.00     0.165 HD
BRANCH  13  18
ATOM     18  C   UNL A   1      33.051  22.547  26.171  1.00  0.00     0.082 A 
ATOM     19  C   UNL A   1      34.320  22.631  24.120  1.00  0.00     0.121 A 
ATOM     20  C   UNL A   1      35.495  22.823  24.844  1.00  0.00     0.049 A 
ATOM     21  C   UNL A   1      33.124  22.384  24.793  1.00  0.00     0.075 A 
ATOM     22  C   UNL A   1      35.474  22.750  26.232  1.00  0.00     0.045 A 
ATOM     23  C   UNL A   1      34.252  22.630  26.885  1.00  0.00     0.147 A 
ATOM     24  F   UNL A   1      34.230  22.662  28.227  1.00  0.00    -0.205 F 
BRANCH  19  25
ATOM     25  O   UNL A   1      34.410  22.894  22.784  1.00  0.00    -0.497 OA
ATOM     26  C   UNL A   1      33.202  23.073  22.062  1.00  0.00     0.278 C 
ENDBRANCH  19  25
ENDBRANCH  13  18
ENDBRANCH   8  12
ENDBRANCH   4   7
ENDBRANCH   2   3
ENDBRANCH   1   2
BRANCH   1  27
ATOM     27  C   UNL A   1      31.292  31.867  26.575  1.00  0.00     0.023 C 
BRANCH  27  28
ATOM     28  C   UNL A   1      32.582  32.553  26.994  1.00  0.00     0.116 C 
BRANCH  28  29
ATOM     29  N   UNL A   1      32.382  33.888  27.530  1.00  0.00    -0.352 N 
ATOM     30  C   UNL A   1      33.125  34.531  28.501  1.00  0.00     0.251 C 
ATOM     31  H   UNL A   1      31.625  34.397  27.158  1.00  0.00     0.163 HD
ATOM     32  O   UNL A   1      32.799  35.623  28.919  1.00  0.00    -0.269 OA
BRANCH  30  33
ATOM     33  C   UNL A   1      34.300  33.816  29.040  1.00  0.00     0.039 A 
ATOM     34  C   UNL A   1      35.571  34.326  28.779  1.00  0.00     0.014 A 
ATOM     35  C   UNL A   1      34.122  32.725  29.893  1.00  0.00     0.014 A 
ATOM     36  C   UNL A   1      36.672  33.774  29.433  1.00  0.00     0.010 A 
ATOM     37  C   UNL A   1      35.207  32.238  30.609  1.00  0.00     0.010 A 
ATOM     38  C   UNL A   1      36.492  32.754  30.382  1.00  0.00    -0.014 A 
BRANCH  38  39
ATOM     39  C   UNL A   1      37.641  32.183  31.127  1.00  0.00     0.031 A 
ATOM     40  C   UNL A   1      38.428  31.058  30.514  1.00  0.00     0.074 A 
ATOM     41  C   UNL A   1      37.934  32.632  32.363  1.00  0.00     0.049 A 
ATOM     42  N   UNL A   1      39.395  30.348  31.033  1.00  0.00    -0.248 NA
ATOM     43  C   UNL A   1      38.052  30.652  29.149  1.00  0.00     0.031 C 
ATOM     44  C   UNL A   1      37.214  33.690  33.075  1.00  0.00     0.029 A 
ATOM     45  N   UNL A   1      38.918  32.255  33.242  1.00  0.00    -0.354 N 
ATOM     46  C   UNL A   1      39.723  29.400  30.071  1.00  0.00     0.074 A 
ATOM     47  C   UNL A   1      38.814  29.586  28.962  1.00  0.00     0.031 C 
ATOM     48  C   UNL A   1      37.804  33.904  34.262  1.00  0.00     0.029 A 
ATOM     49  C   UNL A   1      38.916  32.971  34.416  1.00  0.00     0.049 A 
ATOM     50  H   UNL A   1      39.566  31.539  33.049  1.00  0.00     0.167 HD
ATOM     51  C   UNL A   1      40.713  28.478  30.099  1.00  0.00     0.034 A 
ATOM     52  C   UNL A   1      39.717  32.879  35.497  1.00  0.00     0.034 A 
ATOM     53  C   UNL A   1      41.644  28.340  31.186  1.00  0.00     0.049 A 
ATOM     54  C   UNL A   1      40.816  31.850  35.502  1.00  0.00     0.074 A 
ATOM     55  C   UNL A   1      42.729  27.488  31.286  1.00  0.00     0.029 A 
ATOM     56  N   UNL A   1      41.606  29.080  32.361  1.00  0.00    -0.354 N 
ATOM     57  N   UNL A   1      41.123  30.970  34.577  1.00  0.00    -0.248 NA
ATOM     58  C   UNL A   1      41.673  31.797  36.694  1.00  0.00     0.031 C 
ATOM     59  C   UNL A   1      43.318  27.678  32.539  1.00  0.00     0.029 A 
ATOM     60  C   UNL A   1      42.635  28.688  33.198  1.00  0.00     0.049 A 
ATOM     61  H   UNL A   1      40.944  29.779  32.566  1.00  0.00     0.167 HD
ATOM     62  C   UNL A   1      42.217  30.268  35.070  1.00  0.00     0.074 A 
ATOM     63  C   UNL A   1      42.523  30.831  36.370  1.00  0.00     0.031 C 
ATOM     64  C   UNL A   1      42.910  29.253  34.497  1.00  0.00     0.034 A 
BRANCH  51  65
ATOM     65  C   UNL A   1      40.833  27.549  28.922  1.00  0.00     0.023 A 
ATOM     66  C   UNL A   1      41.827  27.728  27.944  1.00  0.00     0.031 A 
ATOM     67  C   UNL A   1      39.944  26.470  28.775  1.00  0.00     0.131 A 
ATOM     68  C   UNL A   1      41.874  26.873  26.833  1.00  0.00     0.055 A 
ATOM     69  C   UNL A   1      40.041  25.581  27.702  1.00  0.00     0.041 A 
ATOM     70  F   UNL A   1      38.965  26.266  29.670  1.00  0.00    -0.206 F 
ATOM     71  C   UNL A   1      41.005  25.786  26.718  1.00  0.00     0.022 A 
BRANCH  68  72
ATOM     72  S   UNL A   1      43.037  27.253  25.495  1.00  0.00     0.124 S 
ATOM     73  O   UNL A   1      42.274  28.219  24.710  1.00  0.00    -0.237 OA
ATOM     74  O   UNL A   1      44.190  27.782  26.215  1.00  0.00    -0.237 OA
ATOM     75  O   UNL A   1      43.247  25.958  24.848  1.00  0.00    -0.744 OA
ENDBRANCH  68  72
ENDBRANCH  51  65
BRANCH  52  76
ATOM     76  C   UNL A   1      39.508  33.784  36.660  1.00  0.00     0.023 A 
ATOM     77  C   UNL A   1      38.948  33.306  37.854  1.00  0.00     0.031 A 
ATOM     78  C   UNL A   1      39.873  35.140  36.595  1.00  0.00     0.131 A 
ATOM     79  C   UNL A   1      38.747  34.183  38.931  1.00  0.00     0.055 A 
ATOM     80  C   UNL A   1      39.704  36.001  37.680  1.00  0.00     0.041 A 
ATOM     81  F   UNL A   1      40.424  35.641  35.478  1.00  0.00    -0.206 F 
ATOM     82  C   UNL A   1      39.132  35.525  38.857  1.00  0.00     0.022 A 
BRANCH  79  83
ATOM     83  S   UNL A   1      37.952  33.551  40.435  1.00  0.00     0.124 S 
ATOM     84  O   UNL A   1      37.898  34.747  41.267  1.00  0.00    -0.237 OA
ATOM     85  O   UNL A   1      36.674  33.064  39.924  1.00  0.00    -0.237 OA
ATOM     86  O   UNL A   1      38.871  32.511  40.893  1.00  0.00    -0.744 OA
ENDBRANCH  79  83
ENDBRANCH  52  76
BRANCH  64  87
ATOM     87  C   UNL A   1      44.079  28.694  35.260  1.00  0.00     0.023 A 
ATOM     88  C   UNL A   1      43.909  27.668  36.203  1.00  0.00     0.031 A 
ATOM     89  C   UNL A   1      45.380  29.151  34.992  1.00  0.00     0.131 A 
ATOM     90  C   UNL A   1      45.029  27.141  36.862  1.00  0.00     0.055 A 
ATOM     91  C   UNL A   1      46.493  28.595  35.621  1.00  0.00     0.041 A 
ATOM     92  F   UNL A   1      45.589  30.128  34.094  1.00  0.00    -0.206 F 
ATOM     93  C   UNL A   1      46.321  27.586  36.564  1.00  0.00     0.022 A 
BRANCH  90  94
ATOM     94  S   UNL A   1      44.776  25.872  38.132  1.00  0.00     0.124 S 
ATOM     95  O   UNL A   1      43.702  25.073  37.549  1.00  0.00    -0.237 OA
ATOM     96  O   UNL A   1      46.083  25.227  38.201  1.00  0.00    -0.237 OA
ATOM     97  O   UNL A   1      44.404  26.642  39.317  1.00  0.00    -0.744 OA
ENDBRANCH  90  94
ENDBRANCH  64  87
ENDBRANCH  38  39
ENDBRANCH  30  33
ENDBRANCH  28  29
ENDBRANCH  27  28
ENDBRANCH   1  27
TORSDOF 17
ENDMDL
MODEL 2
REMARK VINA RESULT:     -12.2      1.462      7.868
REMARK SMILES COc1ccc(F)c(NC(=O)N[C@H]2CCC[C@H]2C(=O)NCCCCNC(=O)c2ccc(-c3c4nc(c(-c5cc(S(=O)(=O)[O-])ccc5F)c5ccc([nH]5)c(-c5cc(S(=O)(=O)[O-])ccc5F)c5nc(c(-c6cc(S(=O)(=O)[O-])ccc6F)c6ccc3[nH]6)C=C5)C=C4)cc2)c1
REMARK SMILES IDX 22 1 21 2 20 3 18 4 19 5 17 7 13 8 14 9 15 10 16 11 12 12
REMARK SMILES IDX 9 13 10 14 11 16 8 18 3 19 4 20 91 21 5 22 6 23 7 24 2 25
REMARK SMILES IDX 1 26 23 27 24 28 25 29 26 30 27 32 28 33 29 34 90 35 30 36
REMARK SMILES IDX 89 37 31 38 32 39 33 40 83 41 34 42 88 43 82 44 84 45 35 46
REMARK SMILES IDX 87 47 81 48 80 49 36 51 68 52 48 53 67 54 49 55 52 56 66 57
REMARK SMILES IDX 85 58 50 59 51 60 65 62 86 63 53 64 37 65 38 66 46 67 39 68
REMARK SMILES IDX 45 69 47 70 44 71 40 72 41 73 42 74 43 75 69 76 70 77 78 78
REMARK SMILES IDX 71 79 77 80 79 81 76 82 72 83 73 84 74 85 75 86 54 87 55 88
REMARK SMILES IDX 63 89 56 90 62 91 64 92 61 93 57 94 58 95 59 96 60 97
REMARK H PARENT 20 6 9 15 12 17 25 31 84 50 52 61
REMARK Flexibility Score: inf
ROOT
ATOM      1  C   UNL A   1      34.769  30.960  27.829  1.00  0.00     0.023 C 
ENDROOT
BRANCH   1   2
ATOM      2  C   UNL A   1      34.456  29.616  27.179  1.00  0.00     0.116 C 
BRANCH   2   3
ATOM      3  N   UNL A   1      33.349  28.983  27.856  1.00  0.00    -0.356 N 
ATOM      4  C   UNL A   1      32.304  28.289  27.346  1.00  0.00     0.225 C 
ATOM      5  O   UNL A   1      31.364  28.033  28.103  1.00  0.00    -0.275 OA
ATOM      6  H   UNL A   1      33.356  29.068  28.837  1.00  0.00     0.163 HD
BRANCH   4   7
ATOM      7  C   UNL A   1      32.285  27.780  25.920  1.00  0.00     0.101 C 
ATOM      8  C   UNL A   1      32.475  26.281  25.628  1.00  0.00     0.096 C 
ATOM      9  C   UNL A   1      31.989  26.201  24.169  1.00  0.00     0.026 C 
ATOM     10  C   UNL A   1      30.789  27.140  24.117  1.00  0.00     0.003 C 
ATOM     11  C   UNL A   1      31.185  28.315  24.998  1.00  0.00     0.016 C 
BRANCH   8  12
ATOM     12  N   UNL A   1      31.759  25.262  26.378  1.00  0.00    -0.334 N 
ATOM     13  N   UNL A   1      33.062  23.243  26.442  1.00  0.00    -0.305 N 
ATOM     14  C   UNL A   1      31.968  23.975  26.702  1.00  0.00     0.319 C 
ATOM     15  H   UNL A   1      33.065  22.408  26.964  1.00  0.00     0.171 HD
ATOM     16  O   UNL A   1      31.079  23.438  27.376  1.00  0.00    -0.248 OA
ATOM     17  H   UNL A   1      30.907  25.600  26.739  1.00  0.00     0.165 HD
BRANCH  13  18
ATOM     18  C   UNL A   1      34.204  23.341  25.630  1.00  0.00     0.082 A 
ATOM     19  C   UNL A   1      36.594  23.393  25.298  1.00  0.00     0.121 A 
ATOM     20  C   UNL A   1      36.426  23.023  23.966  1.00  0.00     0.049 A 
ATOM     21  C   UNL A   1      35.476  23.657  26.090  1.00  0.00     0.075 A 
ATOM     22  C   UNL A   1      35.148  22.935  23.425  1.00  0.00     0.045 A 
ATOM     23  C   UNL A   1      34.048  23.078  24.264  1.00  0.00     0.147 A 
ATOM     24  F   UNL A   1      32.819  22.891  23.756  1.00  0.00    -0.205 F 
BRANCH  19  25
ATOM     25  O   UNL A   1      37.866  23.281  25.779  1.00  0.00    -0.497 OA
ATOM     26  C   UNL A   1      38.475  22.000  25.749  1.00  0.00     0.278 C 
ENDBRANCH  19  25
ENDBRANCH  13  18
ENDBRANCH   8  12
ENDBRANCH   4   7
ENDBRANCH   2   3
ENDBRANCH   1   2
BRANCH   1  27
ATOM     27  C   UNL A   1      33.599  31.935  27.855  1.00  0.00     0.023 C 
BRANCH  27  28
ATOM     28  C   UNL A   1      33.993  33.397  27.719  1.00  0.00     0.116 C 
BRANCH  28  29
ATOM     29  N   UNL A   1      33.220  34.287  28.569  1.00  0.00    -0.352 N 
ATOM     30  C   UNL A   1      33.434  34.584  29.900  1.00  0.00     0.251 C 
ATOM     31  H   UNL A   1      32.450  34.732  28.146  1.00  0.00     0.163 HD
ATOM     32  O   UNL A   1      32.661  35.286  30.518  1.00  0.00    -0.269 OA
BRANCH  30  33
ATOM     33  C   UNL A   1      34.614  33.976  30.550  1.00  0.00     0.039 A 
ATOM     34  C   UNL A   1      34.426  32.871  31.380  1.00  0.00     0.014 A 
ATOM     35  C   UNL A   1      35.896  34.431  30.235  1.00  0.00     0.014 A 
ATOM     36  C   UNL A   1      35.540  32.175  31.846  1.00  0.00     0.010 A 
ATOM     37  C   UNL A   1      36.999  33.683  30.627  1.00  0.00     0.010 A 
ATOM     38  C   UNL A   1      36.831  32.552  31.440  1.00  0.00    -0.014 A 
BRANCH  38  39
ATOM     39  C   UNL A   1      38.029  31.799  31.884  1.00  0.00     0.031 A 
ATOM     40  C   UNL A   1      38.684  32.162  33.188  1.00  0.00     0.074 A 
ATOM     41  C   UNL A   1      38.554  30.841  31.096  1.00  0.00     0.049 A 
ATOM     42  N   UNL A   1      39.793  31.707  33.710  1.00  0.00    -0.248 NA
ATOM     43  C   UNL A   1      38.024  33.202  33.995  1.00  0.00     0.031 C 
ATOM     44  C   UNL A   1      38.029  30.433  29.790  1.00  0.00     0.029 A 
ATOM     45  N   UNL A   1      39.649  30.034  31.276  1.00  0.00    -0.354 N 
ATOM     46  C   UNL A   1      39.974  32.421  34.888  1.00  0.00     0.074 A 
ATOM     47  C   UNL A   1      38.895  33.380  34.976  1.00  0.00     0.031 C 
ATOM     48  C   UNL A   1      38.777  29.427  29.309  1.00  0.00     0.029 A 
ATOM     49  C   UNL A   1      39.860  29.147  30.246  1.00  0.00     0.049 A 
ATOM     50  H   UNL A   1      40.230  30.085  32.070  1.00  0.00     0.167 HD
ATOM     51  C   UNL A   1      40.937  32.271  35.827  1.00  0.00     0.034 A 
ATOM     52  C   UNL A   1      40.823  28.219  30.076  1.00  0.00     0.034 A 
ATOM     53  C   UNL A   1      41.974  31.276  35.753  1.00  0.00     0.049 A 
ATOM     54  C   UNL A   1      41.879  28.064  31.137  1.00  0.00     0.074 A 
ATOM     55  C   UNL A   1      42.956  30.988  36.683  1.00  0.00     0.029 A 
ATOM     56  N   UNL A   1      42.157  30.400  34.691  1.00  0.00    -0.354 N 
ATOM     57  N   UNL A   1      42.028  28.739  32.254  1.00  0.00    -0.248 NA
ATOM     58  C   UNL A   1      42.899  27.030  30.916  1.00  0.00     0.031 C 
ATOM     59  C   UNL A   1      43.762  29.971  36.163  1.00  0.00     0.029 A 
ATOM     60  C   UNL A   1      43.249  29.586  34.934  1.00  0.00     0.049 A 
ATOM     61  H   UNL A   1      41.592  30.363  33.885  1.00  0.00     0.167 HD
ATOM     62  C   UNL A   1      43.150  28.200  32.874  1.00  0.00     0.074 A 
ATOM     63  C   UNL A   1      43.636  27.141  32.013  1.00  0.00     0.031 C 
ATOM     64  C   UNL A   1      43.724  28.548  34.053  1.00  0.00     0.034 A 
BRANCH  51  65
ATOM     65  C   UNL A   1      40.913  33.204  37.007  1.00  0.00     0.023 A 
ATOM     66  C   UNL A   1      40.257  32.859  38.201  1.00  0.00     0.031 A 
ATOM     67  C   UNL A   1      41.554  34.452  36.938  1.00  0.00     0.131 A 
ATOM     68  C   UNL A   1      40.210  33.777  39.260  1.00  0.00     0.055 A 
ATOM     69  C   UNL A   1      41.563  35.332  38.022  1.00  0.00     0.041 A 
ATOM     70  F   UNL A   1      42.178  34.838  35.814  1.00  0.00    -0.206 F 
ATOM     71  C   UNL A   1      40.880  35.000  39.189  1.00  0.00     0.022 A 
BRANCH  68  72
ATOM     72  S   UNL A   1      39.190  33.382  40.706  1.00  0.00     0.124 S 
ATOM     73  O   UNL A   1      37.843  33.548  40.166  1.00  0.00    -0.237 OA
ATOM     74  O   UNL A   1      39.590  32.015  41.016  1.00  0.00    -0.237 OA
ATOM     75  O   UNL A   1      39.589  34.387  41.690  1.00  0.00    -0.744 OA
ENDBRANCH  68  72
ENDBRANCH  51  65
BRANCH  52  76
ATOM     76  C   UNL A   1      40.831  27.368  28.855  1.00  0.00     0.023 A 
ATOM     77  C   UNL A   1      41.769  27.581  27.834  1.00  0.00     0.031 A 
ATOM     78  C   UNL A   1      39.904  26.323  28.696  1.00  0.00     0.131 A 
ATOM     79  C   UNL A   1      41.747  26.775  26.686  1.00  0.00     0.055 A 
ATOM     80  C   UNL A   1      39.907  25.501  27.568  1.00  0.00     0.041 A 
ATOM     81  F   UNL A   1      38.995  26.072  29.651  1.00  0.00    -0.206 F 
ATOM     82  C   UNL A   1      40.830  25.729  26.550  1.00  0.00     0.022 A 
BRANCH  79  83
ATOM     83  S   UNL A   1      42.925  27.125  25.350  1.00  0.00     0.124 S 
ATOM     84  O   UNL A   1      42.966  25.847  24.650  1.00  0.00    -0.237 OA
ATOM     85  O   UNL A   1      42.273  28.223  24.646  1.00  0.00    -0.237 OA
ATOM     86  O   UNL A   1      44.148  27.487  26.064  1.00  0.00    -0.744 OA
ENDBRANCH  79  83
ENDBRANCH  52  76
BRANCH  64  87
ATOM     87  C   UNL A   1      44.930  27.766  34.494  1.00  0.00     0.023 A 
ATOM     88  C   UNL A   1      44.803  26.632  35.312  1.00  0.00     0.031 A 
ATOM     89  C   UNL A   1      46.209  28.124  34.036  1.00  0.00     0.131 A 
ATOM     90  C   UNL A   1      45.946  25.902  35.665  1.00  0.00     0.055 A 
ATOM     91  C   UNL A   1      47.337  27.370  34.357  1.00  0.00     0.041 A 
ATOM     92  F   UNL A   1      46.376  29.198  33.247  1.00  0.00    -0.206 F 
ATOM     93  C   UNL A   1      47.209  26.253  35.178  1.00  0.00     0.022 A 
BRANCH  90  94
ATOM     94  S   UNL A   1      45.767  24.487  36.786  1.00  0.00     0.124 S 
ATOM     95  O   UNL A   1      46.545  24.920  37.943  1.00  0.00    -0.237 OA
ATOM     96  O   UNL A   1      44.323  24.417  36.980  1.00  0.00    -0.237 OA
ATOM     97  O   UNL A   1      46.343  23.377  36.031  1.00  0.00    -0.744 OA
ENDBRANCH  90  94
ENDBRANCH  64  87
ENDBRANCH  38  39
ENDBRANCH  30  33
ENDBRANCH  28  29
ENDBRANCH  27  28
ENDBRANCH   1  27
TORSDOF 17
ENDMDL
MODEL 3
REMARK VINA RESULT:     -12.0      5.471      8.394
REMARK SMILES COc1ccc(F)c(NC(=O)N[C@H]2CCC[C@H]2C(=O)NCCCCNC(=O)c2ccc(-c3c4nc(c(-c5cc(S(=O)(=O)[O-])ccc5F)c5ccc([nH]5)c(-c5cc(S(=O)(=O)[O-])ccc5F)c5nc(c(-c6cc(S(=O)(=O)[O-])ccc6F)c6ccc3[nH]6)C=C5)C=C4)cc2)c1
REMARK SMILES IDX 22 1 21 2 20 3 18 4 19 5 17 7 13 8 14 9 15 10 16 11 12 12
REMARK SMILES IDX 9 13 10 14 11 16 8 18 3 19 4 20 91 21 5 22 6 23 7 24 2 25
REMARK SMILES IDX 1 26 23 27 24 28 25 29 26 30 27 32 28 33 29 34 90 35 30 36
REMARK SMILES IDX 89 37 31 38 32 39 33 40 83 41 34 42 88 43 82 44 84 45 35 46
REMARK SMILES IDX 87 47 81 48 80 49 36 51 68 52 48 53 67 54 49 55 52 56 66 57
REMARK SMILES IDX 85 58 50 59 51 60 65 62 86 63 53 64 37 65 38 66 46 67 39 68
REMARK SMILES IDX 45 69 47 70 44 71 40 72 41 73 42 74 43 75 69 76 70 77 78 78
REMARK SMILES IDX 71 79 77 80 79 81 76 82 72 83 73 84 74 85 75 86 54 87 55 88
REMARK SMILES IDX 63 89 56 90 62 91 64 92 61 93 57 94 58 95 59 96 60 97
REMARK H PARENT 20 6 9 15 12 17 25 31 84 50 52 61
REMARK Flexibility Score: inf
ROOT
ATOM      1  C   UNL A   1      35.797  22.423  23.843  1.00  0.00     0.023 C 
ENDROOT
BRANCH   1   2
ATOM      2  C   UNL A   1      36.194  23.856  24.183  1.00  0.00     0.116 C 
BRANCH   2   3
ATOM      3  N   UNL A   1      35.347  24.371  25.232  1.00  0.00    -0.356 N 
ATOM      4  C   UNL A   1      34.198  25.081  25.148  1.00  0.00     0.225 C 
ATOM      5  O   UNL A   1      33.771  25.602  26.182  1.00  0.00    -0.275 OA
ATOM      6  H   UNL A   1      35.652  24.175  26.148  1.00  0.00     0.163 HD
BRANCH   4   7
ATOM      7  C   UNL A   1      33.410  25.202  23.860  1.00  0.00     0.101 C 
ATOM      8  C   UNL A   1      31.908  24.868  23.834  1.00  0.00     0.096 C 
ATOM      9  C   UNL A   1      31.487  25.505  22.497  1.00  0.00     0.026 C 
ATOM     10  C   UNL A   1      32.276  26.807  22.433  1.00  0.00     0.003 C 
ATOM     11  C   UNL A   1      33.639  26.458  23.013  1.00  0.00     0.016 C 
BRANCH   8  12
ATOM     12  N   UNL A   1      30.999  25.364  24.855  1.00  0.00    -0.334 N 
ATOM     13  N   UNL A   1      30.952  23.832  26.706  1.00  0.00    -0.305 N 
ATOM     14  C   UNL A   1      30.557  24.932  26.047  1.00  0.00     0.319 C 
ATOM     15  H   UNL A   1      30.648  23.847  27.643  1.00  0.00     0.171 HD
ATOM     16  O   UNL A   1      29.752  25.674  26.624  1.00  0.00    -0.248 OA
ATOM     17  H   UNL A   1      30.611  26.236  24.611  1.00  0.00     0.165 HD
BRANCH  13  18
ATOM     18  C   UNL A   1      31.680  22.663  26.426  1.00  0.00     0.082 A 
ATOM     19  C   UNL A   1      32.331  20.844  24.980  1.00  0.00     0.121 A 
ATOM     20  C   UNL A   1      33.501  20.667  25.715  1.00  0.00     0.049 A 
ATOM     21  C   UNL A   1      31.378  21.768  25.409  1.00  0.00     0.075 A 
ATOM     22  C   UNL A   1      33.707  21.397  26.880  1.00  0.00     0.045 A 
ATOM     23  C   UNL A   1      32.805  22.401  27.217  1.00  0.00     0.147 A 
ATOM     24  F   UNL A   1      33.063  23.169  28.287  1.00  0.00    -0.205 F 
BRANCH  19  25
ATOM     25  O   UNL A   1      32.302  20.216  23.770  1.00  0.00    -0.497 OA
ATOM     26  C   UNL A   1      32.104  21.014  22.614  1.00  0.00     0.278 C 
ENDBRANCH  19  25
ENDBRANCH  13  18
ENDBRANCH   8  12
ENDBRANCH   4   7
ENDBRANCH   2   3
ENDBRANCH   1   2
BRANCH   1  27
ATOM     27  C   UNL A   1      36.850  21.379  24.192  1.00  0.00     0.023 C 
BRANCH  27  28
ATOM     28  C   UNL A   1      37.581  21.632  25.500  1.00  0.00     0.116 C 
BRANCH  28  29
ATOM     29  N   UNL A   1      38.586  20.628  25.807  1.00  0.00    -0.352 N 
ATOM     30  C   UNL A   1      39.809  20.814  26.420  1.00  0.00     0.251 C 
ATOM     31  H   UNL A   1      38.369  19.703  25.547  1.00  0.00     0.163 HD
ATOM     32  O   UNL A   1      40.594  19.897  26.544  1.00  0.00    -0.269 OA
BRANCH  30  33
ATOM     33  C   UNL A   1      40.140  22.182  26.872  1.00  0.00     0.039 A 
ATOM     34  C   UNL A   1      41.100  22.342  27.871  1.00  0.00     0.014 A 
ATOM     35  C   UNL A   1      39.586  23.286  26.221  1.00  0.00     0.014 A 
ATOM     36  C   UNL A   1      41.557  23.624  28.174  1.00  0.00     0.010 A 
ATOM     37  C   UNL A   1      40.107  24.550  26.462  1.00  0.00     0.010 A 
ATOM     38  C   UNL A   1      41.093  24.731  27.444  1.00  0.00    -0.014 A 
BRANCH  38  39
ATOM     39  C   UNL A   1      41.599  26.099  27.715  1.00  0.00     0.031 A 
ATOM     40  C   UNL A   1      42.956  26.495  27.202  1.00  0.00     0.074 A 
ATOM     41  C   UNL A   1      40.871  26.952  28.462  1.00  0.00     0.049 A 
ATOM     42  N   UNL A   1      43.629  27.595  27.414  1.00  0.00    -0.248 NA
ATOM     43  C   UNL A   1      43.666  25.507  26.373  1.00  0.00     0.031 C 
ATOM     44  C   UNL A   1      39.560  26.663  29.048  1.00  0.00     0.029 A 
ATOM     45  N   UNL A   1      41.131  28.240  28.858  1.00  0.00    -0.354 N 
ATOM     46  C   UNL A   1      44.847  27.420  26.767  1.00  0.00     0.074 A 
ATOM     47  C   UNL A   1      44.844  26.087  26.206  1.00  0.00     0.031 C 
ATOM     48  C   UNL A   1      39.114  27.753  29.692  1.00  0.00     0.029 A 
ATOM     49  C   UNL A   1      40.123  28.804  29.605  1.00  0.00     0.049 A 
ATOM     50  H   UNL A   1      41.962  28.716  28.628  1.00  0.00     0.167 HD
ATOM     51  C   UNL A   1      45.863  28.303  26.629  1.00  0.00     0.034 A 
ATOM     52  C   UNL A   1      40.029  30.028  30.162  1.00  0.00     0.034 A 
ATOM     53  C   UNL A   1      45.830  29.644  27.146  1.00  0.00     0.049 A 
ATOM     54  C   UNL A   1      41.169  30.996  29.988  1.00  0.00     0.074 A 
ATOM     55  C   UNL A   1      46.774  30.645  27.000  1.00  0.00     0.029 A 
ATOM     56  N   UNL A   1      44.794  30.177  27.902  1.00  0.00    -0.354 N 
ATOM     57  N   UNL A   1      42.309  30.820  29.360  1.00  0.00    -0.248 NA
ATOM     58  C   UNL A   1      41.015  32.322  30.600  1.00  0.00     0.031 C 
ATOM     59  C   UNL A   1      46.332  31.766  27.708  1.00  0.00     0.029 A 
ATOM     60  C   UNL A   1      45.086  31.484  28.248  1.00  0.00     0.049 A 
ATOM     61  H   UNL A   1      43.973  29.695  28.154  1.00  0.00     0.167 HD
ATOM     62  C   UNL A   1      43.001  32.018  29.490  1.00  0.00     0.074 A 
ATOM     63  C   UNL A   1      42.150  32.913  30.248  1.00  0.00     0.031 C 
ATOM     64  C   UNL A   1      44.229  32.351  29.018  1.00  0.00     0.034 A 
BRANCH  51  65
ATOM     65  C   UNL A   1      47.092  27.841  25.893  1.00  0.00     0.023 A 
ATOM     66  C   UNL A   1      47.235  28.037  24.508  1.00  0.00     0.031 A 
ATOM     67  C   UNL A   1      48.134  27.200  26.583  1.00  0.00     0.131 A 
ATOM     68  C   UNL A   1      48.370  27.545  23.848  1.00  0.00     0.055 A 
ATOM     69  C   UNL A   1      49.293  26.775  25.931  1.00  0.00     0.041 A 
ATOM     70  F   UNL A   1      48.039  26.970  27.902  1.00  0.00    -0.206 F 
ATOM     71  C   UNL A   1      49.412  26.939  24.553  1.00  0.00     0.022 A 
BRANCH  68  72
ATOM     72  S   UNL A   1      48.429  27.637  22.039  1.00  0.00     0.124 S 
ATOM     73  O   UNL A   1      48.621  26.233  21.682  1.00  0.00    -0.237 OA
ATOM     74  O   UNL A   1      47.130  28.209  21.705  1.00  0.00    -0.237 OA
ATOM     75  O   UNL A   1      49.577  28.503  21.778  1.00  0.00    -0.744 OA
ENDBRANCH  68  72
ENDBRANCH  51  65
BRANCH  52  76
ATOM     76  C   UNL A   1      38.814  30.405  30.935  1.00  0.00     0.023 A 
ATOM     77  C   UNL A   1      37.761  31.105  30.327  1.00  0.00     0.031 A 
ATOM     78  C   UNL A   1      38.686  30.062  32.293  1.00  0.00     0.131 A 
ATOM     79  C   UNL A   1      36.633  31.462  31.082  1.00  0.00     0.055 A 
ATOM     80  C   UNL A   1      37.548  30.388  33.030  1.00  0.00     0.041 A 
ATOM     81  F   UNL A   1      39.662  29.381  32.914  1.00  0.00    -0.206 F 
ATOM     82  C   UNL A   1      36.514  31.098  32.427  1.00  0.00     0.022 A 
BRANCH  79  83
ATOM     83  S   UNL A   1      35.322  32.433  30.287  1.00  0.00     0.124 S 
ATOM     84  O   UNL A   1      34.994  31.600  29.136  1.00  0.00    -0.237 OA
ATOM     85  O   UNL A   1      34.313  32.503  31.338  1.00  0.00    -0.237 OA
ATOM     86  O   UNL A   1      35.980  33.700  29.975  1.00  0.00    -0.744 OA
ENDBRANCH  79  83
ENDBRANCH  52  76
BRANCH  64  87
ATOM     87  C   UNL A   1      44.721  33.745  29.291  1.00  0.00     0.023 A 
ATOM     88  C   UNL A   1      44.506  34.786  28.374  1.00  0.00     0.031 A 
ATOM     89  C   UNL A   1      45.354  34.044  30.510  1.00  0.00     0.131 A 
ATOM     90  C   UNL A   1      44.940  36.082  28.683  1.00  0.00     0.055 A 
ATOM     91  C   UNL A   1      45.746  35.343  30.829  1.00  0.00     0.041 A 
ATOM     92  F   UNL A   1      45.576  33.081  31.418  1.00  0.00    -0.206 F 
ATOM     93  C   UNL A   1      45.542  36.371  29.912  1.00  0.00     0.022 A 
BRANCH  90  94
ATOM     94  S   UNL A   1      44.720  37.393  27.450  1.00  0.00     0.124 S 
ATOM     95  O   UNL A   1      43.431  37.041  26.862  1.00  0.00    -0.237 OA
ATOM     96  O   UNL A   1      44.738  38.603  28.265  1.00  0.00    -0.237 OA
ATOM     97  O   UNL A   1      45.871  37.227  26.565  1.00  0.00    -0.744 OA
ENDBRANCH  90  94
ENDBRANCH  64  87
ENDBRANCH  38  39
ENDBRANCH  30  33
ENDBRANCH  28  29
ENDBRANCH  27  28
ENDBRANCH   1  27
TORSDOF 17
ENDMDL
