MODEL 1
REMARK VINA RESULT:     -11.6      0.000      0.000
REMARK SMILES C[C@@H]1SCCC[C@H]1[N@H+]1CCC[C@H](CCC(=O)NCCCCNC(=O)c2ccc(-c3c4nc(c(-c5cc(S(=O)(=O)[O-])ccc5F)c5ccc([nH]5)c(-c5cc(S(=O)(=O)[O-])ccc5F)c5nc(c(-c6cc(S(=O)(=O)[O-])ccc6F)c6ccc3[nH]6)C=C5)C=C4)cc2)C1
REMARK SMILES IDX 19 1 18 2 17 3 15 4 16 5 14 7 13 8 12 9 8 10 9 11 88 12
REMARK SMILES IDX 10 14 11 15 7 16 1 17 2 18 3 19 4 20 6 21 5 22 20 23 21 24
REMARK SMILES IDX 22 25 23 26 24 28 25 29 26 30 87 31 27 32 86 33 28 34 29 35
REMARK SMILES IDX 30 36 80 37 31 38 85 39 79 40 81 41 32 42 84 43 78 44 77 45
REMARK SMILES IDX 33 47 65 48 45 49 64 50 46 51 49 52 63 53 82 54 47 55 48 56
REMARK SMILES IDX 62 58 83 59 50 60 34 61 35 62 43 63 36 64 42 65 44 66 41 67
REMARK SMILES IDX 37 68 38 69 39 70 40 71 66 72 67 73 75 74 68 75 74 76 76 77
REMARK SMILES IDX 73 78 69 79 70 80 71 81 72 82 51 83 52 84 60 85 53 86 59 87
REMARK SMILES IDX 61 88 58 89 54 90 55 91 56 92 57 93
REMARK H PARENT 17 6 8 13 22 27 81 46 49 57
REMARK Flexibility Score: inf
ROOT
ATOM      1  C   UNL A   1      33.151  29.326  24.092  1.00  0.00     0.023 C 
ENDROOT
BRANCH   1   2
ATOM      2  C   UNL A   1      32.711  28.621  22.798  1.00  0.00     0.116 C 
BRANCH   2   3
ATOM      3  N   UNL A   1      31.565  29.328  22.244  1.00  0.00    -0.356 N 
ATOM      4  C   UNL A   1      30.227  29.116  22.394  1.00  0.00     0.220 C 
ATOM      5  O   UNL A   1      29.462  29.626  21.575  1.00  0.00    -0.275 OA
ATOM      6  H   UNL A   1      31.795  30.087  21.663  1.00  0.00     0.163 HD
BRANCH   4   7
ATOM      7  C   UNL A   1      29.689  28.353  23.592  1.00  0.00     0.100 C 
BRANCH   7   8
ATOM      8  C   UNL A   1      29.607  26.821  23.441  1.00  0.00     0.019 C 
BRANCH   8   9
ATOM      9  C   UNL A   1      30.704  25.958  24.126  1.00  0.00     0.045 C 
ATOM     10  N   UNL A   1      31.311  23.498  24.541  1.00  0.00    -0.331 N 
ATOM     11  C   UNL A   1      30.949  23.721  25.919  1.00  0.00     0.262 C 
ATOM     12  C   UNL A   1      30.678  24.480  23.660  1.00  0.00     0.265 C 
ATOM     13  H   UNL A   1      30.895  22.590  24.330  1.00  0.00     0.348 HD
ATOM     14  C   UNL A   1      31.318  25.088  26.462  1.00  0.00     0.062 C 
ATOM     15  C   UNL A   1      30.675  26.192  25.642  1.00  0.00     0.015 C 
BRANCH  10  16
ATOM     16  C   UNL A   1      32.664  23.030  24.193  1.00  0.00     0.196 C 
ATOM     17  C   UNL A   1      34.868  22.436  25.275  1.00  0.00     0.026 C 
ATOM     18  C   UNL A   1      33.382  22.056  25.166  1.00  0.00     0.101 C 
ATOM     19  S   UNL A   1      33.426  20.261  24.744  1.00  0.00    -0.153 SA
ATOM     20  C   UNL A   1      32.158  20.114  23.467  1.00  0.00     0.070 C 
ATOM     21  C   UNL A   1      32.756  22.547  22.731  1.00  0.00     0.067 C 
ATOM     22  C   UNL A   1      32.149  21.191  22.394  1.00  0.00     0.017 C 
ENDBRANCH  10  16
ENDBRANCH   8   9
ENDBRANCH   7   8
ENDBRANCH   4   7
ENDBRANCH   2   3
ENDBRANCH   1   2
BRANCH   1  23
ATOM     23  C   UNL A   1      33.517  28.483  25.325  1.00  0.00     0.023 C 
BRANCH  23  24
ATOM     24  C   UNL A   1      32.830  28.862  26.632  1.00  0.00     0.116 C 
BRANCH  24  25
ATOM     25  N   UNL A   1      32.563  30.296  26.769  1.00  0.00    -0.352 N 
ATOM     26  C   UNL A   1      33.331  31.332  27.250  1.00  0.00     0.251 C 
ATOM     27  H   UNL A   1      31.670  30.569  26.458  1.00  0.00     0.163 HD
ATOM     28  O   UNL A   1      32.885  32.479  27.265  1.00  0.00    -0.269 OA
BRANCH  26  29
ATOM     29  C   UNL A   1      34.675  31.078  27.789  1.00  0.00     0.039 A 
ATOM     30  C   UNL A   1      35.626  32.104  27.817  1.00  0.00     0.014 A 
ATOM     31  C   UNL A   1      34.994  29.818  28.277  1.00  0.00     0.014 A 
ATOM     32  C   UNL A   1      36.863  31.878  28.425  1.00  0.00     0.010 A 
ATOM     33  C   UNL A   1      36.146  29.645  29.020  1.00  0.00     0.010 A 
ATOM     34  C   UNL A   1      37.111  30.661  29.078  1.00  0.00    -0.014 A 
BRANCH  34  35
ATOM     35  C   UNL A   1      38.386  30.364  29.779  1.00  0.00     0.031 A 
ATOM     36  C   UNL A   1      39.344  29.381  29.155  1.00  0.00     0.074 A 
ATOM     37  C   UNL A   1      38.614  30.865  31.009  1.00  0.00     0.049 A 
ATOM     38  N   UNL A   1      40.385  28.787  29.677  1.00  0.00    -0.248 NA
ATOM     39  C   UNL A   1      39.038  28.952  27.781  1.00  0.00     0.031 C 
ATOM     40  C   UNL A   1      37.727  31.780  31.732  1.00  0.00     0.029 A 
ATOM     41  N   UNL A   1      39.653  30.655  31.879  1.00  0.00    -0.354 N 
ATOM     42  C   UNL A   1      40.821  27.882  28.714  1.00  0.00     0.074 A 
ATOM     43  C   UNL A   1      39.874  27.939  27.624  1.00  0.00     0.031 C 
ATOM     44  C   UNL A   1      38.274  32.073  32.923  1.00  0.00     0.029 A 
ATOM     45  C   UNL A   1      39.515  31.323  33.074  1.00  0.00     0.049 A 
ATOM     46  H   UNL A   1      40.424  30.082  31.668  1.00  0.00     0.167 HD
ATOM     47  C   UNL A   1      41.931  27.103  28.722  1.00  0.00     0.034 A 
ATOM     48  C   UNL A   1      40.295  31.313  34.173  1.00  0.00     0.034 A 
ATOM     49  C   UNL A   1      42.882  27.110  29.805  1.00  0.00     0.049 A 
ATOM     50  C   UNL A   1      41.539  30.462  34.156  1.00  0.00     0.074 A 
ATOM     51  C   UNL A   1      44.081  26.430  29.908  1.00  0.00     0.029 A 
ATOM     52  N   UNL A   1      42.739  27.845  30.978  1.00  0.00    -0.354 N 
ATOM     53  N   UNL A   1      41.971  29.645  33.219  1.00  0.00    -0.248 NA
ATOM     54  C   UNL A   1      42.410  30.541  35.334  1.00  0.00     0.031 C 
ATOM     55  C   UNL A   1      44.629  26.700  31.167  1.00  0.00     0.029 A 
ATOM     56  C   UNL A   1      43.815  27.616  31.819  1.00  0.00     0.049 A 
ATOM     57  H   UNL A   1      41.983  28.442  31.181  1.00  0.00     0.167 HD
ATOM     58  C   UNL A   1      43.178  29.136  33.686  1.00  0.00     0.074 A 
ATOM     59  C   UNL A   1      43.414  29.754  34.975  1.00  0.00     0.031 C 
ATOM     60  C   UNL A   1      44.020  28.241  33.105  1.00  0.00     0.034 A 
BRANCH  47  61
ATOM     61  C   UNL A   1      42.151  26.189  27.537  1.00  0.00     0.023 A 
ATOM     62  C   UNL A   1      41.627  24.883  27.501  1.00  0.00     0.031 A 
ATOM     63  C   UNL A   1      42.947  26.600  26.454  1.00  0.00     0.131 A 
ATOM     64  C   UNL A   1      41.992  24.005  26.470  1.00  0.00     0.055 A 
ATOM     65  C   UNL A   1      43.222  25.753  25.377  1.00  0.00     0.041 A 
ATOM     66  F   UNL A   1      43.497  27.824  26.434  1.00  0.00    -0.206 F 
ATOM     67  C   UNL A   1      42.762  24.439  25.390  1.00  0.00     0.022 A 
BRANCH  64  68
ATOM     68  S   UNL A   1      41.602  22.243  26.659  1.00  0.00     0.124 S 
ATOM     69  O   UNL A   1      40.141  22.263  26.649  1.00  0.00    -0.237 OA
ATOM     70  O   UNL A   1      42.241  21.650  25.490  1.00  0.00    -0.237 OA
ATOM     71  O   UNL A   1      42.203  21.896  27.945  1.00  0.00    -0.744 OA
ENDBRANCH  64  68
ENDBRANCH  47  61
BRANCH  48  72
ATOM     72  C   UNL A   1      39.929  32.126  35.369  1.00  0.00     0.023 A 
ATOM     73  C   UNL A   1      39.047  31.626  36.341  1.00  0.00     0.031 A 
ATOM     74  C   UNL A   1      40.440  33.424  35.551  1.00  0.00     0.131 A 
ATOM     75  C   UNL A   1      38.669  32.432  37.427  1.00  0.00     0.055 A 
ATOM     76  C   UNL A   1      40.105  34.201  36.662  1.00  0.00     0.041 A 
ATOM     77  F   UNL A   1      41.293  33.950  34.658  1.00  0.00    -0.206 F 
ATOM     78  C   UNL A   1      39.204  33.711  37.602  1.00  0.00     0.022 A 
BRANCH  75  79
ATOM     79  S   UNL A   1      37.401  31.814  38.567  1.00  0.00     0.124 S 
ATOM     80  O   UNL A   1      37.240  30.437  38.114  1.00  0.00    -0.237 OA
ATOM     81  O   UNL A   1      38.047  31.994  39.863  1.00  0.00    -0.237 OA
ATOM     82  O   UNL A   1      36.260  32.692  38.314  1.00  0.00    -0.744 OA
ENDBRANCH  75  79
ENDBRANCH  48  72
BRANCH  60  83
ATOM     83  C   UNL A   1      45.292  27.919  33.850  1.00  0.00     0.023 A 
ATOM     84  C   UNL A   1      45.366  26.849  34.757  1.00  0.00     0.031 A 
ATOM     85  C   UNL A   1      46.441  28.704  33.655  1.00  0.00     0.131 A 
ATOM     86  C   UNL A   1      46.544  26.633  35.486  1.00  0.00     0.055 A 
ATOM     87  C   UNL A   1      47.633  28.440  34.328  1.00  0.00     0.041 A 
ATOM     88  F   UNL A   1      46.425  29.741  32.801  1.00  0.00    -0.206 F 
ATOM     89  C   UNL A   1      47.685  27.409  35.262  1.00  0.00     0.022 A 
BRANCH  86  90
ATOM     90  S   UNL A   1      46.531  25.396  36.810  1.00  0.00     0.124 S 
ATOM     91  O   UNL A   1      46.994  26.174  37.954  1.00  0.00    -0.237 OA
ATOM     92  O   UNL A   1      45.131  24.988  36.840  1.00  0.00    -0.237 OA
ATOM     93  O   UNL A   1      47.464  24.376  36.335  1.00  0.00    -0.744 OA
ENDBRANCH  86  90
ENDBRANCH  60  83
ENDBRANCH  34  35
ENDBRANCH  26  29
ENDBRANCH  24  25
ENDBRANCH  23  24
ENDBRANCH   1  23
TORSDOF 17
ENDMDL
MODEL 2
REMARK VINA RESULT:     -11.5      2.211      7.890
REMARK SMILES C[C@@H]1SCCC[C@H]1[N@H+]1CCC[C@H](CCC(=O)NCCCCNC(=O)c2ccc(-c3c4nc(c(-c5cc(S(=O)(=O)[O-])ccc5F)c5ccc([nH]5)c(-c5cc(S(=O)(=O)[O-])ccc5F)c5nc(c(-c6cc(S(=O)(=O)[O-])ccc6F)c6ccc3[nH]6)C=C5)C=C4)cc2)C1
REMARK SMILES IDX 19 1 18 2 17 3 15 4 16 5 14 7 13 8 12 9 8 10 9 11 88 12
REMARK SMILES IDX 10 14 11 15 7 16 1 17 2 18 3 19 4 20 6 21 5 22 20 23 21 24
REMARK SMILES IDX 22 25 23 26 24 28 25 29 26 30 87 31 27 32 86 33 28 34 29 35
REMARK SMILES IDX 30 36 80 37 31 38 85 39 79 40 81 41 32 42 84 43 78 44 77 45
REMARK SMILES IDX 33 47 65 48 45 49 64 50 46 51 49 52 63 53 82 54 47 55 48 56
REMARK SMILES IDX 62 58 83 59 50 60 34 61 35 62 43 63 36 64 42 65 44 66 41 67
REMARK SMILES IDX 37 68 38 69 39 70 40 71 66 72 67 73 75 74 68 75 74 76 76 77
REMARK SMILES IDX 73 78 69 79 70 80 71 81 72 82 51 83 52 84 60 85 53 86 59 87
REMARK SMILES IDX 61 88 58 89 54 90 55 91 56 92 57 93
REMARK H PARENT 17 6 8 13 22 27 81 46 49 57
REMARK Flexibility Score: inf
ROOT
ATOM      1  C   UNL A   1      33.035  29.212  24.080  1.00  0.00     0.023 C 
ENDROOT
BRANCH   1   2
ATOM      2  C   UNL A   1      32.782  28.783  22.625  1.00  0.00     0.116 C 
BRANCH   2   3
ATOM      3  N   UNL A   1      31.625  29.506  22.117  1.00  0.00    -0.356 N 
ATOM      4  C   UNL A   1      30.292  29.316  22.321  1.00  0.00     0.220 C 
ATOM      5  O   UNL A   1      29.502  29.836  21.533  1.00  0.00    -0.275 OA
ATOM      6  H   UNL A   1      31.844  30.261  21.524  1.00  0.00     0.163 HD
BRANCH   4   7
ATOM      7  C   UNL A   1      29.791  28.564  23.542  1.00  0.00     0.100 C 
BRANCH   7   8
ATOM      8  C   UNL A   1      29.622  27.040  23.380  1.00  0.00     0.019 C 
BRANCH   8   9
ATOM      9  C   UNL A   1      30.731  26.114  23.956  1.00  0.00     0.045 C 
ATOM     10  N   UNL A   1      31.311  23.623  24.171  1.00  0.00    -0.331 N 
ATOM     11  C   UNL A   1      31.009  23.753  25.575  1.00  0.00     0.262 C 
ATOM     12  C   UNL A   1      30.660  24.673  23.389  1.00  0.00     0.265 C 
ATOM     13  H   UNL A   1      30.871  22.739  23.915  1.00  0.00     0.348 HD
ATOM     14  C   UNL A   1      31.425  25.073  26.197  1.00  0.00     0.062 C 
ATOM     15  C   UNL A   1      30.768  26.241  25.484  1.00  0.00     0.015 C 
BRANCH  10  16
ATOM     16  C   UNL A   1      32.640  23.160  23.734  1.00  0.00     0.196 C 
ATOM     17  C   UNL A   1      35.059  23.186  24.463  1.00  0.00     0.026 C 
ATOM     18  C   UNL A   1      33.648  22.683  24.814  1.00  0.00     0.101 C 
ATOM     19  S   UNL A   1      33.886  20.870  25.059  1.00  0.00    -0.153 SA
ATOM     20  C   UNL A   1      32.456  20.157  24.217  1.00  0.00     0.070 C 
ATOM     21  C   UNL A   1      32.554  22.169  22.556  1.00  0.00     0.067 C 
ATOM     22  C   UNL A   1      32.107  20.745  22.860  1.00  0.00     0.017 C 
ENDBRANCH  10  16
ENDBRANCH   8   9
ENDBRANCH   7   8
ENDBRANCH   4   7
ENDBRANCH   2   3
ENDBRANCH   1   2
BRANCH   1  23
ATOM     23  C   UNL A   1      33.915  28.332  24.985  1.00  0.00     0.023 C 
BRANCH  23  24
ATOM     24  C   UNL A   1      33.897  28.663  26.473  1.00  0.00     0.116 C 
BRANCH  24  25
ATOM     25  N   UNL A   1      33.771  30.093  26.763  1.00  0.00    -0.352 N 
ATOM     26  C   UNL A   1      34.572  30.961  27.470  1.00  0.00     0.251 C 
ATOM     27  H   UNL A   1      32.967  30.511  26.380  1.00  0.00     0.163 HD
ATOM     28  O   UNL A   1      34.256  32.145  27.579  1.00  0.00    -0.269 OA
BRANCH  26  29
ATOM     29  C   UNL A   1      35.790  30.478  28.137  1.00  0.00     0.039 A 
ATOM     30  C   UNL A   1      35.704  29.835  29.377  1.00  0.00     0.014 A 
ATOM     31  C   UNL A   1      37.025  30.658  27.529  1.00  0.00     0.014 A 
ATOM     32  C   UNL A   1      36.856  29.292  29.951  1.00  0.00     0.010 A 
ATOM     33  C   UNL A   1      38.129  29.981  28.012  1.00  0.00     0.010 A 
ATOM     34  C   UNL A   1      38.068  29.316  29.245  1.00  0.00    -0.014 A 
BRANCH  34  35
ATOM     35  C   UNL A   1      39.324  28.724  29.773  1.00  0.00     0.031 A 
ATOM     36  C   UNL A   1      40.002  29.390  30.944  1.00  0.00     0.074 A 
ATOM     37  C   UNL A   1      39.907  27.693  29.133  1.00  0.00     0.049 A 
ATOM     38  N   UNL A   1      41.205  29.210  31.421  1.00  0.00    -0.248 NA
ATOM     39  C   UNL A   1      39.246  30.459  31.617  1.00  0.00     0.031 C 
ATOM     40  C   UNL A   1      39.367  27.009  27.954  1.00  0.00     0.029 A 
ATOM     41  N   UNL A   1      41.097  27.054  29.368  1.00  0.00    -0.354 N 
ATOM     42  C   UNL A   1      41.363  30.176  32.410  1.00  0.00     0.074 A 
ATOM     43  C   UNL A   1      40.173  30.995  32.393  1.00  0.00     0.031 C 
ATOM     44  C   UNL A   1      40.210  26.030  27.589  1.00  0.00     0.029 A 
ATOM     45  C   UNL A   1      41.375  26.054  28.465  1.00  0.00     0.049 A 
ATOM     46  H   UNL A   1      41.695  27.288  30.114  1.00  0.00     0.167 HD
ATOM     47  C   UNL A   1      42.391  30.340  33.280  1.00  0.00     0.034 A 
ATOM     48  C   UNL A   1      42.460  25.262  28.348  1.00  0.00     0.034 A 
ATOM     49  C   UNL A   1      43.541  29.471  33.303  1.00  0.00     0.049 A 
ATOM     50  C   UNL A   1      43.582  25.440  29.339  1.00  0.00     0.074 A 
ATOM     51  C   UNL A   1      44.613  29.478  34.175  1.00  0.00     0.029 A 
ATOM     52  N   UNL A   1      43.763  28.429  32.407  1.00  0.00    -0.354 N 
ATOM     53  N   UNL A   1      43.701  26.326  30.304  1.00  0.00    -0.248 NA
ATOM     54  C   UNL A   1      44.708  24.506  29.236  1.00  0.00     0.031 C 
ATOM     55  C   UNL A   1      45.513  28.487  33.768  1.00  0.00     0.029 A 
ATOM     56  C   UNL A   1      44.965  27.804  32.692  1.00  0.00     0.049 A 
ATOM     57  H   UNL A   1      43.153  28.174  31.678  1.00  0.00     0.167 HD
ATOM     58  C   UNL A   1      44.903  26.034  30.941  1.00  0.00     0.074 A 
ATOM     59  C   UNL A   1      45.458  24.879  30.263  1.00  0.00     0.031 C 
ATOM     60  C   UNL A   1      45.498  26.658  31.992  1.00  0.00     0.034 A 
BRANCH  47  61
ATOM     61  C   UNL A   1      42.308  31.499  34.249  1.00  0.00     0.023 A 
ATOM     62  C   UNL A   1      41.486  31.453  35.391  1.00  0.00     0.031 A 
ATOM     63  C   UNL A   1      43.009  32.691  34.000  1.00  0.00     0.131 A 
ATOM     64  C   UNL A   1      41.300  32.604  36.172  1.00  0.00     0.055 A 
ATOM     65  C   UNL A   1      42.900  33.802  34.841  1.00  0.00     0.041 A 
ATOM     66  F   UNL A   1      43.794  32.812  32.917  1.00  0.00    -0.206 F 
ATOM     67  C   UNL A   1      42.024  33.770  35.923  1.00  0.00     0.022 A 
BRANCH  64  68
ATOM     68  S   UNL A   1      39.960  32.607  37.395  1.00  0.00     0.124 S 
ATOM     69  O   UNL A   1      39.129  31.501  36.924  1.00  0.00    -0.237 OA
ATOM     70  O   UNL A   1      40.675  32.381  38.647  1.00  0.00    -0.237 OA
ATOM     71  O   UNL A   1      39.363  33.933  37.246  1.00  0.00    -0.744 OA
ENDBRANCH  64  68
ENDBRANCH  47  61
BRANCH  48  72
ATOM     72  C   UNL A   1      42.537  24.240  27.264  1.00  0.00     0.023 A 
ATOM     73  C   UNL A   1      41.920  22.986  27.407  1.00  0.00     0.031 A 
ATOM     74  C   UNL A   1      43.244  24.493  26.075  1.00  0.00     0.131 A 
ATOM     75  C   UNL A   1      42.057  22.018  26.399  1.00  0.00     0.055 A 
ATOM     76  C   UNL A   1      43.331  23.546  25.051  1.00  0.00     0.041 A 
ATOM     77  F   UNL A   1      43.847  25.676  25.881  1.00  0.00    -0.206 F 
ATOM     78  C   UNL A   1      42.745  22.295  25.216  1.00  0.00     0.022 A 
BRANCH  75  79
ATOM     79  S   UNL A   1      41.389  20.358  26.694  1.00  0.00     0.124 S 
ATOM     80  O   UNL A   1      39.962  20.629  26.819  1.00  0.00    -0.237 OA
ATOM     81  O   UNL A   1      41.805  19.646  25.490  1.00  0.00    -0.237 OA
ATOM     82  O   UNL A   1      42.055  19.938  27.926  1.00  0.00    -0.744 OA
ENDBRANCH  75  79
ENDBRANCH  48  72
BRANCH  60  83
ATOM     83  C   UNL A   1      46.794  26.068  32.490  1.00  0.00     0.023 A 
ATOM     84  C   UNL A   1      48.031  26.421  31.927  1.00  0.00     0.031 A 
ATOM     85  C   UNL A   1      46.785  25.130  33.537  1.00  0.00     0.131 A 
ATOM     86  C   UNL A   1      49.203  25.791  32.368  1.00  0.00     0.055 A 
ATOM     87  C   UNL A   1      47.961  24.560  34.022  1.00  0.00     0.041 A 
ATOM     88  F   UNL A   1      45.630  24.755  34.110  1.00  0.00    -0.206 F 
ATOM     89  C   UNL A   1      49.179  24.878  33.426  1.00  0.00     0.022 A 
BRANCH  86  90
ATOM     90  S   UNL A   1      50.744  26.097  31.466  1.00  0.00     0.124 S 
ATOM     91  O   UNL A   1      50.253  26.430  30.133  1.00  0.00    -0.237 OA
ATOM     92  O   UNL A   1      51.335  27.196  32.222  1.00  0.00    -0.237 OA
ATOM     93  O   UNL A   1      51.457  24.824  31.564  1.00  0.00    -0.744 OA
ENDBRANCH  86  90
ENDBRANCH  60  83
ENDBRANCH  34  35
ENDBRANCH  26  29
ENDBRANCH  24  25
ENDBRANCH  23  24
ENDBRANCH   1  23
TORSDOF 17
ENDMDL
MODEL 3
REMARK VINA RESULT:     -11.4      1.524      2.078
REMARK SMILES C[C@@H]1SCCC[C@H]1[N@H+]1CCC[C@H](CCC(=O)NCCCCNC(=O)c2ccc(-c3c4nc(c(-c5cc(S(=O)(=O)[O-])ccc5F)c5ccc([nH]5)c(-c5cc(S(=O)(=O)[O-])ccc5F)c5nc(c(-c6cc(S(=O)(=O)[O-])ccc6F)c6ccc3[nH]6)C=C5)C=C4)cc2)C1
REMARK SMILES IDX 19 1 18 2 17 3 15 4 16 5 14 7 13 8 12 9 8 10 9 11 88 12
REMARK SMILES IDX 10 14 11 15 7 16 1 17 2 18 3 19 4 20 6 21 5 22 20 23 21 24
REMARK SMILES IDX 22 25 23 26 24 28 25 29 26 30 87 31 27 32 86 33 28 34 29 35
REMARK SMILES IDX 30 36 80 37 31 38 85 39 79 40 81 41 32 42 84 43 78 44 77 45
REMARK SMILES IDX 33 47 65 48 45 49 64 50 46 51 49 52 63 53 82 54 47 55 48 56
REMARK SMILES IDX 62 58 83 59 50 60 34 61 35 62 43 63 36 64 42 65 44 66 41 67
REMARK SMILES IDX 37 68 38 69 39 70 40 71 66 72 67 73 75 74 68 75 74 76 76 77
REMARK SMILES IDX 73 78 69 79 70 80 71 81 72 82 51 83 52 84 60 85 53 86 59 87
REMARK SMILES IDX 61 88 58 89 54 90 55 91 56 92 57 93
REMARK H PARENT 17 6 8 13 22 27 81 46 49 57
REMARK Flexibility Score: inf
ROOT
ATOM      1  C   UNL A   1      33.370  29.315  24.129  1.00  0.00     0.023 C 
ENDROOT
BRANCH   1   2
ATOM      2  C   UNL A   1      33.028  28.773  22.732  1.00  0.00     0.116 C 
BRANCH   2   3
ATOM      3  N   UNL A   1      31.742  29.318  22.318  1.00  0.00    -0.356 N 
ATOM      4  C   UNL A   1      30.470  28.927  22.609  1.00  0.00     0.220 C 
ATOM      5  O   UNL A   1      29.557  29.330  21.888  1.00  0.00    -0.275 OA
ATOM      6  H   UNL A   1      31.803  30.103  21.727  1.00  0.00     0.163 HD
BRANCH   4   7
ATOM      7  C   UNL A   1      30.175  28.097  23.847  1.00  0.00     0.100 C 
BRANCH   7   8
ATOM      8  C   UNL A   1      29.543  26.712  23.602  1.00  0.00     0.019 C 
BRANCH   8   9
ATOM      9  C   UNL A   1      30.489  25.483  23.499  1.00  0.00     0.045 C 
ATOM     10  N   UNL A   1      32.388  24.336  24.791  1.00  0.00    -0.331 N 
ATOM     11  C   UNL A   1      33.276  24.817  23.761  1.00  0.00     0.262 C 
ATOM     12  C   UNL A   1      31.163  25.133  24.850  1.00  0.00     0.265 C 
ATOM     13  H   UNL A   1      32.906  24.514  25.652  1.00  0.00     0.348 HD
ATOM     14  C   UNL A   1      32.690  24.811  22.362  1.00  0.00     0.062 C 
ATOM     15  C   UNL A   1      31.427  25.650  22.297  1.00  0.00     0.015 C 
BRANCH  10  16
ATOM     16  C   UNL A   1      32.288  22.894  25.074  1.00  0.00     0.196 C 
ATOM     17  C   UNL A   1      32.868  20.654  24.058  1.00  0.00     0.026 C 
ATOM     18  C   UNL A   1      33.446  21.967  24.613  1.00  0.00     0.101 C 
ATOM     19  S   UNL A   1      34.675  21.402  25.867  1.00  0.00    -0.153 SA
ATOM     20  C   UNL A   1      34.389  22.527  27.250  1.00  0.00     0.070 C 
ATOM     21  C   UNL A   1      31.880  22.613  26.534  1.00  0.00     0.067 C 
ATOM     22  C   UNL A   1      32.939  22.798  27.613  1.00  0.00     0.017 C 
ENDBRANCH  10  16
ENDBRANCH   8   9
ENDBRANCH   7   8
ENDBRANCH   4   7
ENDBRANCH   2   3
ENDBRANCH   1   2
BRANCH   1  23
ATOM     23  C   UNL A   1      33.475  28.340  25.313  1.00  0.00     0.023 C 
BRANCH  23  24
ATOM     24  C   UNL A   1      32.720  28.728  26.579  1.00  0.00     0.116 C 
BRANCH  24  25
ATOM     25  N   UNL A   1      32.410  30.156  26.672  1.00  0.00    -0.352 N 
ATOM     26  C   UNL A   1      33.130  31.222  27.161  1.00  0.00     0.251 C 
ATOM     27  H   UNL A   1      31.525  30.399  26.318  1.00  0.00     0.163 HD
ATOM     28  O   UNL A   1      32.655  32.357  27.131  1.00  0.00    -0.269 OA
BRANCH  26  29
ATOM     29  C   UNL A   1      34.457  31.016  27.761  1.00  0.00     0.039 A 
ATOM     30  C   UNL A   1      35.365  32.077  27.840  1.00  0.00     0.014 A 
ATOM     31  C   UNL A   1      34.800  29.765  28.256  1.00  0.00     0.014 A 
ATOM     32  C   UNL A   1      36.580  31.894  28.504  1.00  0.00     0.010 A 
ATOM     33  C   UNL A   1      35.923  29.632  29.052  1.00  0.00     0.010 A 
ATOM     34  C   UNL A   1      36.844  30.683  29.161  1.00  0.00    -0.014 A 
BRANCH  34  35
ATOM     35  C   UNL A   1      38.095  30.430  29.920  1.00  0.00     0.031 A 
ATOM     36  C   UNL A   1      39.099  29.455  29.357  1.00  0.00     0.074 A 
ATOM     37  C   UNL A   1      38.262  30.962  31.146  1.00  0.00     0.049 A 
ATOM     38  N   UNL A   1      40.130  28.896  29.934  1.00  0.00    -0.248 NA
ATOM     39  C   UNL A   1      38.859  28.989  27.981  1.00  0.00     0.031 C 
ATOM     40  C   UNL A   1      37.327  31.872  31.812  1.00  0.00     0.029 A 
ATOM     41  N   UNL A   1      39.269  30.794  32.062  1.00  0.00    -0.354 N 
ATOM     42  C   UNL A   1      40.624  27.981  29.010  1.00  0.00     0.074 A 
ATOM     43  C   UNL A   1      39.722  27.993  27.881  1.00  0.00     0.031 C 
ATOM     44  C   UNL A   1      37.818  32.204  33.017  1.00  0.00     0.029 A 
ATOM     45  C   UNL A   1      39.068  31.485  33.235  1.00  0.00     0.049 A 
ATOM     46  H   UNL A   1      40.060  30.234  31.895  1.00  0.00     0.167 HD
ATOM     47  C   UNL A   1      41.750  27.227  29.080  1.00  0.00     0.034 A 
ATOM     48  C   UNL A   1      39.802  31.516  34.364  1.00  0.00     0.034 A 
ATOM     49  C   UNL A   1      42.655  27.278  30.201  1.00  0.00     0.049 A 
ATOM     50  C   UNL A   1      41.064  30.692  34.417  1.00  0.00     0.074 A 
ATOM     51  C   UNL A   1      43.863  26.627  30.367  1.00  0.00     0.029 A 
ATOM     52  N   UNL A   1      42.448  28.035  31.350  1.00  0.00    -0.354 N 
ATOM     53  N   UNL A   1      41.551  29.866  33.517  1.00  0.00    -0.248 NA
ATOM     54  C   UNL A   1      41.883  30.816  35.627  1.00  0.00     0.031 C 
ATOM     55  C   UNL A   1      44.353  26.936  31.641  1.00  0.00     0.029 A 
ATOM     56  C   UNL A   1      43.494  27.848  32.238  1.00  0.00     0.049 A 
ATOM     57  H   UNL A   1      41.672  28.619  31.508  1.00  0.00     0.167 HD
ATOM     58  C   UNL A   1      42.749  29.393  34.043  1.00  0.00     0.074 A 
ATOM     59  C   UNL A   1      42.919  30.045  35.327  1.00  0.00     0.031 C 
ATOM     60  C   UNL A   1      43.632  28.505  33.517  1.00  0.00     0.034 A 
BRANCH  47  61
ATOM     61  C   UNL A   1      42.037  26.292  27.926  1.00  0.00     0.023 A 
ATOM     62  C   UNL A   1      41.612  24.950  27.935  1.00  0.00     0.031 A 
ATOM     63  C   UNL A   1      42.801  26.724  26.828  1.00  0.00     0.131 A 
ATOM     64  C   UNL A   1      42.042  24.068  26.933  1.00  0.00     0.055 A 
ATOM     65  C   UNL A   1      43.138  25.865  25.779  1.00  0.00     0.041 A 
ATOM     66  F   UNL A   1      43.258  27.985  26.765  1.00  0.00    -0.206 F 
ATOM     67  C   UNL A   1      42.777  24.522  25.838  1.00  0.00     0.022 A 
BRANCH  64  68
ATOM     68  S   UNL A   1      41.784  22.289  27.182  1.00  0.00     0.124 S 
ATOM     69  O   UNL A   1      42.181  21.749  25.884  1.00  0.00    -0.237 OA
ATOM     70  O   UNL A   1      42.679  21.994  28.297  1.00  0.00    -0.237 OA
ATOM     71  O   UNL A   1      40.357  22.188  27.481  1.00  0.00    -0.744 OA
ENDBRANCH  64  68
ENDBRANCH  47  61
BRANCH  48  72
ATOM     72  C   UNL A   1      39.370  32.346  35.526  1.00  0.00     0.023 A 
ATOM     73  C   UNL A   1      39.789  33.680  35.658  1.00  0.00     0.031 A 
ATOM     74  C   UNL A   1      38.544  31.815  36.533  1.00  0.00     0.131 A 
ATOM     75  C   UNL A   1      39.419  34.424  36.789  1.00  0.00     0.055 A 
ATOM     76  C   UNL A   1      38.133  32.575  37.630  1.00  0.00     0.041 A 
ATOM     77  F   UNL A   1      38.107  30.548  36.455  1.00  0.00    -0.206 F 
ATOM     78  C   UNL A   1      38.581  33.885  37.769  1.00  0.00     0.022 A 
BRANCH  75  79
ATOM     79  S   UNL A   1      40.117  36.084  37.005  1.00  0.00     0.124 S 
ATOM     80  O   UNL A   1      41.524  35.785  37.245  1.00  0.00    -0.237 OA
ATOM     81  O   UNL A   1      39.803  36.712  35.726  1.00  0.00    -0.237 OA
ATOM     82  O   UNL A   1      39.386  36.614  38.154  1.00  0.00    -0.744 OA
ENDBRANCH  75  79
ENDBRANCH  48  72
BRANCH  60  83
ATOM     83  C   UNL A   1      44.879  28.228  34.321  1.00  0.00     0.023 A 
ATOM     84  C   UNL A   1      44.934  27.190  35.265  1.00  0.00     0.031 A 
ATOM     85  C   UNL A   1      46.024  29.024  34.142  1.00  0.00     0.131 A 
ATOM     86  C   UNL A   1      46.086  27.017  36.044  1.00  0.00     0.055 A 
ATOM     87  C   UNL A   1      47.193  28.801  34.869  1.00  0.00     0.041 A 
ATOM     88  F   UNL A   1      46.026  30.031  33.254  1.00  0.00    -0.206 F 
ATOM     89  C   UNL A   1      47.224  27.802  35.838  1.00  0.00     0.022 A 
BRANCH  86  90
ATOM     90  S   UNL A   1      46.040  25.824  37.408  1.00  0.00     0.124 S 
ATOM     91  O   UNL A   1      46.598  24.629  36.783  1.00  0.00    -0.237 OA
ATOM     92  O   UNL A   1      46.877  26.468  38.414  1.00  0.00    -0.237 OA
ATOM     93  O   UNL A   1      44.618  25.743  37.743  1.00  0.00    -0.744 OA
ENDBRANCH  86  90
ENDBRANCH  60  83
ENDBRANCH  34  35
ENDBRANCH  26  29
ENDBRANCH  24  25
ENDBRANCH  23  24
ENDBRANCH   1  23
TORSDOF 17
ENDMDL
