MODEL 1
REMARK VINA RESULT:     -11.6      0.000      0.000
REMARK SMILES COc1ccccc1[C@@H]1CN(C(=O)Cc2csc(C)n2)C[C@H]1C(=O)NCCCCNC(=O)c1ccc(-c2c3nc(c(-c4cc(S(=O)(=O)[O-])ccc4F)c4ccc([nH]4)c(-c4cc(S(=O)(=O)[O-])ccc4F)c4nc(c(-c5cc(S(=O)(=O)[O-])ccc5F)c5ccc2[nH]5)C=C4)C=C3)cc1
REMARK SMILES IDX 27 1 26 2 25 3 23 4 24 5 22 7 9 8 10 9 11 10 21 11 8 12 3 13
REMARK SMILES IDX 4 14 5 15 7 16 6 17 2 18 1 19 12 20 13 21 14 22 15 23 16 24
REMARK SMILES IDX 20 25 17 26 18 27 19 28 28 29 29 30 30 31 31 32 32 34 33 35
REMARK SMILES IDX 34 36 95 37 35 38 94 39 36 40 37 41 38 42 88 43 39 44 93 45
REMARK SMILES IDX 87 46 89 47 40 48 92 49 86 50 85 51 41 53 73 54 53 55 72 56
REMARK SMILES IDX 54 57 57 58 71 59 90 60 55 61 56 62 70 64 91 65 58 66 42 67
REMARK SMILES IDX 43 68 51 69 44 70 50 71 52 72 49 73 45 74 46 75 47 76 48 77
REMARK SMILES IDX 74 78 75 79 83 80 76 81 82 82 84 83 81 84 77 85 78 86 79 87
REMARK SMILES IDX 80 88 59 89 60 90 68 91 61 92 67 93 69 94 66 95 62 96 63 97
REMARK SMILES IDX 64 98 65 99
REMARK H PARENT 25 6 30 33 89 52 57 63
REMARK Flexibility Score: inf
ROOT
ATOM      1  C   UNL A   1      39.252  22.674  26.422  1.00  0.00     0.023 C 
ENDROOT
BRANCH   1   2
ATOM      2  C   UNL A   1      37.956  23.387  26.052  1.00  0.00     0.116 C 
BRANCH   2   3
ATOM      3  N   UNL A   1      37.685  23.276  24.633  1.00  0.00    -0.356 N 
ATOM      4  C   UNL A   1      36.512  23.171  23.958  1.00  0.00     0.225 C 
ATOM      5  O   UNL A   1      36.569  23.049  22.732  1.00  0.00    -0.275 OA
ATOM      6  H   UNL A   1      38.486  23.278  24.061  1.00  0.00     0.163 HD
BRANCH   4   7
ATOM      7  C   UNL A   1      35.165  23.214  24.656  1.00  0.00     0.107 C 
ATOM      8  C   UNL A   1      34.030  23.860  23.838  1.00  0.00     0.057 C 
ATOM      9  C   UNL A   1      32.791  23.025  24.149  1.00  0.00     0.128 C 
ATOM     10  N   UNL A   1      33.314  21.722  24.520  1.00  0.00    -0.341 N 
ATOM     11  C   UNL A   1      34.667  21.822  25.041  1.00  0.00     0.133 C 
BRANCH   8  12
ATOM     12  C   UNL A   1      33.878  25.359  23.983  1.00  0.00    -0.000 A 
ATOM     13  C   UNL A   1      33.597  26.263  22.945  1.00  0.00     0.122 A 
ATOM     14  C   UNL A   1      33.473  27.634  23.214  1.00  0.00     0.047 A 
ATOM     15  C   UNL A   1      33.656  28.130  24.504  1.00  0.00     0.004 A 
ATOM     16  C   UNL A   1      34.069  25.890  25.279  1.00  0.00     0.008 A 
ATOM     17  C   UNL A   1      33.978  27.258  25.535  1.00  0.00     0.001 A 
BRANCH  13  18
ATOM     18  O   UNL A   1      33.654  25.933  21.617  1.00  0.00    -0.496 OA
ATOM     19  C   UNL A   1      32.393  25.863  20.963  1.00  0.00     0.278 C 
ENDBRANCH  13  18
ENDBRANCH   8  12
BRANCH  10  20
ATOM     20  C   UNL A   1      32.635  20.520  24.529  1.00  0.00     0.228 C 
ATOM     21  O   UNL A   1      31.779  20.279  25.384  1.00  0.00    -0.274 OA
BRANCH  20  22
ATOM     22  C   UNL A   1      33.050  19.452  23.530  1.00  0.00     0.157 C 
BRANCH  22  23
ATOM     23  C   UNL A   1      33.313  18.118  24.152  1.00  0.00     0.061 A 
ATOM     24  C   UNL A   1      32.352  17.214  24.568  1.00  0.00     0.091 A 
ATOM     25  N   UNL A   1      34.617  17.705  24.370  1.00  0.00    -0.246 NA
ATOM     26  S   UNL A   1      33.096  15.840  25.272  1.00  0.00    -0.127 S 
ATOM     27  C   UNL A   1      34.636  16.537  24.969  1.00  0.00     0.090 A 
ATOM     28  C   UNL A   1      35.877  15.828  25.378  1.00  0.00     0.079 C 
ENDBRANCH  22  23
ENDBRANCH  20  22
ENDBRANCH  10  20
ENDBRANCH   4   7
ENDBRANCH   2   3
ENDBRANCH   1   2
BRANCH   1  29
ATOM     29  C   UNL A   1      39.286  21.199  26.027  1.00  0.00     0.023 C 
BRANCH  29  30
ATOM     30  C   UNL A   1      40.172  20.329  26.909  1.00  0.00     0.116 C 
BRANCH  30  31
ATOM     31  N   UNL A   1      41.260  19.711  26.168  1.00  0.00    -0.352 N 
ATOM     32  C   UNL A   1      42.453  20.261  25.768  1.00  0.00     0.251 C 
ATOM     33  H   UNL A   1      41.121  18.768  25.920  1.00  0.00     0.163 HD
ATOM     34  O   UNL A   1      43.179  19.645  25.001  1.00  0.00    -0.269 OA
BRANCH  32  35
ATOM     35  C   UNL A   1      42.817  21.612  26.244  1.00  0.00     0.039 A 
ATOM     36  C   UNL A   1      42.808  22.666  25.332  1.00  0.00     0.014 A 
ATOM     37  C   UNL A   1      43.133  21.838  27.587  1.00  0.00     0.014 A 
ATOM     38  C   UNL A   1      43.065  23.960  25.782  1.00  0.00     0.010 A 
ATOM     39  C   UNL A   1      43.297  23.139  28.049  1.00  0.00     0.010 A 
ATOM     40  C   UNL A   1      43.276  24.214  27.150  1.00  0.00    -0.014 A 
BRANCH  40  41
ATOM     41  C   UNL A   1      43.484  25.604  27.630  1.00  0.00     0.031 A 
ATOM     42  C   UNL A   1      44.851  26.228  27.585  1.00  0.00     0.074 A 
ATOM     43  C   UNL A   1      42.433  26.297  28.113  1.00  0.00     0.049 A 
ATOM     44  N   UNL A   1      45.219  27.437  27.927  1.00  0.00    -0.248 NA
ATOM     45  C   UNL A   1      45.958  25.376  27.119  1.00  0.00     0.031 C 
ATOM     46  C   UNL A   1      41.073  25.771  28.267  1.00  0.00     0.029 A 
ATOM     47  N   UNL A   1      42.335  27.593  28.552  1.00  0.00    -0.354 N 
ATOM     48  C   UNL A   1      46.591  27.493  27.706  1.00  0.00     0.074 A 
ATOM     49  C   UNL A   1      47.003  26.171  27.287  1.00  0.00     0.031 C 
ATOM     50  C   UNL A   1      40.272  26.746  28.722  1.00  0.00     0.029 A 
ATOM     51  C   UNL A   1      41.063  27.953  28.934  1.00  0.00     0.049 A 
ATOM     52  H   UNL A   1      43.103  28.207  28.592  1.00  0.00     0.167 HD
ATOM     53  C   UNL A   1      47.424  28.558  27.805  1.00  0.00     0.034 A 
ATOM     54  C   UNL A   1      40.588  29.125  29.401  1.00  0.00     0.034 A 
ATOM     55  C   UNL A   1      46.998  29.870  28.230  1.00  0.00     0.049 A 
ATOM     56  C   UNL A   1      41.539  30.291  29.514  1.00  0.00     0.074 A 
ATOM     57  C   UNL A   1      47.750  31.025  28.352  1.00  0.00     0.029 A 
ATOM     58  N   UNL A   1      45.701  30.201  28.606  1.00  0.00    -0.354 N 
ATOM     59  N   UNL A   1      42.825  30.341  29.246  1.00  0.00    -0.248 NA
ATOM     60  C   UNL A   1      40.968  31.564  29.967  1.00  0.00     0.031 C 
ATOM     61  C   UNL A   1      46.926  32.034  28.862  1.00  0.00     0.029 A 
ATOM     62  C   UNL A   1      45.639  31.536  28.978  1.00  0.00     0.049 A 
ATOM     63  H   UNL A   1      44.939  29.579  28.608  1.00  0.00     0.167 HD
ATOM     64  C   UNL A   1      43.208  31.660  29.472  1.00  0.00     0.074 A 
ATOM     65  C   UNL A   1      42.008  32.375  29.858  1.00  0.00     0.031 C 
ATOM     66  C   UNL A   1      44.437  32.231  29.380  1.00  0.00     0.034 A 
BRANCH  53  67
ATOM     67  C   UNL A   1      48.877  28.339  27.453  1.00  0.00     0.023 A 
ATOM     68  C   UNL A   1      49.325  28.399  26.120  1.00  0.00     0.031 A 
ATOM     69  C   UNL A   1      49.824  28.052  28.450  1.00  0.00     0.131 A 
ATOM     70  C   UNL A   1      50.663  28.110  25.815  1.00  0.00     0.055 A 
ATOM     71  C   UNL A   1      51.173  27.847  28.148  1.00  0.00     0.041 A 
ATOM     72  F   UNL A   1      49.455  27.957  29.737  1.00  0.00    -0.206 F 
ATOM     73  C   UNL A   1      51.597  27.863  26.823  1.00  0.00     0.022 A 
BRANCH  70  74
ATOM     74  S   UNL A   1      51.134  27.929  24.073  1.00  0.00     0.124 S 
ATOM     75  O   UNL A   1      49.870  28.205  23.395  1.00  0.00    -0.237 OA
ATOM     76  O   UNL A   1      52.175  28.939  23.921  1.00  0.00    -0.237 OA
ATOM     77  O   UNL A   1      51.591  26.544  23.984  1.00  0.00    -0.744 OA
ENDBRANCH  70  74
ENDBRANCH  53  67
BRANCH  54  78
ATOM     78  C   UNL A   1      39.157  29.262  29.804  1.00  0.00     0.023 A 
ATOM     79  C   UNL A   1      38.222  29.903  28.975  1.00  0.00     0.031 A 
ATOM     80  C   UNL A   1      38.719  28.810  31.061  1.00  0.00     0.131 A 
ATOM     81  C   UNL A   1      36.917  30.134  29.440  1.00  0.00     0.055 A 
ATOM     82  C   UNL A   1      37.402  28.982  31.492  1.00  0.00     0.041 A 
ATOM     83  F   UNL A   1      39.568  28.185  31.894  1.00  0.00    -0.206 F 
ATOM     84  C   UNL A   1      36.497  29.665  30.687  1.00  0.00     0.022 A 
BRANCH  81  85
ATOM     85  S   UNL A   1      35.809  31.165  28.439  1.00  0.00     0.124 S 
ATOM     86  O   UNL A   1      35.401  30.235  27.394  1.00  0.00    -0.237 OA
ATOM     87  O   UNL A   1      34.783  31.534  29.408  1.00  0.00    -0.237 OA
ATOM     88  O   UNL A   1      36.671  32.262  28.000  1.00  0.00    -0.744 OA
ENDBRANCH  81  85
ENDBRANCH  54  78
BRANCH  66  89
ATOM     89  C   UNL A   1      44.520  33.713  29.668  1.00  0.00     0.023 A 
ATOM     90  C   UNL A   1      44.380  34.671  28.649  1.00  0.00     0.031 A 
ATOM     91  C   UNL A   1      44.805  34.170  30.967  1.00  0.00     0.131 A 
ATOM     92  C   UNL A   1      44.623  36.025  28.922  1.00  0.00     0.055 A 
ATOM     93  C   UNL A   1      44.962  35.528  31.251  1.00  0.00     0.041 A 
ATOM     94  F   UNL A   1      44.951  33.304  31.982  1.00  0.00    -0.206 F 
ATOM     95  C   UNL A   1      44.894  36.462  30.221  1.00  0.00     0.022 A 
BRANCH  92  96
ATOM     96  S   UNL A   1      44.739  37.181  27.530  1.00  0.00     0.124 S 
ATOM     97  O   UNL A   1      45.314  38.362  28.164  1.00  0.00    -0.237 OA
ATOM     98  O   UNL A   1      45.611  36.466  26.604  1.00  0.00    -0.237 OA
ATOM     99  O   UNL A   1      43.353  37.325  27.089  1.00  0.00    -0.744 OA
ENDBRANCH  92  96
ENDBRANCH  66  89
ENDBRANCH  40  41
ENDBRANCH  32  35
ENDBRANCH  30  31
ENDBRANCH  29  30
ENDBRANCH   1  29
TORSDOF 19
ENDMDL
MODEL 2
REMARK VINA RESULT:     -11.6      6.652     10.563
REMARK SMILES COc1ccccc1[C@@H]1CN(C(=O)Cc2csc(C)n2)C[C@H]1C(=O)NCCCCNC(=O)c1ccc(-c2c3nc(c(-c4cc(S(=O)(=O)[O-])ccc4F)c4ccc([nH]4)c(-c4cc(S(=O)(=O)[O-])ccc4F)c4nc(c(-c5cc(S(=O)(=O)[O-])ccc5F)c5ccc2[nH]5)C=C4)C=C3)cc1
REMARK SMILES IDX 27 1 26 2 25 3 23 4 24 5 22 7 9 8 10 9 11 10 21 11 8 12 3 13
REMARK SMILES IDX 4 14 5 15 7 16 6 17 2 18 1 19 12 20 13 21 14 22 15 23 16 24
REMARK SMILES IDX 20 25 17 26 18 27 19 28 28 29 29 30 30 31 31 32 32 34 33 35
REMARK SMILES IDX 34 36 95 37 35 38 94 39 36 40 37 41 38 42 88 43 39 44 93 45
REMARK SMILES IDX 87 46 89 47 40 48 92 49 86 50 85 51 41 53 73 54 53 55 72 56
REMARK SMILES IDX 54 57 57 58 71 59 90 60 55 61 56 62 70 64 91 65 58 66 42 67
REMARK SMILES IDX 43 68 51 69 44 70 50 71 52 72 49 73 45 74 46 75 47 76 48 77
REMARK SMILES IDX 74 78 75 79 83 80 76 81 82 82 84 83 81 84 77 85 78 86 79 87
REMARK SMILES IDX 80 88 59 89 60 90 68 91 61 92 67 93 69 94 66 95 62 96 63 97
REMARK SMILES IDX 64 98 65 99
REMARK H PARENT 25 6 30 33 89 52 57 63
REMARK Flexibility Score: inf
ROOT
ATOM      1  C   UNL A   1      31.435  31.557  26.338  1.00  0.00     0.023 C 
ENDROOT
BRANCH   1   2
ATOM      2  C   UNL A   1      32.555  30.642  26.819  1.00  0.00     0.116 C 
BRANCH   2   3
ATOM      3  N   UNL A   1      32.027  29.521  27.571  1.00  0.00    -0.356 N 
ATOM      4  C   UNL A   1      31.791  28.236  27.201  1.00  0.00     0.225 C 
ATOM      5  O   UNL A   1      31.293  27.484  28.042  1.00  0.00    -0.275 OA
ATOM      6  H   UNL A   1      31.803  29.724  28.507  1.00  0.00     0.163 HD
BRANCH   4   7
ATOM      7  C   UNL A   1      32.130  27.712  25.818  1.00  0.00     0.107 C 
ATOM      8  C   UNL A   1      31.660  26.272  25.536  1.00  0.00     0.057 C 
ATOM      9  C   UNL A   1      31.199  26.281  24.081  1.00  0.00     0.128 C 
ATOM     10  N   UNL A   1      30.823  27.662  23.828  1.00  0.00    -0.341 N 
ATOM     11  C   UNL A   1      31.533  28.575  24.708  1.00  0.00     0.133 C 
BRANCH   8  12
ATOM     12  C   UNL A   1      32.625  25.171  25.923  1.00  0.00    -0.000 A 
ATOM     13  C   UNL A   1      32.307  24.019  26.662  1.00  0.00     0.122 A 
ATOM     14  C   UNL A   1      33.296  23.066  26.949  1.00  0.00     0.047 A 
ATOM     15  C   UNL A   1      34.614  23.256  26.535  1.00  0.00     0.004 A 
ATOM     16  C   UNL A   1      33.970  25.343  25.524  1.00  0.00     0.008 A 
ATOM     17  C   UNL A   1      34.956  24.409  25.841  1.00  0.00     0.001 A 
BRANCH  13  18
ATOM     18  O   UNL A   1      31.127  23.853  27.336  1.00  0.00    -0.496 OA
ATOM     19  C   UNL A   1      30.291  22.819  26.832  1.00  0.00     0.278 C 
ENDBRANCH  13  18
ENDBRANCH   8  12
BRANCH  10  20
ATOM     20  C   UNL A   1      30.006  28.135  22.821  1.00  0.00     0.228 C 
ATOM     21  O   UNL A   1      30.367  28.099  21.641  1.00  0.00    -0.274 OA
BRANCH  20  22
ATOM     22  C   UNL A   1      28.702  28.811  23.209  1.00  0.00     0.157 C 
BRANCH  22  23
ATOM     23  C   UNL A   1      28.638  30.255  22.831  1.00  0.00     0.061 A 
ATOM     24  C   UNL A   1      28.950  31.323  23.653  1.00  0.00     0.091 A 
ATOM     25  N   UNL A   1      28.220  30.617  21.561  1.00  0.00    -0.246 NA
ATOM     26  S   UNL A   1      28.684  32.803  22.831  1.00  0.00    -0.127 S 
ATOM     27  C   UNL A   1      28.182  31.924  21.444  1.00  0.00     0.090 A 
ATOM     28  C   UNL A   1      27.742  32.640  20.217  1.00  0.00     0.079 C 
ENDBRANCH  22  23
ENDBRANCH  20  22
ENDBRANCH  10  20
ENDBRANCH   4   7
ENDBRANCH   2   3
ENDBRANCH   1   2
BRANCH   1  29
ATOM     29  C   UNL A   1      31.634  33.028  26.697  1.00  0.00     0.023 C 
BRANCH  29  30
ATOM     30  C   UNL A   1      32.870  33.310  27.541  1.00  0.00     0.116 C 
BRANCH  30  31
ATOM     31  N   UNL A   1      32.872  34.655  28.094  1.00  0.00    -0.352 N 
ATOM     32  C   UNL A   1      33.588  35.149  29.156  1.00  0.00     0.251 C 
ATOM     33  H   UNL A   1      32.277  35.299  27.645  1.00  0.00     0.163 HD
ATOM     34  O   UNL A   1      33.336  36.263  29.594  1.00  0.00    -0.269 OA
BRANCH  32  35
ATOM     35  C   UNL A   1      34.628  34.304  29.777  1.00  0.00     0.039 A 
ATOM     36  C   UNL A   1      35.956  34.489  29.395  1.00  0.00     0.014 A 
ATOM     37  C   UNL A   1      34.297  33.358  30.753  1.00  0.00     0.014 A 
ATOM     38  C   UNL A   1      36.958  33.760  30.032  1.00  0.00     0.010 A 
ATOM     39  C   UNL A   1      35.305  32.702  31.450  1.00  0.00     0.010 A 
ATOM     40  C   UNL A   1      36.647  32.887  31.090  1.00  0.00    -0.014 A 
BRANCH  40  41
ATOM     41  C   UNL A   1      37.727  32.164  31.809  1.00  0.00     0.031 A 
ATOM     42  C   UNL A   1      38.478  31.050  31.131  1.00  0.00     0.074 A 
ATOM     43  C   UNL A   1      38.024  32.514  33.076  1.00  0.00     0.049 A 
ATOM     44  N   UNL A   1      39.471  30.330  31.585  1.00  0.00    -0.248 NA
ATOM     45  C   UNL A   1      38.037  30.677  29.777  1.00  0.00     0.031 C 
ATOM     46  C   UNL A   1      37.318  33.536  33.857  1.00  0.00     0.029 A 
ATOM     47  N   UNL A   1      38.998  32.065  33.929  1.00  0.00    -0.354 N 
ATOM     48  C   UNL A   1      39.782  29.431  30.570  1.00  0.00     0.074 A 
ATOM     49  C   UNL A   1      38.814  29.637  29.515  1.00  0.00     0.031 C 
ATOM     50  C   UNL A   1      37.911  33.664  35.054  1.00  0.00     0.029 A 
ATOM     51  C   UNL A   1      39.009  32.708  35.146  1.00  0.00     0.049 A 
ATOM     52  H   UNL A   1      39.630  31.348  33.694  1.00  0.00     0.167 HD
ATOM     53  C   UNL A   1      40.805  28.542  30.507  1.00  0.00     0.034 A 
ATOM     54  C   UNL A   1      39.814  32.546  36.215  1.00  0.00     0.034 A 
ATOM     55  C   UNL A   1      41.760  28.345  31.570  1.00  0.00     0.049 A 
ATOM     56  C   UNL A   1      40.937  31.542  36.122  1.00  0.00     0.074 A 
ATOM     57  C   UNL A   1      42.844  27.486  31.609  1.00  0.00     0.029 A 
ATOM     58  N   UNL A   1      41.743  29.016  32.787  1.00  0.00    -0.354 N 
ATOM     59  N   UNL A   1      41.251  30.739  35.130  1.00  0.00    -0.248 NA
ATOM     60  C   UNL A   1      41.827  31.442  37.284  1.00  0.00     0.031 C 
ATOM     61  C   UNL A   1      43.441  27.589  32.869  1.00  0.00     0.029 A 
ATOM     62  C   UNL A   1      42.786  28.574  33.590  1.00  0.00     0.049 A 
ATOM     63  H   UNL A   1      41.087  29.703  33.043  1.00  0.00     0.167 HD
ATOM     64  C   UNL A   1      42.395  30.059  35.541  1.00  0.00     0.074 A 
ATOM     65  C   UNL A   1      42.732  30.579  36.850  1.00  0.00     0.031 C 
ATOM     66  C   UNL A   1      43.099  29.089  34.903  1.00  0.00     0.034 A 
BRANCH  53  67
ATOM     67  C   UNL A   1      40.931  27.718  29.246  1.00  0.00     0.023 A 
ATOM     68  C   UNL A   1      41.903  28.014  28.272  1.00  0.00     0.031 A 
ATOM     69  C   UNL A   1      40.068  26.637  29.003  1.00  0.00     0.131 A 
ATOM     70  C   UNL A   1      41.944  27.283  27.076  1.00  0.00     0.055 A 
ATOM     71  C   UNL A   1      40.167  25.861  27.846  1.00  0.00     0.041 A 
ATOM     72  F   UNL A   1      39.104  26.321  29.882  1.00  0.00    -0.206 F 
ATOM     73  C   UNL A   1      41.101  26.190  26.868  1.00  0.00     0.022 A 
BRANCH  70  74
ATOM     74  S   UNL A   1      43.022  27.868  25.740  1.00  0.00     0.124 S 
ATOM     75  O   UNL A   1      42.336  27.347  24.559  1.00  0.00    -0.237 OA
ATOM     76  O   UNL A   1      42.984  29.315  25.914  1.00  0.00    -0.237 OA
ATOM     77  O   UNL A   1      44.307  27.237  26.035  1.00  0.00    -0.744 OA
ENDBRANCH  70  74
ENDBRANCH  53  67
BRANCH  54  78
ATOM     78  C   UNL A   1      39.595  33.337  37.462  1.00  0.00     0.023 A 
ATOM     79  C   UNL A   1      40.407  34.438  37.783  1.00  0.00     0.031 A 
ATOM     80  C   UNL A   1      38.607  32.959  38.388  1.00  0.00     0.131 A 
ATOM     81  C   UNL A   1      40.262  35.077  39.025  1.00  0.00     0.055 A 
ATOM     82  C   UNL A   1      38.422  33.640  39.592  1.00  0.00     0.041 A 
ATOM     83  F   UNL A   1      37.798  31.918  38.132  1.00  0.00    -0.206 F 
ATOM     84  C   UNL A   1      39.265  34.694  39.925  1.00  0.00     0.022 A 
BRANCH  81  85
ATOM     85  S   UNL A   1      41.476  36.339  39.499  1.00  0.00     0.124 S 
ATOM     86  O   UNL A   1      41.257  37.359  38.481  1.00  0.00    -0.237 OA
ATOM     87  O   UNL A   1      41.047  36.677  40.851  1.00  0.00    -0.237 OA
ATOM     88  O   UNL A   1      42.753  35.631  39.412  1.00  0.00    -0.744 OA
ENDBRANCH  81  85
ENDBRANCH  54  78
BRANCH  66  89
ATOM     89  C   UNL A   1      44.326  28.564  35.612  1.00  0.00     0.023 A 
ATOM     90  C   UNL A   1      44.252  27.489  36.514  1.00  0.00     0.031 A 
ATOM     91  C   UNL A   1      45.575  29.186  35.429  1.00  0.00     0.131 A 
ATOM     92  C   UNL A   1      45.377  27.133  37.274  1.00  0.00     0.055 A 
ATOM     93  C   UNL A   1      46.711  28.772  36.126  1.00  0.00     0.041 A 
ATOM     94  F   UNL A   1      45.708  30.219  34.582  1.00  0.00    -0.206 F 
ATOM     95  C   UNL A   1      46.611  27.756  37.071  1.00  0.00     0.022 A 
BRANCH  92  96
ATOM     96  S   UNL A   1      45.162  25.960  38.639  1.00  0.00     0.124 S 
ATOM     97  O   UNL A   1      44.139  26.617  39.445  1.00  0.00    -0.237 OA
ATOM     98  O   UNL A   1      44.743  24.747  37.944  1.00  0.00    -0.237 OA
ATOM     99  O   UNL A   1      46.488  25.898  39.249  1.00  0.00    -0.744 OA
ENDBRANCH  92  96
ENDBRANCH  66  89
ENDBRANCH  40  41
ENDBRANCH  32  35
ENDBRANCH  30  31
ENDBRANCH  29  30
ENDBRANCH   1  29
TORSDOF 19
ENDMDL
MODEL 3
REMARK VINA RESULT:     -11.5      6.081     11.112
REMARK SMILES COc1ccccc1[C@@H]1CN(C(=O)Cc2csc(C)n2)C[C@H]1C(=O)NCCCCNC(=O)c1ccc(-c2c3nc(c(-c4cc(S(=O)(=O)[O-])ccc4F)c4ccc([nH]4)c(-c4cc(S(=O)(=O)[O-])ccc4F)c4nc(c(-c5cc(S(=O)(=O)[O-])ccc5F)c5ccc2[nH]5)C=C4)C=C3)cc1
REMARK SMILES IDX 27 1 26 2 25 3 23 4 24 5 22 7 9 8 10 9 11 10 21 11 8 12 3 13
REMARK SMILES IDX 4 14 5 15 7 16 6 17 2 18 1 19 12 20 13 21 14 22 15 23 16 24
REMARK SMILES IDX 20 25 17 26 18 27 19 28 28 29 29 30 30 31 31 32 32 34 33 35
REMARK SMILES IDX 34 36 95 37 35 38 94 39 36 40 37 41 38 42 88 43 39 44 93 45
REMARK SMILES IDX 87 46 89 47 40 48 92 49 86 50 85 51 41 53 73 54 53 55 72 56
REMARK SMILES IDX 54 57 57 58 71 59 90 60 55 61 56 62 70 64 91 65 58 66 42 67
REMARK SMILES IDX 43 68 51 69 44 70 50 71 52 72 49 73 45 74 46 75 47 76 48 77
REMARK SMILES IDX 74 78 75 79 83 80 76 81 82 82 84 83 81 84 77 85 78 86 79 87
REMARK SMILES IDX 80 88 59 89 60 90 68 91 61 92 67 93 69 94 66 95 62 96 63 97
REMARK SMILES IDX 64 98 65 99
REMARK H PARENT 25 6 30 33 89 52 57 63
REMARK Flexibility Score: inf
ROOT
ATOM      1  C   UNL A   1      31.716  31.349  26.285  1.00  0.00     0.023 C 
ENDROOT
BRANCH   1   2
ATOM      2  C   UNL A   1      32.755  30.424  26.910  1.00  0.00     0.116 C 
BRANCH   2   3
ATOM      3  N   UNL A   1      32.122  29.313  27.593  1.00  0.00    -0.356 N 
ATOM      4  C   UNL A   1      31.849  28.051  27.173  1.00  0.00     0.225 C 
ATOM      5  O   UNL A   1      31.257  27.306  27.957  1.00  0.00    -0.275 OA
ATOM      6  H   UNL A   1      31.843  29.505  28.517  1.00  0.00     0.163 HD
BRANCH   4   7
ATOM      7  C   UNL A   1      32.258  27.543  25.803  1.00  0.00     0.107 C 
ATOM      8  C   UNL A   1      31.856  26.085  25.504  1.00  0.00     0.057 C 
ATOM      9  C   UNL A   1      31.447  26.079  24.034  1.00  0.00     0.128 C 
ATOM     10  N   UNL A   1      31.026  27.443  23.768  1.00  0.00    -0.341 N 
ATOM     11  C   UNL A   1      31.667  28.383  24.673  1.00  0.00     0.133 C 
BRANCH   8  12
ATOM     12  C   UNL A   1      32.850  25.023  25.925  1.00  0.00    -0.000 A 
ATOM     13  C   UNL A   1      32.568  23.897  26.716  1.00  0.00     0.122 A 
ATOM     14  C   UNL A   1      33.581  22.980  27.030  1.00  0.00     0.047 A 
ATOM     15  C   UNL A   1      34.889  23.181  26.593  1.00  0.00     0.004 A 
ATOM     16  C   UNL A   1      34.187  25.208  25.503  1.00  0.00     0.008 A 
ATOM     17  C   UNL A   1      35.197  24.311  25.847  1.00  0.00     0.001 A 
BRANCH  13  18
ATOM     18  O   UNL A   1      31.398  23.734  27.410  1.00  0.00    -0.496 OA
ATOM     19  C   UNL A   1      30.440  22.896  26.777  1.00  0.00     0.278 C 
ENDBRANCH  13  18
ENDBRANCH   8  12
BRANCH  10  20
ATOM     20  C   UNL A   1      30.227  27.885  22.732  1.00  0.00     0.228 C 
ATOM     21  O   UNL A   1      30.637  27.882  21.568  1.00  0.00    -0.274 OA
BRANCH  20  22
ATOM     22  C   UNL A   1      28.874  28.488  23.072  1.00  0.00     0.157 C 
BRANCH  22  23
ATOM     23  C   UNL A   1      28.757  29.937  22.723  1.00  0.00     0.061 A 
ATOM     24  C   UNL A   1      29.001  30.999  23.575  1.00  0.00     0.091 A 
ATOM     25  N   UNL A   1      28.356  30.307  21.450  1.00  0.00    -0.246 NA
ATOM     26  S   UNL A   1      28.692  32.483  22.777  1.00  0.00    -0.127 S 
ATOM     27  C   UNL A   1      28.264  31.614  21.359  1.00  0.00     0.090 A 
ATOM     28  C   UNL A   1      27.824  32.337  20.137  1.00  0.00     0.079 C 
ENDBRANCH  22  23
ENDBRANCH  20  22
ENDBRANCH  10  20
ENDBRANCH   4   7
ENDBRANCH   2   3
ENDBRANCH   1   2
BRANCH   1  29
ATOM     29  C   UNL A   1      31.624  32.720  26.950  1.00  0.00     0.023 C 
BRANCH  29  30
ATOM     30  C   UNL A   1      32.959  33.294  27.403  1.00  0.00     0.116 C 
BRANCH  30  31
ATOM     31  N   UNL A   1      32.809  34.537  28.143  1.00  0.00    -0.352 N 
ATOM     32  C   UNL A   1      33.476  34.955  29.269  1.00  0.00     0.251 C 
ATOM     33  H   UNL A   1      32.138  35.163  27.788  1.00  0.00     0.163 HD
ATOM     34  O   UNL A   1      33.100  35.958  29.860  1.00  0.00    -0.269 OA
BRANCH  32  35
ATOM     35  C   UNL A   1      34.616  34.159  29.767  1.00  0.00     0.039 A 
ATOM     36  C   UNL A   1      35.884  34.408  29.245  1.00  0.00     0.014 A 
ATOM     37  C   UNL A   1      34.437  33.196  30.766  1.00  0.00     0.014 A 
ATOM     38  C   UNL A   1      36.983  33.726  29.765  1.00  0.00     0.010 A 
ATOM     39  C   UNL A   1      35.544  32.587  31.346  1.00  0.00     0.010 A 
ATOM     40  C   UNL A   1      36.829  32.837  30.844  1.00  0.00    -0.014 A 
BRANCH  40  41
ATOM     41  C   UNL A   1      38.013  32.165  31.436  1.00  0.00     0.031 A 
ATOM     42  C   UNL A   1      38.540  32.595  32.778  1.00  0.00     0.074 A 
ATOM     43  C   UNL A   1      38.613  31.168  30.755  1.00  0.00     0.049 A 
ATOM     44  N   UNL A   1      39.539  32.105  33.468  1.00  0.00    -0.248 NA
ATOM     45  C   UNL A   1      37.877  33.742  33.418  1.00  0.00     0.031 C 
ATOM     46  C   UNL A   1      38.230  30.710  29.416  1.00  0.00     0.029 A 
ATOM     47  N   UNL A   1      39.662  30.352  31.093  1.00  0.00    -0.354 N 
ATOM     48  C   UNL A   1      39.614  32.874  34.624  1.00  0.00     0.074 A 
ATOM     49  C   UNL A   1      38.619  33.917  34.500  1.00  0.00     0.031 C 
ATOM     50  C   UNL A   1      39.002  29.670  29.068  1.00  0.00     0.029 A 
ATOM     51  C   UNL A   1      39.962  29.411  30.135  1.00  0.00     0.049 A 
ATOM     52  H   UNL A   1      40.155  30.432  31.941  1.00  0.00     0.167 HD
ATOM     53  C   UNL A   1      40.411  32.703  35.708  1.00  0.00     0.034 A 
ATOM     54  C   UNL A   1      40.905  28.447  30.118  1.00  0.00     0.034 A 
ATOM     55  C   UNL A   1      41.403  31.660  35.814  1.00  0.00     0.049 A 
ATOM     56  C   UNL A   1      41.787  28.286  31.332  1.00  0.00     0.074 A 
ATOM     57  C   UNL A   1      42.254  31.382  36.868  1.00  0.00     0.029 A 
ATOM     58  N   UNL A   1      41.678  30.722  34.826  1.00  0.00    -0.354 N 
ATOM     59  N   UNL A   1      41.806  28.989  32.442  1.00  0.00    -0.248 NA
ATOM     60  C   UNL A   1      42.758  27.186  31.298  1.00  0.00     0.031 C 
ATOM     61  C   UNL A   1      43.086  30.321  36.494  1.00  0.00     0.029 A 
ATOM     62  C   UNL A   1      42.699  29.878  35.240  1.00  0.00     0.049 A 
ATOM     63  H   UNL A   1      41.216  30.664  33.959  1.00  0.00     0.167 HD
ATOM     64  C   UNL A   1      42.772  28.395  33.250  1.00  0.00     0.074 A 
ATOM     65  C   UNL A   1      43.279  27.256  32.512  1.00  0.00     0.031 C 
ATOM     66  C   UNL A   1      43.208  28.757  34.484  1.00  0.00     0.034 A 
BRANCH  53  67
ATOM     67  C   UNL A   1      40.242  33.672  36.855  1.00  0.00     0.023 A 
ATOM     68  C   UNL A   1      41.127  34.751  37.040  1.00  0.00     0.031 A 
ATOM     69  C   UNL A   1      39.200  33.513  37.783  1.00  0.00     0.131 A 
ATOM     70  C   UNL A   1      40.993  35.585  38.159  1.00  0.00     0.055 A 
ATOM     71  C   UNL A   1      39.022  34.396  38.850  1.00  0.00     0.041 A 
ATOM     72  F   UNL A   1      38.338  32.489  37.675  1.00  0.00    -0.206 F 
ATOM     73  C   UNL A   1      39.930  35.433  39.051  1.00  0.00     0.022 A 
BRANCH  70  74
ATOM     74  S   UNL A   1      42.308  36.785  38.507  1.00  0.00     0.124 S 
ATOM     75  O   UNL A   1      43.208  36.000  39.348  1.00  0.00    -0.237 OA
ATOM     76  O   UNL A   1      42.799  37.110  37.173  1.00  0.00    -0.237 OA
ATOM     77  O   UNL A   1      41.609  37.869  39.196  1.00  0.00    -0.744 OA
ENDBRANCH  70  74
ENDBRANCH  53  67
BRANCH  54  78
ATOM     78  C   UNL A   1      41.075  27.566  28.925  1.00  0.00     0.023 A 
ATOM     79  C   UNL A   1      42.066  27.822  27.963  1.00  0.00     0.031 A 
ATOM     80  C   UNL A   1      40.199  26.491  28.695  1.00  0.00     0.131 A 
ATOM     81  C   UNL A   1      42.113  27.056  26.786  1.00  0.00     0.055 A 
ATOM     82  C   UNL A   1      40.293  25.690  27.556  1.00  0.00     0.041 A 
ATOM     83  F   UNL A   1      39.236  26.196  29.584  1.00  0.00    -0.206 F 
ATOM     84  C   UNL A   1      41.243  25.983  26.583  1.00  0.00     0.022 A 
BRANCH  81  85
ATOM     85  S   UNL A   1      43.252  27.561  25.467  1.00  0.00     0.124 S 
ATOM     86  O   UNL A   1      43.786  26.278  25.028  1.00  0.00    -0.237 OA
ATOM     87  O   UNL A   1      42.356  28.238  24.537  1.00  0.00    -0.237 OA
ATOM     88  O   UNL A   1      44.204  28.432  26.156  1.00  0.00    -0.744 OA
ENDBRANCH  81  85
ENDBRANCH  54  78
BRANCH  66  89
ATOM     89  C   UNL A   1      44.264  27.879  35.116  1.00  0.00     0.023 A 
ATOM     90  C   UNL A   1      45.635  28.110  34.909  1.00  0.00     0.031 A 
ATOM     91  C   UNL A   1      43.893  26.760  35.884  1.00  0.00     0.131 A 
ATOM     92  C   UNL A   1      46.579  27.183  35.375  1.00  0.00     0.055 A 
ATOM     93  C   UNL A   1      44.842  25.888  36.418  1.00  0.00     0.041 A 
ATOM     94  F   UNL A   1      42.599  26.487  36.116  1.00  0.00    -0.206 F 
ATOM     95  C   UNL A   1      46.192  26.084  36.146  1.00  0.00     0.022 A 
BRANCH  92  96
ATOM     96  S   UNL A   1      48.299  27.349  34.824  1.00  0.00     0.124 S 
ATOM     97  O   UNL A   1      48.895  28.107  35.919  1.00  0.00    -0.237 OA
ATOM     98  O   UNL A   1      48.724  25.958  34.706  1.00  0.00    -0.237 OA
ATOM     99  O   UNL A   1      48.184  28.072  33.559  1.00  0.00    -0.744 OA
ENDBRANCH  92  96
ENDBRANCH  66  89
ENDBRANCH  40  41
ENDBRANCH  32  35
ENDBRANCH  30  31
ENDBRANCH  29  30
ENDBRANCH   1  29
TORSDOF 19
ENDMDL
