MODEL 1
REMARK VINA RESULT:     -10.9      0.000      0.000
REMARK SMILES COC[C@H]1CCN(C(=O)N2CC[C@H](C(=O)NCCCCNC(=O)c3ccc(-c4c5nc(c(-c6cc(S(=O)(=O)[O-])ccc6F)c6ccc([nH]6)c(-c6cc(S(=O)(=O)[O-])ccc6F)c6nc(c(-c7cc(S(=O)(=O)[O-])ccc7F)c7ccc4[nH]7)C=C6)C=C5)cc3)[C@@H]2C)C1
REMARK SMILES IDX 18 1 17 2 16 3 14 4 15 5 13 7 10 8 11 9 87 10 12 11 88 12
REMARK SMILES IDX 8 13 9 14 7 15 4 16 5 17 89 18 6 19 3 20 2 21 1 22 19 23
REMARK SMILES IDX 20 24 21 25 22 26 23 28 24 29 25 30 86 31 26 32 85 33 27 34
REMARK SMILES IDX 28 35 29 36 79 37 30 38 84 39 78 40 80 41 31 42 83 43 77 44
REMARK SMILES IDX 76 45 32 47 64 48 44 49 63 50 45 51 48 52 62 53 81 54 46 55
REMARK SMILES IDX 47 56 61 58 82 59 49 60 33 61 34 62 42 63 35 64 41 65 43 66
REMARK SMILES IDX 40 67 36 68 37 69 38 70 39 71 65 72 66 73 74 74 67 75 73 76
REMARK SMILES IDX 75 77 72 78 68 79 69 80 70 81 71 82 50 83 51 84 59 85 52 86
REMARK SMILES IDX 58 87 60 88 57 89 53 90 54 91 55 92 56 93
REMARK H PARENT 16 6 21 27 80 46 48 57
REMARK Flexibility Score: inf
ROOT
ATOM      1  C   UNL A   1      39.011  23.001  26.454  1.00  0.00     0.023 C 
ENDROOT
BRANCH   1   2
ATOM      2  C   UNL A   1      37.823  23.720  25.827  1.00  0.00     0.116 C 
BRANCH   2   3
ATOM      3  N   UNL A   1      37.523  23.263  24.486  1.00  0.00    -0.356 N 
ATOM      4  C   UNL A   1      36.349  23.232  23.802  1.00  0.00     0.225 C 
ATOM      5  O   UNL A   1      36.396  22.872  22.621  1.00  0.00    -0.275 OA
ATOM      6  H   UNL A   1      38.298  22.917  23.987  1.00  0.00     0.163 HD
BRANCH   4   7
ATOM      7  C   UNL A   1      34.999  23.589  24.419  1.00  0.00     0.102 C 
ATOM      8  N   UNL A   1      33.102  22.187  24.437  1.00  0.00    -0.321 N 
ATOM      9  C   UNL A   1      32.669  23.418  23.807  1.00  0.00     0.122 C 
ATOM     10  C   UNL A   1      34.278  22.503  25.249  1.00  0.00     0.096 C 
ATOM     11  C   UNL A   1      33.969  24.081  23.385  1.00  0.00     0.037 C 
ATOM     12  C   UNL A   1      35.126  21.323  25.708  1.00  0.00     0.032 C 
BRANCH   8  13
ATOM     13  C   UNL A   1      32.264  21.138  24.729  1.00  0.00     0.320 C 
ATOM     14  O   UNL A   1      31.478  21.194  25.675  1.00  0.00    -0.248 OA
BRANCH  13  15
ATOM     15  N   UNL A   1      32.420  19.985  23.991  1.00  0.00    -0.324 N 
ATOM     16  C   UNL A   1      33.385  17.880  23.434  1.00  0.00     0.036 C 
ATOM     17  C   UNL A   1      32.340  18.277  22.396  1.00  0.00     0.029 C 
ATOM     18  C   UNL A   1      33.052  18.815  24.606  1.00  0.00     0.127 C 
ATOM     19  C   UNL A   1      32.312  19.785  22.554  1.00  0.00     0.122 C 
BRANCH  16  20
ATOM     20  C   UNL A   1      33.334  16.398  23.788  1.00  0.00     0.165 C 
BRANCH  20  21
ATOM     21  O   UNL A   1      33.527  16.212  25.190  1.00  0.00    -0.384 OA
ATOM     22  C   UNL A   1      32.581  15.305  25.753  1.00  0.00     0.194 C 
ENDBRANCH  20  21
ENDBRANCH  16  20
ENDBRANCH  13  15
ENDBRANCH   8  13
ENDBRANCH   4   7
ENDBRANCH   2   3
ENDBRANCH   1   2
BRANCH   1  23
ATOM     23  C   UNL A   1      39.325  21.631  25.856  1.00  0.00     0.023 C 
BRANCH  23  24
ATOM     24  C   UNL A   1      39.857  20.588  26.835  1.00  0.00     0.116 C 
BRANCH  24  25
ATOM     25  N   UNL A   1      40.787  19.646  26.228  1.00  0.00    -0.352 N 
ATOM     26  C   UNL A   1      42.098  19.839  25.859  1.00  0.00     0.251 C 
ATOM     27  H   UNL A   1      40.427  18.746  26.056  1.00  0.00     0.163 HD
ATOM     28  O   UNL A   1      42.693  18.961  25.240  1.00  0.00    -0.269 OA
BRANCH  26  29
ATOM     29  C   UNL A   1      42.763  21.123  26.172  1.00  0.00     0.039 A 
ATOM     30  C   UNL A   1      43.014  22.027  25.137  1.00  0.00     0.014 A 
ATOM     31  C   UNL A   1      43.097  21.452  27.490  1.00  0.00     0.014 A 
ATOM     32  C   UNL A   1      43.517  23.296  25.436  1.00  0.00     0.010 A 
ATOM     33  C   UNL A   1      43.530  22.741  27.791  1.00  0.00     0.010 A 
ATOM     34  C   UNL A   1      43.735  23.680  26.769  1.00  0.00    -0.014 A 
BRANCH  34  35
ATOM     35  C   UNL A   1      44.165  25.061  27.117  1.00  0.00     0.031 A 
ATOM     36  C   UNL A   1      43.171  26.040  27.681  1.00  0.00     0.074 A 
ATOM     37  C   UNL A   1      45.429  25.454  26.859  1.00  0.00     0.049 A 
ATOM     38  N   UNL A   1      43.324  27.310  27.956  1.00  0.00    -0.248 NA
ATOM     39  C   UNL A   1      41.817  25.528  27.939  1.00  0.00     0.031 C 
ATOM     40  C   UNL A   1      46.474  24.610  26.274  1.00  0.00     0.029 A 
ATOM     41  N   UNL A   1      46.049  26.665  27.041  1.00  0.00    -0.354 N 
ATOM     42  C   UNL A   1      42.085  27.751  28.409  1.00  0.00     0.074 A 
ATOM     43  C   UNL A   1      41.179  26.627  28.311  1.00  0.00     0.031 C 
ATOM     44  C   UNL A   1      47.608  25.322  26.168  1.00  0.00     0.029 A 
ATOM     45  C   UNL A   1      47.363  26.684  26.632  1.00  0.00     0.049 A 
ATOM     46  H   UNL A   1      45.595  27.448  27.429  1.00  0.00     0.167 HD
ATOM     47  C   UNL A   1      41.740  28.975  28.883  1.00  0.00     0.034 A 
ATOM     48  C   UNL A   1      48.264  27.687  26.620  1.00  0.00     0.034 A 
ATOM     49  C   UNL A   1      42.657  30.084  28.988  1.00  0.00     0.049 A 
ATOM     50  C   UNL A   1      47.851  29.043  27.136  1.00  0.00     0.074 A 
ATOM     51  C   UNL A   1      42.425  31.350  29.496  1.00  0.00     0.029 A 
ATOM     52  N   UNL A   1      43.983  30.061  28.577  1.00  0.00    -0.354 N 
ATOM     53  N   UNL A   1      46.686  29.431  27.601  1.00  0.00    -0.248 NA
ATOM     54  C   UNL A   1      48.879  30.092  27.137  1.00  0.00     0.031 C 
ATOM     55  C   UNL A   1      43.590  32.108  29.340  1.00  0.00     0.029 A 
ATOM     56  C   UNL A   1      44.574  31.296  28.799  1.00  0.00     0.049 A 
ATOM     57  H   UNL A   1      44.439  29.281  28.184  1.00  0.00     0.167 HD
ATOM     58  C   UNL A   1      46.854  30.760  27.981  1.00  0.00     0.074 A 
ATOM     59  C   UNL A   1      48.233  31.100  27.704  1.00  0.00     0.031 C 
ATOM     60  C   UNL A   1      45.950  31.621  28.515  1.00  0.00     0.034 A 
BRANCH  47  61
ATOM     61  C   UNL A   1      40.305  29.176  29.305  1.00  0.00     0.023 A 
ATOM     62  C   UNL A   1      39.916  29.082  30.653  1.00  0.00     0.031 A 
ATOM     63  C   UNL A   1      39.309  29.441  28.349  1.00  0.00     0.131 A 
ATOM     64  C   UNL A   1      38.560  29.178  30.999  1.00  0.00     0.055 A 
ATOM     65  C   UNL A   1      37.972  29.618  28.710  1.00  0.00     0.041 A 
ATOM     66  F   UNL A   1      39.617  29.524  27.045  1.00  0.00    -0.206 F 
ATOM     67  C   UNL A   1      37.588  29.471  30.040  1.00  0.00     0.022 A 
BRANCH  64  68
ATOM     68  S   UNL A   1      38.071  28.785  32.700  1.00  0.00     0.124 S 
ATOM     69  O   UNL A   1      39.084  29.503  33.470  1.00  0.00    -0.237 OA
ATOM     70  O   UNL A   1      36.717  29.321  32.771  1.00  0.00    -0.237 OA
ATOM     71  O   UNL A   1      38.170  27.328  32.758  1.00  0.00    -0.744 OA
ENDBRANCH  64  68
ENDBRANCH  47  61
BRANCH  48  72
ATOM     72  C   UNL A   1      49.643  27.465  26.097  1.00  0.00     0.023 A 
ATOM     73  C   UNL A   1      49.954  27.724  24.754  1.00  0.00     0.031 A 
ATOM     74  C   UNL A   1      50.654  26.931  26.916  1.00  0.00     0.131 A 
ATOM     75  C   UNL A   1      51.225  27.400  24.253  1.00  0.00     0.055 A 
ATOM     76  C   UNL A   1      51.933  26.661  26.427  1.00  0.00     0.041 A 
ATOM     77  F   UNL A   1      50.411  26.669  28.211  1.00  0.00    -0.206 F 
ATOM     78  C   UNL A   1      52.220  26.880  25.084  1.00  0.00     0.022 A 
BRANCH  75  79
ATOM     79  S   UNL A   1      51.527  27.576  22.473  1.00  0.00     0.124 S 
ATOM     80  O   UNL A   1      52.797  26.877  22.316  1.00  0.00    -0.237 OA
ATOM     81  O   UNL A   1      50.356  26.917  21.903  1.00  0.00    -0.237 OA
ATOM     82  O   UNL A   1      51.581  29.023  22.280  1.00  0.00    -0.744 OA
ENDBRANCH  75  79
ENDBRANCH  48  72
BRANCH  60  83
ATOM     83  C   UNL A   1      46.450  32.996  28.882  1.00  0.00     0.023 A 
ATOM     84  C   UNL A   1      46.473  34.048  27.949  1.00  0.00     0.031 A 
ATOM     85  C   UNL A   1      46.925  33.249  30.181  1.00  0.00     0.131 A 
ATOM     86  C   UNL A   1      47.012  35.292  28.315  1.00  0.00     0.055 A 
ATOM     87  C   UNL A   1      47.407  34.504  30.555  1.00  0.00     0.041 A 
ATOM     88  F   UNL A   1      46.927  32.279  31.108  1.00  0.00    -0.206 F 
ATOM     89  C   UNL A   1      47.465  35.530  29.615  1.00  0.00     0.022 A 
BRANCH  86  90
ATOM     90  S   UNL A   1      47.195  36.570  27.042  1.00  0.00     0.124 S 
ATOM     91  O   UNL A   1      48.497  37.143  27.371  1.00  0.00    -0.237 OA
ATOM     92  O   UNL A   1      47.135  35.792  25.808  1.00  0.00    -0.237 OA
ATOM     93  O   UNL A   1      46.053  37.452  27.273  1.00  0.00    -0.744 OA
ENDBRANCH  86  90
ENDBRANCH  60  83
ENDBRANCH  34  35
ENDBRANCH  26  29
ENDBRANCH  24  25
ENDBRANCH  23  24
ENDBRANCH   1  23
TORSDOF 18
ENDMDL
MODEL 2
REMARK VINA RESULT:     -10.7      5.980     11.609
REMARK SMILES COC[C@H]1CCN(C(=O)N2CC[C@H](C(=O)NCCCCNC(=O)c3ccc(-c4c5nc(c(-c6cc(S(=O)(=O)[O-])ccc6F)c6ccc([nH]6)c(-c6cc(S(=O)(=O)[O-])ccc6F)c6nc(c(-c7cc(S(=O)(=O)[O-])ccc7F)c7ccc4[nH]7)C=C6)C=C5)cc3)[C@@H]2C)C1
REMARK SMILES IDX 18 1 17 2 16 3 14 4 15 5 13 7 10 8 11 9 87 10 12 11 88 12
REMARK SMILES IDX 8 13 9 14 7 15 4 16 5 17 89 18 6 19 3 20 2 21 1 22 19 23
REMARK SMILES IDX 20 24 21 25 22 26 23 28 24 29 25 30 86 31 26 32 85 33 27 34
REMARK SMILES IDX 28 35 29 36 79 37 30 38 84 39 78 40 80 41 31 42 83 43 77 44
REMARK SMILES IDX 76 45 32 47 64 48 44 49 63 50 45 51 48 52 62 53 81 54 46 55
REMARK SMILES IDX 47 56 61 58 82 59 49 60 33 61 34 62 42 63 35 64 41 65 43 66
REMARK SMILES IDX 40 67 36 68 37 69 38 70 39 71 65 72 66 73 74 74 67 75 73 76
REMARK SMILES IDX 75 77 72 78 68 79 69 80 70 81 71 82 50 83 51 84 59 85 52 86
REMARK SMILES IDX 58 87 60 88 57 89 53 90 54 91 55 92 56 93
REMARK H PARENT 16 6 21 27 80 46 48 57
REMARK Flexibility Score: inf
ROOT
ATOM      1  C   UNL A   1      31.594  30.787  25.781  1.00  0.00     0.023 C 
ENDROOT
BRANCH   1   2
ATOM      2  C   UNL A   1      31.731  29.324  25.375  1.00  0.00     0.116 C 
BRANCH   2   3
ATOM      3  N   UNL A   1      31.367  29.080  23.994  1.00  0.00    -0.356 N 
ATOM      4  C   UNL A   1      31.010  27.931  23.362  1.00  0.00     0.225 C 
ATOM      5  O   UNL A   1      30.655  28.026  22.182  1.00  0.00    -0.275 OA
ATOM      6  H   UNL A   1      31.380  29.878  23.418  1.00  0.00     0.163 HD
BRANCH   4   7
ATOM      7  C   UNL A   1      31.051  26.554  24.020  1.00  0.00     0.102 C 
ATOM      8  N   UNL A   1      31.987  24.616  23.053  1.00  0.00    -0.321 N 
ATOM      9  C   UNL A   1      30.617  24.267  23.375  1.00  0.00     0.122 C 
ATOM     10  C   UNL A   1      32.362  25.742  23.909  1.00  0.00     0.096 C 
ATOM     11  C   UNL A   1      29.932  25.613  23.532  1.00  0.00     0.037 C 
ATOM     12  C   UNL A   1      33.610  26.518  23.506  1.00  0.00     0.032 C 
BRANCH   8  13
ATOM     13  C   UNL A   1      32.910  23.726  22.558  1.00  0.00     0.320 C 
ATOM     14  O   UNL A   1      33.314  23.805  21.398  1.00  0.00    -0.248 OA
BRANCH  13  15
ATOM     15  N   UNL A   1      33.275  22.679  23.376  1.00  0.00    -0.324 N 
ATOM     16  C   UNL A   1      32.913  20.736  24.706  1.00  0.00     0.036 C 
ATOM     17  C   UNL A   1      34.378  21.159  24.770  1.00  0.00     0.029 C 
ATOM     18  C   UNL A   1      32.406  21.505  23.477  1.00  0.00     0.127 C 
ATOM     19  C   UNL A   1      34.284  22.632  24.424  1.00  0.00     0.122 C 
BRANCH  16  20
ATOM     20  C   UNL A   1      32.737  19.225  24.610  1.00  0.00     0.165 C 
BRANCH  20  21
ATOM     21  O   UNL A   1      32.378  18.847  23.281  1.00  0.00    -0.384 OA
ATOM     22  C   UNL A   1      32.933  17.586  22.908  1.00  0.00     0.194 C 
ENDBRANCH  20  21
ENDBRANCH  16  20
ENDBRANCH  13  15
ENDBRANCH   8  13
ENDBRANCH   4   7
ENDBRANCH   2   3
ENDBRANCH   1   2
BRANCH   1  23
ATOM     23  C   UNL A   1      32.097  31.115  27.185  1.00  0.00     0.023 C 
BRANCH  23  24
ATOM     24  C   UNL A   1      33.253  32.109  27.258  1.00  0.00     0.116 C 
BRANCH  24  25
ATOM     25  N   UNL A   1      32.827  33.474  27.532  1.00  0.00    -0.352 N 
ATOM     26  C   UNL A   1      33.270  34.341  28.504  1.00  0.00     0.251 C 
ATOM     27  H   UNL A   1      32.122  33.825  26.940  1.00  0.00     0.163 HD
ATOM     28  O   UNL A   1      32.701  35.418  28.666  1.00  0.00    -0.269 OA
BRANCH  26  29
ATOM     29  C   UNL A   1      34.399  33.947  29.375  1.00  0.00     0.039 A 
ATOM     30  C   UNL A   1      34.174  33.026  30.402  1.00  0.00     0.014 A 
ATOM     31  C   UNL A   1      35.685  34.448  29.149  1.00  0.00     0.014 A 
ATOM     32  C   UNL A   1      35.255  32.543  31.144  1.00  0.00     0.010 A 
ATOM     33  C   UNL A   1      36.767  33.911  29.842  1.00  0.00     0.010 A 
ATOM     34  C   UNL A   1      36.566  32.946  30.839  1.00  0.00    -0.014 A 
BRANCH  34  35
ATOM     35  C   UNL A   1      37.739  32.361  31.542  1.00  0.00     0.031 A 
ATOM     36  C   UNL A   1      38.529  31.254  30.898  1.00  0.00     0.074 A 
ATOM     37  C   UNL A   1      38.048  32.777  32.787  1.00  0.00     0.049 A 
ATOM     38  N   UNL A   1      39.519  30.551  31.385  1.00  0.00    -0.248 NA
ATOM     39  C   UNL A   1      38.129  30.867  29.537  1.00  0.00     0.031 C 
ATOM     40  C   UNL A   1      37.333  33.813  33.536  1.00  0.00     0.029 A 
ATOM     41  N   UNL A   1      39.036  32.371  33.651  1.00  0.00    -0.354 N 
ATOM     42  C   UNL A   1      39.853  29.632  30.397  1.00  0.00     0.074 A 
ATOM     43  C   UNL A   1      38.918  29.828  29.310  1.00  0.00     0.031 C 
ATOM     44  C   UNL A   1      37.918  33.977  34.734  1.00  0.00     0.029 A 
ATOM     45  C   UNL A   1      39.020  33.028  34.860  1.00  0.00     0.049 A 
ATOM     46  H   UNL A   1      39.694  31.675  33.426  1.00  0.00     0.167 HD
ATOM     47  C   UNL A   1      40.860  28.723  30.388  1.00  0.00     0.034 A 
ATOM     48  C   UNL A   1      39.797  32.876  35.952  1.00  0.00     0.034 A 
ATOM     49  C   UNL A   1      41.794  28.547  31.473  1.00  0.00     0.049 A 
ATOM     50  C   UNL A   1      40.899  31.846  35.923  1.00  0.00     0.074 A 
ATOM     51  C   UNL A   1      42.878  27.689  31.548  1.00  0.00     0.029 A 
ATOM     52  N   UNL A   1      41.755  29.239  32.676  1.00  0.00    -0.354 N 
ATOM     53  N   UNL A   1      41.228  31.014  34.962  1.00  0.00    -0.248 NA
ATOM     54  C   UNL A   1      41.741  31.744  37.122  1.00  0.00     0.031 C 
ATOM     55  C   UNL A   1      43.458  27.822  32.814  1.00  0.00     0.029 A 
ATOM     56  C   UNL A   1      42.781  28.813  33.506  1.00  0.00     0.049 A 
ATOM     57  H   UNL A   1      41.095  29.934  32.907  1.00  0.00     0.167 HD
ATOM     58  C   UNL A   1      42.338  30.316  35.429  1.00  0.00     0.074 A 
ATOM     59  C   UNL A   1      42.628  30.833  36.751  1.00  0.00     0.031 C 
ATOM     60  C   UNL A   1      43.056  29.337  34.822  1.00  0.00     0.034 A 
BRANCH  47  61
ATOM     61  C   UNL A   1      40.987  27.841  29.169  1.00  0.00     0.023 A 
ATOM     62  C   UNL A   1      42.000  28.045  28.217  1.00  0.00     0.031 A 
ATOM     63  C   UNL A   1      40.071  26.798  28.944  1.00  0.00     0.131 A 
ATOM     64  C   UNL A   1      42.031  27.269  27.049  1.00  0.00     0.055 A 
ATOM     65  C   UNL A   1      40.156  25.976  27.818  1.00  0.00     0.041 A 
ATOM     66  F   UNL A   1      39.071  26.567  29.808  1.00  0.00    -0.206 F 
ATOM     67  C   UNL A   1      41.131  26.219  26.855  1.00  0.00     0.022 A 
BRANCH  64  68
ATOM     68  S   UNL A   1      43.182  27.738  25.728  1.00  0.00     0.124 S 
ATOM     69  O   UNL A   1      44.039  26.557  25.653  1.00  0.00    -0.237 OA
ATOM     70  O   UNL A   1      42.290  27.953  24.595  1.00  0.00    -0.237 OA
ATOM     71  O   UNL A   1      43.831  28.940  26.248  1.00  0.00    -0.744 OA
ENDBRANCH  64  68
ENDBRANCH  47  61
BRANCH  48  72
ATOM     72  C   UNL A   1      39.567  33.703  37.171  1.00  0.00     0.023 A 
ATOM     73  C   UNL A   1      38.854  33.189  38.266  1.00  0.00     0.031 A 
ATOM     74  C   UNL A   1      40.001  35.039  37.236  1.00  0.00     0.131 A 
ATOM     75  C   UNL A   1      38.549  34.020  39.355  1.00  0.00     0.055 A 
ATOM     76  C   UNL A   1      39.741  35.845  38.346  1.00  0.00     0.041 A 
ATOM     77  F   UNL A   1      40.692  35.579  36.219  1.00  0.00    -0.206 F 
ATOM     78  C   UNL A   1      38.997  35.342  39.407  1.00  0.00     0.022 A 
BRANCH  75  79
ATOM     79  S   UNL A   1      37.468  33.374  40.662  1.00  0.00     0.124 S 
ATOM     80  O   UNL A   1      38.302  32.333  41.251  1.00  0.00    -0.237 OA
ATOM     81  O   UNL A   1      37.245  34.560  41.482  1.00  0.00    -0.237 OA
ATOM     82  O   UNL A   1      36.297  32.897  39.928  1.00  0.00    -0.744 OA
ENDBRANCH  75  79
ENDBRANCH  48  72
BRANCH  60  83
ATOM     83  C   UNL A   1      44.256  28.806  35.566  1.00  0.00     0.023 A 
ATOM     84  C   UNL A   1      44.152  27.738  36.473  1.00  0.00     0.031 A 
ATOM     85  C   UNL A   1      45.520  29.393  35.373  1.00  0.00     0.131 A 
ATOM     86  C   UNL A   1      45.282  27.323  37.195  1.00  0.00     0.055 A 
ATOM     87  C   UNL A   1      46.651  28.939  36.052  1.00  0.00     0.041 A 
ATOM     88  F   UNL A   1      45.674  30.417  34.519  1.00  0.00    -0.206 F 
ATOM     89  C   UNL A   1      46.533  27.907  36.979  1.00  0.00     0.022 A 
BRANCH  86  90
ATOM     90  S   UNL A   1      45.077  26.068  38.487  1.00  0.00     0.124 S 
ATOM     91  O   UNL A   1      46.345  26.160  39.205  1.00  0.00    -0.237 OA
ATOM     92  O   UNL A   1      43.902  26.548  39.207  1.00  0.00    -0.237 OA
ATOM     93  O   UNL A   1      44.879  24.830  37.736  1.00  0.00    -0.744 OA
ENDBRANCH  86  90
ENDBRANCH  60  83
ENDBRANCH  34  35
ENDBRANCH  26  29
ENDBRANCH  24  25
ENDBRANCH  23  24
ENDBRANCH   1  23
TORSDOF 18
ENDMDL
MODEL 3
REMARK VINA RESULT:     -10.7      6.123     11.496
REMARK SMILES COC[C@H]1CCN(C(=O)N2CC[C@H](C(=O)NCCCCNC(=O)c3ccc(-c4c5nc(c(-c6cc(S(=O)(=O)[O-])ccc6F)c6ccc([nH]6)c(-c6cc(S(=O)(=O)[O-])ccc6F)c6nc(c(-c7cc(S(=O)(=O)[O-])ccc7F)c7ccc4[nH]7)C=C6)C=C5)cc3)[C@@H]2C)C1
REMARK SMILES IDX 18 1 17 2 16 3 14 4 15 5 13 7 10 8 11 9 87 10 12 11 88 12
REMARK SMILES IDX 8 13 9 14 7 15 4 16 5 17 89 18 6 19 3 20 2 21 1 22 19 23
REMARK SMILES IDX 20 24 21 25 22 26 23 28 24 29 25 30 86 31 26 32 85 33 27 34
REMARK SMILES IDX 28 35 29 36 79 37 30 38 84 39 78 40 80 41 31 42 83 43 77 44
REMARK SMILES IDX 76 45 32 47 64 48 44 49 63 50 45 51 48 52 62 53 81 54 46 55
REMARK SMILES IDX 47 56 61 58 82 59 49 60 33 61 34 62 42 63 35 64 41 65 43 66
REMARK SMILES IDX 40 67 36 68 37 69 38 70 39 71 65 72 66 73 74 74 67 75 73 76
REMARK SMILES IDX 75 77 72 78 68 79 69 80 70 81 71 82 50 83 51 84 59 85 52 86
REMARK SMILES IDX 58 87 60 88 57 89 53 90 54 91 55 92 56 93
REMARK H PARENT 16 6 21 27 80 46 48 57
REMARK Flexibility Score: inf
ROOT
ATOM      1  C   UNL A   1      32.470  30.245  25.913  1.00  0.00     0.023 C 
ENDROOT
BRANCH   1   2
ATOM      2  C   UNL A   1      31.355  29.254  25.602  1.00  0.00     0.116 C 
BRANCH   2   3
ATOM      3  N   UNL A   1      31.152  29.052  24.182  1.00  0.00    -0.356 N 
ATOM      4  C   UNL A   1      30.966  27.912  23.466  1.00  0.00     0.225 C 
ATOM      5  O   UNL A   1      30.721  28.038  22.262  1.00  0.00    -0.275 OA
ATOM      6  H   UNL A   1      31.146  29.878  23.646  1.00  0.00     0.163 HD
BRANCH   4   7
ATOM      7  C   UNL A   1      31.072  26.511  24.063  1.00  0.00     0.102 C 
ATOM      8  N   UNL A   1      32.114  24.667  23.022  1.00  0.00    -0.321 N 
ATOM      9  C   UNL A   1      30.761  24.236  23.312  1.00  0.00     0.122 C 
ATOM     10  C   UNL A   1      32.423  25.772  23.931  1.00  0.00     0.096 C 
ATOM     11  C   UNL A   1      30.007  25.538  23.521  1.00  0.00     0.037 C 
ATOM     12  C   UNL A   1      33.633  26.627  23.576  1.00  0.00     0.032 C 
BRANCH   8  13
ATOM     13  C   UNL A   1      33.085  23.849  22.498  1.00  0.00     0.320 C 
ATOM     14  O   UNL A   1      33.304  23.812  21.287  1.00  0.00    -0.248 OA
BRANCH  13  15
ATOM     15  N   UNL A   1      33.721  22.991  23.370  1.00  0.00    -0.324 N 
ATOM     16  C   UNL A   1      35.551  21.725  24.220  1.00  0.00     0.036 C 
ATOM     17  C   UNL A   1      34.295  21.465  25.047  1.00  0.00     0.029 C 
ATOM     18  C   UNL A   1      35.182  23.010  23.462  1.00  0.00     0.127 C 
ATOM     19  C   UNL A   1      33.202  21.819  24.057  1.00  0.00     0.122 C 
BRANCH  16  20
ATOM     20  C   UNL A   1      36.807  21.846  25.074  1.00  0.00     0.165 C 
BRANCH  20  21
ATOM     21  O   UNL A   1      36.645  22.865  26.061  1.00  0.00    -0.384 OA
ATOM     22  C   UNL A   1      37.685  23.840  26.011  1.00  0.00     0.194 C 
ENDBRANCH  20  21
ENDBRANCH  16  20
ENDBRANCH  13  15
ENDBRANCH   8  13
ENDBRANCH   4   7
ENDBRANCH   2   3
ENDBRANCH   1   2
BRANCH   1  23
ATOM     23  C   UNL A   1      32.056  31.428  26.785  1.00  0.00     0.023 C 
BRANCH  23  24
ATOM     24  C   UNL A   1      33.191  32.337  27.248  1.00  0.00     0.116 C 
BRANCH  24  25
ATOM     25  N   UNL A   1      32.752  33.683  27.589  1.00  0.00    -0.352 N 
ATOM     26  C   UNL A   1      33.206  34.516  28.586  1.00  0.00     0.251 C 
ATOM     27  H   UNL A   1      32.029  34.048  27.029  1.00  0.00     0.163 HD
ATOM     28  O   UNL A   1      32.626  35.575  28.807  1.00  0.00    -0.269 OA
BRANCH  26  29
ATOM     29  C   UNL A   1      34.361  34.102  29.413  1.00  0.00     0.039 A 
ATOM     30  C   UNL A   1      34.132  33.366  30.579  1.00  0.00     0.014 A 
ATOM     31  C   UNL A   1      35.668  34.400  29.015  1.00  0.00     0.014 A 
ATOM     32  C   UNL A   1      35.216  32.855  31.297  1.00  0.00     0.010 A 
ATOM     33  C   UNL A   1      36.743  33.829  29.692  1.00  0.00     0.010 A 
ATOM     34  C   UNL A   1      36.529  33.042  30.833  1.00  0.00    -0.014 A 
BRANCH  34  35
ATOM     35  C   UNL A   1      37.689  32.414  31.519  1.00  0.00     0.031 A 
ATOM     36  C   UNL A   1      38.429  31.279  30.864  1.00  0.00     0.074 A 
ATOM     37  C   UNL A   1      38.031  32.816  32.760  1.00  0.00     0.049 A 
ATOM     38  N   UNL A   1      39.399  30.539  31.336  1.00  0.00    -0.248 NA
ATOM     39  C   UNL A   1      37.997  30.909  29.508  1.00  0.00     0.031 C 
ATOM     40  C   UNL A   1      37.365  33.878  33.519  1.00  0.00     0.029 A 
ATOM     41  N   UNL A   1      39.015  32.374  33.610  1.00  0.00    -0.354 N 
ATOM     42  C   UNL A   1      39.685  29.610  30.343  1.00  0.00     0.074 A 
ATOM     43  C   UNL A   1      38.744  29.842  29.269  1.00  0.00     0.031 C 
ATOM     44  C   UNL A   1      37.973  34.018  34.709  1.00  0.00     0.029 A 
ATOM     45  C   UNL A   1      39.041  33.030  34.819  1.00  0.00     0.049 A 
ATOM     46  H   UNL A   1      39.644  31.654  33.375  1.00  0.00     0.167 HD
ATOM     47  C   UNL A   1      40.658  28.664  30.319  1.00  0.00     0.034 A 
ATOM     48  C   UNL A   1      39.827  32.847  35.900  1.00  0.00     0.034 A 
ATOM     49  C   UNL A   1      41.600  28.452  31.391  1.00  0.00     0.049 A 
ATOM     50  C   UNL A   1      40.889  31.778  35.855  1.00  0.00     0.074 A 
ATOM     51  C   UNL A   1      42.652  27.555  31.451  1.00  0.00     0.029 A 
ATOM     52  N   UNL A   1      41.603  29.145  32.595  1.00  0.00    -0.354 N 
ATOM     53  N   UNL A   1      41.174  30.935  34.889  1.00  0.00    -0.248 NA
ATOM     54  C   UNL A   1      41.744  31.644  37.042  1.00  0.00     0.031 C 
ATOM     55  C   UNL A   1      43.255  27.665  32.709  1.00  0.00     0.029 A 
ATOM     56  C   UNL A   1      42.624  28.680  33.411  1.00  0.00     0.049 A 
ATOM     57  H   UNL A   1      40.973  29.862  32.835  1.00  0.00     0.167 HD
ATOM     58  C   UNL A   1      42.264  30.196  35.341  1.00  0.00     0.074 A 
ATOM     59  C   UNL A   1      42.591  30.701  36.658  1.00  0.00     0.031 C 
ATOM     60  C   UNL A   1      42.937  29.192  34.722  1.00  0.00     0.034 A 
BRANCH  47  61
ATOM     61  C   UNL A   1      40.735  27.780  29.098  1.00  0.00     0.023 A 
ATOM     62  C   UNL A   1      41.665  28.023  28.072  1.00  0.00     0.031 A 
ATOM     63  C   UNL A   1      39.855  26.694  28.946  1.00  0.00     0.131 A 
ATOM     64  C   UNL A   1      41.646  27.240  26.909  1.00  0.00     0.055 A 
ATOM     65  C   UNL A   1      39.895  25.868  27.821  1.00  0.00     0.041 A 
ATOM     66  F   UNL A   1      38.933  26.424  29.883  1.00  0.00    -0.206 F 
ATOM     67  C   UNL A   1      40.784  26.148  26.787  1.00  0.00     0.022 A 
BRANCH  64  68
ATOM     68  S   UNL A   1      42.672  27.751  25.505  1.00  0.00     0.124 S 
ATOM     69  O   UNL A   1      42.609  26.568  24.648  1.00  0.00    -0.237 OA
ATOM     70  O   UNL A   1      41.971  28.932  25.014  1.00  0.00    -0.237 OA
ATOM     71  O   UNL A   1      43.978  28.006  26.108  1.00  0.00    -0.744 OA
ENDBRANCH  64  68
ENDBRANCH  47  61
BRANCH  48  72
ATOM     72  C   UNL A   1      39.644  33.681  37.123  1.00  0.00     0.023 A 
ATOM     73  C   UNL A   1      40.447  34.809  37.353  1.00  0.00     0.031 A 
ATOM     74  C   UNL A   1      38.707  33.326  38.111  1.00  0.00     0.131 A 
ATOM     75  C   UNL A   1      40.338  35.512  38.563  1.00  0.00     0.055 A 
ATOM     76  C   UNL A   1      38.565  34.061  39.289  1.00  0.00     0.041 A 
ATOM     77  F   UNL A   1      37.910  32.259  37.939  1.00  0.00    -0.206 F 
ATOM     78  C   UNL A   1      39.395  35.152  39.529  1.00  0.00     0.022 A 
BRANCH  75  79
ATOM     79  S   UNL A   1      41.520  36.847  38.900  1.00  0.00     0.124 S 
ATOM     80  O   UNL A   1      42.312  36.276  39.983  1.00  0.00    -0.237 OA
ATOM     81  O   UNL A   1      42.194  36.983  37.614  1.00  0.00    -0.237 OA
ATOM     82  O   UNL A   1      40.664  37.970  39.276  1.00  0.00    -0.744 OA
ENDBRANCH  75  79
ENDBRANCH  48  72
BRANCH  60  83
ATOM     83  C   UNL A   1      44.127  28.617  35.450  1.00  0.00     0.023 A 
ATOM     84  C   UNL A   1      43.990  27.580  36.389  1.00  0.00     0.031 A 
ATOM     85  C   UNL A   1      45.414  29.128  35.207  1.00  0.00     0.131 A 
ATOM     86  C   UNL A   1      45.116  27.123  37.092  1.00  0.00     0.055 A 
ATOM     87  C   UNL A   1      46.538  28.631  35.868  1.00  0.00     0.041 A 
ATOM     88  F   UNL A   1      45.600  30.119  34.321  1.00  0.00    -0.206 F 
ATOM     89  C   UNL A   1      46.390  27.632  36.827  1.00  0.00     0.022 A 
BRANCH  86  90
ATOM     90  S   UNL A   1      44.880  25.915  38.424  1.00  0.00     0.124 S 
ATOM     91  O   UNL A   1      43.793  26.516  39.190  1.00  0.00    -0.237 OA
ATOM     92  O   UNL A   1      44.544  24.701  37.688  1.00  0.00    -0.237 OA
ATOM     93  O   UNL A   1      46.175  25.891  39.099  1.00  0.00    -0.744 OA
ENDBRANCH  86  90
ENDBRANCH  60  83
ENDBRANCH  34  35
ENDBRANCH  26  29
ENDBRANCH  24  25
ENDBRANCH  23  24
ENDBRANCH   1  23
TORSDOF 18
ENDMDL
