MODEL 1
REMARK VINA RESULT:     -11.5      0.000      0.000
REMARK SMILES O=C(Cn1cccc1C(=O)NCCCCNC(=O)c1ccc(-c2c3nc(c(-c4cc(S(=O)(=O)[O-])ccc4F)c4ccc([nH]4)c(-c4cc(S(=O)(=O)[O-])ccc4F)c4nc(c(-c5cc(S(=O)(=O)[O-])ccc5F)c5ccc2[nH]5)C=C4)C=C3)cc1)NCC1CCCC1
REMARK SMILES IDX 13 1 12 2 11 3 9 4 10 5 8 7 4 8 5 9 6 10 7 11 3 12 2 13 1 14
REMARK SMILES IDX 82 15 83 17 84 18 85 19 88 20 86 21 87 22 14 23 15 24 16 25
REMARK SMILES IDX 17 26 18 28 19 29 20 30 81 31 21 32 80 33 22 34 23 35 24 36
REMARK SMILES IDX 74 37 25 38 79 39 73 40 75 41 26 42 78 43 72 44 71 45 27 47
REMARK SMILES IDX 59 48 39 49 58 50 40 51 43 52 57 53 76 54 41 55 42 56 56 58
REMARK SMILES IDX 77 59 44 60 28 61 29 62 37 63 30 64 36 65 38 66 35 67 31 68
REMARK SMILES IDX 32 69 33 70 34 71 60 72 61 73 69 74 62 75 68 76 70 77 67 78
REMARK SMILES IDX 63 79 64 80 65 81 66 82 45 83 46 84 54 85 47 86 53 87 55 88
REMARK SMILES IDX 52 89 48 90 49 91 50 92 51 93
REMARK H PARENT 11 6 82 16 16 27 75 46 43 57
REMARK Flexibility Score: inf
ROOT
ATOM      1  C   UNL A   1      34.904  23.545  26.727  1.00  0.00     0.023 C 
ENDROOT
BRANCH   1   2
ATOM      2  C   UNL A   1      34.040  24.434  25.845  1.00  0.00     0.116 C 
BRANCH   2   3
ATOM      3  N   UNL A   1      32.680  24.604  26.250  1.00  0.00    -0.351 N 
ATOM      4  C   UNL A   1      31.773  25.593  25.972  1.00  0.00     0.267 C 
ATOM      5  O   UNL A   1      30.687  25.416  26.541  1.00  0.00    -0.268 OA
ATOM      6  H   UNL A   1      32.335  23.886  26.828  1.00  0.00     0.163 HD
BRANCH   4   7
ATOM      7  C   UNL A   1      31.984  26.804  25.152  1.00  0.00     0.107 A 
ATOM      8  N   UNL A   1      31.995  27.144  23.792  1.00  0.00    -0.334 N 
ATOM      9  C   UNL A   1      32.144  28.523  23.665  1.00  0.00     0.087 A 
ATOM     10  C   UNL A   1      32.274  29.085  24.901  1.00  0.00     0.020 A 
ATOM     11  C   UNL A   1      32.177  28.029  25.816  1.00  0.00     0.033 A 
BRANCH   8  12
ATOM     12  C   UNL A   1      31.693  26.377  22.581  1.00  0.00     0.222 C 
BRANCH  12  13
ATOM     13  C   UNL A   1      32.605  25.168  22.342  1.00  0.00     0.239 C 
ATOM     14  O   UNL A   1      33.807  25.303  22.107  1.00  0.00    -0.273 OA
ATOM     15  N   UNL A   1      32.044  23.914  22.476  1.00  0.00    -0.354 N 
ATOM     16  H   UNL A   1      31.097  23.836  22.730  1.00  0.00     0.163 HD
BRANCH  15  17
ATOM     17  C   UNL A   1      32.823  22.704  22.250  1.00  0.00     0.119 C 
BRANCH  17  18
ATOM     18  C   UNL A   1      32.488  21.617  23.273  1.00  0.00     0.008 C 
ATOM     19  C   UNL A   1      32.198  20.259  22.633  1.00  0.00     0.005 C 
ATOM     20  C   UNL A   1      33.645  21.268  24.212  1.00  0.00     0.005 C 
ATOM     21  C   UNL A   1      32.265  19.290  23.808  1.00  0.00     0.000 C 
ATOM     22  C   UNL A   1      33.272  19.899  24.784  1.00  0.00     0.000 C 
ENDBRANCH  17  18
ENDBRANCH  15  17
ENDBRANCH  12  13
ENDBRANCH   8  12
ENDBRANCH   4   7
ENDBRANCH   2   3
ENDBRANCH   1   2
BRANCH   1  23
ATOM     23  C   UNL A   1      36.164  22.951  26.099  1.00  0.00     0.023 C 
BRANCH  23  24
ATOM     24  C   UNL A   1      37.396  23.861  26.098  1.00  0.00     0.116 C 
BRANCH  24  25
ATOM     25  N   UNL A   1      38.564  23.218  26.679  1.00  0.00    -0.352 N 
ATOM     26  C   UNL A   1      39.701  23.792  27.201  1.00  0.00     0.251 C 
ATOM     27  H   UNL A   1      38.538  22.233  26.703  1.00  0.00     0.163 HD
ATOM     28  O   UNL A   1      40.711  23.117  27.336  1.00  0.00    -0.269 OA
BRANCH  26  29
ATOM     29  C   UNL A   1      39.720  25.221  27.589  1.00  0.00     0.039 A 
ATOM     30  C   UNL A   1      39.275  25.568  28.872  1.00  0.00     0.014 A 
ATOM     31  C   UNL A   1      40.094  26.215  26.678  1.00  0.00     0.014 A 
ATOM     32  C   UNL A   1      39.284  26.901  29.272  1.00  0.00     0.010 A 
ATOM     33  C   UNL A   1      40.112  27.550  27.075  1.00  0.00     0.010 A 
ATOM     34  C   UNL A   1      39.738  27.887  28.383  1.00  0.00    -0.014 A 
BRANCH  34  35
ATOM     35  C   UNL A   1      40.082  29.227  28.920  1.00  0.00     0.031 A 
ATOM     36  C   UNL A   1      38.768  30.066  29.176  1.00  0.00     0.074 A 
ATOM     37  C   UNL A   1      41.420  29.480  29.092  1.00  0.00     0.049 A 
ATOM     38  N   UNL A   1      38.550  31.348  29.275  1.00  0.00    -0.248 NA
ATOM     39  C   UNL A   1      37.470  29.321  29.272  1.00  0.00     0.031 C 
ATOM     40  C   UNL A   1      42.538  28.532  28.830  1.00  0.00     0.029 A 
ATOM     41  N   UNL A   1      42.129  30.575  29.523  1.00  0.00    -0.354 N 
ATOM     42  C   UNL A   1      37.197  31.527  29.687  1.00  0.00     0.074 A 
ATOM     43  C   UNL A   1      36.560  30.258  29.536  1.00  0.00     0.031 C 
ATOM     44  C   UNL A   1      43.748  29.124  29.006  1.00  0.00     0.029 A 
ATOM     45  C   UNL A   1      43.557  30.502  29.405  1.00  0.00     0.049 A 
ATOM     46  H   UNL A   1      41.680  31.370  29.894  1.00  0.00     0.167 HD
ATOM     47  C   UNL A   1      36.719  32.659  30.288  1.00  0.00     0.034 A 
ATOM     48  C   UNL A   1      44.477  31.519  29.552  1.00  0.00     0.034 A 
ATOM     49  C   UNL A   1      37.737  33.648  30.351  1.00  0.00     0.049 A 
ATOM     50  C   UNL A   1      43.621  32.642  29.950  1.00  0.00     0.074 A 
ATOM     51  C   UNL A   1      38.159  34.717  29.604  1.00  0.00     0.029 A 
ATOM     52  N   UNL A   1      38.537  33.563  31.459  1.00  0.00    -0.354 N 
ATOM     53  N   UNL A   1      43.094  32.797  31.119  1.00  0.00    -0.248 NA
ATOM     54  C   UNL A   1      43.124  33.496  28.875  1.00  0.00     0.031 C 
ATOM     55  C   UNL A   1      39.378  35.130  30.202  1.00  0.00     0.029 A 
ATOM     56  C   UNL A   1      39.721  34.155  31.137  1.00  0.00     0.049 A 
ATOM     57  H   UNL A   1      38.302  33.156  32.323  1.00  0.00     0.167 HD
ATOM     58  C   UNL A   1      42.011  33.606  30.891  1.00  0.00     0.074 A 
ATOM     59  C   UNL A   1      42.126  34.087  29.519  1.00  0.00     0.031 C 
ATOM     60  C   UNL A   1      40.911  33.570  31.681  1.00  0.00     0.034 A 
BRANCH  47  61
ATOM     61  C   UNL A   1      35.494  32.957  31.160  1.00  0.00     0.023 A 
ATOM     62  C   UNL A   1      34.684  34.050  30.736  1.00  0.00     0.031 A 
ATOM     63  C   UNL A   1      35.293  32.542  32.484  1.00  0.00     0.131 A 
ATOM     64  C   UNL A   1      33.895  34.790  31.629  1.00  0.00     0.055 A 
ATOM     65  C   UNL A   1      34.426  33.231  33.358  1.00  0.00     0.041 A 
ATOM     66  F   UNL A   1      35.977  31.519  33.013  1.00  0.00    -0.206 F 
ATOM     67  C   UNL A   1      33.761  34.386  32.948  1.00  0.00     0.022 A 
BRANCH  64  68
ATOM     68  S   UNL A   1      33.232  36.387  31.063  1.00  0.00     0.124 S 
ATOM     69  O   UNL A   1      33.608  36.397  29.654  1.00  0.00    -0.237 OA
ATOM     70  O   UNL A   1      31.806  36.243  31.342  1.00  0.00    -0.237 OA
ATOM     71  O   UNL A   1      33.930  37.361  31.901  1.00  0.00    -0.744 OA
ENDBRANCH  64  68
ENDBRANCH  47  61
BRANCH  48  72
ATOM     72  C   UNL A   1      45.943  31.884  29.314  1.00  0.00     0.023 A 
ATOM     73  C   UNL A   1      46.513  32.461  28.164  1.00  0.00     0.031 A 
ATOM     74  C   UNL A   1      46.873  31.689  30.394  1.00  0.00     0.131 A 
ATOM     75  C   UNL A   1      47.885  32.874  28.169  1.00  0.00     0.055 A 
ATOM     76  C   UNL A   1      48.184  32.165  30.419  1.00  0.00     0.041 A 
ATOM     77  F   UNL A   1      46.543  31.026  31.511  1.00  0.00    -0.206 F 
ATOM     78  C   UNL A   1      48.695  32.782  29.305  1.00  0.00     0.022 A 
BRANCH  75  79
ATOM     79  S   UNL A   1      48.685  33.568  26.685  1.00  0.00     0.124 S 
ATOM     80  O   UNL A   1      49.307  34.777  27.212  1.00  0.00    -0.237 OA
ATOM     81  O   UNL A   1      49.593  32.502  26.276  1.00  0.00    -0.237 OA
ATOM     82  O   UNL A   1      47.564  33.798  25.773  1.00  0.00    -0.744 OA
ENDBRANCH  75  79
ENDBRANCH  48  72
BRANCH  60  83
ATOM     83  C   UNL A   1      40.961  32.523  32.795  1.00  0.00     0.023 A 
ATOM     84  C   UNL A   1      40.856  31.154  32.522  1.00  0.00     0.031 A 
ATOM     85  C   UNL A   1      40.985  32.881  34.164  1.00  0.00     0.131 A 
ATOM     86  C   UNL A   1      40.786  30.218  33.578  1.00  0.00     0.055 A 
ATOM     87  C   UNL A   1      40.929  31.958  35.212  1.00  0.00     0.041 A 
ATOM     88  F   UNL A   1      41.073  34.160  34.534  1.00  0.00    -0.206 F 
ATOM     89  C   UNL A   1      40.827  30.611  34.919  1.00  0.00     0.022 A 
BRANCH  86  90
ATOM     90  S   UNL A   1      40.650  28.453  33.191  1.00  0.00     0.124 S 
ATOM     91  O   UNL A   1      39.347  28.370  32.542  1.00  0.00    -0.237 OA
ATOM     92  O   UNL A   1      41.809  28.227  32.332  1.00  0.00    -0.237 OA
ATOM     93  O   UNL A   1      40.728  27.807  34.502  1.00  0.00    -0.744 OA
ENDBRANCH  86  90
ENDBRANCH  60  83
ENDBRANCH  34  35
ENDBRANCH  26  29
ENDBRANCH  24  25
ENDBRANCH  23  24
ENDBRANCH   1  23
TORSDOF 18
ENDMDL
MODEL 2
REMARK VINA RESULT:     -11.2      3.985      9.190
REMARK SMILES O=C(Cn1cccc1C(=O)NCCCCNC(=O)c1ccc(-c2c3nc(c(-c4cc(S(=O)(=O)[O-])ccc4F)c4ccc([nH]4)c(-c4cc(S(=O)(=O)[O-])ccc4F)c4nc(c(-c5cc(S(=O)(=O)[O-])ccc5F)c5ccc2[nH]5)C=C4)C=C3)cc1)NCC1CCCC1
REMARK SMILES IDX 13 1 12 2 11 3 9 4 10 5 8 7 4 8 5 9 6 10 7 11 3 12 2 13 1 14
REMARK SMILES IDX 82 15 83 17 84 18 85 19 88 20 86 21 87 22 14 23 15 24 16 25
REMARK SMILES IDX 17 26 18 28 19 29 20 30 81 31 21 32 80 33 22 34 23 35 24 36
REMARK SMILES IDX 74 37 25 38 79 39 73 40 75 41 26 42 78 43 72 44 71 45 27 47
REMARK SMILES IDX 59 48 39 49 58 50 40 51 43 52 57 53 76 54 41 55 42 56 56 58
REMARK SMILES IDX 77 59 44 60 28 61 29 62 37 63 30 64 36 65 38 66 35 67 31 68
REMARK SMILES IDX 32 69 33 70 34 71 60 72 61 73 69 74 62 75 68 76 70 77 67 78
REMARK SMILES IDX 63 79 64 80 65 81 66 82 45 83 46 84 54 85 47 86 53 87 55 88
REMARK SMILES IDX 52 89 48 90 49 91 50 92 51 93
REMARK H PARENT 11 6 82 16 16 27 75 46 43 57
REMARK Flexibility Score: inf
ROOT
ATOM      1  C   UNL A   1      31.913  29.026  25.918  1.00  0.00     0.023 C 
ENDROOT
BRANCH   1   2
ATOM      2  C   UNL A   1      31.046  27.811  25.626  1.00  0.00     0.116 C 
BRANCH   2   3
ATOM      3  N   UNL A   1      31.174  26.706  26.523  1.00  0.00    -0.351 N 
ATOM      4  C   UNL A   1      31.423  25.379  26.289  1.00  0.00     0.267 C 
ATOM      5  O   UNL A   1      31.425  24.705  27.328  1.00  0.00    -0.268 OA
ATOM      6  H   UNL A   1      31.067  26.938  27.473  1.00  0.00     0.163 HD
BRANCH   4   7
ATOM      7  C   UNL A   1      31.619  24.716  24.983  1.00  0.00     0.107 A 
ATOM      8  N   UNL A   1      32.596  23.930  24.357  1.00  0.00    -0.334 N 
ATOM      9  C   UNL A   1      32.120  23.503  23.120  1.00  0.00     0.087 A 
ATOM     10  C   UNL A   1      30.877  24.022  22.904  1.00  0.00     0.020 A 
ATOM     11  C   UNL A   1      30.569  24.770  24.048  1.00  0.00     0.033 A 
BRANCH   8  12
ATOM     12  C   UNL A   1      33.857  23.357  24.836  1.00  0.00     0.222 C 
BRANCH  12  13
ATOM     13  C   UNL A   1      33.704  22.092  25.688  1.00  0.00     0.239 C 
ATOM     14  O   UNL A   1      33.668  22.144  26.919  1.00  0.00    -0.273 OA
ATOM     15  N   UNL A   1      33.533  20.896  25.023  1.00  0.00    -0.354 N 
ATOM     16  H   UNL A   1      33.500  20.893  24.039  1.00  0.00     0.163 HD
BRANCH  15  17
ATOM     17  C   UNL A   1      33.399  19.636  25.743  1.00  0.00     0.119 C 
BRANCH  17  18
ATOM     18  C   UNL A   1      33.132  18.468  24.792  1.00  0.00     0.008 C 
ATOM     19  C   UNL A   1      32.529  18.906  23.457  1.00  0.00     0.005 C 
ATOM     20  C   UNL A   1      34.396  17.740  24.329  1.00  0.00     0.005 C 
ATOM     21  C   UNL A   1      32.700  17.679  22.570  1.00  0.00     0.000 C 
ATOM     22  C   UNL A   1      33.960  16.978  23.077  1.00  0.00     0.000 C 
ENDBRANCH  17  18
ENDBRANCH  15  17
ENDBRANCH  12  13
ENDBRANCH   8  12
ENDBRANCH   4   7
ENDBRANCH   2   3
ENDBRANCH   1   2
BRANCH   1  23
ATOM     23  C   UNL A   1      32.693  29.030  27.232  1.00  0.00     0.023 C 
BRANCH  23  24
ATOM     24  C   UNL A   1      34.211  29.185  27.102  1.00  0.00     0.116 C 
BRANCH  24  25
ATOM     25  N   UNL A   1      34.643  30.568  27.232  1.00  0.00    -0.352 N 
ATOM     26  C   UNL A   1      35.743  31.076  27.884  1.00  0.00     0.251 C 
ATOM     27  H   UNL A   1      34.066  31.235  26.792  1.00  0.00     0.163 HD
ATOM     28  O   UNL A   1      35.776  32.261  28.180  1.00  0.00    -0.269 OA
BRANCH  26  29
ATOM     29  C   UNL A   1      36.882  30.201  28.244  1.00  0.00     0.039 A 
ATOM     30  C   UNL A   1      37.944  30.085  27.336  1.00  0.00     0.014 A 
ATOM     31  C   UNL A   1      36.872  29.444  29.420  1.00  0.00     0.014 A 
ATOM     32  C   UNL A   1      39.034  29.275  27.644  1.00  0.00     0.010 A 
ATOM     33  C   UNL A   1      37.964  28.638  29.736  1.00  0.00     0.010 A 
ATOM     34  C   UNL A   1      39.058  28.581  28.862  1.00  0.00    -0.014 A 
BRANCH  34  35
ATOM     35  C   UNL A   1      40.347  28.022  29.339  1.00  0.00     0.031 A 
ATOM     36  C   UNL A   1      40.607  26.611  28.678  1.00  0.00     0.074 A 
ATOM     37  C   UNL A   1      41.048  28.801  30.225  1.00  0.00     0.049 A 
ATOM     38  N   UNL A   1      41.356  25.602  29.028  1.00  0.00    -0.248 NA
ATOM     39  C   UNL A   1      39.834  26.264  27.441  1.00  0.00     0.031 C 
ATOM     40  C   UNL A   1      40.658  30.152  30.713  1.00  0.00     0.029 A 
ATOM     41  N   UNL A   1      42.232  28.633  30.902  1.00  0.00    -0.354 N 
ATOM     42  C   UNL A   1      41.338  24.658  27.960  1.00  0.00     0.074 A 
ATOM     43  C   UNL A   1      40.287  25.062  27.083  1.00  0.00     0.031 C 
ATOM     44  C   UNL A   1      41.518  30.610  31.660  1.00  0.00     0.029 A 
ATOM     45  C   UNL A   1      42.556  29.627  31.885  1.00  0.00     0.049 A 
ATOM     46  H   UNL A   1      42.828  27.870  30.722  1.00  0.00     0.167 HD
ATOM     47  C   UNL A   1      42.293  23.697  27.766  1.00  0.00     0.034 A 
ATOM     48  C   UNL A   1      43.548  29.588  32.841  1.00  0.00     0.034 A 
ATOM     49  C   UNL A   1      43.238  23.724  28.826  1.00  0.00     0.049 A 
ATOM     50  C   UNL A   1      44.226  28.327  32.518  1.00  0.00     0.074 A 
ATOM     51  C   UNL A   1      43.432  23.091  30.026  1.00  0.00     0.029 A 
ATOM     52  N   UNL A   1      44.274  24.598  28.636  1.00  0.00    -0.354 N 
ATOM     53  N   UNL A   1      45.025  28.148  31.519  1.00  0.00    -0.248 NA
ATOM     54  C   UNL A   1      43.757  27.136  33.221  1.00  0.00     0.031 C 
ATOM     55  C   UNL A   1      44.508  23.782  30.641  1.00  0.00     0.029 A 
ATOM     56  C   UNL A   1      44.753  24.918  29.871  1.00  0.00     0.049 A 
ATOM     57  H   UNL A   1      44.611  24.931  27.773  1.00  0.00     0.167 HD
ATOM     58  C   UNL A   1      44.979  26.796  31.295  1.00  0.00     0.074 A 
ATOM     59  C   UNL A   1      44.265  26.206  32.423  1.00  0.00     0.031 C 
ATOM     60  C   UNL A   1      45.200  26.265  30.068  1.00  0.00     0.034 A 
BRANCH  47  61
ATOM     61  C   UNL A   1      42.730  22.872  26.550  1.00  0.00     0.023 A 
ATOM     62  C   UNL A   1      42.254  21.529  26.512  1.00  0.00     0.031 A 
ATOM     63  C   UNL A   1      43.809  23.148  25.700  1.00  0.00     0.131 A 
ATOM     64  C   UNL A   1      42.937  20.510  25.834  1.00  0.00     0.055 A 
ATOM     65  C   UNL A   1      44.439  22.138  24.943  1.00  0.00     0.041 A 
ATOM     66  F   UNL A   1      44.352  24.370  25.624  1.00  0.00    -0.206 F 
ATOM     67  C   UNL A   1      44.037  20.806  25.044  1.00  0.00     0.022 A 
BRANCH  64  68
ATOM     68  S   UNL A   1      42.469  18.786  26.184  1.00  0.00     0.124 S 
ATOM     69  O   UNL A   1      43.443  18.036  25.399  1.00  0.00    -0.237 OA
ATOM     70  O   UNL A   1      42.629  18.715  27.634  1.00  0.00    -0.237 OA
ATOM     71  O   UNL A   1      41.089  18.705  25.709  1.00  0.00    -0.744 OA
ENDBRANCH  64  68
ENDBRANCH  47  61
BRANCH  48  72
ATOM     72  C   UNL A   1      44.048  30.276  34.112  1.00  0.00     0.023 A 
ATOM     73  C   UNL A   1      44.168  29.725  35.401  1.00  0.00     0.031 A 
ATOM     74  C   UNL A   1      44.522  31.630  34.007  1.00  0.00     0.131 A 
ATOM     75  C   UNL A   1      44.797  30.474  36.450  1.00  0.00     0.055 A 
ATOM     76  C   UNL A   1      45.203  32.321  35.010  1.00  0.00     0.041 A 
ATOM     77  F   UNL A   1      44.358  32.361  32.896  1.00  0.00    -0.206 F 
ATOM     78  C   UNL A   1      45.362  31.734  36.239  1.00  0.00     0.022 A 
BRANCH  75  79
ATOM     79  S   UNL A   1      44.920  29.828  38.151  1.00  0.00     0.124 S 
ATOM     80  O   UNL A   1      44.059  30.746  38.887  1.00  0.00    -0.237 OA
ATOM     81  O   UNL A   1      44.433  28.459  38.014  1.00  0.00    -0.237 OA
ATOM     82  O   UNL A   1      46.347  29.941  38.453  1.00  0.00    -0.744 OA
ENDBRANCH  75  79
ENDBRANCH  48  72
BRANCH  60  83
ATOM     83  C   UNL A   1      45.444  27.294  28.964  1.00  0.00     0.023 A 
ATOM     84  C   UNL A   1      44.419  28.123  28.492  1.00  0.00     0.031 A 
ATOM     85  C   UNL A   1      46.676  27.377  28.271  1.00  0.00     0.131 A 
ATOM     86  C   UNL A   1      44.643  28.980  27.392  1.00  0.00     0.055 A 
ATOM     87  C   UNL A   1      46.905  28.234  27.190  1.00  0.00     0.041 A 
ATOM     88  F   UNL A   1      47.715  26.624  28.633  1.00  0.00    -0.206 F 
ATOM     89  C   UNL A   1      45.879  29.044  26.742  1.00  0.00     0.022 A 
BRANCH  86  90
ATOM     90  S   UNL A   1      43.295  30.040  26.805  1.00  0.00     0.124 S 
ATOM     91  O   UNL A   1      42.620  30.410  28.043  1.00  0.00    -0.237 OA
ATOM     92  O   UNL A   1      44.010  31.111  26.119  1.00  0.00    -0.237 OA
ATOM     93  O   UNL A   1      42.525  29.160  25.924  1.00  0.00    -0.744 OA
ENDBRANCH  86  90
ENDBRANCH  60  83
ENDBRANCH  34  35
ENDBRANCH  26  29
ENDBRANCH  24  25
ENDBRANCH  23  24
ENDBRANCH   1  23
TORSDOF 18
ENDMDL
MODEL 3
REMARK VINA RESULT:     -11.1      2.798      8.583
REMARK SMILES O=C(Cn1cccc1C(=O)NCCCCNC(=O)c1ccc(-c2c3nc(c(-c4cc(S(=O)(=O)[O-])ccc4F)c4ccc([nH]4)c(-c4cc(S(=O)(=O)[O-])ccc4F)c4nc(c(-c5cc(S(=O)(=O)[O-])ccc5F)c5ccc2[nH]5)C=C4)C=C3)cc1)NCC1CCCC1
REMARK SMILES IDX 13 1 12 2 11 3 9 4 10 5 8 7 4 8 5 9 6 10 7 11 3 12 2 13 1 14
REMARK SMILES IDX 82 15 83 17 84 18 85 19 88 20 86 21 87 22 14 23 15 24 16 25
REMARK SMILES IDX 17 26 18 28 19 29 20 30 81 31 21 32 80 33 22 34 23 35 24 36
REMARK SMILES IDX 74 37 25 38 79 39 73 40 75 41 26 42 78 43 72 44 71 45 27 47
REMARK SMILES IDX 59 48 39 49 58 50 40 51 43 52 57 53 76 54 41 55 42 56 56 58
REMARK SMILES IDX 77 59 44 60 28 61 29 62 37 63 30 64 36 65 38 66 35 67 31 68
REMARK SMILES IDX 32 69 33 70 34 71 60 72 61 73 69 74 62 75 68 76 70 77 67 78
REMARK SMILES IDX 63 79 64 80 65 81 66 82 45 83 46 84 54 85 47 86 53 87 55 88
REMARK SMILES IDX 52 89 48 90 49 91 50 92 51 93
REMARK H PARENT 11 6 82 16 16 27 75 46 43 57
REMARK Flexibility Score: inf
ROOT
ATOM      1  C   UNL A   1      37.767  22.360  25.510  1.00  0.00     0.023 C 
ENDROOT
BRANCH   1   2
ATOM      2  C   UNL A   1      36.619  21.363  25.447  1.00  0.00     0.116 C 
BRANCH   2   3
ATOM      3  N   UNL A   1      35.621  21.477  26.463  1.00  0.00    -0.351 N 
ATOM      4  C   UNL A   1      34.267  21.270  26.422  1.00  0.00     0.267 C 
ATOM      5  O   UNL A   1      33.717  21.509  27.507  1.00  0.00    -0.268 OA
ATOM      6  H   UNL A   1      35.965  21.749  27.343  1.00  0.00     0.163 HD
BRANCH   4   7
ATOM      7  C   UNL A   1      33.451  20.871  25.257  1.00  0.00     0.107 A 
ATOM      8  N   UNL A   1      32.701  21.500  24.254  1.00  0.00    -0.334 N 
ATOM      9  C   UNL A   1      32.251  20.544  23.347  1.00  0.00     0.087 A 
ATOM     10  C   UNL A   1      32.650  19.305  23.754  1.00  0.00     0.020 A 
ATOM     11  C   UNL A   1      33.387  19.504  24.929  1.00  0.00     0.033 A 
BRANCH   8  12
ATOM     12  C   UNL A   1      32.498  22.911  23.913  1.00  0.00     0.222 C 
BRANCH  12  13
ATOM     13  C   UNL A   1      31.753  23.728  24.975  1.00  0.00     0.239 C 
ATOM     14  O   UNL A   1      30.690  23.336  25.462  1.00  0.00    -0.273 OA
ATOM     15  N   UNL A   1      32.354  24.887  25.421  1.00  0.00    -0.354 N 
ATOM     16  H   UNL A   1      33.234  25.141  25.062  1.00  0.00     0.163 HD
BRANCH  15  17
ATOM     17  C   UNL A   1      31.716  25.742  26.413  1.00  0.00     0.119 C 
BRANCH  17  18
ATOM     18  C   UNL A   1      32.140  27.203  26.256  1.00  0.00     0.008 C 
ATOM     19  C   UNL A   1      31.713  28.082  27.432  1.00  0.00     0.005 C 
ATOM     20  C   UNL A   1      33.656  27.415  26.256  1.00  0.00     0.005 C 
ATOM     21  C   UNL A   1      32.539  29.350  27.248  1.00  0.00     0.000 C 
ATOM     22  C   UNL A   1      33.834  28.901  26.571  1.00  0.00     0.000 C 
ENDBRANCH  17  18
ENDBRANCH  15  17
ENDBRANCH  12  13
ENDBRANCH   8  12
ENDBRANCH   4   7
ENDBRANCH   2   3
ENDBRANCH   1   2
BRANCH   1  23
ATOM     23  C   UNL A   1      39.087  21.872  26.106  1.00  0.00     0.023 C 
BRANCH  23  24
ATOM     24  C   UNL A   1      39.876  22.910  26.908  1.00  0.00     0.116 C 
BRANCH  24  25
ATOM     25  N   UNL A   1      41.130  23.273  26.267  1.00  0.00    -0.352 N 
ATOM     26  C   UNL A   1      41.705  24.516  26.126  1.00  0.00     0.251 C 
ATOM     27  H   UNL A   1      41.639  22.525  25.877  1.00  0.00     0.163 HD
ATOM     28  O   UNL A   1      42.573  24.689  25.284  1.00  0.00    -0.269 OA
BRANCH  26  29
ATOM     29  C   UNL A   1      41.275  25.651  26.975  1.00  0.00     0.039 A 
ATOM     30  C   UNL A   1      40.218  25.445  27.874  1.00  0.00     0.014 A 
ATOM     31  C   UNL A   1      41.847  26.920  26.836  1.00  0.00     0.014 A 
ATOM     32  C   UNL A   1      39.791  26.488  28.691  1.00  0.00     0.010 A 
ATOM     33  C   UNL A   1      41.428  27.965  27.656  1.00  0.00     0.010 A 
ATOM     34  C   UNL A   1      40.423  27.738  28.606  1.00  0.00    -0.014 A 
BRANCH  34  35
ATOM     35  C   UNL A   1      40.218  28.717  29.702  1.00  0.00     0.031 A 
ATOM     36  C   UNL A   1      41.159  28.373  30.924  1.00  0.00     0.074 A 
ATOM     37  C   UNL A   1      39.293  29.702  29.461  1.00  0.00     0.049 A 
ATOM     38  N   UNL A   1      41.097  28.674  32.191  1.00  0.00    -0.248 NA
ATOM     39  C   UNL A   1      42.337  27.481  30.670  1.00  0.00     0.031 C 
ATOM     40  C   UNL A   1      38.517  29.897  28.207  1.00  0.00     0.029 A 
ATOM     41  N   UNL A   1      38.808  30.748  30.209  1.00  0.00    -0.354 N 
ATOM     42  C   UNL A   1      42.313  28.244  32.798  1.00  0.00     0.074 A 
ATOM     43  C   UNL A   1      42.965  27.407  31.844  1.00  0.00     0.031 C 
ATOM     44  C   UNL A   1      37.612  30.903  28.328  1.00  0.00     0.029 A 
ATOM     45  C   UNL A   1      37.702  31.474  29.655  1.00  0.00     0.049 A 
ATOM     46  H   UNL A   1      39.198  30.986  31.082  1.00  0.00     0.167 HD
ATOM     47  C   UNL A   1      42.798  28.734  33.981  1.00  0.00     0.034 A 
ATOM     48  C   UNL A   1      36.897  32.405  30.276  1.00  0.00     0.034 A 
ATOM     49  C   UNL A   1      41.873  29.651  34.547  1.00  0.00     0.049 A 
ATOM     50  C   UNL A   1      37.530  32.516  31.595  1.00  0.00     0.074 A 
ATOM     51  C   UNL A   1      40.845  29.623  35.454  1.00  0.00     0.029 A 
ATOM     52  N   UNL A   1      42.019  30.940  34.112  1.00  0.00    -0.354 N 
ATOM     53  N   UNL A   1      38.634  33.141  31.839  1.00  0.00    -0.248 NA
ATOM     54  C   UNL A   1      37.012  31.641  32.643  1.00  0.00     0.031 C 
ATOM     55  C   UNL A   1      40.246  30.907  35.375  1.00  0.00     0.029 A 
ATOM     56  C   UNL A   1      40.813  31.552  34.277  1.00  0.00     0.049 A 
ATOM     57  H   UNL A   1      42.838  31.349  33.751  1.00  0.00     0.167 HD
ATOM     58  C   UNL A   1      39.099  32.555  32.988  1.00  0.00     0.074 A 
ATOM     59  C   UNL A   1      38.025  31.709  33.496  1.00  0.00     0.031 C 
ATOM     60  C   UNL A   1      40.422  32.503  33.280  1.00  0.00     0.034 A 
BRANCH  47  61
ATOM     61  C   UNL A   1      44.190  28.762  34.621  1.00  0.00     0.023 A 
ATOM     62  C   UNL A   1      44.332  28.015  35.826  1.00  0.00     0.031 A 
ATOM     63  C   UNL A   1      45.198  29.706  34.381  1.00  0.00     0.131 A 
ATOM     64  C   UNL A   1      45.288  28.335  36.800  1.00  0.00     0.055 A 
ATOM     65  C   UNL A   1      46.218  29.964  35.322  1.00  0.00     0.041 A 
ATOM     66  F   UNL A   1      45.199  30.472  33.283  1.00  0.00    -0.206 F 
ATOM     67  C   UNL A   1      46.239  29.314  36.556  1.00  0.00     0.022 A 
BRANCH  64  68
ATOM     68  S   UNL A   1      45.115  27.585  38.449  1.00  0.00     0.124 S 
ATOM     69  O   UNL A   1      43.870  26.837  38.319  1.00  0.00    -0.237 OA
ATOM     70  O   UNL A   1      46.333  26.785  38.551  1.00  0.00    -0.237 OA
ATOM     71  O   UNL A   1      45.058  28.740  39.344  1.00  0.00    -0.744 OA
ENDBRANCH  64  68
ENDBRANCH  47  61
BRANCH  48  72
ATOM     72  C   UNL A   1      35.589  33.183  30.126  1.00  0.00     0.023 A 
ATOM     73  C   UNL A   1      35.043  34.133  31.010  1.00  0.00     0.031 A 
ATOM     74  C   UNL A   1      34.826  32.999  28.921  1.00  0.00     0.131 A 
ATOM     75  C   UNL A   1      33.875  34.876  30.638  1.00  0.00     0.055 A 
ATOM     76  C   UNL A   1      33.738  33.781  28.532  1.00  0.00     0.041 A 
ATOM     77  F   UNL A   1      35.115  32.039  28.031  1.00  0.00    -0.206 F 
ATOM     78  C   UNL A   1      33.265  34.744  29.388  1.00  0.00     0.022 A 
BRANCH  75  79
ATOM     79  S   UNL A   1      33.095  36.070  31.774  1.00  0.00     0.124 S 
ATOM     80  O   UNL A   1      32.018  35.278  32.356  1.00  0.00    -0.237 OA
ATOM     81  O   UNL A   1      34.189  36.428  32.671  1.00  0.00    -0.237 OA
ATOM     82  O   UNL A   1      32.658  37.147  30.884  1.00  0.00    -0.744 OA
ENDBRANCH  75  79
ENDBRANCH  48  72
BRANCH  60  83
ATOM     83  C   UNL A   1      41.335  33.093  32.203  1.00  0.00     0.023 A 
ATOM     84  C   UNL A   1      41.972  32.283  31.255  1.00  0.00     0.031 A 
ATOM     85  C   UNL A   1      41.689  34.463  32.186  1.00  0.00     0.131 A 
ATOM     86  C   UNL A   1      42.901  32.841  30.348  1.00  0.00     0.055 A 
ATOM     87  C   UNL A   1      42.599  35.022  31.282  1.00  0.00     0.041 A 
ATOM     88  F   UNL A   1      41.149  35.320  33.054  1.00  0.00    -0.206 F 
ATOM     89  C   UNL A   1      43.214  34.204  30.353  1.00  0.00     0.022 A 
BRANCH  86  90
ATOM     90  S   UNL A   1      43.708  31.766  29.133  1.00  0.00     0.124 S 
ATOM     91  O   UNL A   1      44.837  31.229  29.884  1.00  0.00    -0.237 OA
ATOM     92  O   UNL A   1      42.650  30.817  28.799  1.00  0.00    -0.237 OA
ATOM     93  O   UNL A   1      44.069  32.682  28.050  1.00  0.00    -0.744 OA
ENDBRANCH  86  90
ENDBRANCH  60  83
ENDBRANCH  34  35
ENDBRANCH  26  29
ENDBRANCH  24  25
ENDBRANCH  23  24
ENDBRANCH   1  23
TORSDOF 18
ENDMDL
