MODEL 1
REMARK VINA RESULT:     -11.6      0.000      0.000
REMARK SMILES Nc1cc([N+](=O)[O-])ccc1[C@H]([NH3+])C(=O)NCCCCNC(=O)c1ccc(-c2c3nc(c(-c4cc(S(=O)(=O)[O-])ccc4F)c4ccc([nH]4)c(-c4cc(S(=O)(=O)[O-])ccc4F)c4nc(c(-c5cc(S(=O)(=O)[O-])ccc5F)c5ccc2[nH]5)C=C4)C=C3)cc1
REMARK SMILES IDX 18 1 17 2 16 3 15 4 13 5 14 6 11 8 10 9 2 10 3 11 4 12 9 13
REMARK SMILES IDX 8 14 1 15 5 18 6 19 7 20 12 21 19 25 20 26 21 27 22 29 23 30
REMARK SMILES IDX 24 31 85 32 25 33 84 34 26 35 27 36 28 37 78 38 29 39 83 40
REMARK SMILES IDX 77 41 79 42 30 43 82 44 76 45 75 46 31 48 63 49 43 50 62 51
REMARK SMILES IDX 44 52 47 53 61 54 80 55 45 56 46 57 60 59 81 60 48 61 32 62
REMARK SMILES IDX 33 63 41 64 34 65 40 66 42 67 39 68 35 69 36 70 37 71 38 72
REMARK SMILES IDX 64 73 65 74 73 75 66 76 72 77 74 78 71 79 67 80 68 81 69 82
REMARK SMILES IDX 70 83 49 84 50 85 58 86 51 87 57 88 59 89 56 90 52 91 53 92
REMARK SMILES IDX 54 93 55 94
REMARK H PARENT 15 7 1 16 1 17 12 22 12 23 12 24 20 28 79 47 47 58
REMARK Flexibility Score: inf
ROOT
ATOM      1  C   UNL A   1      32.886  29.495  25.376  1.00  0.00     0.023 C 
ENDROOT
BRANCH   1   2
ATOM      2  C   UNL A   1      33.844  28.311  25.530  1.00  0.00     0.023 C 
BRANCH   2   3
ATOM      3  C   UNL A   1      33.281  26.977  25.048  1.00  0.00     0.116 C 
BRANCH   3   4
ATOM      4  N   UNL A   1      32.124  26.574  25.819  1.00  0.00    -0.351 N 
ATOM      5  C   UNL A   1      30.883  26.195  25.384  1.00  0.00     0.283 C 
ATOM      6  O   UNL A   1      30.047  25.870  26.233  1.00  0.00    -0.268 OA
ATOM      7  H   UNL A   1      32.246  26.572  26.796  1.00  0.00     0.163 HD
BRANCH   5   8
ATOM      8  C   UNL A   1      30.549  26.125  23.865  1.00  0.00     0.304 C 
BRANCH   8   9
ATOM      9  C   UNL A   1      29.700  27.315  23.386  1.00  0.00     0.042 A 
ATOM     10  C   UNL A   1      28.296  27.432  23.500  1.00  0.00     0.048 A 
ATOM     11  C   UNL A   1      27.669  28.629  23.109  1.00  0.00     0.111 A 
ATOM     12  C   UNL A   1      28.398  29.672  22.526  1.00  0.00     0.271 A 
ATOM     13  C   UNL A   1      30.404  28.379  22.760  1.00  0.00     0.020 A 
ATOM     14  C   UNL A   1      29.770  29.549  22.341  1.00  0.00     0.086 A 
BRANCH  10  15
ATOM     15  N   UNL A   1      27.495  26.470  24.107  1.00  0.00    -0.398 N 
ATOM     16  H   UNL A   1      26.534  26.426  23.898  1.00  0.00     0.156 HD
ATOM     17  H   UNL A   1      27.888  25.834  24.747  1.00  0.00     0.156 HD
ENDBRANCH  10  15
BRANCH  12  18
ATOM     18  N   UNL A   1      27.706  30.889  22.088  1.00  0.00     0.062 N 
ATOM     19  O   UNL A   1      27.221  31.623  22.961  1.00  0.00    -0.258 OA
ATOM     20  O   UNL A   1      27.631  31.103  20.870  1.00  0.00    -0.258 OA
ENDBRANCH  12  18
ENDBRANCH   8   9
BRANCH   8  21
ATOM     21  N   UNL A   1      30.048  24.767  23.576  1.00  0.00    -0.343 N 
ATOM     22  H   UNL A   1      29.606  24.384  24.412  1.00  0.00     0.345 HD
ATOM     23  H   UNL A   1      30.826  24.169  23.299  1.00  0.00     0.345 HD
ATOM     24  H   UNL A   1      29.365  24.810  22.820  1.00  0.00     0.345 HD
ENDBRANCH   8  21
ENDBRANCH   5   8
ENDBRANCH   3   4
ENDBRANCH   2   3
ENDBRANCH   1   2
BRANCH   1  25
ATOM     25  C   UNL A   1      32.284  30.017  26.677  1.00  0.00     0.116 C 
BRANCH  25  26
ATOM     26  N   UNL A   1      32.293  31.468  26.760  1.00  0.00    -0.352 N 
ATOM     27  C   UNL A   1      33.198  32.300  27.369  1.00  0.00     0.251 C 
ATOM     28  H   UNL A   1      31.540  31.920  26.314  1.00  0.00     0.163 HD
ATOM     29  O   UNL A   1      32.941  33.499  27.466  1.00  0.00    -0.269 OA
BRANCH  27  30
ATOM     30  C   UNL A   1      34.453  31.755  27.935  1.00  0.00     0.039 A 
ATOM     31  C   UNL A   1      35.570  32.591  28.010  1.00  0.00     0.014 A 
ATOM     32  C   UNL A   1      34.541  30.434  28.383  1.00  0.00     0.014 A 
ATOM     33  C   UNL A   1      36.751  32.118  28.584  1.00  0.00     0.010 A 
ATOM     34  C   UNL A   1      35.693  29.992  29.032  1.00  0.00     0.010 A 
ATOM     35  C   UNL A   1      36.815  30.825  29.133  1.00  0.00    -0.014 A 
BRANCH  35  36
ATOM     36  C   UNL A   1      38.053  30.360  29.816  1.00  0.00     0.031 A 
ATOM     37  C   UNL A   1      38.350  30.772  31.234  1.00  0.00     0.074 A 
ATOM     38  C   UNL A   1      38.917  29.571  29.145  1.00  0.00     0.049 A 
ATOM     39  N   UNL A   1      39.349  30.420  32.004  1.00  0.00    -0.248 NA
ATOM     40  C   UNL A   1      37.421  31.724  31.860  1.00  0.00     0.031 C 
ATOM     41  C   UNL A   1      38.766  29.151  27.748  1.00  0.00     0.029 A 
ATOM     42  N   UNL A   1      40.082  28.965  29.546  1.00  0.00    -0.354 N 
ATOM     43  C   UNL A   1      39.172  31.109  33.199  1.00  0.00     0.074 A 
ATOM     44  C   UNL A   1      38.006  31.948  33.028  1.00  0.00     0.031 C 
ATOM     45  C   UNL A   1      39.765  28.313  27.430  1.00  0.00     0.029 A 
ATOM     46  C   UNL A   1      40.654  28.169  28.578  1.00  0.00     0.049 A 
ATOM     47  H   UNL A   1      40.473  29.089  30.441  1.00  0.00     0.167 HD
ATOM     48  C   UNL A   1      39.900  31.031  34.341  1.00  0.00     0.034 A 
ATOM     49  C   UNL A   1      41.763  27.405  28.614  1.00  0.00     0.034 A 
ATOM     50  C   UNL A   1      41.055  30.178  34.499  1.00  0.00     0.049 A 
ATOM     51  C   UNL A   1      42.557  27.344  29.895  1.00  0.00     0.074 A 
ATOM     52  C   UNL A   1      41.823  29.969  35.632  1.00  0.00     0.029 A 
ATOM     53  N   UNL A   1      41.617  29.402  33.493  1.00  0.00    -0.354 N 
ATOM     54  N   UNL A   1      42.325  27.938  31.045  1.00  0.00    -0.248 NA
ATOM     55  C   UNL A   1      43.752  26.492  29.888  1.00  0.00     0.031 C 
ATOM     56  C   UNL A   1      42.893  29.137  35.290  1.00  0.00     0.029 A 
ATOM     57  C   UNL A   1      42.745  28.748  33.968  1.00  0.00     0.049 A 
ATOM     58  H   UNL A   1      41.267  29.327  32.576  1.00  0.00     0.167 HD
ATOM     59  C   UNL A   1      43.329  27.500  31.905  1.00  0.00     0.074 A 
ATOM     60  C   UNL A   1      44.142  26.568  31.150  1.00  0.00     0.031 C 
ATOM     61  C   UNL A   1      43.561  27.837  33.201  1.00  0.00     0.034 A 
BRANCH  48  62
ATOM     62  C   UNL A   1      39.488  31.912  35.499  1.00  0.00     0.023 A 
ATOM     63  C   UNL A   1      38.735  31.419  36.579  1.00  0.00     0.031 A 
ATOM     64  C   UNL A   1      39.856  33.270  35.521  1.00  0.00     0.131 A 
ATOM     65  C   UNL A   1      38.320  32.288  37.600  1.00  0.00     0.055 A 
ATOM     66  C   UNL A   1      39.510  34.110  36.581  1.00  0.00     0.041 A 
ATOM     67  F   UNL A   1      40.555  33.806  34.508  1.00  0.00    -0.206 F 
ATOM     68  C   UNL A   1      38.726  33.624  37.623  1.00  0.00     0.022 A 
BRANCH  65  69
ATOM     69  S   UNL A   1      37.131  31.681  38.829  1.00  0.00     0.124 S 
ATOM     70  O   UNL A   1      36.027  32.623  38.660  1.00  0.00    -0.237 OA
ATOM     71  O   UNL A   1      36.882  30.317  38.380  1.00  0.00    -0.237 OA
ATOM     72  O   UNL A   1      37.854  31.802  40.094  1.00  0.00    -0.744 OA
ENDBRANCH  65  69
ENDBRANCH  48  62
BRANCH  49  73
ATOM     73  C   UNL A   1      42.198  26.625  27.418  1.00  0.00     0.023 A 
ATOM     74  C   UNL A   1      41.883  25.262  27.289  1.00  0.00     0.031 A 
ATOM     75  C   UNL A   1      42.998  27.209  26.420  1.00  0.00     0.131 A 
ATOM     76  C   UNL A   1      42.419  24.513  26.230  1.00  0.00     0.055 A 
ATOM     77  C   UNL A   1      43.473  26.476  25.331  1.00  0.00     0.041 A 
ATOM     78  F   UNL A   1      43.329  28.508  26.488  1.00  0.00    -0.206 F 
ATOM     79  C   UNL A   1      43.201  25.115  25.242  1.00  0.00     0.022 A 
BRANCH  76  80
ATOM     80  S   UNL A   1      42.178  22.715  26.230  1.00  0.00     0.124 S 
ATOM     81  O   UNL A   1      42.896  22.319  27.435  1.00  0.00    -0.237 OA
ATOM     82  O   UNL A   1      40.725  22.605  26.282  1.00  0.00    -0.237 OA
ATOM     83  O   UNL A   1      42.789  22.292  24.971  1.00  0.00    -0.744 OA
ENDBRANCH  76  80
ENDBRANCH  49  73
BRANCH  61  84
ATOM     84  C   UNL A   1      44.726  27.153  33.881  1.00  0.00     0.023 A 
ATOM     85  C   UNL A   1      44.597  25.881  34.466  1.00  0.00     0.031 A 
ATOM     86  C   UNL A   1      45.965  27.808  33.999  1.00  0.00     0.131 A 
ATOM     87  C   UNL A   1      45.650  25.348  35.224  1.00  0.00     0.055 A 
ATOM     88  C   UNL A   1      47.038  27.234  34.684  1.00  0.00     0.041 A 
ATOM     89  F   UNL A   1      46.151  29.025  33.464  1.00  0.00    -0.206 F 
ATOM     90  C   UNL A   1      46.877  26.008  35.321  1.00  0.00     0.022 A 
BRANCH  87  91
ATOM     91  S   UNL A   1      45.339  23.857  36.212  1.00  0.00     0.124 S 
ATOM     92  O   UNL A   1      45.243  24.404  37.561  1.00  0.00    -0.237 OA
ATOM     93  O   UNL A   1      44.095  23.357  35.636  1.00  0.00    -0.237 OA
ATOM     94  O   UNL A   1      46.516  23.028  35.960  1.00  0.00    -0.744 OA
ENDBRANCH  87  91
ENDBRANCH  61  84
ENDBRANCH  35  36
ENDBRANCH  27  30
ENDBRANCH  25  26
ENDBRANCH   1  25
TORSDOF 18
ENDMDL
MODEL 2
REMARK VINA RESULT:     -11.4      5.754     10.831
REMARK SMILES Nc1cc([N+](=O)[O-])ccc1[C@H]([NH3+])C(=O)NCCCCNC(=O)c1ccc(-c2c3nc(c(-c4cc(S(=O)(=O)[O-])ccc4F)c4ccc([nH]4)c(-c4cc(S(=O)(=O)[O-])ccc4F)c4nc(c(-c5cc(S(=O)(=O)[O-])ccc5F)c5ccc2[nH]5)C=C4)C=C3)cc1
REMARK SMILES IDX 18 1 17 2 16 3 15 4 13 5 14 6 11 8 10 9 2 10 3 11 4 12 9 13
REMARK SMILES IDX 8 14 1 15 5 18 6 19 7 20 12 21 19 25 20 26 21 27 22 29 23 30
REMARK SMILES IDX 24 31 85 32 25 33 84 34 26 35 27 36 28 37 78 38 29 39 83 40
REMARK SMILES IDX 77 41 79 42 30 43 82 44 76 45 75 46 31 48 63 49 43 50 62 51
REMARK SMILES IDX 44 52 47 53 61 54 80 55 45 56 46 57 60 59 81 60 48 61 32 62
REMARK SMILES IDX 33 63 41 64 34 65 40 66 42 67 39 68 35 69 36 70 37 71 38 72
REMARK SMILES IDX 64 73 65 74 73 75 66 76 72 77 74 78 71 79 67 80 68 81 69 82
REMARK SMILES IDX 70 83 49 84 50 85 58 86 51 87 57 88 59 89 56 90 52 91 53 92
REMARK SMILES IDX 54 93 55 94
REMARK H PARENT 15 7 1 16 1 17 12 22 12 23 12 24 20 28 79 47 47 58
REMARK Flexibility Score: inf
ROOT
ATOM      1  C   UNL A   1      36.017  22.323  25.347  1.00  0.00     0.023 C 
ENDROOT
BRANCH   1   2
ATOM      2  C   UNL A   1      35.572  23.686  25.883  1.00  0.00     0.023 C 
BRANCH   2   3
ATOM      3  C   UNL A   1      34.311  24.240  25.228  1.00  0.00     0.116 C 
BRANCH   3   4
ATOM      4  N   UNL A   1      34.319  24.040  23.793  1.00  0.00    -0.351 N 
ATOM      5  C   UNL A   1      33.460  23.311  23.016  1.00  0.00     0.283 C 
ATOM      6  O   UNL A   1      33.653  23.299  21.796  1.00  0.00    -0.268 OA
ATOM      7  H   UNL A   1      35.046  24.492  23.308  1.00  0.00     0.163 HD
BRANCH   5   8
ATOM      8  C   UNL A   1      32.247  22.562  23.642  1.00  0.00     0.304 C 
BRANCH   8   9
ATOM      9  C   UNL A   1      32.415  21.032  23.620  1.00  0.00     0.042 A 
ATOM     10  C   UNL A   1      32.132  20.182  22.527  1.00  0.00     0.048 A 
ATOM     11  C   UNL A   1      32.434  18.811  22.622  1.00  0.00     0.111 A 
ATOM     12  C   UNL A   1      32.928  18.260  23.809  1.00  0.00     0.271 A 
ATOM     13  C   UNL A   1      32.884  20.434  24.820  1.00  0.00     0.020 A 
ATOM     14  C   UNL A   1      33.148  19.068  24.919  1.00  0.00     0.086 A 
BRANCH  10  15
ATOM     15  N   UNL A   1      31.684  20.645  21.294  1.00  0.00    -0.398 N 
ATOM     16  H   UNL A   1      32.275  20.603  20.507  1.00  0.00     0.156 HD
ATOM     17  H   UNL A   1      30.776  21.016  21.207  1.00  0.00     0.156 HD
ENDBRANCH  10  15
BRANCH  12  18
ATOM     18  N   UNL A   1      33.191  16.819  23.890  1.00  0.00     0.062 N 
ATOM     19  O   UNL A   1      33.875  16.307  22.991  1.00  0.00    -0.258 OA
ATOM     20  O   UNL A   1      32.699  16.195  24.840  1.00  0.00    -0.258 OA
ENDBRANCH  12  18
ENDBRANCH   8   9
BRANCH   8  21
ATOM     21  N   UNL A   1      31.017  23.124  23.049  1.00  0.00    -0.343 N 
ATOM     22  H   UNL A   1      30.240  23.001  23.698  1.00  0.00     0.345 HD
ATOM     23  H   UNL A   1      30.809  22.640  22.175  1.00  0.00     0.345 HD
ATOM     24  H   UNL A   1      31.152  24.117  22.863  1.00  0.00     0.345 HD
ENDBRANCH   8  21
ENDBRANCH   5   8
ENDBRANCH   3   4
ENDBRANCH   2   3
ENDBRANCH   1   2
BRANCH   1  25
ATOM     25  C   UNL A   1      37.434  22.277  24.783  1.00  0.00     0.116 C 
BRANCH  25  26
ATOM     26  N   UNL A   1      38.239  21.216  25.366  1.00  0.00    -0.352 N 
ATOM     27  C   UNL A   1      39.355  21.306  26.160  1.00  0.00     0.251 C 
ATOM     28  H   UNL A   1      37.940  20.300  25.162  1.00  0.00     0.163 HD
ATOM     29  O   UNL A   1      39.989  20.284  26.419  1.00  0.00    -0.269 OA
BRANCH  27  30
ATOM     30  C   UNL A   1      39.810  22.620  26.667  1.00  0.00     0.039 A 
ATOM     31  C   UNL A   1      40.771  22.648  27.680  1.00  0.00     0.014 A 
ATOM     32  C   UNL A   1      39.296  23.817  26.161  1.00  0.00     0.014 A 
ATOM     33  C   UNL A   1      41.254  23.873  28.143  1.00  0.00     0.010 A 
ATOM     34  C   UNL A   1      39.840  25.036  26.564  1.00  0.00     0.010 A 
ATOM     35  C   UNL A   1      40.819  25.080  27.565  1.00  0.00    -0.014 A 
BRANCH  35  36
ATOM     36  C   UNL A   1      41.400  26.376  28.009  1.00  0.00     0.031 A 
ATOM     37  C   UNL A   1      42.815  26.748  27.648  1.00  0.00     0.074 A 
ATOM     38  C   UNL A   1      40.649  27.214  28.752  1.00  0.00     0.049 A 
ATOM     39  N   UNL A   1      43.467  27.855  27.900  1.00  0.00    -0.248 NA
ATOM     40  C   UNL A   1      43.609  25.738  26.935  1.00  0.00     0.031 C 
ATOM     41  C   UNL A   1      39.285  26.939  29.214  1.00  0.00     0.029 A 
ATOM     42  N   UNL A   1      40.911  28.472  29.236  1.00  0.00    -0.354 N 
ATOM     43  C   UNL A   1      44.746  27.673  27.383  1.00  0.00     0.074 A 
ATOM     44  C   UNL A   1      44.795  26.324  26.861  1.00  0.00     0.031 C 
ATOM     45  C   UNL A   1      38.813  28.016  29.861  1.00  0.00     0.029 A 
ATOM     46  C   UNL A   1      39.849  29.041  29.904  1.00  0.00     0.049 A 
ATOM     47  H   UNL A   1      41.778  28.924  29.118  1.00  0.00     0.167 HD
ATOM     48  C   UNL A   1      45.775  28.555  27.328  1.00  0.00     0.034 A 
ATOM     49  C   UNL A   1      39.724  30.253  30.478  1.00  0.00     0.034 A 
ATOM     50  C   UNL A   1      45.704  29.902  27.844  1.00  0.00     0.049 A 
ATOM     51  C   UNL A   1      40.888  31.211  30.408  1.00  0.00     0.074 A 
ATOM     52  C   UNL A   1      46.660  30.901  27.778  1.00  0.00     0.029 A 
ATOM     53  N   UNL A   1      44.621  30.438  28.530  1.00  0.00    -0.354 N 
ATOM     54  N   UNL A   1      42.062  31.050  29.838  1.00  0.00    -0.248 NA
ATOM     55  C   UNL A   1      40.700  32.521  31.040  1.00  0.00     0.031 C 
ATOM     56  C   UNL A   1      46.192  32.006  28.495  1.00  0.00     0.029 A 
ATOM     57  C   UNL A   1      44.905  31.736  28.930  1.00  0.00     0.049 A 
ATOM     58  H   UNL A   1      43.777  29.965  28.709  1.00  0.00     0.167 HD
ATOM     59  C   UNL A   1      42.736  32.255  30.018  1.00  0.00     0.074 A 
ATOM     60  C   UNL A   1      41.823  33.139  30.714  1.00  0.00     0.031 C 
ATOM     61  C   UNL A   1      43.995  32.603  29.643  1.00  0.00     0.034 A 
BRANCH  48  62
ATOM     62  C   UNL A   1      47.074  28.082  26.716  1.00  0.00     0.023 A 
ATOM     63  C   UNL A   1      47.270  28.041  25.324  1.00  0.00     0.031 A 
ATOM     64  C   UNL A   1      48.135  27.665  27.541  1.00  0.00     0.131 A 
ATOM     65  C   UNL A   1      48.469  27.533  24.799  1.00  0.00     0.055 A 
ATOM     66  C   UNL A   1      49.356  27.239  27.013  1.00  0.00     0.041 A 
ATOM     67  F   UNL A   1      48.001  27.660  28.876  1.00  0.00    -0.206 F 
ATOM     68  C   UNL A   1      49.524  27.159  25.634  1.00  0.00     0.022 A 
BRANCH  65  69
ATOM     69  S   UNL A   1      48.582  27.244  23.012  1.00  0.00     0.124 S 
ATOM     70  O   UNL A   1      47.573  28.168  22.500  1.00  0.00    -0.237 OA
ATOM     71  O   UNL A   1      49.968  27.588  22.723  1.00  0.00    -0.237 OA
ATOM     72  O   UNL A   1      48.246  25.828  22.872  1.00  0.00    -0.744 OA
ENDBRANCH  65  69
ENDBRANCH  48  62
BRANCH  49  73
ATOM     73  C   UNL A   1      38.459  30.651  31.164  1.00  0.00     0.023 A 
ATOM     74  C   UNL A   1      37.426  31.292  30.461  1.00  0.00     0.031 A 
ATOM     75  C   UNL A   1      38.292  30.464  32.548  1.00  0.00     0.131 A 
ATOM     76  C   UNL A   1      36.306  31.784  31.150  1.00  0.00     0.055 A 
ATOM     77  C   UNL A   1      37.145  30.894  33.218  1.00  0.00     0.041 A 
ATOM     78  F   UNL A   1      39.244  29.854  33.271  1.00  0.00    -0.206 F 
ATOM     79  C   UNL A   1      36.152  31.577  32.522  1.00  0.00     0.022 A 
BRANCH  76  80
ATOM     80  S   UNL A   1      35.111  32.806  30.245  1.00  0.00     0.124 S 
ATOM     81  O   UNL A   1      34.133  33.109  31.284  1.00  0.00    -0.237 OA
ATOM     82  O   UNL A   1      35.940  33.919  29.799  1.00  0.00    -0.237 OA
ATOM     83  O   UNL A   1      34.640  31.918  29.184  1.00  0.00    -0.744 OA
ENDBRANCH  76  80
ENDBRANCH  49  73
BRANCH  61  84
ATOM     84  C   UNL A   1      44.430  34.017  29.954  1.00  0.00     0.023 A 
ATOM     85  C   UNL A   1      44.202  35.075  29.055  1.00  0.00     0.031 A 
ATOM     86  C   UNL A   1      45.135  34.301  31.137  1.00  0.00     0.131 A 
ATOM     87  C   UNL A   1      44.757  36.338  29.304  1.00  0.00     0.055 A 
ATOM     88  C   UNL A   1      45.612  35.582  31.420  1.00  0.00     0.041 A 
ATOM     89  F   UNL A   1      45.386  33.334  32.034  1.00  0.00    -0.206 F 
ATOM     90  C   UNL A   1      45.445  36.604  30.491  1.00  0.00     0.022 A 
BRANCH  87  91
ATOM     91  S   UNL A   1      44.705  37.584  27.986  1.00  0.00     0.124 S 
ATOM     92  O   UNL A   1      46.028  38.190  28.091  1.00  0.00    -0.237 OA
ATOM     93  O   UNL A   1      44.470  36.769  26.798  1.00  0.00    -0.237 OA
ATOM     94  O   UNL A   1      43.593  38.448  28.375  1.00  0.00    -0.744 OA
ENDBRANCH  87  91
ENDBRANCH  61  84
ENDBRANCH  35  36
ENDBRANCH  27  30
ENDBRANCH  25  26
ENDBRANCH   1  25
TORSDOF 18
ENDMDL
MODEL 3
REMARK VINA RESULT:     -11.4      1.663      2.005
REMARK SMILES Nc1cc([N+](=O)[O-])ccc1[C@H]([NH3+])C(=O)NCCCCNC(=O)c1ccc(-c2c3nc(c(-c4cc(S(=O)(=O)[O-])ccc4F)c4ccc([nH]4)c(-c4cc(S(=O)(=O)[O-])ccc4F)c4nc(c(-c5cc(S(=O)(=O)[O-])ccc5F)c5ccc2[nH]5)C=C4)C=C3)cc1
REMARK SMILES IDX 18 1 17 2 16 3 15 4 13 5 14 6 11 8 10 9 2 10 3 11 4 12 9 13
REMARK SMILES IDX 8 14 1 15 5 18 6 19 7 20 12 21 19 25 20 26 21 27 22 29 23 30
REMARK SMILES IDX 24 31 85 32 25 33 84 34 26 35 27 36 28 37 78 38 29 39 83 40
REMARK SMILES IDX 77 41 79 42 30 43 82 44 76 45 75 46 31 48 63 49 43 50 62 51
REMARK SMILES IDX 44 52 47 53 61 54 80 55 45 56 46 57 60 59 81 60 48 61 32 62
REMARK SMILES IDX 33 63 41 64 34 65 40 66 42 67 39 68 35 69 36 70 37 71 38 72
REMARK SMILES IDX 64 73 65 74 73 75 66 76 72 77 74 78 71 79 67 80 68 81 69 82
REMARK SMILES IDX 70 83 49 84 50 85 58 86 51 87 57 88 59 89 56 90 52 91 53 92
REMARK SMILES IDX 54 93 55 94
REMARK H PARENT 15 7 1 16 1 17 12 22 12 23 12 24 20 28 79 47 47 58
REMARK Flexibility Score: inf
ROOT
ATOM      1  C   UNL A   1      31.632  28.908  26.738  1.00  0.00     0.023 C 
ENDROOT
BRANCH   1   2
ATOM      2  C   UNL A   1      32.088  27.461  26.936  1.00  0.00     0.023 C 
BRANCH   2   3
ATOM      3  C   UNL A   1      33.144  26.991  25.941  1.00  0.00     0.116 C 
BRANCH   3   4
ATOM      4  N   UNL A   1      32.844  25.671  25.425  1.00  0.00    -0.351 N 
ATOM      5  C   UNL A   1      32.508  25.295  24.153  1.00  0.00     0.283 C 
ATOM      6  O   UNL A   1      32.312  24.094  23.937  1.00  0.00    -0.268 OA
ATOM      7  H   UNL A   1      32.889  24.940  26.082  1.00  0.00     0.163 HD
BRANCH   5   8
ATOM      8  C   UNL A   1      32.422  26.339  23.001  1.00  0.00     0.304 C 
BRANCH   8   9
ATOM      9  C   UNL A   1      31.138  27.184  23.055  1.00  0.00     0.042 A 
ATOM     10  C   UNL A   1      31.035  28.559  22.747  1.00  0.00     0.048 A 
ATOM     11  C   UNL A   1      29.769  29.173  22.742  1.00  0.00     0.111 A 
ATOM     12  C   UNL A   1      28.621  28.469  23.122  1.00  0.00     0.271 A 
ATOM     13  C   UNL A   1      29.958  26.508  23.468  1.00  0.00     0.020 A 
ATOM     14  C   UNL A   1      28.711  27.133  23.496  1.00  0.00     0.086 A 
BRANCH  10  15
ATOM     15  N   UNL A   1      32.111  29.329  22.315  1.00  0.00    -0.398 N 
ATOM     16  H   UNL A   1      32.447  30.064  22.876  1.00  0.00     0.156 HD
ATOM     17  H   UNL A   1      32.534  29.140  21.446  1.00  0.00     0.156 HD
ENDBRANCH  10  15
BRANCH  12  18
ATOM     18  N   UNL A   1      27.323  29.151  23.149  1.00  0.00     0.062 N 
ATOM     19  O   UNL A   1      26.337  28.499  23.525  1.00  0.00    -0.258 OA
ATOM     20  O   UNL A   1      27.283  30.332  22.778  1.00  0.00    -0.258 OA
ENDBRANCH  12  18
ENDBRANCH   8   9
BRANCH   8  21
ATOM     21  N   UNL A   1      32.728  25.639  21.737  1.00  0.00    -0.343 N 
ATOM     22  H   UNL A   1      31.921  25.083  21.454  1.00  0.00     0.345 HD
ATOM     23  H   UNL A   1      33.532  25.026  21.874  1.00  0.00     0.345 HD
ATOM     24  H   UNL A   1      32.941  26.324  21.012  1.00  0.00     0.345 HD
ENDBRANCH   8  21
ENDBRANCH   5   8
ENDBRANCH   3   4
ENDBRANCH   2   3
ENDBRANCH   1   2
BRANCH   1  25
ATOM     25  C   UNL A   1      32.640  29.819  26.046  1.00  0.00     0.116 C 
BRANCH  25  26
ATOM     26  N   UNL A   1      32.444  31.224  26.367  1.00  0.00    -0.352 N 
ATOM     27  C   UNL A   1      33.170  32.035  27.202  1.00  0.00     0.251 C 
ATOM     28  H   UNL A   1      31.679  31.655  25.921  1.00  0.00     0.163 HD
ATOM     29  O   UNL A   1      32.744  33.159  27.466  1.00  0.00    -0.269 OA
BRANCH  27  30
ATOM     30  C   UNL A   1      34.432  31.552  27.806  1.00  0.00     0.039 A 
ATOM     31  C   UNL A   1      35.470  32.466  28.005  1.00  0.00     0.014 A 
ATOM     32  C   UNL A   1      34.603  30.213  28.171  1.00  0.00     0.014 A 
ATOM     33  C   UNL A   1      36.652  32.047  28.619  1.00  0.00     0.010 A 
ATOM     34  C   UNL A   1      35.749  29.818  28.858  1.00  0.00     0.010 A 
ATOM     35  C   UNL A   1      36.791  30.727  29.083  1.00  0.00    -0.014 A 
BRANCH  35  36
ATOM     36  C   UNL A   1      38.023  30.313  29.808  1.00  0.00     0.031 A 
ATOM     37  C   UNL A   1      38.262  30.751  31.230  1.00  0.00     0.074 A 
ATOM     38  C   UNL A   1      38.934  29.548  29.174  1.00  0.00     0.049 A 
ATOM     39  N   UNL A   1      39.248  30.442  32.034  1.00  0.00    -0.248 NA
ATOM     40  C   UNL A   1      37.282  31.676  31.817  1.00  0.00     0.031 C 
ATOM     41  C   UNL A   1      38.841  29.108  27.778  1.00  0.00     0.029 A 
ATOM     42  N   UNL A   1      40.107  28.988  29.616  1.00  0.00    -0.354 N 
ATOM     43  C   UNL A   1      39.011  31.137  33.216  1.00  0.00     0.074 A 
ATOM     44  C   UNL A   1      37.823  31.933  32.999  1.00  0.00     0.031 C 
ATOM     45  C   UNL A   1      39.878  28.302  27.500  1.00  0.00     0.029 A 
ATOM     46  C   UNL A   1      40.735  28.202  28.675  1.00  0.00     0.049 A 
ATOM     47  H   UNL A   1      40.466  29.134  30.521  1.00  0.00     0.167 HD
ATOM     48  C   UNL A   1      39.706  31.097  34.379  1.00  0.00     0.034 A 
ATOM     49  C   UNL A   1      41.868  27.478  28.754  1.00  0.00     0.034 A 
ATOM     50  C   UNL A   1      40.885  30.286  34.582  1.00  0.00     0.049 A 
ATOM     51  C   UNL A   1      42.625  27.458  30.059  1.00  0.00     0.074 A 
ATOM     52  C   UNL A   1      41.625  30.117  35.740  1.00  0.00     0.029 A 
ATOM     53  N   UNL A   1      41.504  29.520  33.603  1.00  0.00    -0.354 N 
ATOM     54  N   UNL A   1      42.337  28.055  31.194  1.00  0.00    -0.248 NA
ATOM     55  C   UNL A   1      43.848  26.648  30.098  1.00  0.00     0.031 C 
ATOM     56  C   UNL A   1      42.733  29.319  35.440  1.00  0.00     0.029 A 
ATOM     57  C   UNL A   1      42.639  28.911  34.120  1.00  0.00     0.049 A 
ATOM     58  H   UNL A   1      41.185  29.423  32.677  1.00  0.00     0.167 HD
ATOM     59  C   UNL A   1      43.329  27.662  32.089  1.00  0.00     0.074 A 
ATOM     60  C   UNL A   1      44.196  26.752  31.370  1.00  0.00     0.031 C 
ATOM     61  C   UNL A   1      43.510  28.021  33.388  1.00  0.00     0.034 A 
BRANCH  48  62
ATOM     62  C   UNL A   1      39.229  31.975  35.514  1.00  0.00     0.023 A 
ATOM     63  C   UNL A   1      39.653  33.308  35.653  1.00  0.00     0.031 A 
ATOM     64  C   UNL A   1      38.334  31.467  36.474  1.00  0.00     0.131 A 
ATOM     65  C   UNL A   1      39.235  34.066  36.758  1.00  0.00     0.055 A 
ATOM     66  C   UNL A   1      37.858  32.253  37.526  1.00  0.00     0.041 A 
ATOM     67  F   UNL A   1      37.911  30.195  36.409  1.00  0.00    -0.206 F 
ATOM     68  C   UNL A   1      38.318  33.557  37.680  1.00  0.00     0.022 A 
BRANCH  65  69
ATOM     69  S   UNL A   1      40.010  35.681  37.048  1.00  0.00     0.124 S 
ATOM     70  O   UNL A   1      39.346  36.109  38.277  1.00  0.00    -0.237 OA
ATOM     71  O   UNL A   1      41.421  35.337  37.170  1.00  0.00    -0.237 OA
ATOM     72  O   UNL A   1      39.654  36.450  35.857  1.00  0.00    -0.744 OA
ENDBRANCH  65  69
ENDBRANCH  48  62
BRANCH  49  73
ATOM     73  C   UNL A   1      42.367  26.701  27.581  1.00  0.00     0.023 A 
ATOM     74  C   UNL A   1      42.022  25.350  27.409  1.00  0.00     0.031 A 
ATOM     75  C   UNL A   1      43.255  27.273  26.653  1.00  0.00     0.131 A 
ATOM     76  C   UNL A   1      42.612  24.599  26.380  1.00  0.00     0.055 A 
ATOM     77  C   UNL A   1      43.787  26.541  25.590  1.00  0.00     0.041 A 
ATOM     78  F   UNL A   1      43.618  28.561  26.765  1.00  0.00    -0.206 F 
ATOM     79  C   UNL A   1      43.481  25.190  25.460  1.00  0.00     0.022 A 
BRANCH  76  80
ATOM     80  S   UNL A   1      42.320  22.809  26.334  1.00  0.00     0.124 S 
ATOM     81  O   UNL A   1      42.937  22.440  25.066  1.00  0.00    -0.237 OA
ATOM     82  O   UNL A   1      43.008  22.359  27.538  1.00  0.00    -0.237 OA
ATOM     83  O   UNL A   1      40.862  22.703  26.374  1.00  0.00    -0.744 OA
ENDBRANCH  76  80
ENDBRANCH  49  73
BRANCH  61  84
ATOM     84  C   UNL A   1      44.676  27.385  34.111  1.00  0.00     0.023 A 
ATOM     85  C   UNL A   1      44.541  26.171  34.807  1.00  0.00     0.031 A 
ATOM     86  C   UNL A   1      45.924  28.033  34.155  1.00  0.00     0.131 A 
ATOM     87  C   UNL A   1      45.598  25.695  35.596  1.00  0.00     0.055 A 
ATOM     88  C   UNL A   1      47.000  27.509  34.873  1.00  0.00     0.041 A 
ATOM     89  F   UNL A   1      46.115  29.196  33.512  1.00  0.00    -0.206 F 
ATOM     90  C   UNL A   1      46.834  26.346  35.619  1.00  0.00     0.022 A 
BRANCH  87  91
ATOM     91  S   UNL A   1      45.285  24.301  36.715  1.00  0.00     0.124 S 
ATOM     92  O   UNL A   1      44.938  24.984  37.958  1.00  0.00    -0.237 OA
ATOM     93  O   UNL A   1      44.193  23.603  36.044  1.00  0.00    -0.237 OA
ATOM     94  O   UNL A   1      46.559  23.585  36.736  1.00  0.00    -0.744 OA
ENDBRANCH  87  91
ENDBRANCH  61  84
ENDBRANCH  35  36
ENDBRANCH  27  30
ENDBRANCH  25  26
ENDBRANCH   1  25
TORSDOF 18
ENDMDL
