MODEL 1
REMARK VINA RESULT:     -11.7      0.000      0.000
REMARK SMILES CC[C@](C)(NC(=O)CNC(=O)c1cccc(Cl)c1)C(=O)NCCCCNC(=O)c1ccc(-c2c3nc(c(-c4cc(S(=O)(=O)[O-])ccc4F)c4ccc([nH]4)c(-c4cc(S(=O)(=O)[O-])ccc4F)c4nc(c(-c5cc(S(=O)(=O)[O-])ccc5F)c5ccc2[nH]5)C=C4)C=C3)cc1
REMARK SMILES IDX 23 1 22 2 21 3 19 4 20 5 3 7 4 8 2 9 1 10 5 11 6 12 7 14
REMARK SMILES IDX 8 15 9 16 10 17 11 19 12 20 13 21 18 22 14 23 16 24 15 25
REMARK SMILES IDX 17 26 24 27 25 28 26 29 27 30 28 32 29 33 30 34 91 35 31 36
REMARK SMILES IDX 90 37 32 38 33 39 34 40 84 41 35 42 89 43 83 44 85 45 36 46
REMARK SMILES IDX 88 47 82 48 81 49 37 51 69 52 49 53 68 54 50 55 53 56 67 57
REMARK SMILES IDX 86 58 51 59 52 60 66 62 87 63 54 64 38 65 39 66 47 67 40 68
REMARK SMILES IDX 46 69 48 70 45 71 41 72 42 73 43 74 44 75 70 76 71 77 79 78
REMARK SMILES IDX 72 79 78 80 80 81 77 82 73 83 74 84 75 85 76 86 55 87 56 88
REMARK SMILES IDX 64 89 57 90 63 91 65 92 62 93 58 94 59 95 60 96 61 97
REMARK H PARENT 21 6 5 13 9 18 26 31 85 50 53 61
REMARK Flexibility Score: inf
ROOT
ATOM      1  C   UNL A   1      31.506  30.803  26.558  1.00  0.00     0.023 C 
ENDROOT
BRANCH   1   2
ATOM      2  C   UNL A   1      31.325  30.153  25.182  1.00  0.00     0.116 C 
BRANCH   2   3
ATOM      3  N   UNL A   1      32.513  29.649  24.503  1.00  0.00    -0.354 N 
ATOM      4  C   UNL A   1      32.747  28.467  23.843  1.00  0.00     0.245 C 
ATOM      5  O   UNL A   1      33.623  28.455  22.978  1.00  0.00    -0.272 OA
ATOM      6  H   UNL A   1      33.281  30.264  24.519  1.00  0.00     0.163 HD
BRANCH   4   7
ATOM      7  C   UNL A   1      31.847  27.234  24.013  1.00  0.00     0.116 C 
ATOM      8  C   UNL A   1      30.348  27.508  23.785  1.00  0.00     0.045 C 
BRANCH   7   9
ATOM      9  C   UNL A   1      32.047  26.812  25.507  1.00  0.00     0.035 C 
ATOM     10  C   UNL A   1      33.517  26.692  25.946  1.00  0.00     0.007 C 
ENDBRANCH   7   9
BRANCH   7  11
ATOM     11  N   UNL A   1      32.246  26.188  23.057  1.00  0.00    -0.340 N 
ATOM     12  C   UNL A   1      31.956  24.843  23.111  1.00  0.00     0.240 C 
ATOM     13  H   UNL A   1      32.783  26.485  22.288  1.00  0.00     0.164 HD
ATOM     14  O   UNL A   1      32.764  24.085  22.562  1.00  0.00    -0.273 OA
BRANCH  12  15
ATOM     15  C   UNL A   1      30.618  24.281  23.689  1.00  0.00     0.216 C 
BRANCH  15  16
ATOM     16  N   UNL A   1      30.456  23.999  25.106  1.00  0.00    -0.343 N 
ATOM     17  C   UNL A   1      31.249  23.306  25.999  1.00  0.00     0.251 C 
ATOM     18  H   UNL A   1      29.633  24.369  25.499  1.00  0.00     0.164 HD
ATOM     19  O   UNL A   1      31.024  23.439  27.202  1.00  0.00    -0.269 OA
BRANCH  17  20
ATOM     20  C   UNL A   1      32.273  22.309  25.590  1.00  0.00     0.041 A 
ATOM     21  C   UNL A   1      31.992  21.029  25.104  1.00  0.00     0.014 A 
ATOM     22  C   UNL A   1      33.612  22.715  25.709  1.00  0.00     0.034 A 
ATOM     23  C   UNL A   1      33.043  20.130  24.858  1.00  0.00     0.002 A 
ATOM     24  C   UNL A   1      34.647  21.800  25.523  1.00  0.00     0.041 A 
ATOM     25  C   UNL A   1      34.367  20.500  25.113  1.00  0.00     0.020 A 
ATOM     26  Cl  UNL A   1      36.268  22.252  25.886  1.00  0.00    -0.084 Cl
ENDBRANCH  17  20
ENDBRANCH  15  16
ENDBRANCH  12  15
ENDBRANCH   7  11
ENDBRANCH   4   7
ENDBRANCH   2   3
ENDBRANCH   1   2
BRANCH   1  27
ATOM     27  C   UNL A   1      31.605  32.325  26.631  1.00  0.00     0.023 C 
BRANCH  27  28
ATOM     28  C   UNL A   1      32.760  32.874  27.449  1.00  0.00     0.116 C 
BRANCH  28  29
ATOM     29  N   UNL A   1      32.546  34.247  27.861  1.00  0.00    -0.352 N 
ATOM     30  C   UNL A   1      33.156  34.962  28.859  1.00  0.00     0.251 C 
ATOM     31  H   UNL A   1      31.863  34.737  27.349  1.00  0.00     0.163 HD
ATOM     32  O   UNL A   1      32.702  36.069  29.161  1.00  0.00    -0.269 OA
BRANCH  30  33
ATOM     33  C   UNL A   1      34.319  34.410  29.592  1.00  0.00     0.039 A 
ATOM     34  C   UNL A   1      34.094  33.752  30.804  1.00  0.00     0.014 A 
ATOM     35  C   UNL A   1      35.625  34.548  29.109  1.00  0.00     0.014 A 
ATOM     36  C   UNL A   1      35.166  33.189  31.501  1.00  0.00     0.010 A 
ATOM     37  C   UNL A   1      36.682  33.915  29.763  1.00  0.00     0.010 A 
ATOM     38  C   UNL A   1      36.466  33.235  30.972  1.00  0.00    -0.014 A 
BRANCH  38  39
ATOM     39  C   UNL A   1      37.605  32.588  31.681  1.00  0.00     0.031 A 
ATOM     40  C   UNL A   1      38.348  31.447  31.039  1.00  0.00     0.074 A 
ATOM     41  C   UNL A   1      37.946  33.005  32.917  1.00  0.00     0.049 A 
ATOM     42  N   UNL A   1      39.334  30.730  31.515  1.00  0.00    -0.248 NA
ATOM     43  C   UNL A   1      37.908  31.043  29.695  1.00  0.00     0.031 C 
ATOM     44  C   UNL A   1      37.286  34.085  33.656  1.00  0.00     0.029 A 
ATOM     45  N   UNL A   1      38.931  32.576  33.773  1.00  0.00    -0.354 N 
ATOM     46  C   UNL A   1      39.624  29.785  30.536  1.00  0.00     0.074 A 
ATOM     47  C   UNL A   1      38.668  29.983  29.468  1.00  0.00     0.031 C 
ATOM     48  C   UNL A   1      37.905  34.254  34.836  1.00  0.00     0.029 A 
ATOM     49  C   UNL A   1      38.969  33.264  34.964  1.00  0.00     0.049 A 
ATOM     50  H   UNL A   1      39.551  31.844  33.554  1.00  0.00     0.167 HD
ATOM     51  C   UNL A   1      40.611  28.852  30.520  1.00  0.00     0.034 A 
ATOM     52  C   UNL A   1      39.762  33.107  36.044  1.00  0.00     0.034 A 
ATOM     53  C   UNL A   1      41.563  28.675  31.589  1.00  0.00     0.049 A 
ATOM     54  C   UNL A   1      40.822  32.033  36.020  1.00  0.00     0.074 A 
ATOM     55  C   UNL A   1      42.635  27.799  31.650  1.00  0.00     0.029 A 
ATOM     56  N   UNL A   1      41.555  29.373  32.791  1.00  0.00    -0.354 N 
ATOM     57  N   UNL A   1      41.115  31.182  35.064  1.00  0.00    -0.248 NA
ATOM     58  C   UNL A   1      41.662  31.905  37.218  1.00  0.00     0.031 C 
ATOM     59  C   UNL A   1      43.219  27.908  32.917  1.00  0.00     0.029 A 
ATOM     60  C   UNL A   1      42.575  28.918  33.613  1.00  0.00     0.049 A 
ATOM     61  H   UNL A   1      40.918  30.086  33.024  1.00  0.00     0.167 HD
ATOM     62  C   UNL A   1      42.200  30.444  35.533  1.00  0.00     0.074 A 
ATOM     63  C   UNL A   1      42.515  30.961  36.848  1.00  0.00     0.031 C 
ATOM     64  C   UNL A   1      42.877  29.434  34.929  1.00  0.00     0.034 A 
BRANCH  51  65
ATOM     65  C   UNL A   1      40.686  27.933  29.322  1.00  0.00     0.023 A 
ATOM     66  C   UNL A   1      41.627  28.126  28.296  1.00  0.00     0.031 A 
ATOM     67  C   UNL A   1      39.793  26.853  29.199  1.00  0.00     0.131 A 
ATOM     68  C   UNL A   1      41.604  27.302  27.160  1.00  0.00     0.055 A 
ATOM     69  C   UNL A   1      39.833  25.984  28.107  1.00  0.00     0.041 A 
ATOM     70  F   UNL A   1      38.855  26.630  30.134  1.00  0.00    -0.206 F 
ATOM     71  C   UNL A   1      40.733  26.215  27.071  1.00  0.00     0.022 A 
BRANCH  68  72
ATOM     72  S   UNL A   1      42.628  27.765  25.736  1.00  0.00     0.124 S 
ATOM     73  O   UNL A   1      42.180  26.807  24.727  1.00  0.00    -0.237 OA
ATOM     74  O   UNL A   1      42.247  29.153  25.511  1.00  0.00    -0.237 OA
ATOM     75  O   UNL A   1      43.994  27.560  26.214  1.00  0.00    -0.744 OA
ENDBRANCH  68  72
ENDBRANCH  51  65
BRANCH  52  76
ATOM     76  C   UNL A   1      39.586  33.973  37.247  1.00  0.00     0.023 A 
ATOM     77  C   UNL A   1      38.955  33.486  38.403  1.00  0.00     0.031 A 
ATOM     78  C   UNL A   1      39.994  35.319  37.240  1.00  0.00     0.131 A 
ATOM     79  C   UNL A   1      38.702  34.350  39.480  1.00  0.00     0.055 A 
ATOM     80  C   UNL A   1      39.796  36.159  38.338  1.00  0.00     0.041 A 
ATOM     81  F   UNL A   1      40.604  35.838  36.162  1.00  0.00    -0.206 F 
ATOM     82  C   UNL A   1      39.132  35.679  39.461  1.00  0.00     0.022 A 
BRANCH  79  83
ATOM     83  S   UNL A   1      37.706  33.738  40.868  1.00  0.00     0.124 S 
ATOM     84  O   UNL A   1      36.625  33.046  40.174  1.00  0.00    -0.237 OA
ATOM     85  O   UNL A   1      38.661  32.892  41.575  1.00  0.00    -0.237 OA
ATOM     86  O   UNL A   1      37.317  34.959  41.572  1.00  0.00    -0.744 OA
ENDBRANCH  79  83
ENDBRANCH  52  76
BRANCH  64  87
ATOM     87  C   UNL A   1      44.062  28.859  35.668  1.00  0.00     0.023 A 
ATOM     88  C   UNL A   1      43.935  27.762  36.538  1.00  0.00     0.031 A 
ATOM     89  C   UNL A   1      45.339  29.427  35.504  1.00  0.00     0.131 A 
ATOM     90  C   UNL A   1      45.052  27.307  37.257  1.00  0.00     0.055 A 
ATOM     91  C   UNL A   1      46.459  28.924  36.168  1.00  0.00     0.041 A 
ATOM     92  F   UNL A   1      45.520  30.479  34.690  1.00  0.00    -0.206 F 
ATOM     93  C   UNL A   1      46.316  27.868  37.061  1.00  0.00     0.022 A 
BRANCH  90  94
ATOM     94  S   UNL A   1      44.810  26.037  38.530  1.00  0.00     0.124 S 
ATOM     95  O   UNL A   1      43.973  26.737  39.500  1.00  0.00    -0.237 OA
ATOM     96  O   UNL A   1      44.160  24.966  37.782  1.00  0.00    -0.237 OA
ATOM     97  O   UNL A   1      46.169  25.742  38.982  1.00  0.00    -0.744 OA
ENDBRANCH  90  94
ENDBRANCH  64  87
ENDBRANCH  38  39
ENDBRANCH  30  33
ENDBRANCH  28  29
ENDBRANCH  27  28
ENDBRANCH   1  27
TORSDOF 19
ENDMDL
MODEL 2
REMARK VINA RESULT:     -11.6      5.800     11.836
REMARK SMILES CC[C@](C)(NC(=O)CNC(=O)c1cccc(Cl)c1)C(=O)NCCCCNC(=O)c1ccc(-c2c3nc(c(-c4cc(S(=O)(=O)[O-])ccc4F)c4ccc([nH]4)c(-c4cc(S(=O)(=O)[O-])ccc4F)c4nc(c(-c5cc(S(=O)(=O)[O-])ccc5F)c5ccc2[nH]5)C=C4)C=C3)cc1
REMARK SMILES IDX 23 1 22 2 21 3 19 4 20 5 3 7 4 8 2 9 1 10 5 11 6 12 7 14
REMARK SMILES IDX 8 15 9 16 10 17 11 19 12 20 13 21 18 22 14 23 16 24 15 25
REMARK SMILES IDX 17 26 24 27 25 28 26 29 27 30 28 32 29 33 30 34 91 35 31 36
REMARK SMILES IDX 90 37 32 38 33 39 34 40 84 41 35 42 89 43 83 44 85 45 36 46
REMARK SMILES IDX 88 47 82 48 81 49 37 51 69 52 49 53 68 54 50 55 53 56 67 57
REMARK SMILES IDX 86 58 51 59 52 60 66 62 87 63 54 64 38 65 39 66 47 67 40 68
REMARK SMILES IDX 46 69 48 70 45 71 41 72 42 73 43 74 44 75 70 76 71 77 79 78
REMARK SMILES IDX 72 79 78 80 80 81 77 82 73 83 74 84 75 85 76 86 55 87 56 88
REMARK SMILES IDX 64 89 57 90 63 91 65 92 62 93 58 94 59 95 60 96 61 97
REMARK H PARENT 21 6 5 13 9 18 26 31 85 50 53 61
REMARK Flexibility Score: inf
ROOT
ATOM      1  C   UNL A   1      37.403  21.152  24.623  1.00  0.00     0.023 C 
ENDROOT
BRANCH   1   2
ATOM      2  C   UNL A   1      35.894  21.003  24.843  1.00  0.00     0.116 C 
BRANCH   2   3
ATOM      3  N   UNL A   1      35.370  21.255  26.180  1.00  0.00    -0.354 N 
ATOM      4  C   UNL A   1      34.109  21.591  26.612  1.00  0.00     0.245 C 
ATOM      5  O   UNL A   1      33.801  21.300  27.768  1.00  0.00    -0.272 OA
ATOM      6  H   UNL A   1      36.035  21.169  26.900  1.00  0.00     0.163 HD
BRANCH   4   7
ATOM      7  C   UNL A   1      33.030  22.137  25.665  1.00  0.00     0.116 C 
ATOM      8  C   UNL A   1      32.631  21.169  24.535  1.00  0.00     0.045 C 
BRANCH   7   9
ATOM      9  C   UNL A   1      33.687  23.402  25.018  1.00  0.00     0.035 C 
ATOM     10  C   UNL A   1      34.217  24.434  26.029  1.00  0.00     0.007 C 
ENDBRANCH   7   9
BRANCH   7  11
ATOM     11  N   UNL A   1      31.808  22.444  26.425  1.00  0.00    -0.340 N 
ATOM     12  C   UNL A   1      30.894  23.445  26.181  1.00  0.00     0.240 C 
ATOM     13  H   UNL A   1      31.620  21.865  27.198  1.00  0.00     0.164 HD
ATOM     14  O   UNL A   1      30.266  23.865  27.160  1.00  0.00    -0.273 OA
BRANCH  12  15
ATOM     15  C   UNL A   1      30.533  23.940  24.744  1.00  0.00     0.216 C 
BRANCH  15  16
ATOM     16  N   UNL A   1      29.710  25.118  24.527  1.00  0.00    -0.343 N 
ATOM     17  C   UNL A   1      30.041  26.447  24.344  1.00  0.00     0.251 C 
ATOM     18  H   UNL A   1      28.743  24.937  24.506  1.00  0.00     0.164 HD
ATOM     19  O   UNL A   1      29.176  27.208  23.911  1.00  0.00    -0.269 OA
BRANCH  17  20
ATOM     20  C   UNL A   1      31.341  27.037  24.760  1.00  0.00     0.041 A 
ATOM     21  C   UNL A   1      31.724  27.269  26.084  1.00  0.00     0.014 A 
ATOM     22  C   UNL A   1      32.228  27.369  23.724  1.00  0.00     0.034 A 
ATOM     23  C   UNL A   1      32.930  27.940  26.353  1.00  0.00     0.002 A 
ATOM     24  C   UNL A   1      33.392  28.087  23.993  1.00  0.00     0.041 A 
ATOM     25  C   UNL A   1      33.740  28.390  25.306  1.00  0.00     0.020 A 
ATOM     26  Cl  UNL A   1      34.356  28.678  22.695  1.00  0.00    -0.084 Cl
ENDBRANCH  17  20
ENDBRANCH  15  16
ENDBRANCH  12  15
ENDBRANCH   7  11
ENDBRANCH   4   7
ENDBRANCH   2   3
ENDBRANCH   1   2
BRANCH   1  27
ATOM     27  C   UNL A   1      38.309  19.988  25.019  1.00  0.00     0.023 C 
BRANCH  27  28
ATOM     28  C   UNL A   1      39.369  20.301  26.060  1.00  0.00     0.116 C 
BRANCH  28  29
ATOM     29  N   UNL A   1      40.442  19.327  26.071  1.00  0.00    -0.352 N 
ATOM     30  C   UNL A   1      41.796  19.523  26.162  1.00  0.00     0.251 C 
ATOM     31  H   UNL A   1      40.156  18.387  26.001  1.00  0.00     0.163 HD
ATOM     32  O   UNL A   1      42.550  18.565  25.976  1.00  0.00    -0.269 OA
BRANCH  30  33
ATOM     33  C   UNL A   1      42.354  20.865  26.446  1.00  0.00     0.039 A 
ATOM     34  C   UNL A   1      42.602  21.727  25.374  1.00  0.00     0.014 A 
ATOM     35  C   UNL A   1      42.652  21.277  27.749  1.00  0.00     0.014 A 
ATOM     36  C   UNL A   1      43.095  23.012  25.611  1.00  0.00     0.010 A 
ATOM     37  C   UNL A   1      43.066  22.587  27.991  1.00  0.00     0.010 A 
ATOM     38  C   UNL A   1      43.300  23.468  26.924  1.00  0.00    -0.014 A 
BRANCH  38  39
ATOM     39  C   UNL A   1      43.771  24.856  27.187  1.00  0.00     0.031 A 
ATOM     40  C   UNL A   1      42.834  25.875  27.777  1.00  0.00     0.074 A 
ATOM     41  C   UNL A   1      45.032  25.207  26.862  1.00  0.00     0.049 A 
ATOM     42  N   UNL A   1      43.045  27.141  28.037  1.00  0.00    -0.248 NA
ATOM     43  C   UNL A   1      41.471  25.419  28.092  1.00  0.00     0.031 C 
ATOM     44  C   UNL A   1      46.027  24.316  26.261  1.00  0.00     0.029 A 
ATOM     45  N   UNL A   1      45.695  26.403  26.991  1.00  0.00    -0.354 N 
ATOM     46  C   UNL A   1      41.843  27.633  28.535  1.00  0.00     0.074 A 
ATOM     47  C   UNL A   1      40.891  26.543  28.482  1.00  0.00     0.031 C 
ATOM     48  C   UNL A   1      47.181  24.985  26.105  1.00  0.00     0.029 A 
ATOM     49  C   UNL A   1      46.996  26.366  26.542  1.00  0.00     0.049 A 
ATOM     50  H   UNL A   1      45.279  27.211  27.367  1.00  0.00     0.167 HD
ATOM     51  C   UNL A   1      41.563  28.873  29.014  1.00  0.00     0.034 A 
ATOM     52  C   UNL A   1      47.932  27.335  26.478  1.00  0.00     0.034 A 
ATOM     53  C   UNL A   1      42.527  29.945  29.070  1.00  0.00     0.049 A 
ATOM     54  C   UNL A   1      47.582  28.717  26.974  1.00  0.00     0.074 A 
ATOM     55  C   UNL A   1      42.366  31.220  29.586  1.00  0.00     0.029 A 
ATOM     56  N   UNL A   1      43.827  29.878  28.585  1.00  0.00    -0.354 N 
ATOM     57  N   UNL A   1      46.455  29.150  27.489  1.00  0.00    -0.248 NA
ATOM     58  C   UNL A   1      48.635  29.737  26.886  1.00  0.00     0.031 C 
ATOM     59  C   UNL A   1      43.535  31.947  29.336  1.00  0.00     0.029 A 
ATOM     60  C   UNL A   1      44.462  31.100  28.751  1.00  0.00     0.049 A 
ATOM     61  H   UNL A   1      44.238  29.079  28.181  1.00  0.00     0.167 HD
ATOM     62  C   UNL A   1      46.679  30.485  27.822  1.00  0.00     0.074 A 
ATOM     63  C   UNL A   1      48.051  30.777  27.462  1.00  0.00     0.031 C 
ATOM     64  C   UNL A   1      45.829  31.385  28.380  1.00  0.00     0.034 A 
BRANCH  51  65
ATOM     65  C   UNL A   1      40.152  29.141  29.482  1.00  0.00     0.023 A 
ATOM     66  C   UNL A   1      39.840  29.309  30.843  1.00  0.00     0.031 A 
ATOM     67  C   UNL A   1      39.098  29.217  28.553  1.00  0.00     0.131 A 
ATOM     68  C   UNL A   1      38.503  29.469  31.240  1.00  0.00     0.055 A 
ATOM     69  C   UNL A   1      37.782  29.463  28.949  1.00  0.00     0.041 A 
ATOM     70  F   UNL A   1      39.328  29.041  27.242  1.00  0.00    -0.206 F 
ATOM     71  C   UNL A   1      37.475  29.576  30.301  1.00  0.00     0.022 A 
BRANCH  68  72
ATOM     72  S   UNL A   1      38.112  29.384  33.010  1.00  0.00     0.124 S 
ATOM     73  O   UNL A   1      37.449  30.667  33.227  1.00  0.00    -0.237 OA
ATOM     74  O   UNL A   1      37.261  28.203  33.088  1.00  0.00    -0.237 OA
ATOM     75  O   UNL A   1      39.422  29.254  33.645  1.00  0.00    -0.744 OA
ENDBRANCH  68  72
ENDBRANCH  51  65
BRANCH  52  76
ATOM     76  C   UNL A   1      49.284  27.050  25.914  1.00  0.00     0.023 A 
ATOM     77  C   UNL A   1      49.629  27.465  24.618  1.00  0.00     0.031 A 
ATOM     78  C   UNL A   1      50.232  26.308  26.640  1.00  0.00     0.131 A 
ATOM     79  C   UNL A   1      50.865  27.091  24.068  1.00  0.00     0.055 A 
ATOM     80  C   UNL A   1      51.485  25.990  26.112  1.00  0.00     0.041 A 
ATOM     81  F   UNL A   1      49.956  25.885  27.884  1.00  0.00    -0.206 F 
ATOM     82  C   UNL A   1      51.801  26.368  24.812  1.00  0.00     0.022 A 
BRANCH  79  83
ATOM     83  S   UNL A   1      51.190  27.471  22.324  1.00  0.00     0.124 S 
ATOM     84  O   UNL A   1      50.075  26.803  21.663  1.00  0.00    -0.237 OA
ATOM     85  O   UNL A   1      51.158  28.929  22.322  1.00  0.00    -0.237 OA
ATOM     86  O   UNL A   1      52.505  26.877  22.086  1.00  0.00    -0.744 OA
ENDBRANCH  79  83
ENDBRANCH  52  76
BRANCH  64  87
ATOM     87  C   UNL A   1      46.381  32.758  28.683  1.00  0.00     0.023 A 
ATOM     88  C   UNL A   1      46.198  33.843  27.808  1.00  0.00     0.031 A 
ATOM     89  C   UNL A   1      47.110  32.980  29.866  1.00  0.00     0.131 A 
ATOM     90  C   UNL A   1      46.789  35.083  28.099  1.00  0.00     0.055 A 
ATOM     91  C   UNL A   1      47.635  34.234  30.183  1.00  0.00     0.041 A 
ATOM     92  F   UNL A   1      47.321  31.981  30.737  1.00  0.00    -0.206 F 
ATOM     93  C   UNL A   1      47.488  35.290  29.291  1.00  0.00     0.022 A 
BRANCH  90  94
ATOM     94  S   UNL A   1      46.719  36.396  26.848  1.00  0.00     0.124 S 
ATOM     95  O   UNL A   1      48.012  37.050  27.024  1.00  0.00    -0.237 OA
ATOM     96  O   UNL A   1      46.549  35.640  25.612  1.00  0.00    -0.237 OA
ATOM     97  O   UNL A   1      45.561  37.192  27.252  1.00  0.00    -0.744 OA
ENDBRANCH  90  94
ENDBRANCH  64  87
ENDBRANCH  38  39
ENDBRANCH  30  33
ENDBRANCH  28  29
ENDBRANCH  27  28
ENDBRANCH   1  27
TORSDOF 19
ENDMDL
MODEL 3
REMARK VINA RESULT:     -11.4      6.107     10.098
REMARK SMILES CC[C@](C)(NC(=O)CNC(=O)c1cccc(Cl)c1)C(=O)NCCCCNC(=O)c1ccc(-c2c3nc(c(-c4cc(S(=O)(=O)[O-])ccc4F)c4ccc([nH]4)c(-c4cc(S(=O)(=O)[O-])ccc4F)c4nc(c(-c5cc(S(=O)(=O)[O-])ccc5F)c5ccc2[nH]5)C=C4)C=C3)cc1
REMARK SMILES IDX 23 1 22 2 21 3 19 4 20 5 3 7 4 8 2 9 1 10 5 11 6 12 7 14
REMARK SMILES IDX 8 15 9 16 10 17 11 19 12 20 13 21 18 22 14 23 16 24 15 25
REMARK SMILES IDX 17 26 24 27 25 28 26 29 27 30 28 32 29 33 30 34 91 35 31 36
REMARK SMILES IDX 90 37 32 38 33 39 34 40 84 41 35 42 89 43 83 44 85 45 36 46
REMARK SMILES IDX 88 47 82 48 81 49 37 51 69 52 49 53 68 54 50 55 53 56 67 57
REMARK SMILES IDX 86 58 51 59 52 60 66 62 87 63 54 64 38 65 39 66 47 67 40 68
REMARK SMILES IDX 46 69 48 70 45 71 41 72 42 73 43 74 44 75 70 76 71 77 79 78
REMARK SMILES IDX 72 79 78 80 80 81 77 82 73 83 74 84 75 85 76 86 55 87 56 88
REMARK SMILES IDX 64 89 57 90 63 91 65 92 62 93 58 94 59 95 60 96 61 97
REMARK H PARENT 21 6 5 13 9 18 26 31 85 50 53 61
REMARK Flexibility Score: inf
ROOT
ATOM      1  C   UNL A   1      37.283  20.719  24.582  1.00  0.00     0.023 C 
ENDROOT
BRANCH   1   2
ATOM      2  C   UNL A   1      35.816  20.602  25.009  1.00  0.00     0.116 C 
BRANCH   2   3
ATOM      3  N   UNL A   1      35.434  21.162  26.301  1.00  0.00    -0.354 N 
ATOM      4  C   UNL A   1      34.252  21.709  26.738  1.00  0.00     0.245 C 
ATOM      5  O   UNL A   1      34.018  21.681  27.947  1.00  0.00    -0.272 OA
ATOM      6  H   UNL A   1      36.148  21.145  26.978  1.00  0.00     0.163 HD
BRANCH   4   7
ATOM      7  C   UNL A   1      33.152  22.176  25.774  1.00  0.00     0.116 C 
ATOM      8  C   UNL A   1      32.733  21.119  24.732  1.00  0.00     0.045 C 
BRANCH   7   9
ATOM      9  C   UNL A   1      33.790  23.386  25.016  1.00  0.00     0.035 C 
ATOM     10  C   UNL A   1      34.168  24.576  25.915  1.00  0.00     0.007 C 
ENDBRANCH   7   9
BRANCH   7  11
ATOM     11  N   UNL A   1      31.943  22.538  26.532  1.00  0.00    -0.340 N 
ATOM     12  C   UNL A   1      31.017  23.509  26.225  1.00  0.00     0.240 C 
ATOM     13  H   UNL A   1      31.778  22.026  27.355  1.00  0.00     0.164 HD
ATOM     14  O   UNL A   1      30.407  24.007  27.179  1.00  0.00    -0.273 OA
BRANCH  12  15
ATOM     15  C   UNL A   1      30.620  23.879  24.760  1.00  0.00     0.216 C 
BRANCH  15  16
ATOM     16  N   UNL A   1      29.753  25.007  24.465  1.00  0.00    -0.343 N 
ATOM     17  C   UNL A   1      30.027  26.345  24.259  1.00  0.00     0.251 C 
ATOM     18  H   UNL A   1      28.799  24.776  24.401  1.00  0.00     0.164 HD
ATOM     19  O   UNL A   1      29.150  27.049  23.759  1.00  0.00    -0.269 OA
BRANCH  17  20
ATOM     20  C   UNL A   1      31.273  27.011  24.722  1.00  0.00     0.041 A 
ATOM     21  C   UNL A   1      31.558  27.334  26.051  1.00  0.00     0.014 A 
ATOM     22  C   UNL A   1      32.214  27.322  23.727  1.00  0.00     0.034 A 
ATOM     23  C   UNL A   1      32.716  28.068  26.358  1.00  0.00     0.002 A 
ATOM     24  C   UNL A   1      33.328  28.103  24.028  1.00  0.00     0.041 A 
ATOM     25  C   UNL A   1      33.576  28.493  25.340  1.00  0.00     0.020 A 
ATOM     26  Cl  UNL A   1      34.353  28.661  22.762  1.00  0.00    -0.084 Cl
ENDBRANCH  17  20
ENDBRANCH  15  16
ENDBRANCH  12  15
ENDBRANCH   7  11
ENDBRANCH   4   7
ENDBRANCH   2   3
ENDBRANCH   1   2
BRANCH   1  27
ATOM     27  C   UNL A   1      38.249  19.613  25.003  1.00  0.00     0.023 C 
BRANCH  27  28
ATOM     28  C   UNL A   1      39.286  20.003  26.041  1.00  0.00     0.116 C 
BRANCH  28  29
ATOM     29  N   UNL A   1      40.472  19.171  25.981  1.00  0.00    -0.352 N 
ATOM     30  C   UNL A   1      41.793  19.530  26.064  1.00  0.00     0.251 C 
ATOM     31  H   UNL A   1      40.303  18.209  25.864  1.00  0.00     0.163 HD
ATOM     32  O   UNL A   1      42.655  18.684  25.813  1.00  0.00    -0.269 OA
BRANCH  30  33
ATOM     33  C   UNL A   1      42.186  20.914  26.414  1.00  0.00     0.039 A 
ATOM     34  C   UNL A   1      42.346  21.845  25.383  1.00  0.00     0.014 A 
ATOM     35  C   UNL A   1      42.417  21.300  27.738  1.00  0.00     0.014 A 
ATOM     36  C   UNL A   1      42.683  23.167  25.684  1.00  0.00     0.010 A 
ATOM     37  C   UNL A   1      42.671  22.638  28.043  1.00  0.00     0.010 A 
ATOM     38  C   UNL A   1      42.815  23.586  27.018  1.00  0.00    -0.014 A 
BRANCH  38  39
ATOM     39  C   UNL A   1      43.118  25.006  27.348  1.00  0.00     0.031 A 
ATOM     40  C   UNL A   1      44.489  25.569  27.088  1.00  0.00     0.074 A 
ATOM     41  C   UNL A   1      42.168  25.777  27.915  1.00  0.00     0.049 A 
ATOM     42  N   UNL A   1      44.956  26.764  27.347  1.00  0.00    -0.248 NA
ATOM     43  C   UNL A   1      45.474  24.661  26.479  1.00  0.00     0.031 C 
ATOM     44  C   UNL A   1      40.808  25.339  28.240  1.00  0.00     0.029 A 
ATOM     45  N   UNL A   1      42.196  27.090  28.318  1.00  0.00    -0.354 N 
ATOM     46  C   UNL A   1      46.287  26.749  26.944  1.00  0.00     0.074 A 
ATOM     47  C   UNL A   1      46.568  25.407  26.481  1.00  0.00     0.031 C 
ATOM     48  C   UNL A   1      40.125  26.372  28.759  1.00  0.00     0.029 A 
ATOM     49  C   UNL A   1      41.008  27.530  28.856  1.00  0.00     0.049 A 
ATOM     50  H   UNL A   1      42.991  27.662  28.231  1.00  0.00     0.167 HD
ATOM     51  C   UNL A   1      47.187  27.766  26.940  1.00  0.00     0.034 A 
ATOM     52  C   UNL A   1      40.670  28.725  29.382  1.00  0.00     0.034 A 
ATOM     53  C   UNL A   1      46.887  29.102  27.396  1.00  0.00     0.049 A 
ATOM     54  C   UNL A   1      41.702  29.826  29.407  1.00  0.00     0.074 A 
ATOM     55  C   UNL A   1      47.707  30.219  27.383  1.00  0.00     0.029 A 
ATOM     56  N   UNL A   1      45.681  29.504  27.957  1.00  0.00    -0.354 N 
ATOM     57  N   UNL A   1      42.941  29.808  28.975  1.00  0.00    -0.248 NA
ATOM     58  C   UNL A   1      41.285  31.111  29.985  1.00  0.00     0.031 C 
ATOM     59  C   UNL A   1      47.028  31.268  28.012  1.00  0.00     0.029 A 
ATOM     60  C   UNL A   1      45.751  30.837  28.332  1.00  0.00     0.049 A 
ATOM     61  H   UNL A   1      44.893  28.926  28.072  1.00  0.00     0.167 HD
ATOM     62  C   UNL A   1      43.439  31.091  29.194  1.00  0.00     0.074 A 
ATOM     63  C   UNL A   1      42.360  31.858  29.783  1.00  0.00     0.031 C 
ATOM     64  C   UNL A   1      44.672  31.592  28.928  1.00  0.00     0.034 A 
BRANCH  51  65
ATOM     65  C   UNL A   1      48.587  27.461  26.459  1.00  0.00     0.023 A 
ATOM     66  C   UNL A   1      49.654  27.264  27.353  1.00  0.00     0.031 A 
ATOM     67  C   UNL A   1      48.861  27.377  25.082  1.00  0.00     0.131 A 
ATOM     68  C   UNL A   1      50.954  27.070  26.861  1.00  0.00     0.055 A 
ATOM     69  C   UNL A   1      50.141  27.097  24.600  1.00  0.00     0.041 A 
ATOM     70  F   UNL A   1      47.890  27.579  24.177  1.00  0.00    -0.206 F 
ATOM     71  C   UNL A   1      51.201  26.956  25.491  1.00  0.00     0.022 A 
BRANCH  68  72
ATOM     72  S   UNL A   1      52.338  27.119  28.033  1.00  0.00     0.124 S 
ATOM     73  O   UNL A   1      52.953  28.404  27.709  1.00  0.00    -0.237 OA
ATOM     74  O   UNL A   1      51.663  27.041  29.322  1.00  0.00    -0.237 OA
ATOM     75  O   UNL A   1      53.134  25.947  27.672  1.00  0.00    -0.744 OA
ENDBRANCH  68  72
ENDBRANCH  51  65
BRANCH  52  76
ATOM     76  C   UNL A   1      39.304  28.952  29.939  1.00  0.00     0.023 A 
ATOM     77  C   UNL A   1      38.305  29.574  29.173  1.00  0.00     0.031 A 
ATOM     78  C   UNL A   1      38.993  28.603  31.265  1.00  0.00     0.131 A 
ATOM     79  C   UNL A   1      37.063  29.877  29.754  1.00  0.00     0.055 A 
ATOM     80  C   UNL A   1      37.736  28.850  31.820  1.00  0.00     0.041 A 
ATOM     81  F   UNL A   1      39.910  28.005  32.043  1.00  0.00    -0.206 F 
ATOM     82  C   UNL A   1      36.767  29.505  31.067  1.00  0.00     0.022 A 
BRANCH  79  83
ATOM     83  S   UNL A   1      35.875  30.860  28.799  1.00  0.00     0.124 S 
ATOM     84  O   UNL A   1      34.971  29.830  28.300  1.00  0.00    -0.237 OA
ATOM     85  O   UNL A   1      35.334  31.752  29.817  1.00  0.00    -0.237 OA
ATOM     86  O   UNL A   1      36.707  31.506  27.784  1.00  0.00    -0.744 OA
ENDBRANCH  79  83
ENDBRANCH  52  76
BRANCH  64  87
ATOM     87  C   UNL A   1      44.902  33.055  29.225  1.00  0.00     0.023 A 
ATOM     88  C   UNL A   1      44.504  34.067  28.335  1.00  0.00     0.031 A 
ATOM     89  C   UNL A   1      45.540  33.440  30.419  1.00  0.00     0.131 A 
ATOM     90  C   UNL A   1      44.803  35.408  28.622  1.00  0.00     0.055 A 
ATOM     91  C   UNL A   1      45.771  34.780  30.732  1.00  0.00     0.041 A 
ATOM     92  F   UNL A   1      45.947  32.517  31.306  1.00  0.00    -0.206 F 
ATOM     93  C   UNL A   1      45.414  35.772  29.825  1.00  0.00     0.022 A 
BRANCH  90  94
ATOM     94  S   UNL A   1      44.472  36.665  27.356  1.00  0.00     0.124 S 
ATOM     95  O   UNL A   1      43.493  35.990  26.509  1.00  0.00    -0.237 OA
ATOM     96  O   UNL A   1      43.968  37.781  28.149  1.00  0.00    -0.237 OA
ATOM     97  O   UNL A   1      45.780  36.883  26.740  1.00  0.00    -0.744 OA
ENDBRANCH  90  94
ENDBRANCH  64  87
ENDBRANCH  38  39
ENDBRANCH  30  33
ENDBRANCH  28  29
ENDBRANCH  27  28
ENDBRANCH   1  27
TORSDOF 19
ENDMDL
