MODEL 1
REMARK VINA RESULT:     -12.1      0.000      0.000
REMARK SMILES COc1ccc(S(=O)(=O)N2C[C@H](C)C[C@H](C)C2)cc1C(=O)NCCCCNC(=O)c1ccc(-c2c3nc(c(-c4cc(S(=O)(=O)[O-])ccc4F)c4ccc([nH]4)c(-c4cc(S(=O)(=O)[O-])ccc4F)c4nc(c(-c5cc(S(=O)(=O)[O-])ccc5F)c5ccc2[nH]5)C=C4)C=C3)cc1
REMARK SMILES IDX 25 1 24 2 23 3 22 4 20 5 21 6 19 8 3 9 4 10 5 11 18 12 6 13
REMARK SMILES IDX 2 14 1 15 7 16 8 17 9 18 10 19 11 20 17 21 12 22 15 23 13 24
REMARK SMILES IDX 14 25 16 26 26 27 27 28 28 29 29 31 30 32 31 33 92 34 32 35
REMARK SMILES IDX 91 36 33 37 34 38 35 39 85 40 36 41 90 42 84 43 86 44 37 45
REMARK SMILES IDX 89 46 83 47 82 48 38 50 70 51 50 52 69 53 51 54 54 55 68 56
REMARK SMILES IDX 87 57 52 58 53 59 67 61 88 62 55 63 39 64 40 65 48 66 41 67
REMARK SMILES IDX 47 68 49 69 46 70 42 71 43 72 44 73 45 74 71 75 72 76 80 77
REMARK SMILES IDX 73 78 79 79 81 80 78 81 74 82 75 83 76 84 77 85 56 86 57 87
REMARK SMILES IDX 65 88 58 89 64 90 66 91 63 92 59 93 60 94 61 95 62 96
REMARK H PARENT 22 7 27 30 86 49 54 60
REMARK Flexibility Score: inf
ROOT
ATOM      1  C   UNL A   1      31.901  31.008  26.915  1.00  0.00     0.023 C 
ENDROOT
BRANCH   1   2
ATOM      2  C   UNL A   1      32.028  30.208  25.612  1.00  0.00     0.023 C 
BRANCH   2   3
ATOM      3  C   UNL A   1      33.131  29.154  25.564  1.00  0.00     0.116 C 
BRANCH   3   4
ATOM      4  N   UNL A   1      33.734  29.022  24.256  1.00  0.00    -0.352 N 
ATOM      5  C   UNL A   1      33.470  28.133  23.256  1.00  0.00     0.255 C 
ATOM      6  O   UNL A   1      34.073  28.264  22.189  1.00  0.00    -0.269 OA
ATOM      7  H   UNL A   1      34.446  29.672  24.059  1.00  0.00     0.163 HD
BRANCH   5   8
ATOM      8  C   UNL A   1      32.548  26.980  23.403  1.00  0.00     0.083 A 
ATOM      9  C   UNL A   1      31.161  27.027  23.520  1.00  0.00     0.131 A 
ATOM     10  C   UNL A   1      30.431  25.830  23.567  1.00  0.00     0.048 A 
ATOM     11  C   UNL A   1      31.065  24.592  23.379  1.00  0.00     0.025 A 
ATOM     12  C   UNL A   1      33.163  25.727  23.255  1.00  0.00     0.039 A 
ATOM     13  C   UNL A   1      32.447  24.541  23.191  1.00  0.00     0.083 A 
BRANCH   9  14
ATOM     14  O   UNL A   1      30.447  28.187  23.621  1.00  0.00    -0.496 OA
ATOM     15  C   UNL A   1      29.107  28.021  23.152  1.00  0.00     0.278 C 
ENDBRANCH   9  14
BRANCH  13  16
ATOM     16  S   UNL A   1      33.209  22.970  22.796  1.00  0.00     0.243 S 
ATOM     17  O   UNL A   1      32.114  22.057  22.541  1.00  0.00    -0.207 OA
ATOM     18  O   UNL A   1      34.186  23.266  21.767  1.00  0.00    -0.207 OA
BRANCH  16  19
ATOM     19  N   UNL A   1      34.064  22.410  24.137  1.00  0.00    -0.197 NA
ATOM     20  C   UNL A   1      35.522  22.562  24.274  1.00  0.00     0.105 C 
ATOM     21  C   UNL A   1      33.398  21.921  25.355  1.00  0.00     0.105 C 
ATOM     22  C   UNL A   1      35.830  23.604  25.353  1.00  0.00     0.001 C 
ATOM     23  C   UNL A   1      33.548  22.951  26.469  1.00  0.00     0.001 C 
ATOM     24  C   UNL A   1      37.327  23.716  25.634  1.00  0.00     0.009 C 
ATOM     25  C   UNL A   1      35.028  23.367  26.658  1.00  0.00     0.009 C 
ATOM     26  C   UNL A   1      32.928  22.476  27.781  1.00  0.00     0.009 C 
ENDBRANCH  16  19
ENDBRANCH  13  16
ENDBRANCH   5   8
ENDBRANCH   3   4
ENDBRANCH   2   3
ENDBRANCH   1   2
BRANCH   1  27
ATOM     27  C   UNL A   1      33.089  31.884  27.305  1.00  0.00     0.116 C 
BRANCH  27  28
ATOM     28  N   UNL A   1      32.724  33.258  27.607  1.00  0.00    -0.352 N 
ATOM     29  C   UNL A   1      33.254  34.146  28.512  1.00  0.00     0.251 C 
ATOM     30  H   UNL A   1      31.974  33.610  27.075  1.00  0.00     0.163 HD
ATOM     31  O   UNL A   1      32.708  35.234  28.677  1.00  0.00    -0.269 OA
BRANCH  29  32
ATOM     32  C   UNL A   1      34.438  33.781  29.319  1.00  0.00     0.039 A 
ATOM     33  C   UNL A   1      34.254  32.993  30.458  1.00  0.00     0.014 A 
ATOM     34  C   UNL A   1      35.722  34.194  28.956  1.00  0.00     0.014 A 
ATOM     35  C   UNL A   1      35.363  32.534  31.172  1.00  0.00     0.010 A 
ATOM     36  C   UNL A   1      36.830  33.675  29.624  1.00  0.00     0.010 A 
ATOM     37  C   UNL A   1      36.663  32.823  30.727  1.00  0.00    -0.014 A 
BRANCH  37  38
ATOM     38  C   UNL A   1      37.855  32.210  31.372  1.00  0.00     0.031 A 
ATOM     39  C   UNL A   1      38.581  31.074  30.706  1.00  0.00     0.074 A 
ATOM     40  C   UNL A   1      38.232  32.624  32.599  1.00  0.00     0.049 A 
ATOM     41  N   UNL A   1      39.569  30.343  31.158  1.00  0.00    -0.248 NA
ATOM     42  C   UNL A   1      38.115  30.693  29.365  1.00  0.00     0.031 C 
ATOM     43  C   UNL A   1      37.583  33.690  33.366  1.00  0.00     0.029 A 
ATOM     44  N   UNL A   1      39.241  32.193  33.423  1.00  0.00    -0.354 N 
ATOM     45  C   UNL A   1      39.834  29.406  30.165  1.00  0.00     0.074 A 
ATOM     46  C   UNL A   1      38.864  29.629  29.114  1.00  0.00     0.031 C 
ATOM     47  C   UNL A   1      38.223  33.843  34.537  1.00  0.00     0.029 A 
ATOM     48  C   UNL A   1      39.293  32.855  34.628  1.00  0.00     0.049 A 
ATOM     49  H   UNL A   1      39.870  31.477  33.175  1.00  0.00     0.167 HD
ATOM     50  C   UNL A   1      40.808  28.462  30.127  1.00  0.00     0.034 A 
ATOM     51  C   UNL A   1      40.098  32.678  35.695  1.00  0.00     0.034 A 
ATOM     52  C   UNL A   1      41.775  28.261  31.179  1.00  0.00     0.049 A 
ATOM     53  C   UNL A   1      41.153  31.603  35.642  1.00  0.00     0.074 A 
ATOM     54  C   UNL A   1      42.837  27.372  31.217  1.00  0.00     0.029 A 
ATOM     55  N   UNL A   1      41.795  28.949  32.385  1.00  0.00    -0.354 N 
ATOM     56  N   UNL A   1      41.418  30.753  34.677  1.00  0.00    -0.248 NA
ATOM     57  C   UNL A   1      42.020  31.467  36.819  1.00  0.00     0.031 C 
ATOM     58  C   UNL A   1      43.458  27.480  32.466  1.00  0.00     0.029 A 
ATOM     59  C   UNL A   1      42.829  28.485  33.185  1.00  0.00     0.049 A 
ATOM     60  H   UNL A   1      41.166  29.663  32.637  1.00  0.00     0.167 HD
ATOM     61  C   UNL A   1      42.501  30.001  35.121  1.00  0.00     0.074 A 
ATOM     62  C   UNL A   1      42.847  30.506  36.434  1.00  0.00     0.031 C 
ATOM     63  C   UNL A   1      43.154  28.988  34.499  1.00  0.00     0.034 A 
BRANCH  50  64
ATOM     64  C   UNL A   1      40.854  27.564  28.914  1.00  0.00     0.023 A 
ATOM     65  C   UNL A   1      41.832  27.723  27.917  1.00  0.00     0.031 A 
ATOM     66  C   UNL A   1      39.891  26.555  28.736  1.00  0.00     0.131 A 
ATOM     67  C   UNL A   1      41.780  26.943  26.753  1.00  0.00     0.055 A 
ATOM     68  C   UNL A   1      39.894  25.726  27.612  1.00  0.00     0.041 A 
ATOM     69  F   UNL A   1      38.921  26.367  29.643  1.00  0.00    -0.206 F 
ATOM     70  C   UNL A   1      40.832  25.927  26.604  1.00  0.00     0.022 A 
BRANCH  67  71
ATOM     71  S   UNL A   1      42.876  27.372  25.373  1.00  0.00     0.124 S 
ATOM     72  O   UNL A   1      44.079  27.808  26.079  1.00  0.00    -0.237 OA
ATOM     73  O   UNL A   1      42.983  26.110  24.650  1.00  0.00    -0.237 OA
ATOM     74  O   UNL A   1      42.153  28.432  24.676  1.00  0.00    -0.744 OA
ENDBRANCH  67  71
ENDBRANCH  50  64
BRANCH  51  75
ATOM     75  C   UNL A   1      39.936  33.521  36.913  1.00  0.00     0.023 A 
ATOM     76  C   UNL A   1      39.275  33.028  38.049  1.00  0.00     0.031 A 
ATOM     77  C   UNL A   1      40.406  34.847  36.946  1.00  0.00     0.131 A 
ATOM     78  C   UNL A   1      39.060  33.867  39.152  1.00  0.00     0.055 A 
ATOM     79  C   UNL A   1      40.233  35.662  38.066  1.00  0.00     0.041 A 
ATOM     80  F   UNL A   1      41.051  35.365  35.889  1.00  0.00    -0.206 F 
ATOM     81  C   UNL A   1      39.545  35.176  39.173  1.00  0.00     0.022 A 
BRANCH  78  82
ATOM     82  S   UNL A   1      38.064  33.245  40.534  1.00  0.00     0.124 S 
ATOM     83  O   UNL A   1      38.813  32.057  40.929  1.00  0.00    -0.237 OA
ATOM     84  O   UNL A   1      38.105  34.368  41.466  1.00  0.00    -0.237 OA
ATOM     85  O   UNL A   1      36.760  32.989  39.926  1.00  0.00    -0.744 OA
ENDBRANCH  78  82
ENDBRANCH  51  75
BRANCH  63  86
ATOM     86  C   UNL A   1      44.335  28.389  35.221  1.00  0.00     0.023 A 
ATOM     87  C   UNL A   1      44.216  27.216  35.986  1.00  0.00     0.031 A 
ATOM     88  C   UNL A   1      45.595  29.011  35.151  1.00  0.00     0.131 A 
ATOM     89  C   UNL A   1      45.327  26.728  36.691  1.00  0.00     0.055 A 
ATOM     90  C   UNL A   1      46.709  28.490  35.810  1.00  0.00     0.041 A 
ATOM     91  F   UNL A   1      45.762  30.136  34.437  1.00  0.00    -0.206 F 
ATOM     92  C   UNL A   1      46.576  27.348  36.596  1.00  0.00     0.022 A 
BRANCH  89  93
ATOM     93  S   UNL A   1      45.101  25.310  37.801  1.00  0.00     0.124 S 
ATOM     94  O   UNL A   1      45.391  24.185  36.917  1.00  0.00    -0.237 OA
ATOM     95  O   UNL A   1      46.087  25.569  38.845  1.00  0.00    -0.237 OA
ATOM     96  O   UNL A   1      43.707  25.423  38.223  1.00  0.00    -0.744 OA
ENDBRANCH  89  93
ENDBRANCH  63  86
ENDBRANCH  37  38
ENDBRANCH  29  32
ENDBRANCH  27  28
ENDBRANCH   1  27
TORSDOF 17
ENDMDL
MODEL 2
REMARK VINA RESULT:     -12.1      5.509     11.309
REMARK SMILES COc1ccc(S(=O)(=O)N2C[C@H](C)C[C@H](C)C2)cc1C(=O)NCCCCNC(=O)c1ccc(-c2c3nc(c(-c4cc(S(=O)(=O)[O-])ccc4F)c4ccc([nH]4)c(-c4cc(S(=O)(=O)[O-])ccc4F)c4nc(c(-c5cc(S(=O)(=O)[O-])ccc5F)c5ccc2[nH]5)C=C4)C=C3)cc1
REMARK SMILES IDX 25 1 24 2 23 3 22 4 20 5 21 6 19 8 3 9 4 10 5 11 18 12 6 13
REMARK SMILES IDX 2 14 1 15 7 16 8 17 9 18 10 19 11 20 17 21 12 22 15 23 13 24
REMARK SMILES IDX 14 25 16 26 26 27 27 28 28 29 29 31 30 32 31 33 92 34 32 35
REMARK SMILES IDX 91 36 33 37 34 38 35 39 85 40 36 41 90 42 84 43 86 44 37 45
REMARK SMILES IDX 89 46 83 47 82 48 38 50 70 51 50 52 69 53 51 54 54 55 68 56
REMARK SMILES IDX 87 57 52 58 53 59 67 61 88 62 55 63 39 64 40 65 48 66 41 67
REMARK SMILES IDX 47 68 49 69 46 70 42 71 43 72 44 73 45 74 71 75 72 76 80 77
REMARK SMILES IDX 73 78 79 79 81 80 78 81 74 82 75 83 76 84 77 85 56 86 57 87
REMARK SMILES IDX 65 88 58 89 64 90 66 91 63 92 59 93 60 94 61 95 62 96
REMARK H PARENT 22 7 27 30 86 49 54 60
REMARK Flexibility Score: inf
ROOT
ATOM      1  C   UNL A   1      37.569  20.973  25.097  1.00  0.00     0.023 C 
ENDROOT
BRANCH   1   2
ATOM      2  C   UNL A   1      36.898  22.152  24.382  1.00  0.00     0.023 C 
BRANCH   2   3
ATOM      3  C   UNL A   1      36.529  23.355  25.247  1.00  0.00     0.116 C 
BRANCH   3   4
ATOM      4  N   UNL A   1      35.788  22.995  26.435  1.00  0.00    -0.352 N 
ATOM      5  C   UNL A   1      34.451  22.784  26.603  1.00  0.00     0.255 C 
ATOM      6  O   UNL A   1      34.057  22.411  27.709  1.00  0.00    -0.269 OA
ATOM      7  H   UNL A   1      36.333  22.886  27.248  1.00  0.00     0.163 HD
BRANCH   5   8
ATOM      8  C   UNL A   1      33.439  23.044  25.549  1.00  0.00     0.083 A 
ATOM      9  C   UNL A   1      33.067  22.187  24.517  1.00  0.00     0.131 A 
ATOM     10  C   UNL A   1      32.026  22.559  23.652  1.00  0.00     0.048 A 
ATOM     11  C   UNL A   1      31.280  23.725  23.883  1.00  0.00     0.025 A 
ATOM     12  C   UNL A   1      32.702  24.224  25.735  1.00  0.00     0.039 A 
ATOM     13  C   UNL A   1      31.604  24.555  24.957  1.00  0.00     0.083 A 
BRANCH   9  14
ATOM     14  O   UNL A   1      33.676  20.991  24.267  1.00  0.00    -0.496 OA
ATOM     15  C   UNL A   1      32.751  19.903  24.345  1.00  0.00     0.278 C 
ENDBRANCH   9  14
BRANCH  13  16
ATOM     16  S   UNL A   1      30.541  25.948  25.324  1.00  0.00     0.243 S 
ATOM     17  O   UNL A   1      29.479  25.900  24.340  1.00  0.00    -0.207 OA
ATOM     18  O   UNL A   1      30.249  25.845  26.740  1.00  0.00    -0.207 OA
BRANCH  16  19
ATOM     19  N   UNL A   1      31.402  27.381  25.105  1.00  0.00    -0.197 NA
ATOM     20  C   UNL A   1      31.958  28.157  26.225  1.00  0.00     0.105 C 
ATOM     21  C   UNL A   1      31.840  27.849  23.780  1.00  0.00     0.105 C 
ATOM     22  C   UNL A   1      33.483  28.028  26.232  1.00  0.00     0.001 C 
ATOM     23  C   UNL A   1      33.346  27.653  23.641  1.00  0.00     0.001 C 
ATOM     24  C   UNL A   1      34.131  28.914  27.294  1.00  0.00     0.009 C 
ATOM     25  C   UNL A   1      34.110  28.274  24.836  1.00  0.00     0.009 C 
ATOM     26  C   UNL A   1      33.874  28.175  22.306  1.00  0.00     0.009 C 
ENDBRANCH  16  19
ENDBRANCH  13  16
ENDBRANCH   5   8
ENDBRANCH   3   4
ENDBRANCH   2   3
ENDBRANCH   1   2
BRANCH   1  27
ATOM     27  C   UNL A   1      38.901  21.253  25.788  1.00  0.00     0.116 C 
BRANCH  27  28
ATOM     28  N   UNL A   1      39.772  20.091  25.865  1.00  0.00    -0.352 N 
ATOM     29  C   UNL A   1      41.122  20.001  26.104  1.00  0.00     0.251 C 
ATOM     30  H   UNL A   1      39.320  19.229  25.723  1.00  0.00     0.163 HD
ATOM     31  O   UNL A   1      41.677  18.908  26.012  1.00  0.00    -0.269 OA
BRANCH  29  32
ATOM     32  C   UNL A   1      41.914  21.209  26.417  1.00  0.00     0.039 A 
ATOM     33  C   UNL A   1      42.285  22.056  25.370  1.00  0.00     0.014 A 
ATOM     34  C   UNL A   1      42.279  21.521  27.729  1.00  0.00     0.014 A 
ATOM     35  C   UNL A   1      42.929  23.264  25.648  1.00  0.00     0.010 A 
ATOM     36  C   UNL A   1      42.854  22.759  28.012  1.00  0.00     0.010 A 
ATOM     37  C   UNL A   1      43.167  23.652  26.976  1.00  0.00    -0.014 A 
BRANCH  37  38
ATOM     38  C   UNL A   1      43.698  25.003  27.303  1.00  0.00     0.031 A 
ATOM     39  C   UNL A   1      42.798  26.054  27.891  1.00  0.00     0.074 A 
ATOM     40  C   UNL A   1      44.976  25.306  26.990  1.00  0.00     0.049 A 
ATOM     41  N   UNL A   1      43.049  27.314  28.142  1.00  0.00    -0.248 NA
ATOM     42  C   UNL A   1      41.426  25.637  28.214  1.00  0.00     0.031 C 
ATOM     43  C   UNL A   1      45.936  24.386  26.379  1.00  0.00     0.029 A 
ATOM     44  N   UNL A   1      45.682  26.475  27.131  1.00  0.00    -0.354 N 
ATOM     45  C   UNL A   1      41.864  27.846  28.638  1.00  0.00     0.074 A 
ATOM     46  C   UNL A   1      40.882  26.782  28.598  1.00  0.00     0.031 C 
ATOM     47  C   UNL A   1      47.110  25.017  26.216  1.00  0.00     0.029 A 
ATOM     48  C   UNL A   1      46.974  26.400  26.663  1.00  0.00     0.049 A 
ATOM     49  H   UNL A   1      45.300  27.290  27.529  1.00  0.00     0.167 HD
ATOM     50  C   UNL A   1      41.624  29.098  29.103  1.00  0.00     0.034 A 
ATOM     51  C   UNL A   1      47.937  27.340  26.586  1.00  0.00     0.034 A 
ATOM     52  C   UNL A   1      42.618  30.144  29.148  1.00  0.00     0.049 A 
ATOM     53  C   UNL A   1      47.638  28.732  27.079  1.00  0.00     0.074 A 
ATOM     54  C   UNL A   1      42.496  31.429  29.650  1.00  0.00     0.029 A 
ATOM     55  N   UNL A   1      43.915  30.031  28.663  1.00  0.00    -0.354 N 
ATOM     56  N   UNL A   1      46.524  29.207  27.585  1.00  0.00    -0.248 NA
ATOM     57  C   UNL A   1      48.728  29.713  26.995  1.00  0.00     0.031 C 
ATOM     58  C   UNL A   1      43.696  32.110  29.414  1.00  0.00     0.029 A 
ATOM     59  C   UNL A   1      44.593  31.230  28.827  1.00  0.00     0.049 A 
ATOM     60  H   UNL A   1      44.298  29.218  28.262  1.00  0.00     0.167 HD
ATOM     61  C   UNL A   1      46.789  30.535  27.906  1.00  0.00     0.074 A 
ATOM     62  C   UNL A   1      48.171  30.781  27.547  1.00  0.00     0.031 C 
ATOM     63  C   UNL A   1      45.967  31.466  28.452  1.00  0.00     0.034 A 
BRANCH  50  64
ATOM     64  C   UNL A   1      40.223  29.404  29.576  1.00  0.00     0.023 A 
ATOM     65  C   UNL A   1      39.909  29.486  30.944  1.00  0.00     0.031 A 
ATOM     66  C   UNL A   1      39.181  29.588  28.650  1.00  0.00     0.131 A 
ATOM     67  C   UNL A   1      38.578  29.664  31.348  1.00  0.00     0.055 A 
ATOM     68  C   UNL A   1      37.870  29.848  29.059  1.00  0.00     0.041 A 
ATOM     69  F   UNL A   1      39.414  29.503  27.331  1.00  0.00    -0.206 F 
ATOM     70  C   UNL A   1      37.559  29.871  30.415  1.00  0.00     0.022 A 
BRANCH  67  71
ATOM     71  S   UNL A   1      38.176  29.476  33.107  1.00  0.00     0.124 S 
ATOM     72  O   UNL A   1      37.831  30.846  33.478  1.00  0.00    -0.237 OA
ATOM     73  O   UNL A   1      37.071  28.525  33.077  1.00  0.00    -0.237 OA
ATOM     74  O   UNL A   1      39.417  28.973  33.692  1.00  0.00    -0.744 OA
ENDBRANCH  67  71
ENDBRANCH  50  64
BRANCH  51  75
ATOM     75  C   UNL A   1      49.269  27.012  26.005  1.00  0.00     0.023 A 
ATOM     76  C   UNL A   1      49.635  27.472  24.731  1.00  0.00     0.031 A 
ATOM     77  C   UNL A   1      50.184  26.199  26.701  1.00  0.00     0.131 A 
ATOM     78  C   UNL A   1      50.860  27.080  24.170  1.00  0.00     0.055 A 
ATOM     79  C   UNL A   1      51.422  25.853  26.160  1.00  0.00     0.041 A 
ATOM     80  F   UNL A   1      49.887  25.738  27.926  1.00  0.00    -0.206 F 
ATOM     81  C   UNL A   1      51.761  26.285  24.881  1.00  0.00     0.022 A 
BRANCH  78  82
ATOM     82  S   UNL A   1      51.226  27.564  22.461  1.00  0.00     0.124 S 
ATOM     83  O   UNL A   1      52.641  27.228  22.354  1.00  0.00    -0.237 OA
ATOM     84  O   UNL A   1      50.306  26.721  21.704  1.00  0.00    -0.237 OA
ATOM     85  O   UNL A   1      50.920  28.993  22.440  1.00  0.00    -0.744 OA
ENDBRANCH  78  82
ENDBRANCH  51  75
BRANCH  63  86
ATOM     86  C   UNL A   1      46.560  32.825  28.729  1.00  0.00     0.023 A 
ATOM     87  C   UNL A   1      46.472  33.874  27.798  1.00  0.00     0.031 A 
ATOM     88  C   UNL A   1      47.235  33.066  29.939  1.00  0.00     0.131 A 
ATOM     89  C   UNL A   1      47.091  35.103  28.072  1.00  0.00     0.055 A 
ATOM     90  C   UNL A   1      47.801  34.308  30.229  1.00  0.00     0.041 A 
ATOM     91  F   UNL A   1      47.351  32.098  30.862  1.00  0.00    -0.206 F 
ATOM     92  C   UNL A   1      47.742  35.332  29.287  1.00  0.00     0.022 A 
BRANCH  89  93
ATOM     93  S   UNL A   1      47.103  36.380  26.783  1.00  0.00     0.124 S 
ATOM     94  O   UNL A   1      46.283  37.426  27.386  1.00  0.00    -0.237 OA
ATOM     95  O   UNL A   1      48.524  36.681  26.652  1.00  0.00    -0.237 OA
ATOM     96  O   UNL A   1      46.503  35.710  25.631  1.00  0.00    -0.744 OA
ENDBRANCH  89  93
ENDBRANCH  63  86
ENDBRANCH  37  38
ENDBRANCH  29  32
ENDBRANCH  27  28
ENDBRANCH   1  27
TORSDOF 17
ENDMDL
MODEL 3
REMARK VINA RESULT:     -12.1      1.622      2.219
REMARK SMILES COc1ccc(S(=O)(=O)N2C[C@H](C)C[C@H](C)C2)cc1C(=O)NCCCCNC(=O)c1ccc(-c2c3nc(c(-c4cc(S(=O)(=O)[O-])ccc4F)c4ccc([nH]4)c(-c4cc(S(=O)(=O)[O-])ccc4F)c4nc(c(-c5cc(S(=O)(=O)[O-])ccc5F)c5ccc2[nH]5)C=C4)C=C3)cc1
REMARK SMILES IDX 25 1 24 2 23 3 22 4 20 5 21 6 19 8 3 9 4 10 5 11 18 12 6 13
REMARK SMILES IDX 2 14 1 15 7 16 8 17 9 18 10 19 11 20 17 21 12 22 15 23 13 24
REMARK SMILES IDX 14 25 16 26 26 27 27 28 28 29 29 31 30 32 31 33 92 34 32 35
REMARK SMILES IDX 91 36 33 37 34 38 35 39 85 40 36 41 90 42 84 43 86 44 37 45
REMARK SMILES IDX 89 46 83 47 82 48 38 50 70 51 50 52 69 53 51 54 54 55 68 56
REMARK SMILES IDX 87 57 52 58 53 59 67 61 88 62 55 63 39 64 40 65 48 66 41 67
REMARK SMILES IDX 47 68 49 69 46 70 42 71 43 72 44 73 45 74 71 75 72 76 80 77
REMARK SMILES IDX 73 78 79 79 81 80 78 81 74 82 75 83 76 84 77 85 56 86 57 87
REMARK SMILES IDX 65 88 58 89 64 90 66 91 63 92 59 93 60 94 61 95 62 96
REMARK H PARENT 22 7 27 30 86 49 54 60
REMARK Flexibility Score: inf
ROOT
ATOM      1  C   UNL A   1      32.152  30.563  26.505  1.00  0.00     0.023 C 
ENDROOT
BRANCH   1   2
ATOM      2  C   UNL A   1      31.772  29.315  27.311  1.00  0.00     0.023 C 
BRANCH   2   3
ATOM      3  C   UNL A   1      32.034  27.967  26.646  1.00  0.00     0.116 C 
BRANCH   3   4
ATOM      4  N   UNL A   1      30.987  26.999  26.890  1.00  0.00    -0.352 N 
ATOM      5  C   UNL A   1      30.470  26.043  26.067  1.00  0.00     0.255 C 
ATOM      6  O   UNL A   1      29.621  25.278  26.528  1.00  0.00    -0.269 OA
ATOM      7  H   UNL A   1      30.586  27.038  27.788  1.00  0.00     0.163 HD
BRANCH   5   8
ATOM      8  C   UNL A   1      30.823  25.916  24.631  1.00  0.00     0.083 A 
ATOM      9  C   UNL A   1      30.622  26.865  23.632  1.00  0.00     0.131 A 
ATOM     10  C   UNL A   1      31.095  26.613  22.335  1.00  0.00     0.048 A 
ATOM     11  C   UNL A   1      31.868  25.475  22.059  1.00  0.00     0.025 A 
ATOM     12  C   UNL A   1      31.567  24.767  24.319  1.00  0.00     0.039 A 
ATOM     13  C   UNL A   1      32.133  24.553  23.072  1.00  0.00     0.083 A 
BRANCH   9  14
ATOM     14  O   UNL A   1      29.956  28.041  23.826  1.00  0.00    -0.496 OA
ATOM     15  C   UNL A   1      30.725  29.160  23.377  1.00  0.00     0.278 C 
ENDBRANCH   9  14
BRANCH  13  16
ATOM     16  S   UNL A   1      33.251  23.196  22.736  1.00  0.00     0.243 S 
ATOM     17  O   UNL A   1      32.508  22.274  21.903  1.00  0.00    -0.207 OA
ATOM     18  O   UNL A   1      34.471  23.815  22.255  1.00  0.00    -0.207 OA
BRANCH  16  19
ATOM     19  N   UNL A   1      33.634  22.416  24.180  1.00  0.00    -0.197 NA
ATOM     20  C   UNL A   1      32.810  21.336  24.746  1.00  0.00     0.105 C 
ATOM     21  C   UNL A   1      34.920  22.608  24.869  1.00  0.00     0.105 C 
ATOM     22  C   UNL A   1      33.548  20.001  24.609  1.00  0.00     0.001 C 
ATOM     23  C   UNL A   1      35.786  21.365  24.692  1.00  0.00     0.001 C 
ATOM     24  C   UNL A   1      32.801  18.858  25.293  1.00  0.00     0.009 C 
ATOM     25  C   UNL A   1      35.019  20.080  25.091  1.00  0.00     0.009 C 
ATOM     26  C   UNL A   1      37.115  21.478  25.435  1.00  0.00     0.009 C 
ENDBRANCH  16  19
ENDBRANCH  13  16
ENDBRANCH   5   8
ENDBRANCH   3   4
ENDBRANCH   2   3
ENDBRANCH   1   2
BRANCH   1  27
ATOM     27  C   UNL A   1      33.251  31.451  27.084  1.00  0.00     0.116 C 
BRANCH  27  28
ATOM     28  N   UNL A   1      32.820  32.814  27.347  1.00  0.00    -0.352 N 
ATOM     29  C   UNL A   1      33.277  33.737  28.257  1.00  0.00     0.251 C 
ATOM     30  H   UNL A   1      32.078  33.126  26.780  1.00  0.00     0.163 HD
ATOM     31  O   UNL A   1      32.683  34.804  28.381  1.00  0.00    -0.269 OA
BRANCH  29  32
ATOM     32  C   UNL A   1      34.442  33.433  29.116  1.00  0.00     0.039 A 
ATOM     33  C   UNL A   1      34.239  32.680  30.274  1.00  0.00     0.014 A 
ATOM     34  C   UNL A   1      35.726  33.870  28.783  1.00  0.00     0.014 A 
ATOM     35  C   UNL A   1      35.335  32.277  31.042  1.00  0.00     0.010 A 
ATOM     36  C   UNL A   1      36.823  33.406  29.506  1.00  0.00     0.010 A 
ATOM     37  C   UNL A   1      36.641  32.588  30.631  1.00  0.00    -0.014 A 
BRANCH  37  38
ATOM     38  C   UNL A   1      37.826  32.030  31.338  1.00  0.00     0.031 A 
ATOM     39  C   UNL A   1      38.653  30.948  30.701  1.00  0.00     0.074 A 
ATOM     40  C   UNL A   1      38.106  32.444  32.591  1.00  0.00     0.049 A 
ATOM     41  N   UNL A   1      39.652  30.266  31.201  1.00  0.00    -0.248 NA
ATOM     42  C   UNL A   1      38.289  30.564  29.329  1.00  0.00     0.031 C 
ATOM     43  C   UNL A   1      37.354  33.459  33.332  1.00  0.00     0.029 A 
ATOM     44  N   UNL A   1      39.088  32.056  33.468  1.00  0.00    -0.354 N 
ATOM     45  C   UNL A   1      40.027  29.362  30.213  1.00  0.00     0.074 A 
ATOM     46  C   UNL A   1      39.110  29.548  29.108  1.00  0.00     0.031 C 
ATOM     47  C   UNL A   1      37.914  33.628  34.541  1.00  0.00     0.029 A 
ATOM     48  C   UNL A   1      39.032  32.699  34.683  1.00  0.00     0.049 A 
ATOM     49  H   UNL A   1      39.770  31.380  33.248  1.00  0.00     0.167 HD
ATOM     50  C   UNL A   1      41.054  28.474  30.220  1.00  0.00     0.034 A 
ATOM     51  C   UNL A   1      39.782  32.549  35.792  1.00  0.00     0.034 A 
ATOM     52  C   UNL A   1      41.968  28.309  31.325  1.00  0.00     0.049 A 
ATOM     53  C   UNL A   1      40.897  31.535  35.788  1.00  0.00     0.074 A 
ATOM     54  C   UNL A   1      43.074  27.481  31.414  1.00  0.00     0.029 A 
ATOM     55  N   UNL A   1      41.877  28.977  32.539  1.00  0.00    -0.354 N 
ATOM     56  N   UNL A   1      41.265  30.718  34.829  1.00  0.00    -0.248 NA
ATOM     57  C   UNL A   1      41.699  31.428  37.013  1.00  0.00     0.031 C 
ATOM     58  C   UNL A   1      43.613  27.602  32.699  1.00  0.00     0.029 A 
ATOM     59  C   UNL A   1      42.888  28.558  33.392  1.00  0.00     0.049 A 
ATOM     60  H   UNL A   1      41.195  29.651  32.763  1.00  0.00     0.167 HD
ATOM     61  C   UNL A   1      42.361  30.020  35.326  1.00  0.00     0.074 A 
ATOM     62  C   UNL A   1      42.600  30.521  36.664  1.00  0.00     0.031 C 
ATOM     63  C   UNL A   1      43.106  29.055  34.730  1.00  0.00     0.034 A 
BRANCH  50  64
ATOM     64  C   UNL A   1      41.221  27.601  29.000  1.00  0.00     0.023 A 
ATOM     65  C   UNL A   1      42.225  27.851  28.047  1.00  0.00     0.031 A 
ATOM     66  C   UNL A   1      40.350  26.522  28.769  1.00  0.00     0.131 A 
ATOM     67  C   UNL A   1      42.283  27.087  26.873  1.00  0.00     0.055 A 
ATOM     68  C   UNL A   1      40.466  25.712  27.636  1.00  0.00     0.041 A 
ATOM     69  F   UNL A   1      39.361  26.245  29.631  1.00  0.00    -0.206 F 
ATOM     70  C   UNL A   1      41.426  26.002  26.672  1.00  0.00     0.022 A 
BRANCH  67  71
ATOM     71  S   UNL A   1      43.399  27.621  25.547  1.00  0.00     0.124 S 
ATOM     72  O   UNL A   1      42.457  27.912  24.469  1.00  0.00    -0.237 OA
ATOM     73  O   UNL A   1      44.066  28.774  26.141  1.00  0.00    -0.237 OA
ATOM     74  O   UNL A   1      44.250  26.455  25.322  1.00  0.00    -0.744 OA
ENDBRANCH  67  71
ENDBRANCH  50  64
BRANCH  51  75
ATOM     75  C   UNL A   1      39.501  33.361  37.010  1.00  0.00     0.023 A 
ATOM     76  C   UNL A   1      40.173  34.570  37.242  1.00  0.00     0.031 A 
ATOM     77  C   UNL A   1      38.583  32.919  37.981  1.00  0.00     0.131 A 
ATOM     78  C   UNL A   1      39.955  35.274  38.436  1.00  0.00     0.055 A 
ATOM     79  C   UNL A   1      38.332  33.648  39.144  1.00  0.00     0.041 A 
ATOM     80  F   UNL A   1      37.907  31.772  37.805  1.00  0.00    -0.206 F 
ATOM     81  C   UNL A   1      39.030  34.829  39.383  1.00  0.00     0.022 A 
BRANCH  78  82
ATOM     82  S   UNL A   1      40.958  36.747  38.771  1.00  0.00     0.124 S 
ATOM     83  O   UNL A   1      41.757  36.846  37.555  1.00  0.00    -0.237 OA
ATOM     84  O   UNL A   1      39.937  37.774  38.953  1.00  0.00    -0.237 OA
ATOM     85  O   UNL A   1      41.699  36.387  39.978  1.00  0.00    -0.744 OA
ENDBRANCH  78  82
ENDBRANCH  51  75
BRANCH  63  86
ATOM     86  C   UNL A   1      44.274  28.511  35.513  1.00  0.00     0.023 A 
ATOM     87  C   UNL A   1      44.120  27.466  36.442  1.00  0.00     0.031 A 
ATOM     88  C   UNL A   1      45.559  29.057  35.336  1.00  0.00     0.131 A 
ATOM     89  C   UNL A   1      45.223  27.033  37.193  1.00  0.00     0.055 A 
ATOM     90  C   UNL A   1      46.662  28.583  36.046  1.00  0.00     0.041 A 
ATOM     91  F   UNL A   1      45.761  30.058  34.464  1.00  0.00    -0.206 F 
ATOM     92  C   UNL A   1      46.496  27.573  36.990  1.00  0.00     0.022 A 
BRANCH  89  93
ATOM     93  S   UNL A   1      44.958  25.800  38.498  1.00  0.00     0.124 S 
ATOM     94  O   UNL A   1      44.211  24.765  37.790  1.00  0.00    -0.237 OA
ATOM     95  O   UNL A   1      46.322  25.451  38.881  1.00  0.00    -0.237 OA
ATOM     96  O   UNL A   1      44.199  26.531  39.510  1.00  0.00    -0.744 OA
ENDBRANCH  89  93
ENDBRANCH  63  86
ENDBRANCH  37  38
ENDBRANCH  29  32
ENDBRANCH  27  28
ENDBRANCH   1  27
TORSDOF 17
ENDMDL
