MODEL 1
REMARK VINA RESULT:     -12.5      0.000      0.000
REMARK SMILES O=C(NCCCCNC(=O)[C@H]1[C@@H](C(=O)NNC(=O)c2ccccc2Cl)[C@H]2C=C[C@@H]1C2)c1ccc(-c2c3nc(c(-c4cc(S(=O)(=O)[O-])ccc4F)c4ccc([nH]4)c(-c4cc(S(=O)(=O)[O-])ccc4F)c4nc(c(-c5cc(S(=O)(=O)[O-])ccc5F)c5ccc2[nH]5)C=C4)C=C3)cc1
REMARK SMILES IDX 5 1 4 2 3 3 1 4 2 5 31 7 32 8 93 9 33 10 92 11 34 12 35 13
REMARK SMILES IDX 36 14 86 15 37 16 91 17 85 18 87 19 38 20 90 21 84 22 83 23
REMARK SMILES IDX 39 25 71 26 51 27 70 28 52 29 55 30 69 31 88 32 53 33 54 34
REMARK SMILES IDX 68 36 89 37 56 38 40 39 41 40 49 41 42 42 48 43 50 44 47 45
REMARK SMILES IDX 43 46 44 47 45 48 46 49 72 50 73 51 81 52 74 53 80 54 82 55
REMARK SMILES IDX 79 56 75 57 76 58 77 59 78 60 57 61 58 62 66 63 59 64 65 65
REMARK SMILES IDX 67 66 64 67 60 68 61 69 62 70 63 71 6 72 7 73 8 74 9 75
REMARK SMILES IDX 10 77 11 78 12 79 29 80 26 81 28 82 30 83 27 84 13 85 14 86
REMARK SMILES IDX 15 87 16 89 17 90 18 92 19 93 20 94 24 95 21 96 23 97 25 98
REMARK SMILES IDX 22 99
REMARK H PARENT 3 6 87 24 55 35 8 76 15 88 16 91
REMARK Flexibility Score: inf
ROOT
ATOM      1  C   UNL A   1      31.462  32.369  26.756  1.00  0.00     0.023 C 
ENDROOT
BRANCH   1   2
ATOM      2  C   UNL A   1      32.805  32.861  27.285  1.00  0.00     0.116 C 
BRANCH   2   3
ATOM      3  N   UNL A   1      32.721  34.213  27.818  1.00  0.00    -0.352 N 
ATOM      4  O   UNL A   1      33.080  35.866  29.310  1.00  0.00    -0.269 OA
ATOM      5  C   UNL A   1      33.404  34.769  28.876  1.00  0.00     0.251 C 
ATOM      6  H   UNL A   1      32.090  34.813  27.358  1.00  0.00     0.163 HD
BRANCH   5   7
ATOM      7  C   UNL A   1      34.521  34.019  29.492  1.00  0.00     0.039 A 
ATOM      8  C   UNL A   1      34.265  33.003  30.416  1.00  0.00     0.014 A 
ATOM      9  C   UNL A   1      35.836  34.340  29.143  1.00  0.00     0.014 A 
ATOM     10  C   UNL A   1      35.323  32.403  31.090  1.00  0.00     0.010 A 
ATOM     11  C   UNL A   1      36.899  33.677  29.764  1.00  0.00     0.010 A 
ATOM     12  C   UNL A   1      36.651  32.724  30.765  1.00  0.00    -0.014 A 
BRANCH  12  13
ATOM     13  C   UNL A   1      37.757  32.016  31.461  1.00  0.00     0.031 A 
ATOM     14  C   UNL A   1      38.524  30.915  30.781  1.00  0.00     0.074 A 
ATOM     15  C   UNL A   1      38.090  32.408  32.706  1.00  0.00     0.049 A 
ATOM     16  N   UNL A   1      39.541  30.223  31.226  1.00  0.00    -0.248 NA
ATOM     17  C   UNL A   1      38.084  30.535  29.431  1.00  0.00     0.031 C 
ATOM     18  C   UNL A   1      37.409  33.460  33.465  1.00  0.00     0.029 A 
ATOM     19  N   UNL A   1      39.093  31.992  33.543  1.00  0.00    -0.354 N 
ATOM     20  C   UNL A   1      39.854  29.311  30.223  1.00  0.00     0.074 A 
ATOM     21  C   UNL A   1      38.892  29.519  29.160  1.00  0.00     0.031 C 
ATOM     22  C   UNL A   1      38.048  33.647  34.629  1.00  0.00     0.029 A 
ATOM     23  C   UNL A   1      39.141  32.688  34.728  1.00  0.00     0.049 A 
ATOM     24  H   UNL A   1      39.718  31.267  33.317  1.00  0.00     0.167 HD
ATOM     25  C   UNL A   1      40.854  28.394  30.191  1.00  0.00     0.034 A 
ATOM     26  C   UNL A   1      39.968  32.563  35.784  1.00  0.00     0.034 A 
ATOM     27  C   UNL A   1      41.810  28.209  31.260  1.00  0.00     0.049 A 
ATOM     28  C   UNL A   1      41.050  31.520  35.735  1.00  0.00     0.074 A 
ATOM     29  C   UNL A   1      42.887  27.340  31.314  1.00  0.00     0.029 A 
ATOM     30  N   UNL A   1      41.798  28.896  32.469  1.00  0.00    -0.354 N 
ATOM     31  N   UNL A   1      41.346  30.681  34.768  1.00  0.00    -0.248 NA
ATOM     32  C   UNL A   1      41.909  31.409  36.919  1.00  0.00     0.031 C 
ATOM     33  C   UNL A   1      43.484  27.455  32.576  1.00  0.00     0.029 A 
ATOM     34  C   UNL A   1      42.826  28.447  33.285  1.00  0.00     0.049 A 
ATOM     35  H   UNL A   1      41.153  29.600  32.710  1.00  0.00     0.167 HD
ATOM     36  C   UNL A   1      42.441  29.955  35.221  1.00  0.00     0.074 A 
ATOM     37  C   UNL A   1      42.764  30.471  36.538  1.00  0.00     0.031 C 
ATOM     38  C   UNL A   1      43.121  28.954  34.606  1.00  0.00     0.034 A 
BRANCH  25  39
ATOM     39  C   UNL A   1      40.930  27.488  28.983  1.00  0.00     0.023 A 
ATOM     40  C   UNL A   1      41.896  27.668  27.976  1.00  0.00     0.031 A 
ATOM     41  C   UNL A   1      40.002  26.444  28.822  1.00  0.00     0.131 A 
ATOM     42  C   UNL A   1      41.863  26.868  26.822  1.00  0.00     0.055 A 
ATOM     43  C   UNL A   1      40.024  25.601  27.709  1.00  0.00     0.041 A 
ATOM     44  F   UNL A   1      39.044  26.234  29.739  1.00  0.00    -0.206 F 
ATOM     45  C   UNL A   1      40.949  25.820  26.693  1.00  0.00     0.022 A 
BRANCH  42  46
ATOM     46  S   UNL A   1      42.939  27.309  25.429  1.00  0.00     0.124 S 
ATOM     47  O   UNL A   1      42.165  28.366  24.782  1.00  0.00    -0.237 OA
ATOM     48  O   UNL A   1      44.164  27.731  26.099  1.00  0.00    -0.237 OA
ATOM     49  O   UNL A   1      43.040  26.067  24.667  1.00  0.00    -0.744 OA
ENDBRANCH  42  46
ENDBRANCH  25  39
BRANCH  26  50
ATOM     50  C   UNL A   1      39.794  33.435  36.979  1.00  0.00     0.023 A 
ATOM     51  C   UNL A   1      40.597  34.569  37.167  1.00  0.00     0.031 A 
ATOM     52  C   UNL A   1      38.831  33.134  37.958  1.00  0.00     0.131 A 
ATOM     53  C   UNL A   1      40.447  35.345  38.327  1.00  0.00     0.055 A 
ATOM     54  C   UNL A   1      38.653  33.936  39.086  1.00  0.00     0.041 A 
ATOM     55  F   UNL A   1      38.034  32.063  37.821  1.00  0.00    -0.206 F 
ATOM     56  C   UNL A   1      39.471  35.043  39.281  1.00  0.00     0.022 A 
BRANCH  53  57
ATOM     57  S   UNL A   1      41.593  36.722  38.604  1.00  0.00     0.124 S 
ATOM     58  O   UNL A   1      42.161  36.910  37.274  1.00  0.00    -0.237 OA
ATOM     59  O   UNL A   1      40.696  37.773  39.074  1.00  0.00    -0.237 OA
ATOM     60  O   UNL A   1      42.516  36.200  39.609  1.00  0.00    -0.744 OA
ENDBRANCH  53  57
ENDBRANCH  26  50
BRANCH  38  61
ATOM     61  C   UNL A   1      44.302  28.384  35.352  1.00  0.00     0.023 A 
ATOM     62  C   UNL A   1      44.139  27.431  36.373  1.00  0.00     0.031 A 
ATOM     63  C   UNL A   1      45.602  28.835  35.066  1.00  0.00     0.131 A 
ATOM     64  C   UNL A   1      45.252  27.007  37.116  1.00  0.00     0.055 A 
ATOM     65  C   UNL A   1      46.714  28.363  35.768  1.00  0.00     0.041 A 
ATOM     66  F   UNL A   1      45.815  29.747  34.104  1.00  0.00    -0.206 F 
ATOM     67  C   UNL A   1      46.539  27.456  36.810  1.00  0.00     0.022 A 
BRANCH  64  68
ATOM     68  S   UNL A   1      44.980  25.941  38.559  1.00  0.00     0.124 S 
ATOM     69  O   UNL A   1      43.731  26.472  39.097  1.00  0.00    -0.237 OA
ATOM     70  O   UNL A   1      44.902  24.615  37.955  1.00  0.00    -0.237 OA
ATOM     71  O   UNL A   1      46.162  26.176  39.386  1.00  0.00    -0.744 OA
ENDBRANCH  64  68
ENDBRANCH  38  61
ENDBRANCH  12  13
ENDBRANCH   5   7
ENDBRANCH   2   3
ENDBRANCH   1   2
BRANCH   1  72
ATOM     72  C   UNL A   1      31.513  31.002  26.066  1.00  0.00     0.023 C 
BRANCH  72  73
ATOM     73  C   UNL A   1      32.598  30.071  26.606  1.00  0.00     0.116 C 
BRANCH  73  74
ATOM     74  N   UNL A   1      31.999  28.892  27.199  1.00  0.00    -0.356 N 
ATOM     75  C   UNL A   1      31.500  27.786  26.593  1.00  0.00     0.224 C 
ATOM     76  H   UNL A   1      31.947  28.894  28.183  1.00  0.00     0.163 HD
ATOM     77  O   UNL A   1      30.789  27.016  27.235  1.00  0.00    -0.275 OA
BRANCH  75  78
ATOM     78  C   UNL A   1      31.891  27.483  25.176  1.00  0.00     0.098 C 
ATOM     79  C   UNL A   1      32.611  26.137  24.866  1.00  0.00     0.100 C 
ATOM     80  C   UNL A   1      30.690  27.460  24.187  1.00  0.00     0.025 C 
ATOM     81  C   UNL A   1      31.786  25.586  23.663  1.00  0.00     0.025 C 
ATOM     82  C   UNL A   1      29.767  26.295  24.475  1.00  0.00    -0.027 C 
ATOM     83  C   UNL A   1      31.383  26.883  22.948  1.00  0.00     0.017 C 
ATOM     84  C   UNL A   1      30.422  25.171  24.152  1.00  0.00    -0.027 C 
BRANCH  79  85
ATOM     85  C   UNL A   1      32.974  24.991  25.819  1.00  0.00     0.242 C 
ATOM     86  O   UNL A   1      32.138  24.697  26.690  1.00  0.00    -0.273 OA
ATOM     87  N   UNL A   1      34.182  24.365  25.925  1.00  0.00    -0.267 N 
ATOM     88  H   UNL A   1      34.401  23.970  26.800  1.00  0.00     0.191 HD
BRANCH  87  89
ATOM     89  N   UNL A   1      35.132  24.229  24.928  1.00  0.00    -0.263 N 
ATOM     90  C   UNL A   1      35.006  23.370  23.850  1.00  0.00     0.271 C 
ATOM     91  H   UNL A   1      35.948  24.776  24.990  1.00  0.00     0.191 HD
ATOM     92  O   UNL A   1      35.597  23.578  22.793  1.00  0.00    -0.267 OA
BRANCH  90  93
ATOM     93  C   UNL A   1      34.314  22.077  23.993  1.00  0.00     0.060 A 
ATOM     94  C   UNL A   1      33.007  22.045  23.474  1.00  0.00     0.015 A 
ATOM     95  C   UNL A   1      34.808  20.973  24.689  1.00  0.00     0.053 A 
ATOM     96  C   UNL A   1      32.217  20.906  23.611  1.00  0.00     0.001 A 
ATOM     97  C   UNL A   1      34.018  19.822  24.804  1.00  0.00     0.021 A 
ATOM     98  Cl  UNL A   1      36.339  20.979  25.483  1.00  0.00    -0.083 Cl
ATOM     99  C   UNL A   1      32.728  19.789  24.265  1.00  0.00     0.002 A 
ENDBRANCH  90  93
ENDBRANCH  87  89
ENDBRANCH  79  85
ENDBRANCH  75  78
ENDBRANCH  73  74
ENDBRANCH  72  73
ENDBRANCH   1  72
TORSDOF 17
ENDMDL
MODEL 2
REMARK VINA RESULT:     -12.3      5.642     11.348
REMARK SMILES O=C(NCCCCNC(=O)[C@H]1[C@@H](C(=O)NNC(=O)c2ccccc2Cl)[C@H]2C=C[C@@H]1C2)c1ccc(-c2c3nc(c(-c4cc(S(=O)(=O)[O-])ccc4F)c4ccc([nH]4)c(-c4cc(S(=O)(=O)[O-])ccc4F)c4nc(c(-c5cc(S(=O)(=O)[O-])ccc5F)c5ccc2[nH]5)C=C4)C=C3)cc1
REMARK SMILES IDX 5 1 4 2 3 3 1 4 2 5 31 7 32 8 93 9 33 10 92 11 34 12 35 13
REMARK SMILES IDX 36 14 86 15 37 16 91 17 85 18 87 19 38 20 90 21 84 22 83 23
REMARK SMILES IDX 39 25 71 26 51 27 70 28 52 29 55 30 69 31 88 32 53 33 54 34
REMARK SMILES IDX 68 36 89 37 56 38 40 39 41 40 49 41 42 42 48 43 50 44 47 45
REMARK SMILES IDX 43 46 44 47 45 48 46 49 72 50 73 51 81 52 74 53 80 54 82 55
REMARK SMILES IDX 79 56 75 57 76 58 77 59 78 60 57 61 58 62 66 63 59 64 65 65
REMARK SMILES IDX 67 66 64 67 60 68 61 69 62 70 63 71 6 72 7 73 8 74 9 75
REMARK SMILES IDX 10 77 11 78 12 79 29 80 26 81 28 82 30 83 27 84 13 85 14 86
REMARK SMILES IDX 15 87 16 89 17 90 18 92 19 93 20 94 24 95 21 96 23 97 25 98
REMARK SMILES IDX 22 99
REMARK H PARENT 3 6 87 24 55 35 8 76 15 88 16 91
REMARK Flexibility Score: inf
ROOT
ATOM      1  C   UNL A   1      38.280  19.362  25.020  1.00  0.00     0.023 C 
ENDROOT
BRANCH   1   2
ATOM      2  C   UNL A   1      39.394  20.047  25.804  1.00  0.00     0.116 C 
BRANCH   2   3
ATOM      3  N   UNL A   1      40.509  19.149  26.070  1.00  0.00    -0.352 N 
ATOM      4  O   UNL A   1      42.672  18.574  26.344  1.00  0.00    -0.269 OA
ATOM      5  C   UNL A   1      41.826  19.458  26.325  1.00  0.00     0.251 C 
ATOM      6  H   UNL A   1      40.290  18.189  26.070  1.00  0.00     0.163 HD
BRANCH   5   7
ATOM      7  C   UNL A   1      42.208  20.868  26.556  1.00  0.00     0.039 A 
ATOM      8  C   UNL A   1      42.318  21.756  25.483  1.00  0.00     0.014 A 
ATOM      9  C   UNL A   1      42.462  21.303  27.860  1.00  0.00     0.014 A 
ATOM     10  C   UNL A   1      42.812  23.038  25.697  1.00  0.00     0.010 A 
ATOM     11  C   UNL A   1      42.882  22.619  28.082  1.00  0.00     0.010 A 
ATOM     12  C   UNL A   1      43.089  23.488  26.998  1.00  0.00    -0.014 A 
BRANCH  12  13
ATOM     13  C   UNL A   1      43.555  24.885  27.196  1.00  0.00     0.031 A 
ATOM     14  C   UNL A   1      42.633  25.941  27.742  1.00  0.00     0.074 A 
ATOM     15  C   UNL A   1      44.838  25.183  26.913  1.00  0.00     0.049 A 
ATOM     16  N   UNL A   1      42.887  27.196  28.015  1.00  0.00    -0.248 NA
ATOM     17  C   UNL A   1      41.244  25.539  28.004  1.00  0.00     0.031 C 
ATOM     18  C   UNL A   1      45.819  24.238  26.371  1.00  0.00     0.029 A 
ATOM     19  N   UNL A   1      45.547  26.346  27.063  1.00  0.00    -0.354 N 
ATOM     20  C   UNL A   1      41.689  27.742  28.463  1.00  0.00     0.074 A 
ATOM     21  C   UNL A   1      40.700  26.685  28.390  1.00  0.00     0.031 C 
ATOM     22  C   UNL A   1      47.013  24.842  26.290  1.00  0.00     0.029 A 
ATOM     23  C   UNL A   1      46.871  26.231  26.710  1.00  0.00     0.049 A 
ATOM     24  H   UNL A   1      45.147  27.182  27.393  1.00  0.00     0.167 HD
ATOM     25  C   UNL A   1      41.442  29.003  28.900  1.00  0.00     0.034 A 
ATOM     26  C   UNL A   1      47.861  27.144  26.714  1.00  0.00     0.034 A 
ATOM     27  C   UNL A   1      42.445  30.040  28.972  1.00  0.00     0.049 A 
ATOM     28  C   UNL A   1      47.553  28.541  27.176  1.00  0.00     0.074 A 
ATOM     29  C   UNL A   1      42.314  31.338  29.438  1.00  0.00     0.029 A 
ATOM     30  N   UNL A   1      43.765  29.903  28.557  1.00  0.00    -0.354 N 
ATOM     31  N   UNL A   1      46.419  29.034  27.618  1.00  0.00    -0.248 NA
ATOM     32  C   UNL A   1      48.660  29.503  27.140  1.00  0.00     0.031 C 
ATOM     33  C   UNL A   1      43.532  32.002  29.244  1.00  0.00     0.029 A 
ATOM     34  C   UNL A   1      44.447  31.100  28.725  1.00  0.00     0.049 A 
ATOM     35  H   UNL A   1      44.159  29.076  28.196  1.00  0.00     0.167 HD
ATOM     36  C   UNL A   1      46.683  30.362  27.933  1.00  0.00     0.074 A 
ATOM     37  C   UNL A   1      48.088  30.584  27.650  1.00  0.00     0.031 C 
ATOM     38  C   UNL A   1      45.843  31.313  28.415  1.00  0.00     0.034 A 
BRANCH  25  39
ATOM     39  C   UNL A   1      40.018  29.340  29.283  1.00  0.00     0.023 A 
ATOM     40  C   UNL A   1      39.609  29.432  30.626  1.00  0.00     0.031 A 
ATOM     41  C   UNL A   1      39.047  29.546  28.286  1.00  0.00     0.131 A 
ATOM     42  C   UNL A   1      38.256  29.645  30.933  1.00  0.00     0.055 A 
ATOM     43  C   UNL A   1      37.717  29.836  28.600  1.00  0.00     0.041 A 
ATOM     44  F   UNL A   1      39.371  29.452  26.987  1.00  0.00    -0.206 F 
ATOM     45  C   UNL A   1      37.311  29.872  29.930  1.00  0.00     0.022 A 
BRANCH  42  46
ATOM     46  S   UNL A   1      37.721  29.478  32.660  1.00  0.00     0.124 S 
ATOM     47  O   UNL A   1      36.436  30.171  32.639  1.00  0.00    -0.237 OA
ATOM     48  O   UNL A   1      37.666  28.031  32.832  1.00  0.00    -0.237 OA
ATOM     49  O   UNL A   1      38.774  30.156  33.412  1.00  0.00    -0.744 OA
ENDBRANCH  42  46
ENDBRANCH  25  39
BRANCH  26  50
ATOM     50  C   UNL A   1      49.227  26.770  26.252  1.00  0.00     0.023 A 
ATOM     51  C   UNL A   1      49.724  27.228  25.024  1.00  0.00     0.031 A 
ATOM     52  C   UNL A   1      50.048  25.934  27.030  1.00  0.00     0.131 A 
ATOM     53  C   UNL A   1      50.995  26.819  24.589  1.00  0.00     0.055 A 
ATOM     54  C   UNL A   1      51.329  25.570  26.617  1.00  0.00     0.041 A 
ATOM     55  F   UNL A   1      49.620  25.475  28.217  1.00  0.00    -0.206 F 
ATOM     56  C   UNL A   1      51.805  26.004  25.384  1.00  0.00     0.022 A 
BRANCH  53  57
ATOM     57  S   UNL A   1      51.548  27.317  22.937  1.00  0.00     0.124 S 
ATOM     58  O   UNL A   1      52.199  28.593  23.211  1.00  0.00    -0.237 OA
ATOM     59  O   UNL A   1      52.429  26.213  22.567  1.00  0.00    -0.237 OA
ATOM     60  O   UNL A   1      50.306  27.401  22.172  1.00  0.00    -0.744 OA
ENDBRANCH  53  57
ENDBRANCH  26  50
BRANCH  38  61
ATOM     61  C   UNL A   1      46.445  32.668  28.693  1.00  0.00     0.023 A 
ATOM     62  C   UNL A   1      46.537  33.653  27.693  1.00  0.00     0.031 A 
ATOM     63  C   UNL A   1      46.975  32.959  29.961  1.00  0.00     0.131 A 
ATOM     64  C   UNL A   1      47.203  34.859  27.961  1.00  0.00     0.055 A 
ATOM     65  C   UNL A   1      47.582  34.185  30.240  1.00  0.00     0.041 A 
ATOM     66  F   UNL A   1      46.918  32.053  30.951  1.00  0.00    -0.206 F 
ATOM     67  C   UNL A   1      47.712  35.137  29.232  1.00  0.00     0.022 A 
BRANCH  64  68
ATOM     68  S   UNL A   1      47.489  36.018  26.594  1.00  0.00     0.124 S 
ATOM     69  O   UNL A   1      48.097  35.154  25.587  1.00  0.00    -0.237 OA
ATOM     70  O   UNL A   1      46.140  36.490  26.299  1.00  0.00    -0.237 OA
ATOM     71  O   UNL A   1      48.382  37.019  27.174  1.00  0.00    -0.744 OA
ENDBRANCH  64  68
ENDBRANCH  38  61
ENDBRANCH  12  13
ENDBRANCH   5   7
ENDBRANCH   2   3
ENDBRANCH   1   2
BRANCH   1  72
ATOM     72  C   UNL A   1      36.954  20.128  24.999  1.00  0.00     0.023 C 
BRANCH  72  73
ATOM     73  C   UNL A   1      37.092  21.621  25.295  1.00  0.00     0.116 C 
BRANCH  73  74
ATOM     74  N   UNL A   1      36.774  22.398  24.113  1.00  0.00    -0.356 N 
ATOM     75  C   UNL A   1      35.561  22.748  23.617  1.00  0.00     0.224 C 
ATOM     76  H   UNL A   1      37.549  22.718  23.596  1.00  0.00     0.163 HD
ATOM     77  O   UNL A   1      35.480  23.172  22.465  1.00  0.00    -0.275 OA
BRANCH  75  78
ATOM     78  C   UNL A   1      34.355  22.688  24.508  1.00  0.00     0.098 C 
ATOM     79  C   UNL A   1      33.543  23.992  24.766  1.00  0.00     0.100 C 
ATOM     80  C   UNL A   1      33.259  21.701  24.012  1.00  0.00     0.025 C 
ATOM     81  C   UNL A   1      32.079  23.535  24.491  1.00  0.00     0.025 C 
ATOM     82  C   UNL A   1      32.627  22.187  22.725  1.00  0.00    -0.027 C 
ATOM     83  C   UNL A   1      32.119  22.076  24.965  1.00  0.00     0.017 C 
ATOM     84  C   UNL A   1      31.912  23.282  23.015  1.00  0.00    -0.027 C 
BRANCH  79  85
ATOM     85  C   UNL A   1      33.767  25.400  24.198  1.00  0.00     0.242 C 
ATOM     86  O   UNL A   1      34.064  25.479  22.994  1.00  0.00    -0.273 OA
ATOM     87  N   UNL A   1      33.838  26.566  24.903  1.00  0.00    -0.267 N 
ATOM     88  H   UNL A   1      34.373  27.291  24.506  1.00  0.00     0.191 HD
BRANCH  87  89
ATOM     89  N   UNL A   1      33.237  26.834  26.120  1.00  0.00    -0.263 N 
ATOM     90  C   UNL A   1      31.874  27.012  26.288  1.00  0.00     0.271 C 
ATOM     91  H   UNL A   1      33.814  26.902  26.915  1.00  0.00     0.191 HD
ATOM     92  O   UNL A   1      31.330  26.801  27.369  1.00  0.00    -0.267 OA
BRANCH  90  93
ATOM     93  C   UNL A   1      31.061  27.644  25.234  1.00  0.00     0.060 A 
ATOM     94  C   UNL A   1      30.203  26.768  24.545  1.00  0.00     0.015 A 
ATOM     95  C   UNL A   1      31.176  28.970  24.817  1.00  0.00     0.053 A 
ATOM     96  C   UNL A   1      29.434  27.224  23.477  1.00  0.00     0.001 A 
ATOM     97  C   UNL A   1      30.384  29.429  23.757  1.00  0.00     0.021 A 
ATOM     98  Cl  UNL A   1      32.309  30.072  25.508  1.00  0.00    -0.083 Cl
ATOM     99  C   UNL A   1      29.515  28.559  23.091  1.00  0.00     0.002 A 
ENDBRANCH  90  93
ENDBRANCH  87  89
ENDBRANCH  79  85
ENDBRANCH  75  78
ENDBRANCH  73  74
ENDBRANCH  72  73
ENDBRANCH   1  72
TORSDOF 17
ENDMDL
MODEL 3
REMARK VINA RESULT:     -12.3      1.847      2.191
REMARK SMILES O=C(NCCCCNC(=O)[C@H]1[C@@H](C(=O)NNC(=O)c2ccccc2Cl)[C@H]2C=C[C@@H]1C2)c1ccc(-c2c3nc(c(-c4cc(S(=O)(=O)[O-])ccc4F)c4ccc([nH]4)c(-c4cc(S(=O)(=O)[O-])ccc4F)c4nc(c(-c5cc(S(=O)(=O)[O-])ccc5F)c5ccc2[nH]5)C=C4)C=C3)cc1
REMARK SMILES IDX 5 1 4 2 3 3 1 4 2 5 31 7 32 8 93 9 33 10 92 11 34 12 35 13
REMARK SMILES IDX 36 14 86 15 37 16 91 17 85 18 87 19 38 20 90 21 84 22 83 23
REMARK SMILES IDX 39 25 71 26 51 27 70 28 52 29 55 30 69 31 88 32 53 33 54 34
REMARK SMILES IDX 68 36 89 37 56 38 40 39 41 40 49 41 42 42 48 43 50 44 47 45
REMARK SMILES IDX 43 46 44 47 45 48 46 49 72 50 73 51 81 52 74 53 80 54 82 55
REMARK SMILES IDX 79 56 75 57 76 58 77 59 78 60 57 61 58 62 66 63 59 64 65 65
REMARK SMILES IDX 67 66 64 67 60 68 61 69 62 70 63 71 6 72 7 73 8 74 9 75
REMARK SMILES IDX 10 77 11 78 12 79 29 80 26 81 28 82 30 83 27 84 13 85 14 86
REMARK SMILES IDX 15 87 16 89 17 90 18 92 19 93 20 94 24 95 21 96 23 97 25 98
REMARK SMILES IDX 22 99
REMARK H PARENT 3 6 87 24 55 35 8 76 15 88 16 91
REMARK Flexibility Score: inf
ROOT
ATOM      1  C   UNL A   1      31.484  32.301  26.902  1.00  0.00     0.023 C 
ENDROOT
BRANCH   1   2
ATOM      2  C   UNL A   1      32.785  32.954  27.358  1.00  0.00     0.116 C 
BRANCH   2   3
ATOM      3  N   UNL A   1      32.597  34.349  27.730  1.00  0.00    -0.352 N 
ATOM      4  O   UNL A   1      32.768  36.171  29.047  1.00  0.00    -0.269 OA
ATOM      5  C   UNL A   1      33.176  35.054  28.761  1.00  0.00     0.251 C 
ATOM      6  H   UNL A   1      31.970  34.858  27.167  1.00  0.00     0.163 HD
BRANCH   5   7
ATOM      7  C   UNL A   1      34.284  34.440  29.526  1.00  0.00     0.039 A 
ATOM      8  C   UNL A   1      35.601  34.551  29.074  1.00  0.00     0.014 A 
ATOM      9  C   UNL A   1      33.999  33.746  30.705  1.00  0.00     0.014 A 
ATOM     10  C   UNL A   1      36.613  33.853  29.724  1.00  0.00     0.010 A 
ATOM     11  C   UNL A   1      35.033  33.113  31.403  1.00  0.00     0.010 A 
ATOM     12  C   UNL A   1      36.344  33.136  30.901  1.00  0.00    -0.014 A 
BRANCH  12  13
ATOM     13  C   UNL A   1      37.462  32.456  31.605  1.00  0.00     0.031 A 
ATOM     14  C   UNL A   1      38.235  31.346  30.946  1.00  0.00     0.074 A 
ATOM     15  C   UNL A   1      37.800  32.881  32.838  1.00  0.00     0.049 A 
ATOM     16  N   UNL A   1      39.262  30.675  31.401  1.00  0.00    -0.248 NA
ATOM     17  C   UNL A   1      37.788  30.929  29.609  1.00  0.00     0.031 C 
ATOM     18  C   UNL A   1      37.114  33.945  33.576  1.00  0.00     0.029 A 
ATOM     19  N   UNL A   1      38.813  32.496  33.677  1.00  0.00    -0.354 N 
ATOM     20  C   UNL A   1      39.577  29.742  30.417  1.00  0.00     0.074 A 
ATOM     21  C   UNL A   1      38.604  29.915  29.357  1.00  0.00     0.031 C 
ATOM     22  C   UNL A   1      37.761  34.166  34.730  1.00  0.00     0.029 A 
ATOM     23  C   UNL A   1      38.864  33.221  34.844  1.00  0.00     0.049 A 
ATOM     24  H   UNL A   1      39.444  31.771  33.464  1.00  0.00     0.167 HD
ATOM     25  C   UNL A   1      40.586  28.835  30.400  1.00  0.00     0.034 A 
ATOM     26  C   UNL A   1      39.699  33.129  35.896  1.00  0.00     0.034 A 
ATOM     27  C   UNL A   1      41.551  28.685  31.466  1.00  0.00     0.049 A 
ATOM     28  C   UNL A   1      40.791  32.096  35.864  1.00  0.00     0.074 A 
ATOM     29  C   UNL A   1      42.638  27.828  31.533  1.00  0.00     0.029 A 
ATOM     30  N   UNL A   1      41.541  29.401  32.657  1.00  0.00    -0.354 N 
ATOM     31  N   UNL A   1      41.088  31.237  34.916  1.00  0.00    -0.248 NA
ATOM     32  C   UNL A   1      41.661  32.022  37.044  1.00  0.00     0.031 C 
ATOM     33  C   UNL A   1      43.242  27.980  32.787  1.00  0.00     0.029 A 
ATOM     34  C   UNL A   1      42.580  28.982  33.477  1.00  0.00     0.049 A 
ATOM     35  H   UNL A   1      40.891  30.104  32.886  1.00  0.00     0.167 HD
ATOM     36  C   UNL A   1      42.194  30.533  35.378  1.00  0.00     0.074 A 
ATOM     37  C   UNL A   1      42.522  31.084  36.680  1.00  0.00     0.031 C 
ATOM     38  C   UNL A   1      42.879  29.525  34.783  1.00  0.00     0.034 A 
BRANCH  25  39
ATOM     39  C   UNL A   1      40.662  27.900  29.213  1.00  0.00     0.023 A 
ATOM     40  C   UNL A   1      41.590  28.090  28.173  1.00  0.00     0.031 A 
ATOM     41  C   UNL A   1      39.771  26.817  29.108  1.00  0.00     0.131 A 
ATOM     42  C   UNL A   1      41.555  27.258  27.042  1.00  0.00     0.055 A 
ATOM     43  C   UNL A   1      39.794  25.946  28.016  1.00  0.00     0.041 A 
ATOM     44  F   UNL A   1      38.850  26.594  30.058  1.00  0.00    -0.206 F 
ATOM     45  C   UNL A   1      40.679  26.173  26.967  1.00  0.00     0.022 A 
BRANCH  42  46
ATOM     46  S   UNL A   1      42.571  27.704  25.606  1.00  0.00     0.124 S 
ATOM     47  O   UNL A   1      43.875  27.929  26.225  1.00  0.00    -0.237 OA
ATOM     48  O   UNL A   1      42.458  26.519  24.763  1.00  0.00    -0.237 OA
ATOM     49  O   UNL A   1      41.921  28.904  25.085  1.00  0.00    -0.744 OA
ENDBRANCH  42  46
ENDBRANCH  25  39
BRANCH  26  50
ATOM     50  C   UNL A   1      39.526  34.029  37.071  1.00  0.00     0.023 A 
ATOM     51  C   UNL A   1      38.955  33.558  38.263  1.00  0.00     0.031 A 
ATOM     52  C   UNL A   1      39.916  35.378  37.010  1.00  0.00     0.131 A 
ATOM     53  C   UNL A   1      38.757  34.440  39.337  1.00  0.00     0.055 A 
ATOM     54  C   UNL A   1      39.762  36.238  38.097  1.00  0.00     0.041 A 
ATOM     55  F   UNL A   1      40.474  35.875  35.894  1.00  0.00    -0.206 F 
ATOM     56  C   UNL A   1      39.169  35.773  39.266  1.00  0.00     0.022 A 
BRANCH  53  57
ATOM     57  S   UNL A   1      37.891  33.832  40.809  1.00  0.00     0.124 S 
ATOM     58  O   UNL A   1      38.894  32.959  41.407  1.00  0.00    -0.237 OA
ATOM     59  O   UNL A   1      37.609  35.071  41.527  1.00  0.00    -0.237 OA
ATOM     60  O   UNL A   1      36.720  33.154  40.260  1.00  0.00    -0.744 OA
ENDBRANCH  53  57
ENDBRANCH  26  50
BRANCH  38  61
ATOM     61  C   UNL A   1      44.072  28.984  35.533  1.00  0.00     0.023 A 
ATOM     62  C   UNL A   1      45.371  29.470  35.301  1.00  0.00     0.031 A 
ATOM     63  C   UNL A   1      43.911  27.938  36.457  1.00  0.00     0.131 A 
ATOM     64  C   UNL A   1      46.466  28.867  35.937  1.00  0.00     0.055 A 
ATOM     65  C   UNL A   1      44.998  27.381  37.134  1.00  0.00     0.041 A 
ATOM     66  F   UNL A   1      42.693  27.432  36.713  1.00  0.00    -0.206 F 
ATOM     67  C   UNL A   1      46.286  27.836  36.864  1.00  0.00     0.022 A 
BRANCH  64  68
ATOM     68  S   UNL A   1      48.141  29.376  35.459  1.00  0.00     0.124 S 
ATOM     69  O   UNL A   1      48.970  28.465  36.243  1.00  0.00    -0.237 OA
ATOM     70  O   UNL A   1      48.134  29.151  34.017  1.00  0.00    -0.237 OA
ATOM     71  O   UNL A   1      48.203  30.778  35.867  1.00  0.00    -0.744 OA
ENDBRANCH  64  68
ENDBRANCH  38  61
ENDBRANCH  12  13
ENDBRANCH   5   7
ENDBRANCH   2   3
ENDBRANCH   1   2
BRANCH   1  72
ATOM     72  C   UNL A   1      31.655  30.916  26.271  1.00  0.00     0.023 C 
BRANCH  72  73
ATOM     73  C   UNL A   1      32.656  30.019  26.997  1.00  0.00     0.116 C 
BRANCH  73  74
ATOM     74  N   UNL A   1      32.005  28.807  27.453  1.00  0.00    -0.356 N 
ATOM     75  C   UNL A   1      31.559  27.749  26.731  1.00  0.00     0.224 C 
ATOM     76  H   UNL A   1      31.867  28.741  28.427  1.00  0.00     0.163 HD
ATOM     77  O   UNL A   1      30.792  26.942  27.254  1.00  0.00    -0.275 OA
BRANCH  75  78
ATOM     78  C   UNL A   1      32.071  27.540  25.336  1.00  0.00     0.098 C 
ATOM     79  C   UNL A   1      32.825  26.219  25.001  1.00  0.00     0.100 C 
ATOM     80  C   UNL A   1      30.959  27.581  24.249  1.00  0.00     0.025 C 
ATOM     81  C   UNL A   1      32.110  25.747  23.698  1.00  0.00     0.025 C 
ATOM     82  C   UNL A   1      30.024  26.397  24.379  1.00  0.00    -0.027 C 
ATOM     83  C   UNL A   1      31.759  27.088  23.038  1.00  0.00     0.017 C 
ATOM     84  C   UNL A   1      30.712  25.299  24.040  1.00  0.00    -0.027 C 
BRANCH  79  85
ATOM     85  C   UNL A   1      33.114  25.014  25.905  1.00  0.00     0.242 C 
ATOM     86  O   UNL A   1      32.244  24.717  26.741  1.00  0.00    -0.273 OA
ATOM     87  N   UNL A   1      34.290  24.329  26.006  1.00  0.00    -0.267 N 
ATOM     88  H   UNL A   1      34.470  23.883  26.866  1.00  0.00     0.191 HD
BRANCH  87  89
ATOM     89  N   UNL A   1      35.257  24.198  25.026  1.00  0.00    -0.263 N 
ATOM     90  C   UNL A   1      35.148  23.347  23.939  1.00  0.00     0.271 C 
ATOM     91  H   UNL A   1      36.073  24.743  25.106  1.00  0.00     0.191 HD
ATOM     92  O   UNL A   1      35.758  23.561  22.894  1.00  0.00    -0.267 OA
BRANCH  90  93
ATOM     93  C   UNL A   1      34.450  22.054  24.061  1.00  0.00     0.060 A 
ATOM     94  C   UNL A   1      33.125  22.051  23.591  1.00  0.00     0.015 A 
ATOM     95  C   UNL A   1      34.962  20.922  24.696  1.00  0.00     0.053 A 
ATOM     96  C   UNL A   1      32.331  20.914  23.716  1.00  0.00     0.001 A 
ATOM     97  C   UNL A   1      34.167  19.773  24.799  1.00  0.00     0.021 A 
ATOM     98  Cl  UNL A   1      36.522  20.887  25.430  1.00  0.00    -0.083 Cl
ATOM     99  C   UNL A   1      32.857  19.769  24.309  1.00  0.00     0.002 A 
ENDBRANCH  90  93
ENDBRANCH  87  89
ENDBRANCH  79  85
ENDBRANCH  75  78
ENDBRANCH  73  74
ENDBRANCH  72  73
ENDBRANCH   1  72
TORSDOF 17
ENDMDL
