MODEL 1
REMARK VINA RESULT:     -13.2      0.000      0.000
REMARK SMILES C/C(=N\NC(N)=O)c1nnn(-c2ccc(C(=O)NCCCCNC(=O)c3ccc(-c4c5nc(c(-c6cc(S(=O)(=O)[O-])ccc6F)c6ccc([nH]6)c(-c6cc(S(=O)(=O)[O-])ccc6F)c6nc(c(-c7cc(S(=O)(=O)[O-])ccc7F)c7ccc4[nH]7)C=C6)C=C5)cc3)cc2)c1C
REMARK SMILES IDX 20 1 19 2 18 3 16 4 17 5 15 7 12 8 13 9 90 10 14 11 89 12
REMARK SMILES IDX 11 13 8 14 9 15 91 16 10 17 92 18 2 19 1 20 3 21 4 22 5 23
REMARK SMILES IDX 6 25 7 26 21 29 22 30 23 31 24 32 25 34 26 35 27 36 88 37
REMARK SMILES IDX 28 38 87 39 29 40 30 41 31 42 81 43 32 44 86 45 80 46 82 47
REMARK SMILES IDX 33 48 85 49 79 50 78 51 34 53 66 54 46 55 65 56 47 57 50 58
REMARK SMILES IDX 64 59 83 60 48 61 49 62 63 64 84 65 51 66 35 67 36 68 44 69
REMARK SMILES IDX 37 70 43 71 45 72 42 73 38 74 39 75 40 76 41 77 67 78 68 79
REMARK SMILES IDX 76 80 69 81 75 82 77 83 74 84 70 85 71 86 72 87 73 88 52 89
REMARK SMILES IDX 53 90 61 91 54 92 60 93 62 94 59 95 55 96 56 97 57 98 58 99
REMARK H PARENT 18 6 4 24 6 27 6 28 23 33 82 52 50 63
REMARK Flexibility Score: inf
ROOT
ATOM      1  C   UNL A   1      33.079  30.116  26.192  1.00  0.00     0.023 C 
ENDROOT
BRANCH   1   2
ATOM      2  C   UNL A   1      31.549  30.168  26.081  1.00  0.00     0.116 C 
BRANCH   2   3
ATOM      3  N   UNL A   1      31.115  30.130  24.693  1.00  0.00    -0.352 N 
ATOM      4  C   UNL A   1      31.011  29.120  23.767  1.00  0.00     0.251 C 
ATOM      5  O   UNL A   1      30.563  29.408  22.656  1.00  0.00    -0.269 OA
ATOM      6  H   UNL A   1      30.838  31.010  24.346  1.00  0.00     0.163 HD
BRANCH   4   7
ATOM      7  C   UNL A   1      31.357  27.696  24.050  1.00  0.00     0.039 A 
ATOM      8  C   UNL A   1      32.049  24.995  24.267  1.00  0.00     0.067 A 
ATOM      9  C   UNL A   1      33.003  25.900  23.805  1.00  0.00     0.029 A 
ATOM     10  C   UNL A   1      30.807  25.436  24.729  1.00  0.00     0.029 A 
ATOM     11  C   UNL A   1      32.638  27.246  23.673  1.00  0.00     0.016 A 
ATOM     12  C   UNL A   1      30.489  26.790  24.659  1.00  0.00     0.016 A 
BRANCH   8  13
ATOM     13  N   UNL A   1      32.269  23.614  24.156  1.00  0.00    -0.217 N 
ATOM     14  C   UNL A   1      32.926  21.565  24.453  1.00  0.00     0.132 A 
ATOM     15  N   UNL A   1      32.211  21.636  23.283  1.00  0.00    -0.128 NA
ATOM     16  C   UNL A   1      32.959  22.813  25.044  1.00  0.00     0.071 A 
ATOM     17  N   UNL A   1      31.748  22.875  23.155  1.00  0.00    -0.061 NA
ATOM     18  C   UNL A   1      33.451  23.263  26.370  1.00  0.00     0.069 C 
BRANCH  14  19
ATOM     19  C   UNL A   1      33.386  20.310  25.025  1.00  0.00     0.087 C 
ATOM     20  C   UNL A   1      34.876  20.089  25.004  1.00  0.00     0.071 C 
ATOM     21  N   UNL A   1      32.459  19.542  25.519  1.00  0.00    -0.174 NA
BRANCH  21  22
ATOM     22  N   UNL A   1      32.730  18.306  26.042  1.00  0.00    -0.229 N 
ATOM     23  C   UNL A   1      32.822  17.115  25.354  1.00  0.00     0.332 C 
ATOM     24  H   UNL A   1      32.876  18.264  27.015  1.00  0.00     0.195 HD
ATOM     25  N   UNL A   1      33.111  16.062  26.169  1.00  0.00    -0.350 N 
ATOM     26  O   UNL A   1      32.689  16.937  24.152  1.00  0.00    -0.247 OA
ATOM     27  H   UNL A   1      33.218  16.205  27.138  1.00  0.00     0.161 HD
ATOM     28  H   UNL A   1      33.214  15.159  25.790  1.00  0.00     0.161 HD
ENDBRANCH  21  22
ENDBRANCH  14  19
ENDBRANCH   8  13
ENDBRANCH   4   7
ENDBRANCH   2   3
ENDBRANCH   1   2
BRANCH   1  29
ATOM     29  C   UNL A   1      33.647  28.840  26.830  1.00  0.00     0.023 C 
BRANCH  29  30
ATOM     30  C   UNL A   1      35.111  28.929  27.247  1.00  0.00     0.116 C 
BRANCH  30  31
ATOM     31  N   UNL A   1      35.324  29.829  28.378  1.00  0.00    -0.352 N 
ATOM     32  C   UNL A   1      36.358  29.808  29.299  1.00  0.00     0.251 C 
ATOM     33  H   UNL A   1      34.650  30.537  28.501  1.00  0.00     0.163 HD
ATOM     34  O   UNL A   1      36.213  30.306  30.404  1.00  0.00    -0.269 OA
BRANCH  32  35
ATOM     35  C   UNL A   1      37.637  29.180  28.912  1.00  0.00     0.039 A 
ATOM     36  C   UNL A   1      38.321  29.580  27.761  1.00  0.00     0.014 A 
ATOM     37  C   UNL A   1      38.163  28.196  29.748  1.00  0.00     0.014 A 
ATOM     38  C   UNL A   1      39.587  29.049  27.514  1.00  0.00     0.010 A 
ATOM     39  C   UNL A   1      39.456  27.764  29.569  1.00  0.00     0.010 A 
ATOM     40  C   UNL A   1      40.165  28.161  28.439  1.00  0.00    -0.014 A 
BRANCH  40  41
ATOM     41  C   UNL A   1      41.574  27.778  28.327  1.00  0.00     0.031 A 
ATOM     42  C   UNL A   1      41.800  26.501  27.599  1.00  0.00     0.074 A 
ATOM     43  C   UNL A   1      42.607  28.593  28.640  1.00  0.00     0.049 A 
ATOM     44  N   UNL A   1      42.199  25.379  28.097  1.00  0.00    -0.248 NA
ATOM     45  C   UNL A   1      41.386  26.404  26.189  1.00  0.00     0.031 C 
ATOM     46  C   UNL A   1      42.549  29.984  29.102  1.00  0.00     0.029 A 
ATOM     47  N   UNL A   1      43.947  28.384  28.501  1.00  0.00    -0.354 N 
ATOM     48  C   UNL A   1      42.345  24.512  27.020  1.00  0.00     0.074 A 
ATOM     49  C   UNL A   1      41.623  25.115  25.932  1.00  0.00     0.031 C 
ATOM     50  C   UNL A   1      43.766  30.556  28.972  1.00  0.00     0.029 A 
ATOM     51  C   UNL A   1      44.726  29.540  28.575  1.00  0.00     0.049 A 
ATOM     52  H   UNL A   1      44.335  27.490  28.361  1.00  0.00     0.167 HD
ATOM     53  C   UNL A   1      43.268  23.509  27.048  1.00  0.00     0.034 A 
ATOM     54  C   UNL A   1      46.056  29.665  28.308  1.00  0.00     0.034 A 
ATOM     55  C   UNL A   1      43.751  23.292  28.397  1.00  0.00     0.049 A 
ATOM     56  C   UNL A   1      46.650  28.317  28.480  1.00  0.00     0.074 A 
ATOM     57  C   UNL A   1      43.148  23.001  29.606  1.00  0.00     0.029 A 
ATOM     58  N   UNL A   1      45.002  23.772  28.720  1.00  0.00    -0.354 N 
ATOM     59  N   UNL A   1      46.693  27.699  29.628  1.00  0.00    -0.248 NA
ATOM     60  C   UNL A   1      46.740  27.455  27.312  1.00  0.00     0.031 C 
ATOM     61  C   UNL A   1      43.840  23.806  30.560  1.00  0.00     0.029 A 
ATOM     62  C   UNL A   1      44.888  24.455  29.905  1.00  0.00     0.049 A 
ATOM     63  H   UNL A   1      45.826  23.648  28.196  1.00  0.00     0.167 HD
ATOM     64  C   UNL A   1      46.342  26.391  29.340  1.00  0.00     0.074 A 
ATOM     65  C   UNL A   1      46.487  26.274  27.889  1.00  0.00     0.031 C 
ATOM     66  C   UNL A   1      45.692  25.613  30.258  1.00  0.00     0.034 A 
BRANCH  53  67
ATOM     67  C   UNL A   1      44.021  22.983  25.845  1.00  0.00     0.023 A 
ATOM     68  C   UNL A   1      44.019  21.589  25.643  1.00  0.00     0.031 A 
ATOM     69  C   UNL A   1      44.959  23.711  25.078  1.00  0.00     0.131 A 
ATOM     70  C   UNL A   1      44.976  20.976  24.816  1.00  0.00     0.055 A 
ATOM     71  C   UNL A   1      45.861  23.102  24.199  1.00  0.00     0.041 A 
ATOM     72  F   UNL A   1      45.130  25.032  25.202  1.00  0.00    -0.206 F 
ATOM     73  C   UNL A   1      45.897  21.724  24.090  1.00  0.00     0.022 A 
BRANCH  70  74
ATOM     74  S   UNL A   1      45.110  19.170  24.855  1.00  0.00     0.124 S 
ATOM     75  O   UNL A   1      44.016  18.817  25.753  1.00  0.00    -0.237 OA
ATOM     76  O   UNL A   1      44.929  18.824  23.450  1.00  0.00    -0.237 OA
ATOM     77  O   UNL A   1      46.452  18.943  25.387  1.00  0.00    -0.744 OA
ENDBRANCH  70  74
ENDBRANCH  53  67
BRANCH  54  78
ATOM     78  C   UNL A   1      46.757  30.792  27.620  1.00  0.00     0.023 A 
ATOM     79  C   UNL A   1      46.069  31.877  27.027  1.00  0.00     0.031 A 
ATOM     80  C   UNL A   1      48.153  30.943  27.773  1.00  0.00     0.131 A 
ATOM     81  C   UNL A   1      46.773  33.041  26.631  1.00  0.00     0.055 A 
ATOM     82  C   UNL A   1      48.841  32.094  27.383  1.00  0.00     0.041 A 
ATOM     83  F   UNL A   1      48.891  30.009  28.395  1.00  0.00    -0.206 F 
ATOM     84  C   UNL A   1      48.151  33.156  26.822  1.00  0.00     0.022 A 
BRANCH  81  85
ATOM     85  S   UNL A   1      45.889  34.487  25.953  1.00  0.00     0.124 S 
ATOM     86  O   UNL A   1      46.256  35.543  26.890  1.00  0.00    -0.237 OA
ATOM     87  O   UNL A   1      46.440  34.592  24.607  1.00  0.00    -0.237 OA
ATOM     88  O   UNL A   1      44.482  34.083  26.004  1.00  0.00    -0.744 OA
ENDBRANCH  81  85
ENDBRANCH  54  78
BRANCH  66  89
ATOM     89  C   UNL A   1      45.639  26.083  31.702  1.00  0.00     0.023 A 
ATOM     90  C   UNL A   1      44.520  26.680  32.330  1.00  0.00     0.031 A 
ATOM     91  C   UNL A   1      46.765  25.821  32.502  1.00  0.00     0.131 A 
ATOM     92  C   UNL A   1      44.569  27.009  33.701  1.00  0.00     0.055 A 
ATOM     93  C   UNL A   1      46.801  26.124  33.863  1.00  0.00     0.041 A 
ATOM     94  F   UNL A   1      47.854  25.237  31.977  1.00  0.00    -0.206 F 
ATOM     95  C   UNL A   1      45.706  26.729  34.465  1.00  0.00     0.022 A 
BRANCH  92  96
ATOM     96  S   UNL A   1      43.171  27.851  34.515  1.00  0.00     0.124 S 
ATOM     97  O   UNL A   1      42.807  28.905  33.575  1.00  0.00    -0.237 OA
ATOM     98  O   UNL A   1      42.200  26.771  34.669  1.00  0.00    -0.237 OA
ATOM     99  O   UNL A   1      43.750  28.329  35.772  1.00  0.00    -0.744 OA
ENDBRANCH  92  96
ENDBRANCH  66  89
ENDBRANCH  40  41
ENDBRANCH  32  35
ENDBRANCH  30  31
ENDBRANCH  29  30
ENDBRANCH   1  29
TORSDOF 17
ENDMDL
MODEL 2
REMARK VINA RESULT:     -12.9      5.218     10.825
REMARK SMILES C/C(=N\NC(N)=O)c1nnn(-c2ccc(C(=O)NCCCCNC(=O)c3ccc(-c4c5nc(c(-c6cc(S(=O)(=O)[O-])ccc6F)c6ccc([nH]6)c(-c6cc(S(=O)(=O)[O-])ccc6F)c6nc(c(-c7cc(S(=O)(=O)[O-])ccc7F)c7ccc4[nH]7)C=C6)C=C5)cc3)cc2)c1C
REMARK SMILES IDX 20 1 19 2 18 3 16 4 17 5 15 7 12 8 13 9 90 10 14 11 89 12
REMARK SMILES IDX 11 13 8 14 9 15 91 16 10 17 92 18 2 19 1 20 3 21 4 22 5 23
REMARK SMILES IDX 6 25 7 26 21 29 22 30 23 31 24 32 25 34 26 35 27 36 88 37
REMARK SMILES IDX 28 38 87 39 29 40 30 41 31 42 81 43 32 44 86 45 80 46 82 47
REMARK SMILES IDX 33 48 85 49 79 50 78 51 34 53 66 54 46 55 65 56 47 57 50 58
REMARK SMILES IDX 64 59 83 60 48 61 49 62 63 64 84 65 51 66 35 67 36 68 44 69
REMARK SMILES IDX 37 70 43 71 45 72 42 73 38 74 39 75 40 76 41 77 67 78 68 79
REMARK SMILES IDX 76 80 69 81 75 82 77 83 74 84 70 85 71 86 72 87 73 88 52 89
REMARK SMILES IDX 53 90 61 91 54 92 60 93 62 94 59 95 55 96 56 97 57 98 58 99
REMARK H PARENT 18 6 4 24 6 27 6 28 23 33 82 52 50 63
REMARK Flexibility Score: inf
ROOT
ATOM      1  C   UNL A   1      35.105  34.110  32.517  1.00  0.00     0.023 C 
ENDROOT
BRANCH   1   2
ATOM      2  C   UNL A   1      35.915  34.636  33.710  1.00  0.00     0.116 C 
BRANCH   2   3
ATOM      3  N   UNL A   1      36.270  33.564  34.627  1.00  0.00    -0.352 N 
ATOM      4  C   UNL A   1      37.406  32.809  34.797  1.00  0.00     0.251 C 
ATOM      5  O   UNL A   1      37.409  31.981  35.708  1.00  0.00    -0.269 OA
ATOM      6  H   UNL A   1      35.547  33.331  35.254  1.00  0.00     0.163 HD
BRANCH   4   7
ATOM      7  C   UNL A   1      38.643  32.977  33.979  1.00  0.00     0.039 A 
ATOM      8  C   UNL A   1      40.814  33.534  32.307  1.00  0.00     0.067 A 
ATOM      9  C   UNL A   1      40.426  34.487  33.246  1.00  0.00     0.029 A 
ATOM     10  C   UNL A   1      40.214  32.274  32.273  1.00  0.00     0.029 A 
ATOM     11  C   UNL A   1      39.320  34.211  34.060  1.00  0.00     0.016 A 
ATOM     12  C   UNL A   1      39.164  31.989  33.142  1.00  0.00     0.016 A 
BRANCH   8  13
ATOM     13  N   UNL A   1      41.725  33.868  31.293  1.00  0.00    -0.217 N 
ATOM     14  C   UNL A   1      42.655  34.437  29.414  1.00  0.00     0.132 A 
ATOM     15  N   UNL A   1      43.639  34.140  30.325  1.00  0.00    -0.128 NA
ATOM     16  C   UNL A   1      41.420  34.293  30.015  1.00  0.00     0.071 A 
ATOM     17  N   UNL A   1      43.059  33.872  31.489  1.00  0.00    -0.061 NA
ATOM     18  C   UNL A   1      40.052  34.630  29.549  1.00  0.00     0.069 C 
BRANCH  14  19
ATOM     19  C   UNL A   1      42.933  34.996  28.102  1.00  0.00     0.087 C 
ATOM     20  C   UNL A   1      42.257  36.306  27.791  1.00  0.00     0.071 C 
ATOM     21  N   UNL A   1      43.761  34.316  27.362  1.00  0.00    -0.174 NA
BRANCH  21  22
ATOM     22  N   UNL A   1      44.078  34.686  26.083  1.00  0.00    -0.229 N 
ATOM     23  C   UNL A   1      44.164  33.866  24.978  1.00  0.00     0.332 C 
ATOM     24  H   UNL A   1      44.265  35.642  25.936  1.00  0.00     0.195 HD
ATOM     25  N   UNL A   1      44.496  34.548  23.847  1.00  0.00    -0.350 N 
ATOM     26  O   UNL A   1      43.964  32.661  24.928  1.00  0.00    -0.247 OA
ATOM     27  H   UNL A   1      44.656  35.519  23.886  1.00  0.00     0.161 HD
ATOM     28  H   UNL A   1      44.575  34.070  22.989  1.00  0.00     0.161 HD
ENDBRANCH  21  22
ENDBRANCH  14  19
ENDBRANCH   8  13
ENDBRANCH   4   7
ENDBRANCH   2   3
ENDBRANCH   1   2
BRANCH   1  29
ATOM     29  C   UNL A   1      35.918  33.366  31.449  1.00  0.00     0.023 C 
BRANCH  29  30
ATOM     30  C   UNL A   1      35.430  31.955  31.139  1.00  0.00     0.116 C 
BRANCH  30  31
ATOM     31  N   UNL A   1      34.849  31.836  29.804  1.00  0.00    -0.352 N 
ATOM     32  C   UNL A   1      35.507  31.597  28.609  1.00  0.00     0.251 C 
ATOM     33  H   UNL A   1      33.872  31.938  29.747  1.00  0.00     0.163 HD
ATOM     34  O   UNL A   1      35.006  31.936  27.549  1.00  0.00    -0.269 OA
BRANCH  32  35
ATOM     35  C   UNL A   1      36.819  30.920  28.647  1.00  0.00     0.039 A 
ATOM     36  C   UNL A   1      37.970  31.593  29.062  1.00  0.00     0.014 A 
ATOM     37  C   UNL A   1      36.871  29.574  28.287  1.00  0.00     0.014 A 
ATOM     38  C   UNL A   1      39.155  30.871  29.206  1.00  0.00     0.010 A 
ATOM     39  C   UNL A   1      38.004  28.840  28.541  1.00  0.00     0.010 A 
ATOM     40  C   UNL A   1      39.161  29.484  28.972  1.00  0.00    -0.014 A 
BRANCH  40  41
ATOM     41  C   UNL A   1      40.319  28.668  29.343  1.00  0.00     0.031 A 
ATOM     42  C   UNL A   1      40.560  28.588  30.809  1.00  0.00     0.074 A 
ATOM     43  C   UNL A   1      40.988  27.868  28.482  1.00  0.00     0.049 A 
ATOM     44  N   UNL A   1      41.532  29.122  31.470  1.00  0.00    -0.248 NA
ATOM     45  C   UNL A   1      39.526  27.987  31.667  1.00  0.00     0.031 C 
ATOM     46  C   UNL A   1      40.693  27.621  27.067  1.00  0.00     0.029 A 
ATOM     47  N   UNL A   1      42.017  27.006  28.724  1.00  0.00    -0.354 N 
ATOM     48  C   UNL A   1      41.379  28.697  32.785  1.00  0.00     0.074 A 
ATOM     49  C   UNL A   1      40.031  28.207  32.884  1.00  0.00     0.031 C 
ATOM     50  C   UNL A   1      41.354  26.518  26.651  1.00  0.00     0.029 A 
ATOM     51  C   UNL A   1      42.242  26.072  27.712  1.00  0.00     0.049 A 
ATOM     52  H   UNL A   1      42.559  27.041  29.545  1.00  0.00     0.167 HD
ATOM     53  C   UNL A   1      42.461  28.542  33.600  1.00  0.00     0.034 A 
ATOM     54  C   UNL A   1      43.075  24.995  27.745  1.00  0.00     0.034 A 
ATOM     55  C   UNL A   1      43.627  29.192  33.038  1.00  0.00     0.049 A 
ATOM     56  C   UNL A   1      44.104  25.287  28.772  1.00  0.00     0.074 A 
ATOM     57  C   UNL A   1      43.912  30.479  32.621  1.00  0.00     0.029 A 
ATOM     58  N   UNL A   1      44.588  28.397  32.450  1.00  0.00    -0.354 N 
ATOM     59  N   UNL A   1      44.969  26.258  28.658  1.00  0.00    -0.248 NA
ATOM     60  C   UNL A   1      43.859  24.839  30.133  1.00  0.00     0.031 C 
ATOM     61  C   UNL A   1      44.665  30.314  31.420  1.00  0.00     0.029 A 
ATOM     62  C   UNL A   1      44.889  28.948  31.229  1.00  0.00     0.049 A 
ATOM     63  H   UNL A   1      44.986  27.583  32.836  1.00  0.00     0.167 HD
ATOM     64  C   UNL A   1      45.013  26.844  29.911  1.00  0.00     0.074 A 
ATOM     65  C   UNL A   1      44.392  25.865  30.805  1.00  0.00     0.031 C 
ATOM     66  C   UNL A   1      45.281  28.176  30.062  1.00  0.00     0.034 A 
BRANCH  53  67
ATOM     67  C   UNL A   1      42.585  27.504  34.696  1.00  0.00     0.023 A 
ATOM     68  C   UNL A   1      43.350  26.357  34.411  1.00  0.00     0.031 A 
ATOM     69  C   UNL A   1      41.781  27.432  35.855  1.00  0.00     0.131 A 
ATOM     70  C   UNL A   1      43.215  25.187  35.179  1.00  0.00     0.055 A 
ATOM     71  C   UNL A   1      41.707  26.290  36.660  1.00  0.00     0.041 A 
ATOM     72  F   UNL A   1      40.950  28.412  36.226  1.00  0.00    -0.206 F 
ATOM     73  C   UNL A   1      42.399  25.147  36.305  1.00  0.00     0.022 A 
BRANCH  70  74
ATOM     74  S   UNL A   1      43.985  23.666  34.567  1.00  0.00     0.124 S 
ATOM     75  O   UNL A   1      45.042  24.198  33.715  1.00  0.00    -0.237 OA
ATOM     76  O   UNL A   1      44.414  23.026  35.805  1.00  0.00    -0.237 OA
ATOM     77  O   UNL A   1      42.894  22.996  33.863  1.00  0.00    -0.744 OA
ENDBRANCH  70  74
ENDBRANCH  53  67
BRANCH  54  78
ATOM     78  C   UNL A   1      42.845  23.632  27.176  1.00  0.00     0.023 A 
ATOM     79  C   UNL A   1      43.749  23.008  26.285  1.00  0.00     0.031 A 
ATOM     80  C   UNL A   1      41.836  22.808  27.724  1.00  0.00     0.131 A 
ATOM     81  C   UNL A   1      43.629  21.627  25.991  1.00  0.00     0.055 A 
ATOM     82  C   UNL A   1      41.722  21.447  27.432  1.00  0.00     0.041 A 
ATOM     83  F   UNL A   1      40.974  23.278  28.640  1.00  0.00    -0.206 F 
ATOM     84  C   UNL A   1      42.628  20.847  26.573  1.00  0.00     0.022 A 
BRANCH  81  85
ATOM     85  S   UNL A   1      44.843  20.786  24.919  1.00  0.00     0.124 S 
ATOM     86  O   UNL A   1      46.113  21.203  25.503  1.00  0.00    -0.237 OA
ATOM     87  O   UNL A   1      44.485  19.381  25.076  1.00  0.00    -0.237 OA
ATOM     88  O   UNL A   1      44.569  21.339  23.591  1.00  0.00    -0.744 OA
ENDBRANCH  81  85
ENDBRANCH  54  78
BRANCH  66  89
ATOM     89  C   UNL A   1      45.841  28.944  28.877  1.00  0.00     0.023 A 
ATOM     90  C   UNL A   1      47.207  29.014  28.516  1.00  0.00     0.031 A 
ATOM     91  C   UNL A   1      44.914  29.563  28.019  1.00  0.00     0.131 A 
ATOM     92  C   UNL A   1      47.597  29.704  27.348  1.00  0.00     0.055 A 
ATOM     93  C   UNL A   1      45.300  30.220  26.851  1.00  0.00     0.041 A 
ATOM     94  F   UNL A   1      43.599  29.516  28.288  1.00  0.00    -0.206 F 
ATOM     95  C   UNL A   1      46.645  30.302  26.517  1.00  0.00     0.022 A 
BRANCH  92  96
ATOM     96  S   UNL A   1      49.358  29.876  26.904  1.00  0.00     0.124 S 
ATOM     97  O   UNL A   1      49.517  28.979  25.766  1.00  0.00    -0.237 OA
ATOM     98  O   UNL A   1      49.471  31.303  26.613  1.00  0.00    -0.237 OA
ATOM     99  O   UNL A   1      50.056  29.448  28.119  1.00  0.00    -0.744 OA
ENDBRANCH  92  96
ENDBRANCH  66  89
ENDBRANCH  40  41
ENDBRANCH  32  35
ENDBRANCH  30  31
ENDBRANCH  29  30
ENDBRANCH   1  29
TORSDOF 17
ENDMDL
MODEL 3
REMARK VINA RESULT:     -12.8      2.130      3.158
REMARK SMILES C/C(=N\NC(N)=O)c1nnn(-c2ccc(C(=O)NCCCCNC(=O)c3ccc(-c4c5nc(c(-c6cc(S(=O)(=O)[O-])ccc6F)c6ccc([nH]6)c(-c6cc(S(=O)(=O)[O-])ccc6F)c6nc(c(-c7cc(S(=O)(=O)[O-])ccc7F)c7ccc4[nH]7)C=C6)C=C5)cc3)cc2)c1C
REMARK SMILES IDX 20 1 19 2 18 3 16 4 17 5 15 7 12 8 13 9 90 10 14 11 89 12
REMARK SMILES IDX 11 13 8 14 9 15 91 16 10 17 92 18 2 19 1 20 3 21 4 22 5 23
REMARK SMILES IDX 6 25 7 26 21 29 22 30 23 31 24 32 25 34 26 35 27 36 88 37
REMARK SMILES IDX 28 38 87 39 29 40 30 41 31 42 81 43 32 44 86 45 80 46 82 47
REMARK SMILES IDX 33 48 85 49 79 50 78 51 34 53 66 54 46 55 65 56 47 57 50 58
REMARK SMILES IDX 64 59 83 60 48 61 49 62 63 64 84 65 51 66 35 67 36 68 44 69
REMARK SMILES IDX 37 70 43 71 45 72 42 73 38 74 39 75 40 76 41 77 67 78 68 79
REMARK SMILES IDX 76 80 69 81 75 82 77 83 74 84 70 85 71 86 72 87 73 88 52 89
REMARK SMILES IDX 53 90 61 91 54 92 60 93 62 94 59 95 55 96 56 97 57 98 58 99
REMARK H PARENT 18 6 4 24 6 27 6 28 23 33 82 52 50 63
REMARK Flexibility Score: inf
ROOT
ATOM      1  C   UNL A   1      33.830  27.904  26.337  1.00  0.00     0.023 C 
ENDROOT
BRANCH   1   2
ATOM      2  C   UNL A   1      33.752  28.079  24.814  1.00  0.00     0.116 C 
BRANCH   2   3
ATOM      3  N   UNL A   1      32.547  27.473  24.269  1.00  0.00    -0.352 N 
ATOM      4  C   UNL A   1      32.215  26.185  23.924  1.00  0.00     0.251 C 
ATOM      5  O   UNL A   1      31.073  25.981  23.512  1.00  0.00    -0.269 OA
ATOM      6  H   UNL A   1      31.819  28.119  24.115  1.00  0.00     0.163 HD
BRANCH   4   7
ATOM      7  C   UNL A   1      33.139  25.022  24.072  1.00  0.00     0.039 A 
ATOM      8  C   UNL A   1      35.017  23.012  24.575  1.00  0.00     0.067 A 
ATOM      9  C   UNL A   1      34.124  23.366  25.584  1.00  0.00     0.029 A 
ATOM     10  C   UNL A   1      34.908  23.558  23.295  1.00  0.00     0.029 A 
ATOM     11  C   UNL A   1      33.205  24.394  25.332  1.00  0.00     0.016 A 
ATOM     12  C   UNL A   1      33.939  24.526  23.042  1.00  0.00     0.016 A 
BRANCH   8  13
ATOM     13  N   UNL A   1      36.123  22.197  24.862  1.00  0.00    -0.217 N 
ATOM     14  C   UNL A   1      38.059  21.431  25.483  1.00  0.00     0.132 A 
ATOM     15  N   UNL A   1      37.345  20.413  24.901  1.00  0.00    -0.128 NA
ATOM     16  C   UNL A   1      37.290  22.580  25.492  1.00  0.00     0.071 A 
ATOM     17  N   UNL A   1      36.136  20.874  24.599  1.00  0.00    -0.061 NA
ATOM     18  C   UNL A   1      37.504  23.903  26.128  1.00  0.00     0.069 C 
BRANCH  14  19
ATOM     19  C   UNL A   1      39.338  21.226  26.141  1.00  0.00     0.087 C 
ATOM     20  C   UNL A   1      40.139  22.472  26.418  1.00  0.00     0.071 C 
ATOM     21  N   UNL A   1      39.625  19.994  26.446  1.00  0.00    -0.174 NA
BRANCH  21  22
ATOM     22  N   UNL A   1      40.817  19.636  27.017  1.00  0.00    -0.229 N 
ATOM     23  C   UNL A   1      41.973  19.266  26.366  1.00  0.00     0.332 C 
ATOM     24  H   UNL A   1      40.850  19.645  28.002  1.00  0.00     0.195 HD
ATOM     25  N   UNL A   1      42.987  18.975  27.228  1.00  0.00    -0.350 N 
ATOM     26  O   UNL A   1      42.159  19.196  25.160  1.00  0.00    -0.247 OA
ATOM     27  H   UNL A   1      42.839  19.031  28.200  1.00  0.00     0.161 HD
ATOM     28  H   UNL A   1      43.869  18.709  26.879  1.00  0.00     0.161 HD
ENDBRANCH  21  22
ENDBRANCH  14  19
ENDBRANCH   8  13
ENDBRANCH   4   7
ENDBRANCH   2   3
ENDBRANCH   1   2
BRANCH   1  29
ATOM     29  C   UNL A   1      34.011  29.202  27.137  1.00  0.00     0.023 C 
BRANCH  29  30
ATOM     30  C   UNL A   1      35.436  29.469  27.611  1.00  0.00     0.116 C 
BRANCH  30  31
ATOM     31  N   UNL A   1      35.491  29.988  28.976  1.00  0.00    -0.352 N 
ATOM     32  C   UNL A   1      36.390  29.655  29.976  1.00  0.00     0.251 C 
ATOM     33  H   UNL A   1      34.807  30.653  29.214  1.00  0.00     0.163 HD
ATOM     34  O   UNL A   1      36.095  29.811  31.150  1.00  0.00    -0.269 OA
BRANCH  32  35
ATOM     35  C   UNL A   1      37.711  29.119  29.589  1.00  0.00     0.039 A 
ATOM     36  C   UNL A   1      38.471  29.721  28.584  1.00  0.00     0.014 A 
ATOM     37  C   UNL A   1      38.196  28.011  30.283  1.00  0.00     0.014 A 
ATOM     38  C   UNL A   1      39.765  29.256  28.352  1.00  0.00     0.010 A 
ATOM     39  C   UNL A   1      39.509  27.632  30.136  1.00  0.00     0.010 A 
ATOM     40  C   UNL A   1      40.293  28.227  29.152  1.00  0.00    -0.014 A 
BRANCH  40  41
ATOM     41  C   UNL A   1      41.716  27.887  29.090  1.00  0.00     0.031 A 
ATOM     42  C   UNL A   1      42.029  26.756  28.175  1.00  0.00     0.074 A 
ATOM     43  C   UNL A   1      42.700  28.648  29.618  1.00  0.00     0.049 A 
ATOM     44  N   UNL A   1      42.417  25.570  28.505  1.00  0.00    -0.248 NA
ATOM     45  C   UNL A   1      41.726  26.897  26.741  1.00  0.00     0.031 C 
ATOM     46  C   UNL A   1      42.573  29.938  30.303  1.00  0.00     0.029 A 
ATOM     47  N   UNL A   1      44.052  28.482  29.553  1.00  0.00    -0.354 N 
ATOM     48  C   UNL A   1      42.667  24.902  27.311  1.00  0.00     0.074 A 
ATOM     49  C   UNL A   1      42.015  25.675  26.288  1.00  0.00     0.031 C 
ATOM     50  C   UNL A   1      43.781  30.539  30.370  1.00  0.00     0.029 A 
ATOM     51  C   UNL A   1      44.794  29.617  29.884  1.00  0.00     0.049 A 
ATOM     52  H   UNL A   1      44.472  27.630  29.294  1.00  0.00     0.167 HD
ATOM     53  C   UNL A   1      43.610  23.921  27.242  1.00  0.00     0.034 A 
ATOM     54  C   UNL A   1      46.136  29.802  29.749  1.00  0.00     0.034 A 
ATOM     55  C   UNL A   1      43.994  23.481  28.568  1.00  0.00     0.049 A 
ATOM     56  C   UNL A   1      46.750  28.452  29.736  1.00  0.00     0.074 A 
ATOM     57  C   UNL A   1      43.308  22.980  29.659  1.00  0.00     0.029 A 
ATOM     58  N   UNL A   1      45.204  23.914  29.067  1.00  0.00    -0.354 N 
ATOM     59  N   UNL A   1      46.720  27.646  30.762  1.00  0.00    -0.248 NA
ATOM     60  C   UNL A   1      46.951  27.804  28.449  1.00  0.00     0.031 C 
ATOM     61  C   UNL A   1      43.904  23.617  30.788  1.00  0.00     0.029 A 
ATOM     62  C   UNL A   1      44.983  24.382  30.338  1.00  0.00     0.049 A 
ATOM     63  H   UNL A   1      46.069  23.891  28.597  1.00  0.00     0.167 HD
ATOM     64  C   UNL A   1      46.426  26.403  30.229  1.00  0.00     0.074 A 
ATOM     65  C   UNL A   1      46.684  26.539  28.794  1.00  0.00     0.031 C 
ATOM     66  C   UNL A   1      45.728  25.471  30.946  1.00  0.00     0.034 A 
BRANCH  53  67
ATOM     67  C   UNL A   1      44.466  23.618  26.030  1.00  0.00     0.023 A 
ATOM     68  C   UNL A   1      44.526  22.277  25.604  1.00  0.00     0.031 A 
ATOM     69  C   UNL A   1      45.432  24.483  25.468  1.00  0.00     0.131 A 
ATOM     70  C   UNL A   1      45.561  21.830  24.764  1.00  0.00     0.055 A 
ATOM     71  C   UNL A   1      46.415  24.048  24.574  1.00  0.00     0.041 A 
ATOM     72  F   UNL A   1      45.547  25.769  25.819  1.00  0.00    -0.206 F 
ATOM     73  C   UNL A   1      46.506  22.708  24.244  1.00  0.00     0.022 A 
BRANCH  70  74
ATOM     74  S   UNL A   1      45.754  20.046  24.518  1.00  0.00     0.124 S 
ATOM     75  O   UNL A   1      47.154  19.958  24.119  1.00  0.00    -0.237 OA
ATOM     76  O   UNL A   1      45.425  19.523  25.839  1.00  0.00    -0.237 OA
ATOM     77  O   UNL A   1      44.785  19.744  23.467  1.00  0.00    -0.744 OA
ENDBRANCH  70  74
ENDBRANCH  53  67
BRANCH  54  78
ATOM     78  C   UNL A   1      46.859  31.038  29.320  1.00  0.00     0.023 A 
ATOM     79  C   UNL A   1      46.598  31.695  28.095  1.00  0.00     0.031 A 
ATOM     80  C   UNL A   1      47.647  31.746  30.256  1.00  0.00     0.131 A 
ATOM     81  C   UNL A   1      47.105  32.997  27.856  1.00  0.00     0.055 A 
ATOM     82  C   UNL A   1      48.142  33.030  30.016  1.00  0.00     0.041 A 
ATOM     83  F   UNL A   1      47.889  31.251  31.480  1.00  0.00    -0.206 F 
ATOM     84  C   UNL A   1      47.861  33.668  28.819  1.00  0.00     0.022 A 
BRANCH  81  85
ATOM     85  S   UNL A   1      46.699  33.896  26.321  1.00  0.00     0.124 S 
ATOM     86  O   UNL A   1      45.690  33.035  25.715  1.00  0.00    -0.237 OA
ATOM     87  O   UNL A   1      46.238  35.185  26.821  1.00  0.00    -0.237 OA
ATOM     88  O   UNL A   1      47.975  33.942  25.604  1.00  0.00    -0.744 OA
ENDBRANCH  81  85
ENDBRANCH  54  78
BRANCH  66  89
ATOM     89  C   UNL A   1      45.552  25.686  32.440  1.00  0.00     0.023 A 
ATOM     90  C   UNL A   1      44.391  26.199  33.064  1.00  0.00     0.031 A 
ATOM     91  C   UNL A   1      46.598  25.255  33.276  1.00  0.00     0.131 A 
ATOM     92  C   UNL A   1      44.322  26.285  34.471  1.00  0.00     0.055 A 
ATOM     93  C   UNL A   1      46.516  25.317  34.667  1.00  0.00     0.041 A 
ATOM     94  F   UNL A   1      47.721  24.736  32.752  1.00  0.00    -0.206 F 
ATOM     95  C   UNL A   1      45.381  25.842  35.269  1.00  0.00     0.022 A 
BRANCH  92  96
ATOM     96  S   UNL A   1      42.869  27.017  35.296  1.00  0.00     0.124 S 
ATOM     97  O   UNL A   1      43.298  27.167  36.682  1.00  0.00    -0.237 OA
ATOM     98  O   UNL A   1      42.674  28.257  34.550  1.00  0.00    -0.237 OA
ATOM     99  O   UNL A   1      41.822  26.014  35.088  1.00  0.00    -0.744 OA
ENDBRANCH  92  96
ENDBRANCH  66  89
ENDBRANCH  40  41
ENDBRANCH  32  35
ENDBRANCH  30  31
ENDBRANCH  29  30
ENDBRANCH   1  29
TORSDOF 17
ENDMDL
