MODEL 1
REMARK VINA RESULT:     -11.9      0.000      0.000
REMARK SMILES O=C(CNc1nc(-c2ccccc2)c(-c2ccccc2)s1)NCCCCNC(=O)c1ccc(-c2c3nc(c(-c4cc(S(=O)(=O)[O-])ccc4F)c4ccc([nH]4)c(-c4cc(S(=O)(=O)[O-])ccc4F)c4nc(c(-c5cc(S(=O)(=O)[O-])ccc5F)c5ccc2[nH]5)C=C4)C=C3)cc1
REMARK SMILES IDX 24 1 23 2 22 3 1 4 2 5 3 7 4 8 5 10 6 11 21 12 7 13 14 14
REMARK SMILES IDX 8 15 9 16 13 17 10 18 12 19 11 20 15 21 16 22 20 23 17 24
REMARK SMILES IDX 19 25 18 26 25 27 26 28 27 29 28 30 29 32 30 33 31 34 92 35
REMARK SMILES IDX 32 36 91 37 33 38 34 39 35 40 85 41 36 42 90 43 84 44 86 45
REMARK SMILES IDX 37 46 89 47 83 48 82 49 38 51 70 52 50 53 69 54 51 55 54 56
REMARK SMILES IDX 68 57 87 58 52 59 53 60 67 62 88 63 55 64 39 65 40 66 48 67
REMARK SMILES IDX 41 68 47 69 49 70 46 71 42 72 43 73 44 74 45 75 71 76 72 77
REMARK SMILES IDX 80 78 73 79 79 80 81 81 78 82 74 83 75 84 76 85 77 86 56 87
REMARK SMILES IDX 57 88 65 89 58 90 64 91 66 92 63 93 59 94 60 95 61 96 62 97
REMARK H PARENT 22 6 4 9 27 31 86 50 54 61
REMARK Flexibility Score: inf
ROOT
ATOM      1  C   UNL A   1      34.829  22.616  26.099  1.00  0.00     0.023 C 
ENDROOT
BRANCH   1   2
ATOM      2  C   UNL A   1      34.716  21.700  24.881  1.00  0.00     0.116 C 
BRANCH   2   3
ATOM      3  N   UNL A   1      33.720  22.155  23.935  1.00  0.00    -0.355 N 
ATOM      4  O   UNL A   1      35.153  23.253  22.501  1.00  0.00    -0.273 OA
ATOM      5  C   UNL A   1      34.021  22.882  22.795  1.00  0.00     0.239 C 
ATOM      6  H   UNL A   1      32.776  21.936  24.111  1.00  0.00     0.163 HD
BRANCH   5   7
ATOM      7  C   UNL A   1      32.785  23.199  21.935  1.00  0.00     0.215 C 
BRANCH   7   8
ATOM      8  N   UNL A   1      32.848  24.588  21.506  1.00  0.00    -0.352 N 
ATOM      9  H   UNL A   1      33.320  24.810  20.671  1.00  0.00     0.163 HD
BRANCH   8  10
ATOM     10  C   UNL A   1      32.278  25.576  22.217  1.00  0.00     0.184 A 
ATOM     11  N   UNL A   1      31.265  26.315  21.832  1.00  0.00    -0.220 NA
ATOM     12  S   UNL A   1      32.928  25.964  23.761  1.00  0.00    -0.096 S 
ATOM     13  C   UNL A   1      30.995  27.282  22.792  1.00  0.00     0.091 A 
ATOM     14  C   UNL A   1      31.837  27.281  23.894  1.00  0.00     0.064 A 
BRANCH  13  15
ATOM     15  C   UNL A   1      29.876  28.202  22.646  1.00  0.00     0.002 A 
ATOM     16  C   UNL A   1      30.044  29.448  22.028  1.00  0.00     0.010 A 
ATOM     17  C   UNL A   1      28.637  27.875  23.208  1.00  0.00     0.010 A 
ATOM     18  C   UNL A   1      28.997  30.371  22.011  1.00  0.00     0.001 A 
ATOM     19  C   UNL A   1      27.592  28.802  23.193  1.00  0.00     0.001 A 
ATOM     20  C   UNL A   1      27.775  30.052  22.602  1.00  0.00     0.000 A 
ENDBRANCH  13  15
BRANCH  14  21
ATOM     21  C   UNL A   1      31.888  28.150  25.069  1.00  0.00    -0.006 A 
ATOM     22  C   UNL A   1      32.183  29.514  24.928  1.00  0.00     0.009 A 
ATOM     23  C   UNL A   1      31.587  27.646  26.342  1.00  0.00     0.009 A 
ATOM     24  C   UNL A   1      32.172  30.358  26.039  1.00  0.00     0.001 A 
ATOM     25  C   UNL A   1      31.576  28.493  27.451  1.00  0.00     0.001 A 
ATOM     26  C   UNL A   1      31.869  29.848  27.300  1.00  0.00     0.000 A 
ENDBRANCH  14  21
ENDBRANCH   8  10
ENDBRANCH   7   8
ENDBRANCH   5   7
ENDBRANCH   2   3
ENDBRANCH   1   2
BRANCH   1  27
ATOM     27  C   UNL A   1      36.075  23.506  26.133  1.00  0.00     0.023 C 
BRANCH  27  28
ATOM     28  C   UNL A   1      37.219  23.084  25.215  1.00  0.00     0.116 C 
BRANCH  28  29
ATOM     29  N   UNL A   1      38.186  22.219  25.869  1.00  0.00    -0.352 N 
ATOM     30  C   UNL A   1      39.288  22.548  26.626  1.00  0.00     0.251 C 
ATOM     31  H   UNL A   1      38.032  21.254  25.753  1.00  0.00     0.163 HD
ATOM     32  O   UNL A   1      40.067  21.662  26.972  1.00  0.00    -0.269 OA
BRANCH  30  33
ATOM     33  C   UNL A   1      39.559  23.959  26.991  1.00  0.00     0.039 A 
ATOM     34  C   UNL A   1      39.308  24.377  28.301  1.00  0.00     0.014 A 
ATOM     35  C   UNL A   1      40.053  24.872  26.056  1.00  0.00     0.014 A 
ATOM     36  C   UNL A   1      39.627  25.681  28.692  1.00  0.00     0.010 A 
ATOM     37  C   UNL A   1      40.441  26.149  26.465  1.00  0.00     0.010 A 
ATOM     38  C   UNL A   1      40.237  26.568  27.790  1.00  0.00    -0.014 A 
BRANCH  38  39
ATOM     39  C   UNL A   1      40.681  27.924  28.217  1.00  0.00     0.031 A 
ATOM     40  C   UNL A   1      42.141  28.291  28.190  1.00  0.00     0.074 A 
ATOM     41  C   UNL A   1      39.775  28.807  28.686  1.00  0.00     0.049 A 
ATOM     42  N   UNL A   1      42.725  29.391  28.593  1.00  0.00    -0.248 NA
ATOM     43  C   UNL A   1      43.066  27.277  27.666  1.00  0.00     0.031 C 
ATOM     44  C   UNL A   1      38.335  28.562  28.792  1.00  0.00     0.029 A 
ATOM     45  N   UNL A   1      39.927  30.084  29.168  1.00  0.00    -0.354 N 
ATOM     46  C   UNL A   1      44.087  29.197  28.383  1.00  0.00     0.074 A 
ATOM     47  C   UNL A   1      44.242  27.850  27.874  1.00  0.00     0.031 C 
ATOM     48  C   UNL A   1      37.735  29.662  29.276  1.00  0.00     0.029 A 
ATOM     49  C   UNL A   1      38.748  30.672  29.569  1.00  0.00     0.049 A 
ATOM     50  H   UNL A   1      40.800  30.538  29.222  1.00  0.00     0.167 HD
ATOM     51  C   UNL A   1      45.110  30.068  28.577  1.00  0.00     0.034 A 
ATOM     52  C   UNL A   1      38.509  31.878  30.123  1.00  0.00     0.034 A 
ATOM     53  C   UNL A   1      44.939  31.413  29.075  1.00  0.00     0.049 A 
ATOM     54  C   UNL A   1      39.668  32.812  30.369  1.00  0.00     0.074 A 
ATOM     55  C   UNL A   1      45.901  32.392  29.254  1.00  0.00     0.029 A 
ATOM     56  N   UNL A   1      43.732  31.965  29.485  1.00  0.00    -0.354 N 
ATOM     57  N   UNL A   1      40.945  32.629  30.119  1.00  0.00    -0.248 NA
ATOM     58  C   UNL A   1      39.353  34.116  30.964  1.00  0.00     0.031 C 
ATOM     59  C   UNL A   1      45.291  33.503  29.847  1.00  0.00     0.029 A 
ATOM     60  C   UNL A   1      43.933  33.255  29.953  1.00  0.00     0.049 A 
ATOM     61  H   UNL A   1      42.860  31.507  29.447  1.00  0.00     0.167 HD
ATOM     62  C   UNL A   1      41.577  33.813  30.493  1.00  0.00     0.074 A 
ATOM     63  C   UNL A   1      40.541  34.704  30.970  1.00  0.00     0.031 C 
ATOM     64  C   UNL A   1      42.895  34.136  30.438  1.00  0.00     0.034 A 
BRANCH  51  65
ATOM     65  C   UNL A   1      46.510  29.579  28.280  1.00  0.00     0.023 A 
ATOM     66  C   UNL A   1      47.299  28.950  29.259  1.00  0.00     0.031 A 
ATOM     67  C   UNL A   1      47.069  29.756  27.002  1.00  0.00     0.131 A 
ATOM     68  C   UNL A   1      48.624  28.592  28.968  1.00  0.00     0.055 A 
ATOM     69  C   UNL A   1      48.358  29.318  26.693  1.00  0.00     0.041 A 
ATOM     70  F   UNL A   1      46.374  30.370  26.031  1.00  0.00    -0.206 F 
ATOM     71  C   UNL A   1      49.149  28.746  27.683  1.00  0.00     0.022 A 
BRANCH  68  72
ATOM     72  S   UNL A   1      49.697  28.061  30.331  1.00  0.00     0.124 S 
ATOM     73  O   UNL A   1      50.981  27.908  29.651  1.00  0.00    -0.237 OA
ATOM     74  O   UNL A   1      49.596  29.178  31.264  1.00  0.00    -0.237 OA
ATOM     75  O   UNL A   1      49.086  26.813  30.782  1.00  0.00    -0.744 OA
ENDBRANCH  68  72
ENDBRANCH  51  65
BRANCH  52  76
ATOM     76  C   UNL A   1      37.121  32.279  30.499  1.00  0.00     0.023 A 
ATOM     77  C   UNL A   1      36.251  32.845  29.555  1.00  0.00     0.031 A 
ATOM     78  C   UNL A   1      36.663  32.156  31.824  1.00  0.00     0.131 A 
ATOM     79  C   UNL A   1      34.991  33.316  29.955  1.00  0.00     0.055 A 
ATOM     80  C   UNL A   1      35.386  32.568  32.205  1.00  0.00     0.041 A 
ATOM     81  F   UNL A   1      37.453  31.623  32.769  1.00  0.00    -0.206 F 
ATOM     82  C   UNL A   1      34.546  33.167  31.270  1.00  0.00     0.022 A 
BRANCH  79  83
ATOM     83  S   UNL A   1      33.980  34.222  28.752  1.00  0.00     0.124 S 
ATOM     84  O   UNL A   1      33.752  33.204  27.732  1.00  0.00    -0.237 OA
ATOM     85  O   UNL A   1      32.821  34.599  29.553  1.00  0.00    -0.237 OA
ATOM     86  O   UNL A   1      34.845  35.329  28.347  1.00  0.00    -0.744 OA
ENDBRANCH  79  83
ENDBRANCH  52  76
BRANCH  64  87
ATOM     87  C   UNL A   1      43.281  35.533  30.862  1.00  0.00     0.023 A 
ATOM     88  C   UNL A   1      43.395  36.587  29.939  1.00  0.00     0.031 A 
ATOM     89  C   UNL A   1      43.550  35.811  32.215  1.00  0.00     0.131 A 
ATOM     90  C   UNL A   1      43.824  37.852  30.369  1.00  0.00     0.055 A 
ATOM     91  C   UNL A   1      43.908  37.088  32.648  1.00  0.00     0.041 A 
ATOM     92  F   UNL A   1      43.462  34.844  33.142  1.00  0.00    -0.206 F 
ATOM     93  C   UNL A   1      44.062  38.114  31.720  1.00  0.00     0.022 A 
BRANCH  90  94
ATOM     94  S   UNL A   1      44.163  39.127  29.125  1.00  0.00     0.124 S 
ATOM     95  O   UNL A   1      45.410  39.705  29.615  1.00  0.00    -0.237 OA
ATOM     96  O   UNL A   1      44.263  38.346  27.896  1.00  0.00    -0.237 OA
ATOM     97  O   UNL A   1      42.997  40.005  29.206  1.00  0.00    -0.744 OA
ENDBRANCH  90  94
ENDBRANCH  64  87
ENDBRANCH  38  39
ENDBRANCH  30  33
ENDBRANCH  28  29
ENDBRANCH  27  28
ENDBRANCH   1  27
TORSDOF 18
ENDMDL
MODEL 2
REMARK VINA RESULT:     -11.7      2.337      2.818
REMARK SMILES O=C(CNc1nc(-c2ccccc2)c(-c2ccccc2)s1)NCCCCNC(=O)c1ccc(-c2c3nc(c(-c4cc(S(=O)(=O)[O-])ccc4F)c4ccc([nH]4)c(-c4cc(S(=O)(=O)[O-])ccc4F)c4nc(c(-c5cc(S(=O)(=O)[O-])ccc5F)c5ccc2[nH]5)C=C4)C=C3)cc1
REMARK SMILES IDX 24 1 23 2 22 3 1 4 2 5 3 7 4 8 5 10 6 11 21 12 7 13 14 14
REMARK SMILES IDX 8 15 9 16 13 17 10 18 12 19 11 20 15 21 16 22 20 23 17 24
REMARK SMILES IDX 19 25 18 26 25 27 26 28 27 29 28 30 29 32 30 33 31 34 92 35
REMARK SMILES IDX 32 36 91 37 33 38 34 39 35 40 85 41 36 42 90 43 84 44 86 45
REMARK SMILES IDX 37 46 89 47 83 48 82 49 38 51 70 52 50 53 69 54 51 55 54 56
REMARK SMILES IDX 68 57 87 58 52 59 53 60 67 62 88 63 55 64 39 65 40 66 48 67
REMARK SMILES IDX 41 68 47 69 49 70 46 71 42 72 43 73 44 74 45 75 71 76 72 77
REMARK SMILES IDX 80 78 73 79 79 80 81 81 78 82 74 83 75 84 76 85 77 86 56 87
REMARK SMILES IDX 57 88 65 89 58 90 64 91 66 92 63 93 59 94 60 95 61 96 62 97
REMARK H PARENT 22 6 4 9 27 31 86 50 54 61
REMARK Flexibility Score: inf
ROOT
ATOM      1  C   UNL A   1      35.146  21.374  26.015  1.00  0.00     0.023 C 
ENDROOT
BRANCH   1   2
ATOM      2  C   UNL A   1      34.807  20.778  24.650  1.00  0.00     0.116 C 
BRANCH   2   3
ATOM      3  N   UNL A   1      33.633  21.383  24.057  1.00  0.00    -0.355 N 
ATOM      4  O   UNL A   1      34.722  22.975  22.797  1.00  0.00    -0.273 OA
ATOM      5  C   UNL A   1      33.683  22.427  23.150  1.00  0.00     0.239 C 
ATOM      6  H   UNL A   1      32.749  21.032  24.313  1.00  0.00     0.163 HD
BRANCH   5   7
ATOM      7  C   UNL A   1      32.296  22.852  22.636  1.00  0.00     0.215 C 
BRANCH   7   8
ATOM      8  N   UNL A   1      32.400  24.163  22.012  1.00  0.00    -0.352 N 
ATOM      9  H   UNL A   1      32.796  24.234  21.114  1.00  0.00     0.163 HD
BRANCH   8  10
ATOM     10  C   UNL A   1      31.970  25.278  22.628  1.00  0.00     0.184 A 
ATOM     11  N   UNL A   1      31.052  26.098  22.178  1.00  0.00    -0.220 NA
ATOM     12  S   UNL A   1      32.687  25.725  24.125  1.00  0.00    -0.096 S 
ATOM     13  C   UNL A   1      30.919  27.178  23.042  1.00  0.00     0.091 A 
ATOM     14  C   UNL A   1      31.772  27.175  24.136  1.00  0.00     0.064 A 
BRANCH  13  15
ATOM     15  C   UNL A   1      29.923  28.214  22.812  1.00  0.00     0.002 A 
ATOM     16  C   UNL A   1      28.590  28.032  23.202  1.00  0.00     0.010 A 
ATOM     17  C   UNL A   1      30.283  29.372  22.112  1.00  0.00     0.010 A 
ATOM     18  C   UNL A   1      27.623  28.978  22.860  1.00  0.00     0.001 A 
ATOM     19  C   UNL A   1      29.311  30.315  21.768  1.00  0.00     0.001 A 
ATOM     20  C   UNL A   1      27.980  30.113  22.135  1.00  0.00     0.000 A 
ENDBRANCH  13  15
BRANCH  14  21
ATOM     21  C   UNL A   1      31.949  28.137  25.222  1.00  0.00    -0.006 A 
ATOM     22  C   UNL A   1      31.472  27.849  26.509  1.00  0.00     0.009 A 
ATOM     23  C   UNL A   1      32.649  29.333  25.007  1.00  0.00     0.009 A 
ATOM     24  C   UNL A   1      31.694  28.738  27.561  1.00  0.00     0.001 A 
ATOM     25  C   UNL A   1      32.870  30.220  26.062  1.00  0.00     0.001 A 
ATOM     26  C   UNL A   1      32.393  29.923  27.337  1.00  0.00     0.000 A 
ENDBRANCH  14  21
ENDBRANCH   8  10
ENDBRANCH   7   8
ENDBRANCH   5   7
ENDBRANCH   2   3
ENDBRANCH   1   2
BRANCH   1  27
ATOM     27  C   UNL A   1      36.221  22.465  26.003  1.00  0.00     0.023 C 
BRANCH  27  28
ATOM     28  C   UNL A   1      37.398  22.228  25.059  1.00  0.00     0.116 C 
BRANCH  28  29
ATOM     29  N   UNL A   1      38.356  21.265  25.573  1.00  0.00    -0.352 N 
ATOM     30  C   UNL A   1      39.516  21.473  26.284  1.00  0.00     0.251 C 
ATOM     31  H   UNL A   1      38.146  20.322  25.383  1.00  0.00     0.163 HD
ATOM     32  O   UNL A   1      40.267  20.525  26.502  1.00  0.00    -0.269 OA
BRANCH  30  33
ATOM     33  C   UNL A   1      39.880  22.832  26.753  1.00  0.00     0.039 A 
ATOM     34  C   UNL A   1      40.741  22.960  27.847  1.00  0.00     0.014 A 
ATOM     35  C   UNL A   1      39.378  23.977  26.128  1.00  0.00     0.014 A 
ATOM     36  C   UNL A   1      41.161  24.228  28.261  1.00  0.00     0.010 A 
ATOM     37  C   UNL A   1      39.856  25.237  26.494  1.00  0.00     0.010 A 
ATOM     38  C   UNL A   1      40.757  25.377  27.561  1.00  0.00    -0.014 A 
BRANCH  38  39
ATOM     39  C   UNL A   1      41.278  26.726  27.922  1.00  0.00     0.031 A 
ATOM     40  C   UNL A   1      42.703  27.100  27.609  1.00  0.00     0.074 A 
ATOM     41  C   UNL A   1      40.486  27.593  28.584  1.00  0.00     0.049 A 
ATOM     42  N   UNL A   1      43.357  28.193  27.912  1.00  0.00    -0.248 NA
ATOM     43  C   UNL A   1      43.504  26.102  26.886  1.00  0.00     0.031 C 
ATOM     44  C   UNL A   1      39.097  27.340  28.973  1.00  0.00     0.029 A 
ATOM     45  N   UNL A   1      40.733  28.860  29.055  1.00  0.00    -0.354 N 
ATOM     46  C   UNL A   1      44.649  28.010  27.427  1.00  0.00     0.074 A 
ATOM     47  C   UNL A   1      44.698  26.675  26.866  1.00  0.00     0.031 C 
ATOM     48  C   UNL A   1      38.607  28.426  29.593  1.00  0.00     0.029 A 
ATOM     49  C   UNL A   1      39.659  29.433  29.699  1.00  0.00     0.049 A 
ATOM     50  H   UNL A   1      41.599  29.317  28.943  1.00  0.00     0.167 HD
ATOM     51  C   UNL A   1      45.690  28.880  27.431  1.00  0.00     0.034 A 
ATOM     52  C   UNL A   1      39.536  30.625  30.318  1.00  0.00     0.034 A 
ATOM     53  C   UNL A   1      45.622  30.213  27.984  1.00  0.00     0.049 A 
ATOM     54  C   UNL A   1      40.722  31.558  30.346  1.00  0.00     0.074 A 
ATOM     55  C   UNL A   1      46.601  31.192  27.988  1.00  0.00     0.029 A 
ATOM     56  N   UNL A   1      44.524  30.750  28.641  1.00  0.00    -0.354 N 
ATOM     57  N   UNL A   1      41.922  31.387  29.840  1.00  0.00    -0.248 NA
ATOM     58  C   UNL A   1      40.534  32.848  31.023  1.00  0.00     0.031 C 
ATOM     59  C   UNL A   1      46.124  32.287  28.717  1.00  0.00     0.029 A 
ATOM     60  C   UNL A   1      44.815  32.030  29.090  1.00  0.00     0.049 A 
ATOM     61  H   UNL A   1      43.662  30.290  28.770  1.00  0.00     0.167 HD
ATOM     62  C   UNL A   1      42.616  32.565  30.106  1.00  0.00     0.074 A 
ATOM     63  C   UNL A   1      41.699  33.440  30.803  1.00  0.00     0.031 C 
ATOM     64  C   UNL A   1      43.897  32.895  29.794  1.00  0.00     0.034 A 
BRANCH  51  65
ATOM     65  C   UNL A   1      47.001  28.405  26.847  1.00  0.00     0.023 A 
ATOM     66  C   UNL A   1      47.201  28.306  25.459  1.00  0.00     0.031 A 
ATOM     67  C   UNL A   1      48.062  28.033  27.691  1.00  0.00     0.131 A 
ATOM     68  C   UNL A   1      48.401  27.776  24.960  1.00  0.00     0.055 A 
ATOM     69  C   UNL A   1      49.286  27.589  27.186  1.00  0.00     0.041 A 
ATOM     70  F   UNL A   1      47.925  28.084  29.025  1.00  0.00    -0.206 F 
ATOM     71  C   UNL A   1      49.456  27.444  25.813  1.00  0.00     0.022 A 
BRANCH  68  72
ATOM     72  S   UNL A   1      48.507  27.389  23.191  1.00  0.00     0.124 S 
ATOM     73  O   UNL A   1      48.359  25.935  23.200  1.00  0.00    -0.237 OA
ATOM     74  O   UNL A   1      47.388  28.142  22.636  1.00  0.00    -0.237 OA
ATOM     75  O   UNL A   1      49.834  27.870  22.813  1.00  0.00    -0.744 OA
ENDBRANCH  68  72
ENDBRANCH  51  65
BRANCH  52  76
ATOM     76  C   UNL A   1      38.254  31.011  30.975  1.00  0.00     0.023 A 
ATOM     77  C   UNL A   1      37.244  31.673  30.259  1.00  0.00     0.031 A 
ATOM     78  C   UNL A   1      38.039  30.776  32.346  1.00  0.00     0.131 A 
ATOM     79  C   UNL A   1      36.093  32.125  30.923  1.00  0.00     0.055 A 
ATOM     80  C   UNL A   1      36.866  31.171  32.989  1.00  0.00     0.041 A 
ATOM     81  F   UNL A   1      38.971  30.149  33.081  1.00  0.00    -0.206 F 
ATOM     82  C   UNL A   1      35.890  31.865  32.279  1.00  0.00     0.022 A 
BRANCH  79  83
ATOM     83  S   UNL A   1      34.910  33.151  30.008  1.00  0.00     0.124 S 
ATOM     84  O   UNL A   1      34.034  33.617  31.078  1.00  0.00    -0.237 OA
ATOM     85  O   UNL A   1      35.781  34.155  29.407  1.00  0.00    -0.237 OA
ATOM     86  O   UNL A   1      34.301  32.211  29.068  1.00  0.00    -0.744 OA
ENDBRANCH  79  83
ENDBRANCH  52  76
BRANCH  64  87
ATOM     87  C   UNL A   1      44.361  34.284  30.164  1.00  0.00     0.023 A 
ATOM     88  C   UNL A   1      45.016  34.552  31.378  1.00  0.00     0.031 A 
ATOM     89  C   UNL A   1      44.133  35.360  29.287  1.00  0.00     0.131 A 
ATOM     90  C   UNL A   1      45.366  35.870  31.709  1.00  0.00     0.055 A 
ATOM     91  C   UNL A   1      44.546  36.658  29.590  1.00  0.00     0.041 A 
ATOM     92  F   UNL A   1      43.508  35.167  28.115  1.00  0.00    -0.206 F 
ATOM     93  C   UNL A   1      45.153  36.921  30.814  1.00  0.00     0.022 A 
BRANCH  90  94
ATOM     94  S   UNL A   1      46.015  36.209  33.368  1.00  0.00     0.124 S 
ATOM     95  O   UNL A   1      45.305  35.225  34.179  1.00  0.00    -0.237 OA
ATOM     96  O   UNL A   1      47.446  35.979  33.197  1.00  0.00    -0.237 OA
ATOM     97  O   UNL A   1      45.637  37.601  33.608  1.00  0.00    -0.744 OA
ENDBRANCH  90  94
ENDBRANCH  64  87
ENDBRANCH  38  39
ENDBRANCH  30  33
ENDBRANCH  28  29
ENDBRANCH  27  28
ENDBRANCH   1  27
TORSDOF 18
ENDMDL
MODEL 3
REMARK VINA RESULT:     -11.7      3.480      8.262
REMARK SMILES O=C(CNc1nc(-c2ccccc2)c(-c2ccccc2)s1)NCCCCNC(=O)c1ccc(-c2c3nc(c(-c4cc(S(=O)(=O)[O-])ccc4F)c4ccc([nH]4)c(-c4cc(S(=O)(=O)[O-])ccc4F)c4nc(c(-c5cc(S(=O)(=O)[O-])ccc5F)c5ccc2[nH]5)C=C4)C=C3)cc1
REMARK SMILES IDX 24 1 23 2 22 3 1 4 2 5 3 7 4 8 5 10 6 11 21 12 7 13 14 14
REMARK SMILES IDX 8 15 9 16 13 17 10 18 12 19 11 20 15 21 16 22 20 23 17 24
REMARK SMILES IDX 19 25 18 26 25 27 26 28 27 29 28 30 29 32 30 33 31 34 92 35
REMARK SMILES IDX 32 36 91 37 33 38 34 39 35 40 85 41 36 42 90 43 84 44 86 45
REMARK SMILES IDX 37 46 89 47 83 48 82 49 38 51 70 52 50 53 69 54 51 55 54 56
REMARK SMILES IDX 68 57 87 58 52 59 53 60 67 62 88 63 55 64 39 65 40 66 48 67
REMARK SMILES IDX 41 68 47 69 49 70 46 71 42 72 43 73 44 74 45 75 71 76 72 77
REMARK SMILES IDX 80 78 73 79 79 80 81 81 78 82 74 83 75 84 76 85 77 86 56 87
REMARK SMILES IDX 57 88 65 89 58 90 64 91 66 92 63 93 59 94 60 95 61 96 62 97
REMARK H PARENT 22 6 4 9 27 31 86 50 54 61
REMARK Flexibility Score: inf
ROOT
ATOM      1  C   UNL A   1      36.486  21.230  25.132  1.00  0.00     0.023 C 
ENDROOT
BRANCH   1   2
ATOM      2  C   UNL A   1      35.220  20.382  25.012  1.00  0.00     0.116 C 
BRANCH   2   3
ATOM      3  N   UNL A   1      34.057  21.039  25.570  1.00  0.00    -0.355 N 
ATOM      4  O   UNL A   1      32.629  20.670  23.800  1.00  0.00    -0.273 OA
ATOM      5  C   UNL A   1      32.834  21.111  24.926  1.00  0.00     0.239 C 
ATOM      6  H   UNL A   1      34.141  21.458  26.458  1.00  0.00     0.163 HD
BRANCH   5   7
ATOM      7  C   UNL A   1      31.752  21.822  25.757  1.00  0.00     0.215 C 
BRANCH   7   8
ATOM      8  N   UNL A   1      30.972  22.686  24.883  1.00  0.00    -0.352 N 
ATOM      9  H   UNL A   1      30.341  22.279  24.247  1.00  0.00     0.163 HD
BRANCH   8  10
ATOM     10  C   UNL A   1      31.088  24.025  24.922  1.00  0.00     0.184 A 
ATOM     11  N   UNL A   1      30.601  24.864  24.040  1.00  0.00    -0.220 NA
ATOM     12  S   UNL A   1      31.979  24.741  26.206  1.00  0.00    -0.096 S 
ATOM     13  C   UNL A   1      30.979  26.161  24.364  1.00  0.00     0.091 A 
ATOM     14  C   UNL A   1      31.783  26.285  25.487  1.00  0.00     0.064 A 
BRANCH  13  15
ATOM     15  C   UNL A   1      30.522  27.301  23.582  1.00  0.00     0.002 A 
ATOM     16  C   UNL A   1      31.436  28.172  22.977  1.00  0.00     0.010 A 
ATOM     17  C   UNL A   1      29.153  27.580  23.508  1.00  0.00     0.010 A 
ATOM     18  C   UNL A   1      30.987  29.331  22.340  1.00  0.00     0.001 A 
ATOM     19  C   UNL A   1      28.706  28.743  22.874  1.00  0.00     0.001 A 
ATOM     20  C   UNL A   1      29.624  29.621  22.298  1.00  0.00     0.000 A 
ENDBRANCH  13  15
BRANCH  14  21
ATOM     21  C   UNL A   1      32.398  27.458  26.108  1.00  0.00    -0.006 A 
ATOM     22  C   UNL A   1      33.787  27.642  26.050  1.00  0.00     0.009 A 
ATOM     23  C   UNL A   1      31.605  28.441  26.715  1.00  0.00     0.009 A 
ATOM     24  C   UNL A   1      34.371  28.791  26.588  1.00  0.00     0.001 A 
ATOM     25  C   UNL A   1      32.191  29.589  27.251  1.00  0.00     0.001 A 
ATOM     26  C   UNL A   1      33.572  29.763  27.187  1.00  0.00     0.000 A 
ENDBRANCH  14  21
ENDBRANCH   8  10
ENDBRANCH   7   8
ENDBRANCH   5   7
ENDBRANCH   2   3
ENDBRANCH   1   2
BRANCH   1  27
ATOM     27  C   UNL A   1      37.798  20.486  24.871  1.00  0.00     0.023 C 
BRANCH  27  28
ATOM     28  C   UNL A   1      38.934  20.777  25.849  1.00  0.00     0.116 C 
BRANCH  28  29
ATOM     29  N   UNL A   1      39.901  19.696  25.937  1.00  0.00    -0.352 N 
ATOM     30  C   UNL A   1      41.261  19.750  26.139  1.00  0.00     0.251 C 
ATOM     31  H   UNL A   1      39.529  18.791  25.837  1.00  0.00     0.163 HD
ATOM     32  O   UNL A   1      41.927  18.721  26.037  1.00  0.00    -0.269 OA
BRANCH  30  33
ATOM     33  C   UNL A   1      41.930  21.039  26.440  1.00  0.00     0.039 A 
ATOM     34  C   UNL A   1      42.342  21.849  25.378  1.00  0.00     0.014 A 
ATOM     35  C   UNL A   1      42.157  21.452  27.755  1.00  0.00     0.014 A 
ATOM     36  C   UNL A   1      42.905  23.103  25.633  1.00  0.00     0.010 A 
ATOM     37  C   UNL A   1      42.649  22.734  28.008  1.00  0.00     0.010 A 
ATOM     38  C   UNL A   1      43.025  23.577  26.950  1.00  0.00    -0.014 A 
BRANCH  38  39
ATOM     39  C   UNL A   1      43.523  24.952  27.236  1.00  0.00     0.031 A 
ATOM     40  C   UNL A   1      42.591  26.001  27.781  1.00  0.00     0.074 A 
ATOM     41  C   UNL A   1      44.802  25.272  26.949  1.00  0.00     0.049 A 
ATOM     42  N   UNL A   1      42.820  27.268  28.020  1.00  0.00    -0.248 NA
ATOM     43  C   UNL A   1      41.214  25.576  28.067  1.00  0.00     0.031 C 
ATOM     44  C   UNL A   1      45.797  24.355  26.390  1.00  0.00     0.029 A 
ATOM     45  N   UNL A   1      45.485  26.457  27.080  1.00  0.00    -0.354 N 
ATOM     46  C   UNL A   1      41.615  27.794  28.474  1.00  0.00     0.074 A 
ATOM     47  C   UNL A   1      40.644  26.720  28.416  1.00  0.00     0.031 C 
ATOM     48  C   UNL A   1      46.966  25.001  26.256  1.00  0.00     0.029 A 
ATOM     49  C   UNL A   1      46.796  26.392  26.665  1.00  0.00     0.049 A 
ATOM     50  H   UNL A   1      45.074  27.277  27.439  1.00  0.00     0.167 HD
ATOM     51  C   UNL A   1      41.347  29.048  28.916  1.00  0.00     0.034 A 
ATOM     52  C   UNL A   1      47.749  27.344  26.604  1.00  0.00     0.034 A 
ATOM     53  C   UNL A   1      42.328  30.106  28.979  1.00  0.00     0.049 A 
ATOM     54  C   UNL A   1      47.415  28.742  27.062  1.00  0.00     0.074 A 
ATOM     55  C   UNL A   1      42.174  31.394  29.463  1.00  0.00     0.029 A 
ATOM     56  N   UNL A   1      43.640  30.006  28.534  1.00  0.00    -0.354 N 
ATOM     57  N   UNL A   1      46.280  29.210  27.533  1.00  0.00    -0.248 NA
ATOM     58  C   UNL A   1      48.490  29.739  26.986  1.00  0.00     0.031 C 
ATOM     59  C   UNL A   1      43.363  32.094  29.236  1.00  0.00     0.029 A 
ATOM     60  C   UNL A   1      44.292  31.220  28.695  1.00  0.00     0.049 A 
ATOM     61  H   UNL A   1      44.048  29.192  28.159  1.00  0.00     0.167 HD
ATOM     62  C   UNL A   1      46.522  30.546  27.845  1.00  0.00     0.074 A 
ATOM     63  C   UNL A   1      47.909  30.804  27.521  1.00  0.00     0.031 C 
ATOM     64  C   UNL A   1      45.674  31.473  28.360  1.00  0.00     0.034 A 
BRANCH  51  65
ATOM     65  C   UNL A   1      39.927  29.353  29.337  1.00  0.00     0.023 A 
ATOM     66  C   UNL A   1      39.569  29.498  30.689  1.00  0.00     0.031 A 
ATOM     67  C   UNL A   1      38.912  29.488  28.373  1.00  0.00     0.131 A 
ATOM     68  C   UNL A   1      38.225  29.693  31.041  1.00  0.00     0.055 A 
ATOM     69  C   UNL A   1      37.591  29.769  28.725  1.00  0.00     0.041 A 
ATOM     70  F   UNL A   1      39.186  29.339  27.067  1.00  0.00    -0.206 F 
ATOM     71  C   UNL A   1      37.238  29.857  30.067  1.00  0.00     0.022 A 
BRANCH  68  72
ATOM     72  S   UNL A   1      37.764  29.577  32.792  1.00  0.00     0.124 S 
ATOM     73  O   UNL A   1      36.660  30.531  32.868  1.00  0.00    -0.237 OA
ATOM     74  O   UNL A   1      37.404  28.170  32.931  1.00  0.00    -0.237 OA
ATOM     75  O   UNL A   1      38.979  29.984  33.494  1.00  0.00    -0.744 OA
ENDBRANCH  68  72
ENDBRANCH  51  65
BRANCH  52  76
ATOM     76  C   UNL A   1      49.110  27.024  26.082  1.00  0.00     0.023 A 
ATOM     77  C   UNL A   1      49.505  27.430  24.797  1.00  0.00     0.031 A 
ATOM     78  C   UNL A   1      50.018  26.258  26.836  1.00  0.00     0.131 A 
ATOM     79  C   UNL A   1      50.746  27.024  24.283  1.00  0.00     0.055 A 
ATOM     80  C   UNL A   1      51.276  25.910  26.345  1.00  0.00     0.041 A 
ATOM     81  F   UNL A   1      49.693  25.841  28.070  1.00  0.00    -0.206 F 
ATOM     82  C   UNL A   1      51.641  26.280  25.054  1.00  0.00     0.022 A 
BRANCH  79  83
ATOM     83  S   UNL A   1      51.132  27.396  22.550  1.00  0.00     0.124 S 
ATOM     84  O   UNL A   1      49.979  26.826  21.862  1.00  0.00    -0.237 OA
ATOM     85  O   UNL A   1      51.216  28.852  22.565  1.00  0.00    -0.237 OA
ATOM     86  O   UNL A   1      52.398  26.700  22.328  1.00  0.00    -0.744 OA
ENDBRANCH  79  83
ENDBRANCH  52  76
BRANCH  64  87
ATOM     87  C   UNL A   1      46.243  32.842  28.650  1.00  0.00     0.023 A 
ATOM     88  C   UNL A   1      46.252  33.865  27.687  1.00  0.00     0.031 A 
ATOM     89  C   UNL A   1      46.796  33.123  29.913  1.00  0.00     0.131 A 
ATOM     90  C   UNL A   1      46.854  35.099  27.980  1.00  0.00     0.055 A 
ATOM     91  C   UNL A   1      47.330  34.373  30.222  1.00  0.00     0.041 A 
ATOM     92  F   UNL A   1      46.820  32.184  30.873  1.00  0.00    -0.206 F 
ATOM     93  C   UNL A   1      47.375  35.366  29.248  1.00  0.00     0.022 A 
BRANCH  90  94
ATOM     94  S   UNL A   1      47.035  36.318  26.649  1.00  0.00     0.124 S 
ATOM     95  O   UNL A   1      47.882  37.327  27.277  1.00  0.00    -0.237 OA
ATOM     96  O   UNL A   1      47.660  35.533  25.590  1.00  0.00    -0.237 OA
ATOM     97  O   UNL A   1      45.662  36.739  26.379  1.00  0.00    -0.744 OA
ENDBRANCH  90  94
ENDBRANCH  64  87
ENDBRANCH  38  39
ENDBRANCH  30  33
ENDBRANCH  28  29
ENDBRANCH  27  28
ENDBRANCH   1  27
TORSDOF 18
ENDMDL
