MODEL 1
REMARK VINA RESULT:     -11.3      0.000      0.000
REMARK SMILES COc1ccc(/C=C2\SC(=S)[NH+]=C2NCCCCNC(=O)c2ccc(-c3c4nc(c(-c5cc(S(=O)(=O)[O-])ccc5F)c5ccc([nH]5)c(-c5cc(S(=O)(=O)[O-])ccc5F)c5nc(c(-c6cc(S(=O)(=O)[O-])ccc6F)c6ccc3[nH]6)C=C5)C=C4)cc2)c(C(=O)[O-])c1OC
REMARK SMILES IDX 17 1 16 2 15 3 14 4 7 5 8 6 9 7 13 8 10 9 12 10 11 11 6 14
REMARK SMILES IDX 3 15 4 16 89 17 5 18 85 19 2 20 1 21 90 22 91 23 86 24 87 25
REMARK SMILES IDX 88 26 18 27 19 28 20 29 21 31 22 32 23 33 84 34 24 35 83 36
REMARK SMILES IDX 25 37 26 38 27 39 77 40 28 41 82 42 76 43 78 44 29 45 81 46
REMARK SMILES IDX 75 47 74 48 30 50 62 51 42 52 61 53 43 54 46 55 60 56 79 57
REMARK SMILES IDX 44 58 45 59 59 61 80 62 47 63 31 64 32 65 40 66 33 67 39 68
REMARK SMILES IDX 41 69 38 70 34 71 35 72 36 73 37 74 63 75 64 76 72 77 65 78
REMARK SMILES IDX 71 79 73 80 70 81 66 82 67 83 68 84 69 85 48 86 49 87 57 88
REMARK SMILES IDX 50 89 56 90 58 91 55 92 51 93 52 94 53 95 54 96
REMARK H PARENT 12 12 14 13 19 30 78 49 46 60
REMARK Flexibility Score: inf
ROOT
ATOM      1  C   UNL A   1      31.400  31.437  26.907  1.00  0.00     0.025 C 
ENDROOT
BRANCH   1   2
ATOM      2  C   UNL A   1      31.910  29.997  26.969  1.00  0.00     0.048 C 
BRANCH   2   3
ATOM      3  C   UNL A   1      33.385  29.825  26.607  1.00  0.00     0.234 C 
BRANCH   3   4
ATOM      4  N   UNL A   1      33.710  28.422  26.383  1.00  0.00    -0.273 N 
ATOM      5  C   UNL A   1      34.355  25.444  25.761  1.00  0.00     0.033 C 
ATOM      6  C   UNL A   1      33.461  26.204  25.094  1.00  0.00     0.106 C 
ATOM      7  S   UNL A   1      32.473  25.755  23.745  1.00  0.00    -0.027 SA
ATOM      8  C   UNL A   1      33.150  27.668  25.376  1.00  0.00     0.288 C 
ATOM      9  C   UNL A   1      31.818  27.378  23.606  1.00  0.00     0.230 C 
ATOM     10  N   UNL A   1      32.274  28.229  24.578  1.00  0.00    -0.225 N 
ATOM     11  S   UNL A   1      30.765  27.802  22.376  1.00  0.00    -0.026 S 
ATOM     12  H   UNL A   1      31.975  29.162  24.667  1.00  0.00     0.314 HD
ATOM     13  H   UNL A   1      34.363  27.991  26.982  1.00  0.00     0.305 HD
BRANCH   5  14
ATOM     14  C   UNL A   1      34.777  24.008  25.585  1.00  0.00    -0.011 A 
ATOM     15  C   UNL A   1      35.649  21.320  25.156  1.00  0.00     0.161 A 
ATOM     16  C   UNL A   1      36.448  22.395  24.783  1.00  0.00     0.051 A 
ATOM     17  C   UNL A   1      34.408  21.549  25.762  1.00  0.00     0.170 A 
ATOM     18  C   UNL A   1      36.005  23.706  24.971  1.00  0.00     0.013 A 
ATOM     19  C   UNL A   1      33.963  22.892  25.954  1.00  0.00     0.050 A 
BRANCH  15  20
ATOM     20  O   UNL A   1      36.154  20.056  25.003  1.00  0.00    -0.493 OA
ATOM     21  C   UNL A   1      37.584  20.059  24.950  1.00  0.00     0.278 C 
ENDBRANCH  15  20
BRANCH  17  22
ATOM     22  O   UNL A   1      33.630  20.543  26.290  1.00  0.00    -0.492 OA
ATOM     23  C   UNL A   1      32.888  19.741  25.376  1.00  0.00     0.278 C 
ENDBRANCH  17  22
BRANCH  19  24
ATOM     24  C   UNL A   1      32.627  23.110  26.573  1.00  0.00     0.076 C 
ATOM     25  O   UNL A   1      31.573  23.268  25.979  1.00  0.00    -0.545 OA
ATOM     26  O   UNL A   1      32.661  23.022  27.917  1.00  0.00    -0.545 OA
ENDBRANCH  19  24
ENDBRANCH   5  14
ENDBRANCH   3   4
ENDBRANCH   2   3
ENDBRANCH   1   2
BRANCH   1  27
ATOM     27  C   UNL A   1      32.436  32.480  26.498  1.00  0.00     0.116 C 
BRANCH  27  28
ATOM     28  N   UNL A   1      32.258  33.756  27.170  1.00  0.00    -0.352 N 
ATOM     29  C   UNL A   1      32.952  34.279  28.237  1.00  0.00     0.251 C 
ATOM     30  H   UNL A   1      31.540  34.326  26.812  1.00  0.00     0.163 HD
ATOM     31  O   UNL A   1      32.560  35.317  28.764  1.00  0.00    -0.269 OA
BRANCH  29  32
ATOM     32  C   UNL A   1      34.140  33.573  28.771  1.00  0.00     0.039 A 
ATOM     33  C   UNL A   1      35.393  34.184  28.661  1.00  0.00     0.014 A 
ATOM     34  C   UNL A   1      34.025  32.324  29.387  1.00  0.00     0.014 A 
ATOM     35  C   UNL A   1      36.514  33.576  29.235  1.00  0.00     0.010 A 
ATOM     36  C   UNL A   1      35.128  31.762  30.030  1.00  0.00     0.010 A 
ATOM     37  C   UNL A   1      36.385  32.381  29.962  1.00  0.00    -0.014 A 
BRANCH  37  38
ATOM     38  C   UNL A   1      37.553  31.771  30.657  1.00  0.00     0.031 A 
ATOM     39  C   UNL A   1      38.380  30.717  29.969  1.00  0.00     0.074 A 
ATOM     40  C   UNL A   1      37.838  32.127  31.926  1.00  0.00     0.049 A 
ATOM     41  N   UNL A   1      39.391  30.027  30.429  1.00  0.00    -0.248 NA
ATOM     42  C   UNL A   1      37.999  30.376  28.589  1.00  0.00     0.031 C 
ATOM     43  C   UNL A   1      37.090  33.109  32.715  1.00  0.00     0.029 A 
ATOM     44  N   UNL A   1      38.827  31.704  32.779  1.00  0.00    -0.354 N 
ATOM     45  C   UNL A   1      39.764  29.166  29.403  1.00  0.00     0.074 A 
ATOM     46  C   UNL A   1      38.824  29.375  28.322  1.00  0.00     0.031 C 
ATOM     47  C   UNL A   1      37.666  33.236  33.921  1.00  0.00     0.029 A 
ATOM     48  C   UNL A   1      38.788  32.307  34.017  1.00  0.00     0.049 A 
ATOM     49  H   UNL A   1      39.501  31.032  32.529  1.00  0.00     0.167 HD
ATOM     50  C   UNL A   1      40.807  28.299  29.355  1.00  0.00     0.034 A 
ATOM     51  C   UNL A   1      39.557  32.124  35.109  1.00  0.00     0.034 A 
ATOM     52  C   UNL A   1      41.739  28.107  30.440  1.00  0.00     0.049 A 
ATOM     53  C   UNL A   1      40.685  31.123  35.048  1.00  0.00     0.074 A 
ATOM     54  C   UNL A   1      42.857  27.291  30.479  1.00  0.00     0.029 A 
ATOM     55  N   UNL A   1      41.660  28.725  31.681  1.00  0.00    -0.354 N 
ATOM     56  N   UNL A   1      41.052  30.352  34.051  1.00  0.00    -0.248 NA
ATOM     57  C   UNL A   1      41.507  30.979  36.255  1.00  0.00     0.031 C 
ATOM     58  C   UNL A   1      43.403  27.351  31.765  1.00  0.00     0.029 A 
ATOM     59  C   UNL A   1      42.685  28.279  32.503  1.00  0.00     0.049 A 
ATOM     60  H   UNL A   1      40.975  29.383  31.940  1.00  0.00     0.167 HD
ATOM     61  C   UNL A   1      42.172  29.658  34.501  1.00  0.00     0.074 A 
ATOM     62  C   UNL A   1      42.427  30.114  35.851  1.00  0.00     0.031 C 
ATOM     63  C   UNL A   1      42.926  28.730  33.854  1.00  0.00     0.034 A 
BRANCH  50  64
ATOM     64  C   UNL A   1      40.973  27.475  28.099  1.00  0.00     0.023 A 
ATOM     65  C   UNL A   1      40.624  26.114  28.054  1.00  0.00     0.031 A 
ATOM     66  C   UNL A   1      41.506  28.053  26.933  1.00  0.00     0.131 A 
ATOM     67  C   UNL A   1      40.883  25.360  26.900  1.00  0.00     0.055 A 
ATOM     68  C   UNL A   1      41.677  27.320  25.757  1.00  0.00     0.041 A 
ATOM     69  F   UNL A   1      41.879  29.342  26.918  1.00  0.00    -0.206 F 
ATOM     70  C   UNL A   1      41.380  25.960  25.740  1.00  0.00     0.022 A 
BRANCH  67  71
ATOM     71  S   UNL A   1      40.705  23.557  26.984  1.00  0.00     0.124 S 
ATOM     72  O   UNL A   1      39.268  23.394  26.775  1.00  0.00    -0.237 OA
ATOM     73  O   UNL A   1      41.564  23.104  25.898  1.00  0.00    -0.237 OA
ATOM     74  O   UNL A   1      41.171  23.230  28.330  1.00  0.00    -0.744 OA
ENDBRANCH  67  71
ENDBRANCH  50  64
BRANCH  51  75
ATOM     75  C   UNL A   1      39.285  32.886  36.364  1.00  0.00     0.023 A 
ATOM     76  C   UNL A   1      38.460  32.358  37.370  1.00  0.00     0.031 A 
ATOM     77  C   UNL A   1      39.805  34.179  36.553  1.00  0.00     0.131 A 
ATOM     78  C   UNL A   1      38.136  33.138  38.492  1.00  0.00     0.055 A 
ATOM     79  C   UNL A   1      39.532  34.926  37.701  1.00  0.00     0.041 A 
ATOM     80  F   UNL A   1      40.600  34.735  35.624  1.00  0.00    -0.206 F 
ATOM     81  C   UNL A   1      38.679  34.411  38.672  1.00  0.00     0.022 A 
BRANCH  78  82
ATOM     82  S   UNL A   1      36.908  32.502  39.666  1.00  0.00     0.124 S 
ATOM     83  O   UNL A   1      37.407  31.154  39.915  1.00  0.00    -0.237 OA
ATOM     84  O   UNL A   1      37.029  33.447  40.772  1.00  0.00    -0.237 OA
ATOM     85  O   UNL A   1      35.654  32.577  38.920  1.00  0.00    -0.744 OA
ENDBRANCH  78  82
ENDBRANCH  51  75
BRANCH  63  86
ATOM     86  C   UNL A   1      44.131  28.188  34.586  1.00  0.00     0.023 A 
ATOM     87  C   UNL A   1      44.067  27.017  35.362  1.00  0.00     0.031 A 
ATOM     88  C   UNL A   1      45.363  28.865  34.517  1.00  0.00     0.131 A 
ATOM     89  C   UNL A   1      45.192  26.594  36.086  1.00  0.00     0.055 A 
ATOM     90  C   UNL A   1      46.498  28.400  35.181  1.00  0.00     0.041 A 
ATOM     91  F   UNL A   1      45.484  29.992  33.797  1.00  0.00    -0.206 F 
ATOM     92  C   UNL A   1      46.413  27.266  35.984  1.00  0.00     0.022 A 
BRANCH  89  93
ATOM     93  S   UNL A   1      45.011  25.216  37.252  1.00  0.00     0.124 S 
ATOM     94  O   UNL A   1      46.316  24.569  37.160  1.00  0.00    -0.237 OA
ATOM     95  O   UNL A   1      44.729  25.904  38.507  1.00  0.00    -0.237 OA
ATOM     96  O   UNL A   1      43.896  24.447  36.703  1.00  0.00    -0.744 OA
ENDBRANCH  89  93
ENDBRANCH  63  86
ENDBRANCH  37  38
ENDBRANCH  29  32
ENDBRANCH  27  28
ENDBRANCH   1  27
TORSDOF 17
ENDMDL
MODEL 2
REMARK VINA RESULT:     -11.1      2.375      2.794
REMARK SMILES COc1ccc(/C=C2\SC(=S)[NH+]=C2NCCCCNC(=O)c2ccc(-c3c4nc(c(-c5cc(S(=O)(=O)[O-])ccc5F)c5ccc([nH]5)c(-c5cc(S(=O)(=O)[O-])ccc5F)c5nc(c(-c6cc(S(=O)(=O)[O-])ccc6F)c6ccc3[nH]6)C=C5)C=C4)cc2)c(C(=O)[O-])c1OC
REMARK SMILES IDX 17 1 16 2 15 3 14 4 7 5 8 6 9 7 13 8 10 9 12 10 11 11 6 14
REMARK SMILES IDX 3 15 4 16 89 17 5 18 85 19 2 20 1 21 90 22 91 23 86 24 87 25
REMARK SMILES IDX 88 26 18 27 19 28 20 29 21 31 22 32 23 33 84 34 24 35 83 36
REMARK SMILES IDX 25 37 26 38 27 39 77 40 28 41 82 42 76 43 78 44 29 45 81 46
REMARK SMILES IDX 75 47 74 48 30 50 62 51 42 52 61 53 43 54 46 55 60 56 79 57
REMARK SMILES IDX 44 58 45 59 59 61 80 62 47 63 31 64 32 65 40 66 33 67 39 68
REMARK SMILES IDX 41 69 38 70 34 71 35 72 36 73 37 74 63 75 64 76 72 77 65 78
REMARK SMILES IDX 71 79 73 80 70 81 66 82 67 83 68 84 69 85 48 86 49 87 57 88
REMARK SMILES IDX 50 89 56 90 58 91 55 92 51 93 52 94 53 95 54 96
REMARK H PARENT 12 12 14 13 19 30 78 49 46 60
REMARK Flexibility Score: inf
ROOT
ATOM      1  C   UNL A   1      31.433  32.444  26.693  1.00  0.00     0.025 C 
ENDROOT
BRANCH   1   2
ATOM      2  C   UNL A   1      31.483  30.916  26.707  1.00  0.00     0.048 C 
BRANCH   2   3
ATOM      3  C   UNL A   1      32.697  30.309  26.004  1.00  0.00     0.234 C 
BRANCH   3   4
ATOM      4  N   UNL A   1      32.543  28.869  25.840  1.00  0.00    -0.273 N 
ATOM      5  C   UNL A   1      32.146  25.823  25.357  1.00  0.00     0.033 C 
ATOM      6  C   UNL A   1      31.403  26.804  24.802  1.00  0.00     0.106 C 
ATOM      7  S   UNL A   1      30.083  26.646  23.694  1.00  0.00    -0.027 SA
ATOM      8  C   UNL A   1      31.599  28.299  25.016  1.00  0.00     0.288 C 
ATOM      9  C   UNL A   1      29.921  28.388  23.544  1.00  0.00     0.230 C 
ATOM     10  N   UNL A   1      30.789  29.081  24.345  1.00  0.00    -0.225 N 
ATOM     11  S   UNL A   1      28.820  29.084  22.493  1.00  0.00    -0.026 S 
ATOM     12  H   UNL A   1      30.802  30.064  24.410  1.00  0.00     0.314 HD
ATOM     13  H   UNL A   1      33.144  28.274  26.345  1.00  0.00     0.305 HD
BRANCH   5  14
ATOM     14  C   UNL A   1      32.083  24.323  25.226  1.00  0.00    -0.011 A 
ATOM     15  C   UNL A   1      31.959  21.470  25.104  1.00  0.00     0.161 A 
ATOM     16  C   UNL A   1      31.430  22.158  26.189  1.00  0.00     0.051 A 
ATOM     17  C   UNL A   1      32.548  22.175  24.048  1.00  0.00     0.170 A 
ATOM     18  C   UNL A   1      31.517  23.550  26.256  1.00  0.00     0.013 A 
ATOM     19  C   UNL A   1      32.631  23.600  24.122  1.00  0.00     0.050 A 
BRANCH  15  20
ATOM     20  O   UNL A   1      31.796  20.110  25.059  1.00  0.00    -0.493 OA
ATOM     21  C   UNL A   1      32.957  19.422  25.535  1.00  0.00     0.278 C 
ENDBRANCH  15  20
BRANCH  17  22
ATOM     22  O   UNL A   1      32.960  21.578  22.878  1.00  0.00    -0.492 OA
ATOM     23  C   UNL A   1      31.950  21.059  22.017  1.00  0.00     0.278 C 
ENDBRANCH  17  22
BRANCH  19  24
ATOM     24  C   UNL A   1      33.289  24.326  23.001  1.00  0.00     0.076 C 
ATOM     25  O   UNL A   1      34.484  24.541  22.884  1.00  0.00    -0.545 OA
ATOM     26  O   UNL A   1      32.422  24.665  22.028  1.00  0.00    -0.545 OA
ENDBRANCH  19  24
ENDBRANCH   5  14
ENDBRANCH   3   4
ENDBRANCH   2   3
ENDBRANCH   1   2
BRANCH   1  27
ATOM     27  C   UNL A   1      32.743  33.143  27.044  1.00  0.00     0.116 C 
BRANCH  27  28
ATOM     28  N   UNL A   1      32.548  34.391  27.766  1.00  0.00    -0.352 N 
ATOM     29  C   UNL A   1      33.188  34.850  28.894  1.00  0.00     0.251 C 
ATOM     30  H   UNL A   1      31.862  34.991  27.395  1.00  0.00     0.163 HD
ATOM     31  O   UNL A   1      32.784  35.869  29.446  1.00  0.00    -0.269 OA
BRANCH  29  32
ATOM     32  C   UNL A   1      34.331  34.096  29.460  1.00  0.00     0.039 A 
ATOM     33  C   UNL A   1      35.630  34.482  29.116  1.00  0.00     0.014 A 
ATOM     34  C   UNL A   1      34.131  33.024  30.334  1.00  0.00     0.014 A 
ATOM     35  C   UNL A   1      36.724  33.842  29.706  1.00  0.00     0.010 A 
ATOM     36  C   UNL A   1      35.221  32.444  30.983  1.00  0.00     0.010 A 
ATOM     37  C   UNL A   1      36.529  32.846  30.678  1.00  0.00    -0.014 A 
BRANCH  37  38
ATOM     38  C   UNL A   1      37.683  32.221  31.382  1.00  0.00     0.031 A 
ATOM     39  C   UNL A   1      38.448  31.097  30.735  1.00  0.00     0.074 A 
ATOM     40  C   UNL A   1      38.010  32.628  32.626  1.00  0.00     0.049 A 
ATOM     41  N   UNL A   1      39.438  30.386  31.213  1.00  0.00    -0.248 NA
ATOM     42  C   UNL A   1      38.025  30.702  29.383  1.00  0.00     0.031 C 
ATOM     43  C   UNL A   1      37.323  33.682  33.376  1.00  0.00     0.029 A 
ATOM     44  N   UNL A   1      38.996  32.205  33.482  1.00  0.00    -0.354 N 
ATOM     45  C   UNL A   1      39.751  29.457  30.226  1.00  0.00     0.074 A 
ATOM     46  C   UNL A   1      38.799  29.653  29.153  1.00  0.00     0.031 C 
ATOM     47  C   UNL A   1      37.928  33.844  34.563  1.00  0.00     0.029 A 
ATOM     48  C   UNL A   1      39.009  32.872  34.687  1.00  0.00     0.049 A 
ATOM     49  H   UNL A   1      39.635  31.491  33.255  1.00  0.00     0.167 HD
ATOM     50  C   UNL A   1      40.753  28.542  30.205  1.00  0.00     0.034 A 
ATOM     51  C   UNL A   1      39.792  32.711  35.773  1.00  0.00     0.034 A 
ATOM     52  C   UNL A   1      41.698  28.364  31.282  1.00  0.00     0.049 A 
ATOM     53  C   UNL A   1      40.873  31.659  35.743  1.00  0.00     0.074 A 
ATOM     54  C   UNL A   1      42.779  27.502  31.342  1.00  0.00     0.029 A 
ATOM     55  N   UNL A   1      41.671  29.048  32.490  1.00  0.00    -0.354 N 
ATOM     56  N   UNL A   1      41.185  30.821  34.782  1.00  0.00    -0.248 NA
ATOM     57  C   UNL A   1      41.713  31.539  36.941  1.00  0.00     0.031 C 
ATOM     58  C   UNL A   1      43.353  27.603  32.613  1.00  0.00     0.029 A 
ATOM     59  C   UNL A   1      42.692  28.599  33.316  1.00  0.00     0.049 A 
ATOM     60  H   UNL A   1      41.022  29.749  32.727  1.00  0.00     0.167 HD
ATOM     61  C   UNL A   1      42.282  30.101  35.247  1.00  0.00     0.074 A 
ATOM     62  C   UNL A   1      42.585  30.614  36.567  1.00  0.00     0.031 C 
ATOM     63  C   UNL A   1      42.981  29.108  34.636  1.00  0.00     0.034 A 
BRANCH  50  64
ATOM     64  C   UNL A   1      40.857  27.649  28.991  1.00  0.00     0.023 A 
ATOM     65  C   UNL A   1      41.787  27.896  27.966  1.00  0.00     0.031 A 
ATOM     66  C   UNL A   1      40.001  26.542  28.845  1.00  0.00     0.131 A 
ATOM     67  C   UNL A   1      41.788  27.100  26.811  1.00  0.00     0.055 A 
ATOM     68  C   UNL A   1      40.067  25.699  27.733  1.00  0.00     0.041 A 
ATOM     69  F   UNL A   1      39.076  26.266  29.777  1.00  0.00    -0.206 F 
ATOM     70  C   UNL A   1      40.953  25.985  26.700  1.00  0.00     0.022 A 
BRANCH  67  71
ATOM     71  S   UNL A   1      42.785  27.633  25.392  1.00  0.00     0.124 S 
ATOM     72  O   UNL A   1      42.876  26.398  24.618  1.00  0.00    -0.237 OA
ATOM     73  O   UNL A   1      41.968  28.692  24.813  1.00  0.00    -0.237 OA
ATOM     74  O   UNL A   1      44.039  28.071  26.001  1.00  0.00    -0.744 OA
ENDBRANCH  67  71
ENDBRANCH  50  64
BRANCH  51  75
ATOM     75  C   UNL A   1      39.580  33.548  36.991  1.00  0.00     0.023 A 
ATOM     76  C   UNL A   1      40.372  34.680  37.241  1.00  0.00     0.031 A 
ATOM     77  C   UNL A   1      38.613  33.199  37.951  1.00  0.00     0.131 A 
ATOM     78  C   UNL A   1      40.222  35.389  38.444  1.00  0.00     0.055 A 
ATOM     79  C   UNL A   1      38.424  33.945  39.116  1.00  0.00     0.041 A 
ATOM     80  F   UNL A   1      37.827  32.126  37.765  1.00  0.00    -0.206 F 
ATOM     81  C   UNL A   1      39.243  35.039  39.375  1.00  0.00     0.022 A 
BRANCH  78  82
ATOM     82  S   UNL A   1      41.398  36.717  38.822  1.00  0.00     0.124 S 
ATOM     83  O   UNL A   1      40.504  37.793  39.239  1.00  0.00    -0.237 OA
ATOM     84  O   UNL A   1      42.210  36.113  39.872  1.00  0.00    -0.237 OA
ATOM     85  O   UNL A   1      42.086  36.934  37.551  1.00  0.00    -0.744 OA
ENDBRANCH  78  82
ENDBRANCH  51  75
BRANCH  63  86
ATOM     86  C   UNL A   1      44.175  28.551  35.374  1.00  0.00     0.023 A 
ATOM     87  C   UNL A   1      44.054  27.503  36.304  1.00  0.00     0.031 A 
ATOM     88  C   UNL A   1      45.457  29.087  35.150  1.00  0.00     0.131 A 
ATOM     89  C   UNL A   1      45.180  27.070  37.021  1.00  0.00     0.055 A 
ATOM     90  C   UNL A   1      46.585  28.603  35.814  1.00  0.00     0.041 A 
ATOM     91  F   UNL A   1      45.634  30.092  34.278  1.00  0.00    -0.206 F 
ATOM     92  C   UNL A   1      46.448  27.599  36.767  1.00  0.00     0.022 A 
BRANCH  89  93
ATOM     93  S   UNL A   1      44.948  25.882  38.373  1.00  0.00     0.124 S 
ATOM     94  O   UNL A   1      46.321  25.467  38.649  1.00  0.00    -0.237 OA
ATOM     95  O   UNL A   1      44.311  26.697  39.400  1.00  0.00    -0.237 OA
ATOM     96  O   UNL A   1      44.096  24.852  37.782  1.00  0.00    -0.744 OA
ENDBRANCH  89  93
ENDBRANCH  63  86
ENDBRANCH  37  38
ENDBRANCH  29  32
ENDBRANCH  27  28
ENDBRANCH   1  27
TORSDOF 17
ENDMDL
MODEL 3
REMARK VINA RESULT:     -11.0      6.364     11.385
REMARK SMILES COc1ccc(/C=C2\SC(=S)[NH+]=C2NCCCCNC(=O)c2ccc(-c3c4nc(c(-c5cc(S(=O)(=O)[O-])ccc5F)c5ccc([nH]5)c(-c5cc(S(=O)(=O)[O-])ccc5F)c5nc(c(-c6cc(S(=O)(=O)[O-])ccc6F)c6ccc3[nH]6)C=C5)C=C4)cc2)c(C(=O)[O-])c1OC
REMARK SMILES IDX 17 1 16 2 15 3 14 4 7 5 8 6 9 7 13 8 10 9 12 10 11 11 6 14
REMARK SMILES IDX 3 15 4 16 89 17 5 18 85 19 2 20 1 21 90 22 91 23 86 24 87 25
REMARK SMILES IDX 88 26 18 27 19 28 20 29 21 31 22 32 23 33 84 34 24 35 83 36
REMARK SMILES IDX 25 37 26 38 27 39 77 40 28 41 82 42 76 43 78 44 29 45 81 46
REMARK SMILES IDX 75 47 74 48 30 50 62 51 42 52 61 53 43 54 46 55 60 56 79 57
REMARK SMILES IDX 44 58 45 59 59 61 80 62 47 63 31 64 32 65 40 66 33 67 39 68
REMARK SMILES IDX 41 69 38 70 34 71 35 72 36 73 37 74 63 75 64 76 72 77 65 78
REMARK SMILES IDX 71 79 73 80 70 81 66 82 67 83 68 84 69 85 48 86 49 87 57 88
REMARK SMILES IDX 50 89 56 90 58 91 55 92 51 93 52 94 53 95 54 96
REMARK H PARENT 12 12 14 13 19 30 78 49 46 60
REMARK Flexibility Score: inf
ROOT
ATOM      1  C   UNL A   1      38.200  19.940  25.349  1.00  0.00     0.025 C 
ENDROOT
BRANCH   1   2
ATOM      2  C   UNL A   1      37.140  21.038  25.262  1.00  0.00     0.048 C 
BRANCH   2   3
ATOM      3  C   UNL A   1      37.294  21.984  24.072  1.00  0.00     0.234 C 
BRANCH   3   4
ATOM      4  N   UNL A   1      36.400  23.128  24.191  1.00  0.00    -0.273 N 
ATOM      5  C   UNL A   1      34.390  25.479  24.512  1.00  0.00     0.033 C 
ATOM      6  C   UNL A   1      34.061  24.170  24.482  1.00  0.00     0.106 C 
ATOM      7  S   UNL A   1      32.488  23.461  24.627  1.00  0.00    -0.027 SA
ATOM      8  C   UNL A   1      35.037  23.010  24.344  1.00  0.00     0.288 C 
ATOM      9  C   UNL A   1      33.149  21.835  24.565  1.00  0.00     0.230 C 
ATOM     10  N   UNL A   1      34.506  21.811  24.380  1.00  0.00    -0.225 N 
ATOM     11  S   UNL A   1      32.181  20.483  24.746  1.00  0.00    -0.026 S 
ATOM     12  H   UNL A   1      35.027  20.981  24.284  1.00  0.00     0.314 HD
ATOM     13  H   UNL A   1      36.790  24.032  24.160  1.00  0.00     0.305 HD
BRANCH   5  14
ATOM     14  C   UNL A   1      33.548  26.720  24.660  1.00  0.00    -0.011 A 
ATOM     15  C   UNL A   1      31.932  29.043  25.061  1.00  0.00     0.161 A 
ATOM     16  C   UNL A   1      32.623  28.468  26.120  1.00  0.00     0.051 A 
ATOM     17  C   UNL A   1      32.033  28.493  23.778  1.00  0.00     0.170 A 
ATOM     18  C   UNL A   1      33.390  27.317  25.923  1.00  0.00     0.013 A 
ATOM     19  C   UNL A   1      32.822  27.318  23.583  1.00  0.00     0.050 A 
BRANCH  15  20
ATOM     20  O   UNL A   1      31.241  30.203  25.295  1.00  0.00    -0.493 OA
ATOM     21  C   UNL A   1      31.787  30.932  26.399  1.00  0.00     0.278 C 
ENDBRANCH  15  20
BRANCH  17  22
ATOM     22  O   UNL A   1      31.499  29.088  22.657  1.00  0.00    -0.492 OA
ATOM     23  C   UNL A   1      30.088  29.003  22.479  1.00  0.00     0.278 C 
ENDBRANCH  17  22
BRANCH  19  24
ATOM     24  C   UNL A   1      32.891  26.734  22.216  1.00  0.00     0.076 C 
ATOM     25  O   UNL A   1      33.811  26.856  21.425  1.00  0.00    -0.545 OA
ATOM     26  O   UNL A   1      31.838  25.940  21.941  1.00  0.00    -0.545 OA
ENDBRANCH  19  24
ENDBRANCH   5  14
ENDBRANCH   3   4
ENDBRANCH   2   3
ENDBRANCH   1   2
BRANCH   1  27
ATOM     27  C   UNL A   1      39.517  20.356  25.998  1.00  0.00     0.116 C 
BRANCH  27  28
ATOM     28  N   UNL A   1      40.526  19.309  25.964  1.00  0.00    -0.352 N 
ATOM     29  C   UNL A   1      41.894  19.419  26.052  1.00  0.00     0.251 C 
ATOM     30  H   UNL A   1      40.181  18.393  25.865  1.00  0.00     0.163 HD
ATOM     31  O   UNL A   1      42.595  18.430  25.857  1.00  0.00    -0.269 OA
BRANCH  29  32
ATOM     32  C   UNL A   1      42.518  20.732  26.340  1.00  0.00     0.039 A 
ATOM     33  C   UNL A   1      42.878  21.557  25.270  1.00  0.00     0.014 A 
ATOM     34  C   UNL A   1      42.737  21.159  27.652  1.00  0.00     0.014 A 
ATOM     35  C   UNL A   1      43.388  22.835  25.519  1.00  0.00     0.010 A 
ATOM     36  C   UNL A   1      43.167  22.463  27.897  1.00  0.00     0.010 A 
ATOM     37  C   UNL A   1      43.496  23.317  26.835  1.00  0.00    -0.014 A 
BRANCH  37  38
ATOM     38  C   UNL A   1      43.949  24.708  27.111  1.00  0.00     0.031 A 
ATOM     39  C   UNL A   1      42.983  25.726  27.657  1.00  0.00     0.074 A 
ATOM     40  C   UNL A   1      45.215  25.071  26.821  1.00  0.00     0.049 A 
ATOM     41  N   UNL A   1      43.170  26.998  27.902  1.00  0.00    -0.248 NA
ATOM     42  C   UNL A   1      41.617  25.257  27.938  1.00  0.00     0.031 C 
ATOM     43  C   UNL A   1      46.236  24.188  26.253  1.00  0.00     0.029 A 
ATOM     44  N   UNL A   1      45.860  26.275  26.956  1.00  0.00    -0.354 N 
ATOM     45  C   UNL A   1      41.949  27.483  28.358  1.00  0.00     0.074 A 
ATOM     46  C   UNL A   1      41.012  26.381  28.289  1.00  0.00     0.031 C 
ATOM     47  C   UNL A   1      47.385  24.869  26.120  1.00  0.00     0.029 A 
ATOM     48  C   UNL A   1      47.172  26.252  26.538  1.00  0.00     0.049 A 
ATOM     49  H   UNL A   1      45.425  27.081  27.318  1.00  0.00     0.167 HD
ATOM     50  C   UNL A   1      41.642  28.723  28.815  1.00  0.00     0.034 A 
ATOM     51  C   UNL A   1      48.096  27.233  26.483  1.00  0.00     0.034 A 
ATOM     52  C   UNL A   1      42.591  29.809  28.883  1.00  0.00     0.049 A 
ATOM     53  C   UNL A   1      47.720  28.615  26.957  1.00  0.00     0.074 A 
ATOM     54  C   UNL A   1      42.398  31.089  29.374  1.00  0.00     0.029 A 
ATOM     55  N   UNL A   1      43.906  29.751  28.439  1.00  0.00    -0.354 N 
ATOM     56  N   UNL A   1      46.572  29.044  27.430  1.00  0.00    -0.248 NA
ATOM     57  C   UNL A   1      48.767  29.642  26.899  1.00  0.00     0.031 C 
ATOM     58  C   UNL A   1      43.564  31.827  29.150  1.00  0.00     0.029 A 
ATOM     59  C   UNL A   1      44.521  30.983  28.609  1.00  0.00     0.049 A 
ATOM     60  H   UNL A   1      44.337  28.953  28.059  1.00  0.00     0.167 HD
ATOM     61  C   UNL A   1      46.774  30.381  27.760  1.00  0.00     0.074 A 
ATOM     62  C   UNL A   1      48.155  30.682  27.447  1.00  0.00     0.031 C 
ATOM     63  C   UNL A   1      45.897  31.279  28.282  1.00  0.00     0.034 A 
BRANCH  50  64
ATOM     64  C   UNL A   1      40.217  28.975  29.248  1.00  0.00     0.023 A 
ATOM     65  C   UNL A   1      39.836  28.938  30.601  1.00  0.00     0.031 A 
ATOM     66  C   UNL A   1      39.217  29.236  28.294  1.00  0.00     0.131 A 
ATOM     67  C   UNL A   1      38.486  29.081  30.955  1.00  0.00     0.055 A 
ATOM     68  C   UNL A   1      37.889  29.468  28.659  1.00  0.00     0.041 A 
ATOM     69  F   UNL A   1      39.512  29.262  26.985  1.00  0.00    -0.206 F 
ATOM     70  C   UNL A   1      37.514  29.375  29.996  1.00  0.00     0.022 A 
BRANCH  67  71
ATOM     71  S   UNL A   1      37.997  28.726  32.665  1.00  0.00     0.124 S 
ATOM     72  O   UNL A   1      36.650  29.293  32.709  1.00  0.00    -0.237 OA
ATOM     73  O   UNL A   1      38.080  27.272  32.721  1.00  0.00    -0.237 OA
ATOM     74  O   UNL A   1      38.991  29.442  33.462  1.00  0.00    -0.744 OA
ENDBRANCH  67  71
ENDBRANCH  50  64
BRANCH  51  75
ATOM     75  C   UNL A   1      49.462  26.959  25.946  1.00  0.00     0.023 A 
ATOM     76  C   UNL A   1      50.541  26.697  26.805  1.00  0.00     0.031 A 
ATOM     77  C   UNL A   1      49.719  27.006  24.564  1.00  0.00     0.131 A 
ATOM     78  C   UNL A   1      51.835  26.547  26.280  1.00  0.00     0.055 A 
ATOM     79  C   UNL A   1      50.997  26.792  24.041  1.00  0.00     0.041 A 
ATOM     80  F   UNL A   1      48.726  27.252  23.695  1.00  0.00    -0.206 F 
ATOM     81  C   UNL A   1      52.067  26.576  24.904  1.00  0.00     0.022 A 
BRANCH  78  82
ATOM     82  S   UNL A   1      53.230  26.415  27.431  1.00  0.00     0.124 S 
ATOM     83  O   UNL A   1      53.899  27.696  27.232  1.00  0.00    -0.237 OA
ATOM     84  O   UNL A   1      52.551  26.236  28.710  1.00  0.00    -0.237 OA
ATOM     85  O   UNL A   1      53.961  25.245  26.946  1.00  0.00    -0.744 OA
ENDBRANCH  78  82
ENDBRANCH  51  75
BRANCH  63  86
ATOM     86  C   UNL A   1      46.427  32.659  28.594  1.00  0.00     0.023 A 
ATOM     87  C   UNL A   1      46.370  33.708  27.659  1.00  0.00     0.031 A 
ATOM     88  C   UNL A   1      47.011  32.925  29.847  1.00  0.00     0.131 A 
ATOM     89  C   UNL A   1      46.944  34.951  27.966  1.00  0.00     0.055 A 
ATOM     90  C   UNL A   1      47.515  34.184  30.173  1.00  0.00     0.041 A 
ATOM     91  F   UNL A   1      47.098  31.962  30.778  1.00  0.00    -0.206 F 
ATOM     92  C   UNL A   1      47.498  35.202  29.225  1.00  0.00     0.022 A 
BRANCH  89  93
ATOM     93  S   UNL A   1      47.059  36.205  26.660  1.00  0.00     0.124 S 
ATOM     94  O   UNL A   1      47.936  37.198  27.270  1.00  0.00    -0.237 OA
ATOM     95  O   UNL A   1      47.629  35.448  25.550  1.00  0.00    -0.237 OA
ATOM     96  O   UNL A   1      45.674  36.631  26.471  1.00  0.00    -0.744 OA
ENDBRANCH  89  93
ENDBRANCH  63  86
ENDBRANCH  37  38
ENDBRANCH  29  32
ENDBRANCH  27  28
ENDBRANCH   1  27
TORSDOF 17
ENDMDL
