MODEL 1
REMARK VINA RESULT:      -9.0      0.000      0.000
REMARK SMILES Cc1c(/C=C2/SC(=S)N(CCC(=O)NCCCCNC(=O)c3ccc(-c4c5nc(c(-c6cc(S(=O)(=O)[O-])ccc6F)c6ccc([nH]6)c(-c6cc(S(=O)(=O)[O-])ccc6F)c6nc(c(-c7cc(S(=O)(=O)[O-])ccc7F)c7ccc4[nH]7)C=C6)C=C5)cc3)C2=O)c(N2C[C@@H](C)C[C@H](C)C2)n(C)c(=O)c1C#N
REMARK SMILES IDX 16 1 15 2 14 3 12 4 13 5 11 7 10 8 9 9 4 10 5 11 6 12 85 13
REMARK SMILES IDX 7 14 86 15 8 16 3 17 1 18 2 19 100 20 87 21 98 22 96 23
REMARK SMILES IDX 99 24 97 25 101 26 102 27 88 28 89 29 95 30 90 31 93 32
REMARK SMILES IDX 91 33 92 34 94 35 17 36 18 37 19 38 20 39 21 41 22 42 23 43
REMARK SMILES IDX 84 44 24 45 83 46 25 47 26 48 27 49 77 50 28 51 82 52 76 53
REMARK SMILES IDX 78 54 29 55 81 56 75 57 74 58 30 60 62 61 42 62 61 63 43 64
REMARK SMILES IDX 46 65 60 66 79 67 44 68 45 69 59 71 80 72 47 73 31 74 32 75
REMARK SMILES IDX 40 76 33 77 39 78 41 79 38 80 34 81 35 82 36 83 37 84 63 85
REMARK SMILES IDX 64 86 72 87 65 88 71 89 73 90 70 91 66 92 67 93 68 94 69 95
REMARK SMILES IDX 48 96 49 97 57 98 50 99 56 100 58 101 55 102 51 103 52 104
REMARK SMILES IDX 53 105 54 106
REMARK H PARENT 14 6 19 40 78 59 46 70
REMARK Flexibility Score: inf
ROOT
ATOM      1  C   UNL A   1      47.063  37.076  27.302  1.00  0.00     0.023 C 
ENDROOT
BRANCH   1   2
ATOM      2  C   UNL A   1      46.233  38.014  26.367  1.00  0.00     0.116 C 
BRANCH   2   3
ATOM      3  N   UNL A   1      44.986  38.556  26.910  1.00  0.00    -0.356 N 
ATOM      4  C   UNL A   1      44.242  39.632  26.513  1.00  0.00     0.221 C 
ATOM      5  O   UNL A   1      43.051  39.682  26.819  1.00  0.00    -0.275 OA
ATOM      6  H   UNL A   1      44.626  38.068  27.685  1.00  0.00     0.163 HD
BRANCH   4   7
ATOM      7  C   UNL A   1      44.896  40.776  25.783  1.00  0.00     0.122 C 
BRANCH   7   8
ATOM      8  C   UNL A   1      44.158  42.088  26.074  1.00  0.00     0.137 C 
BRANCH   8   9
ATOM      9  N   UNL A   1      44.896  42.955  27.005  1.00  0.00    -0.292 N 
ATOM     10  C   UNL A   1      46.062  43.434  30.433  1.00  0.00     0.033 C 
ATOM     11  C   UNL A   1      45.709  43.570  29.139  1.00  0.00     0.081 C 
ATOM     12  S   UNL A   1      46.468  44.698  28.066  1.00  0.00    -0.054 SA
ATOM     13  C   UNL A   1      44.687  42.805  28.372  1.00  0.00     0.266 C 
ATOM     14  C   UNL A   1      45.816  43.908  26.631  1.00  0.00     0.148 C 
ATOM     15  O   UNL A   1      43.790  42.149  28.889  1.00  0.00    -0.268 OA
ATOM     16  S   UNL A   1      46.343  44.284  25.091  1.00  0.00    -0.052 S 
BRANCH  10  17
ATOM     17  C   UNL A   1      45.472  42.540  31.438  1.00  0.00     0.021 A 
ATOM     18  C   UNL A   1      42.790  43.094  31.713  1.00  0.00     0.047 C 
ATOM     19  C   UNL A   1      44.189  42.793  32.158  1.00  0.00    -0.017 A 
ATOM     20  C   UNL A   1      44.131  42.477  33.439  1.00  0.00     0.121 A 
ATOM     21  C   UNL A   1      46.274  41.499  31.845  1.00  0.00     0.118 A 
ATOM     22  C   UNL A   1      45.079  41.458  33.974  1.00  0.00     0.270 A 
ATOM     23  N   UNL A   1      45.936  40.867  33.047  1.00  0.00    -0.296 N 
ATOM     24  O   UNL A   1      44.982  41.109  35.150  1.00  0.00    -0.268 OA
ATOM     25  C   UNL A   1      46.625  39.658  33.481  1.00  0.00     0.155 C 
BRANCH  20  26
ATOM     26  C   UNL A   1      42.994  42.847  34.377  1.00  0.00     0.105 C 
ATOM     27  N   UNL A   1      42.050  43.155  35.155  1.00  0.00    -0.192 NA
ENDBRANCH  20  26
BRANCH  21  28
ATOM     28  N   UNL A   1      47.441  41.083  31.147  1.00  0.00    -0.357 N 
ATOM     29  C   UNL A   1      47.499  39.907  30.265  1.00  0.00     0.121 C 
ATOM     30  C   UNL A   1      48.765  41.557  31.570  1.00  0.00     0.121 C 
ATOM     31  C   UNL A   1      48.397  40.123  29.039  1.00  0.00     0.006 C 
ATOM     32  C   UNL A   1      49.623  41.923  30.351  1.00  0.00     0.006 C 
ATOM     33  C   UNL A   1      47.692  40.962  27.974  1.00  0.00     0.009 C 
ATOM     34  C   UNL A   1      49.762  40.706  29.430  1.00  0.00     0.010 C 
ATOM     35  C   UNL A   1      50.997  42.440  30.777  1.00  0.00     0.009 C 
ENDBRANCH  21  28
ENDBRANCH  10  17
ENDBRANCH   8   9
ENDBRANCH   7   8
ENDBRANCH   4   7
ENDBRANCH   2   3
ENDBRANCH   1   2
BRANCH   1  36
ATOM     36  C   UNL A   1      47.011  35.636  26.806  1.00  0.00     0.023 C 
BRANCH  36  37
ATOM     37  C   UNL A   1      46.840  35.122  25.353  1.00  0.00     0.116 C 
BRANCH  37  38
ATOM     38  N   UNL A   1      45.635  34.556  24.790  1.00  0.00    -0.352 N 
ATOM     39  C   UNL A   1      44.313  34.547  25.279  1.00  0.00     0.251 C 
ATOM     40  H   UNL A   1      45.758  34.104  23.926  1.00  0.00     0.163 HD
ATOM     41  O   UNL A   1      43.452  34.312  24.421  1.00  0.00    -0.269 OA
BRANCH  39  42
ATOM     42  C   UNL A   1      43.820  34.700  26.731  1.00  0.00     0.039 A 
ATOM     43  C   UNL A   1      43.948  33.573  27.574  1.00  0.00     0.014 A 
ATOM     44  C   UNL A   1      43.203  35.799  27.333  1.00  0.00     0.014 A 
ATOM     45  C   UNL A   1      43.518  33.563  28.933  1.00  0.00     0.010 A 
ATOM     46  C   UNL A   1      42.852  35.828  28.718  1.00  0.00     0.010 A 
ATOM     47  C   UNL A   1      42.969  34.699  29.543  1.00  0.00    -0.014 A 
BRANCH  47  48
ATOM     48  C   UNL A   1      42.445  34.673  30.968  1.00  0.00     0.031 A 
ATOM     49  C   UNL A   1      40.960  34.547  31.253  1.00  0.00     0.074 A 
ATOM     50  C   UNL A   1      43.259  34.741  32.048  1.00  0.00     0.049 A 
ATOM     51  N   UNL A   1      40.342  34.468  32.409  1.00  0.00    -0.248 NA
ATOM     52  C   UNL A   1      40.056  34.505  30.096  1.00  0.00     0.031 C 
ATOM     53  C   UNL A   1      44.704  34.890  31.984  1.00  0.00     0.029 A 
ATOM     54  N   UNL A   1      43.002  34.705  33.407  1.00  0.00    -0.354 N 
ATOM     55  C   UNL A   1      38.984  34.371  32.119  1.00  0.00     0.074 A 
ATOM     56  C   UNL A   1      38.866  34.444  30.678  1.00  0.00     0.031 C 
ATOM     57  C   UNL A   1      45.215  34.916  33.225  1.00  0.00     0.029 A 
ATOM     58  C   UNL A   1      44.128  34.821  34.199  1.00  0.00     0.049 A 
ATOM     59  H   UNL A   1      42.096  34.604  33.778  1.00  0.00     0.167 HD
ATOM     60  C   UNL A   1      37.932  34.213  32.961  1.00  0.00     0.034 A 
ATOM     61  C   UNL A   1      44.295  34.859  35.542  1.00  0.00     0.034 A 
ATOM     62  C   UNL A   1      38.021  34.109  34.396  1.00  0.00     0.049 A 
ATOM     63  C   UNL A   1      43.108  34.711  36.464  1.00  0.00     0.074 A 
ATOM     64  C   UNL A   1      36.993  33.872  35.295  1.00  0.00     0.029 A 
ATOM     65  N   UNL A   1      39.178  34.238  35.146  1.00  0.00    -0.354 N 
ATOM     66  N   UNL A   1      41.850  34.516  36.154  1.00  0.00    -0.248 NA
ATOM     67  C   UNL A   1      43.357  34.780  37.915  1.00  0.00     0.031 C 
ATOM     68  C   UNL A   1      37.513  33.924  36.588  1.00  0.00     0.029 A 
ATOM     69  C   UNL A   1      38.878  34.124  36.497  1.00  0.00     0.049 A 
ATOM     70  H   UNL A   1      40.077  34.390  34.777  1.00  0.00     0.167 HD
ATOM     71  C   UNL A   1      41.166  34.414  37.364  1.00  0.00     0.074 A 
ATOM     72  C   UNL A   1      42.149  34.550  38.415  1.00  0.00     0.031 C 
ATOM     73  C   UNL A   1      39.839  34.229  37.568  1.00  0.00     0.034 A 
BRANCH  60  74
ATOM     74  C   UNL A   1      36.547  34.102  32.370  1.00  0.00     0.023 A 
ATOM     75  C   UNL A   1      35.643  35.175  32.488  1.00  0.00     0.031 A 
ATOM     76  C   UNL A   1      36.072  32.883  31.856  1.00  0.00     0.131 A 
ATOM     77  C   UNL A   1      34.300  34.995  32.134  1.00  0.00     0.055 A 
ATOM     78  C   UNL A   1      34.741  32.721  31.469  1.00  0.00     0.041 A 
ATOM     79  F   UNL A   1      36.895  31.829  31.731  1.00  0.00    -0.206 F 
ATOM     80  C   UNL A   1      33.847  33.776  31.620  1.00  0.00     0.022 A 
BRANCH  77  81
ATOM     81  S   UNL A   1      33.080  36.314  32.380  1.00  0.00     0.124 S 
ATOM     82  O   UNL A   1      31.863  35.550  32.652  1.00  0.00    -0.237 OA
ATOM     83  O   UNL A   1      33.633  37.032  33.523  1.00  0.00    -0.237 OA
ATOM     84  O   UNL A   1      33.085  37.036  31.113  1.00  0.00    -0.744 OA
ENDBRANCH  77  81
ENDBRANCH  60  74
BRANCH  61  85
ATOM     85  C   UNL A   1      45.673  35.013  36.105  1.00  0.00     0.023 A 
ATOM     86  C   UNL A   1      46.423  33.887  36.489  1.00  0.00     0.031 A 
ATOM     87  C   UNL A   1      46.227  36.284  36.335  1.00  0.00     0.131 A 
ATOM     88  C   UNL A   1      47.647  34.057  37.148  1.00  0.00     0.055 A 
ATOM     89  C   UNL A   1      47.483  36.446  36.926  1.00  0.00     0.041 A 
ATOM     90  F   UNL A   1      45.554  37.390  35.984  1.00  0.00    -0.206 F 
ATOM     91  C   UNL A   1      48.192  35.328  37.352  1.00  0.00     0.022 A 
BRANCH  88  92
ATOM     92  S   UNL A   1      48.519  32.635  37.860  1.00  0.00     0.124 S 
ATOM     93  O   UNL A   1      47.917  32.535  39.186  1.00  0.00    -0.237 OA
ATOM     94  O   UNL A   1      48.158  31.577  36.919  1.00  0.00    -0.237 OA
ATOM     95  O   UNL A   1      49.917  33.045  37.830  1.00  0.00    -0.744 OA
ENDBRANCH  88  92
ENDBRANCH  61  85
BRANCH  73  96
ATOM     96  C   UNL A   1      39.306  34.140  38.979  1.00  0.00     0.023 A 
ATOM     97  C   UNL A   1      38.953  32.888  39.520  1.00  0.00     0.031 A 
ATOM     98  C   UNL A   1      38.984  35.293  39.713  1.00  0.00     0.131 A 
ATOM     99  C   UNL A   1      38.250  32.821  40.731  1.00  0.00     0.055 A 
ATOM    100  C   UNL A   1      38.322  35.221  40.941  1.00  0.00     0.041 A 
ATOM    101  F   UNL A   1      39.293  36.511  39.239  1.00  0.00    -0.206 F 
ATOM    102  C   UNL A   1      37.939  33.981  41.448  1.00  0.00     0.022 A 
BRANCH  99 103
ATOM    103  S   UNL A   1      37.653  31.237  41.384  1.00  0.00     0.124 S 
ATOM    104  O   UNL A   1      38.850  30.699  42.027  1.00  0.00    -0.237 OA
ATOM    105  O   UNL A   1      36.593  31.660  42.295  1.00  0.00    -0.237 OA
ATOM    106  O   UNL A   1      37.211  30.512  40.197  1.00  0.00    -0.744 OA
ENDBRANCH  99 103
ENDBRANCH  73  96
ENDBRANCH  47  48
ENDBRANCH  39  42
ENDBRANCH  37  38
ENDBRANCH  36  37
ENDBRANCH   1  36
TORSDOF 19
ENDMDL
MODEL 2
REMARK VINA RESULT:      -9.0      1.660      7.814
REMARK SMILES Cc1c(/C=C2/SC(=S)N(CCC(=O)NCCCCNC(=O)c3ccc(-c4c5nc(c(-c6cc(S(=O)(=O)[O-])ccc6F)c6ccc([nH]6)c(-c6cc(S(=O)(=O)[O-])ccc6F)c6nc(c(-c7cc(S(=O)(=O)[O-])ccc7F)c7ccc4[nH]7)C=C6)C=C5)cc3)C2=O)c(N2C[C@@H](C)C[C@H](C)C2)n(C)c(=O)c1C#N
REMARK SMILES IDX 16 1 15 2 14 3 12 4 13 5 11 7 10 8 9 9 4 10 5 11 6 12 85 13
REMARK SMILES IDX 7 14 86 15 8 16 3 17 1 18 2 19 100 20 87 21 98 22 96 23
REMARK SMILES IDX 99 24 97 25 101 26 102 27 88 28 89 29 95 30 90 31 93 32
REMARK SMILES IDX 91 33 92 34 94 35 17 36 18 37 19 38 20 39 21 41 22 42 23 43
REMARK SMILES IDX 84 44 24 45 83 46 25 47 26 48 27 49 77 50 28 51 82 52 76 53
REMARK SMILES IDX 78 54 29 55 81 56 75 57 74 58 30 60 62 61 42 62 61 63 43 64
REMARK SMILES IDX 46 65 60 66 79 67 44 68 45 69 59 71 80 72 47 73 31 74 32 75
REMARK SMILES IDX 40 76 33 77 39 78 41 79 38 80 34 81 35 82 36 83 37 84 63 85
REMARK SMILES IDX 64 86 72 87 65 88 71 89 73 90 70 91 66 92 67 93 68 94 69 95
REMARK SMILES IDX 48 96 49 97 57 98 50 99 56 100 58 101 55 102 51 103 52 104
REMARK SMILES IDX 53 105 54 106
REMARK H PARENT 14 6 19 40 78 59 46 70
REMARK Flexibility Score: inf
ROOT
ATOM      1  C   UNL A   1      47.940  37.851  25.953  1.00  0.00     0.023 C 
ENDROOT
BRANCH   1   2
ATOM      2  C   UNL A   1      48.491  38.300  27.345  1.00  0.00     0.116 C 
BRANCH   2   3
ATOM      3  N   UNL A   1      49.603  39.252  27.342  1.00  0.00    -0.356 N 
ATOM      4  C   UNL A   1      50.296  39.808  28.381  1.00  0.00     0.221 C 
ATOM      5  O   UNL A   1      51.427  40.248  28.180  1.00  0.00    -0.275 OA
ATOM      6  H   UNL A   1      49.899  39.538  26.448  1.00  0.00     0.163 HD
BRANCH   4   7
ATOM      7  C   UNL A   1      49.645  39.950  29.733  1.00  0.00     0.122 C 
BRANCH   7   8
ATOM      8  C   UNL A   1      49.658  41.416  30.180  1.00  0.00     0.137 C 
BRANCH   8   9
ATOM      9  N   UNL A   1      48.938  42.297  29.248  1.00  0.00    -0.292 N 
ATOM     10  C   UNL A   1      45.685  43.351  27.965  1.00  0.00     0.033 C 
ATOM     11  C   UNL A   1      46.996  43.119  28.178  1.00  0.00     0.081 C 
ATOM     12  S   UNL A   1      48.245  44.200  27.658  1.00  0.00    -0.054 SA
ATOM     13  C   UNL A   1      47.630  41.980  28.899  1.00  0.00     0.266 C 
ATOM     14  C   UNL A   1      49.452  43.450  28.700  1.00  0.00     0.148 C 
ATOM     15  O   UNL A   1      47.066  40.917  29.133  1.00  0.00    -0.268 OA
ATOM     16  S   UNL A   1      50.949  44.142  28.970  1.00  0.00    -0.052 S 
BRANCH  10  17
ATOM     17  C   UNL A   1      44.549  42.496  28.331  1.00  0.00     0.021 A 
ATOM     18  C   UNL A   1      43.581  43.239  30.798  1.00  0.00     0.047 C 
ATOM     19  C   UNL A   1      44.036  42.303  29.719  1.00  0.00    -0.017 A 
ATOM     20  C   UNL A   1      43.651  41.089  30.069  1.00  0.00     0.121 A 
ATOM     21  C   UNL A   1      44.063  41.697  27.321  1.00  0.00     0.118 A 
ATOM     22  C   UNL A   1      43.253  40.124  29.006  1.00  0.00     0.270 A 
ATOM     23  N   UNL A   1      43.269  40.607  27.698  1.00  0.00    -0.296 N 
ATOM     24  O   UNL A   1      42.828  39.016  29.330  1.00  0.00    -0.268 OA
ATOM     25  C   UNL A   1      42.581  39.798  26.699  1.00  0.00     0.155 C 
BRANCH  20  26
ATOM     26  C   UNL A   1      43.300  40.661  31.485  1.00  0.00     0.105 C 
ATOM     27  N   UNL A   1      43.008  40.305  32.659  1.00  0.00    -0.192 NA
ENDBRANCH  20  26
BRANCH  21  28
ATOM     28  N   UNL A   1      44.376  41.885  25.948  1.00  0.00    -0.357 N 
ATOM     29  C   UNL A   1      43.558  42.682  25.019  1.00  0.00     0.121 C 
ATOM     30  C   UNL A   1      45.307  40.976  25.268  1.00  0.00     0.121 C 
ATOM     31  C   UNL A   1      44.401  43.458  23.996  1.00  0.00     0.006 C 
ATOM     32  C   UNL A   1      46.260  41.760  24.355  1.00  0.00     0.006 C 
ATOM     33  C   UNL A   1      45.019  44.708  24.620  1.00  0.00     0.009 C 
ATOM     34  C   UNL A   1      45.452  42.561  23.328  1.00  0.00     0.010 C 
ATOM     35  C   UNL A   1      47.250  40.828  23.657  1.00  0.00     0.009 C 
ENDBRANCH  21  28
ENDBRANCH  10  17
ENDBRANCH   8   9
ENDBRANCH   7   8
ENDBRANCH   4   7
ENDBRANCH   2   3
ENDBRANCH   1   2
BRANCH   1  36
ATOM     36  C   UNL A   1      46.933  36.719  26.112  1.00  0.00     0.023 C 
BRANCH  36  37
ATOM     37  C   UNL A   1      46.941  35.318  25.445  1.00  0.00     0.116 C 
BRANCH  37  38
ATOM     38  N   UNL A   1      45.811  34.670  24.820  1.00  0.00    -0.352 N 
ATOM     39  C   UNL A   1      44.479  34.528  25.258  1.00  0.00     0.251 C 
ATOM     40  H   UNL A   1      46.003  34.261  23.946  1.00  0.00     0.163 HD
ATOM     41  O   UNL A   1      43.673  34.250  24.362  1.00  0.00    -0.269 OA
BRANCH  39  42
ATOM     42  C   UNL A   1      43.925  34.586  26.695  1.00  0.00     0.039 A 
ATOM     43  C   UNL A   1      43.866  33.368  27.409  1.00  0.00     0.014 A 
ATOM     44  C   UNL A   1      43.413  35.684  27.390  1.00  0.00     0.014 A 
ATOM     45  C   UNL A   1      43.360  33.267  28.737  1.00  0.00     0.010 A 
ATOM     46  C   UNL A   1      42.988  35.608  28.753  1.00  0.00     0.010 A 
ATOM     47  C   UNL A   1      42.919  34.391  29.448  1.00  0.00    -0.014 A 
BRANCH  47  48
ATOM     48  C   UNL A   1      42.314  34.279  30.836  1.00  0.00     0.031 A 
ATOM     49  C   UNL A   1      43.194  34.145  32.065  1.00  0.00     0.074 A 
ATOM     50  C   UNL A   1      40.978  34.310  31.057  1.00  0.00     0.049 A 
ATOM     51  N   UNL A   1      42.847  34.078  33.330  1.00  0.00    -0.248 NA
ATOM     52  C   UNL A   1      44.645  34.075  31.847  1.00  0.00     0.031 C 
ATOM     53  C   UNL A   1      39.972  34.408  30.012  1.00  0.00     0.029 A 
ATOM     54  N   UNL A   1      40.228  34.256  32.218  1.00  0.00    -0.354 N 
ATOM     55  C   UNL A   1      44.030  33.956  34.053  1.00  0.00     0.074 A 
ATOM     56  C   UNL A   1      45.102  33.915  33.081  1.00  0.00     0.031 C 
ATOM     57  C   UNL A   1      38.746  34.425  30.560  1.00  0.00     0.029 A 
ATOM     58  C   UNL A   1      38.863  34.302  32.012  1.00  0.00     0.049 A 
ATOM     59  H   UNL A   1      40.632  34.190  33.114  1.00  0.00     0.167 HD
ATOM     60  C   UNL A   1      44.219  33.907  35.396  1.00  0.00     0.034 A 
ATOM     61  C   UNL A   1      37.812  34.246  32.865  1.00  0.00     0.034 A 
ATOM     62  C   UNL A   1      43.175  33.974  36.387  1.00  0.00     0.049 A 
ATOM     63  C   UNL A   1      38.042  34.160  34.355  1.00  0.00     0.074 A 
ATOM     64  C   UNL A   1      43.314  34.004  37.766  1.00  0.00     0.029 A 
ATOM     65  N   UNL A   1      41.815  34.014  36.129  1.00  0.00    -0.354 N 
ATOM     66  N   UNL A   1      39.177  34.153  35.009  1.00  0.00    -0.248 NA
ATOM     67  C   UNL A   1      36.855  34.083  35.225  1.00  0.00     0.031 C 
ATOM     68  C   UNL A   1      42.045  33.994  38.341  1.00  0.00     0.029 A 
ATOM     69  C   UNL A   1      41.109  34.029  37.323  1.00  0.00     0.049 A 
ATOM     70  H   UNL A   1      41.411  34.028  35.232  1.00  0.00     0.167 HD
ATOM     71  C   UNL A   1      38.842  34.096  36.361  1.00  0.00     0.074 A 
ATOM     72  C   UNL A   1      37.398  34.090  36.437  1.00  0.00     0.031 C 
ATOM     73  C   UNL A   1      39.670  34.049  37.432  1.00  0.00     0.034 A 
BRANCH  60  74
ATOM     74  C   UNL A   1      45.631  33.805  35.921  1.00  0.00     0.023 A 
ATOM     75  C   UNL A   1      46.128  32.565  36.370  1.00  0.00     0.031 A 
ATOM     76  C   UNL A   1      46.409  34.954  36.141  1.00  0.00     0.131 A 
ATOM     77  C   UNL A   1      47.349  32.512  37.051  1.00  0.00     0.055 A 
ATOM     78  C   UNL A   1      47.645  34.890  36.787  1.00  0.00     0.041 A 
ATOM     79  F   UNL A   1      45.974  36.159  35.737  1.00  0.00    -0.206 F 
ATOM     80  C   UNL A   1      48.113  33.666  37.256  1.00  0.00     0.022 A 
BRANCH  77  81
ATOM     81  S   UNL A   1      47.969  30.956  37.747  1.00  0.00     0.124 S 
ATOM     82  O   UNL A   1      47.092  29.973  37.112  1.00  0.00    -0.237 OA
ATOM     83  O   UNL A   1      49.353  30.946  37.286  1.00  0.00    -0.237 OA
ATOM     84  O   UNL A   1      47.779  31.115  39.184  1.00  0.00    -0.744 OA
ENDBRANCH  77  81
ENDBRANCH  60  74
BRANCH  61  85
ATOM     85  C   UNL A   1      36.420  34.305  32.317  1.00  0.00     0.023 A 
ATOM     86  C   UNL A   1      35.669  35.491  32.393  1.00  0.00     0.031 A 
ATOM     87  C   UNL A   1      35.800  33.163  31.782  1.00  0.00     0.131 A 
ATOM     88  C   UNL A   1      34.321  35.487  32.011  1.00  0.00     0.055 A 
ATOM     89  C   UNL A   1      34.477  33.185  31.333  1.00  0.00     0.041 A 
ATOM     90  F   UNL A   1      36.475  32.008  31.686  1.00  0.00    -0.206 F 
ATOM     91  C   UNL A   1      33.725  34.348  31.462  1.00  0.00     0.022 A 
BRANCH  88  92
ATOM     92  S   UNL A   1      33.269  36.932  32.315  1.00  0.00     0.124 S 
ATOM     93  O   UNL A   1      32.044  36.322  32.822  1.00  0.00    -0.237 OA
ATOM     94  O   UNL A   1      34.066  37.665  33.296  1.00  0.00    -0.237 OA
ATOM     95  O   UNL A   1      33.167  37.559  31.003  1.00  0.00    -0.744 OA
ENDBRANCH  88  92
ENDBRANCH  61  85
BRANCH  73  96
ATOM     96  C   UNL A   1      39.087  33.998  38.825  1.00  0.00     0.023 A 
ATOM     97  C   UNL A   1      38.465  32.821  39.285  1.00  0.00     0.031 A 
ATOM     98  C   UNL A   1      38.989  35.153  39.619  1.00  0.00     0.131 A 
ATOM     99  C   UNL A   1      37.727  32.838  40.477  1.00  0.00     0.055 A 
ATOM    100  C   UNL A   1      38.288  35.155  40.828  1.00  0.00     0.041 A 
ATOM    101  F   UNL A   1      39.558  36.302  39.223  1.00  0.00    -0.206 F 
ATOM    102  C   UNL A   1      37.641  33.998  41.254  1.00  0.00     0.022 A 
BRANCH  99 103
ATOM    103  S   UNL A   1      36.794  31.381  41.025  1.00  0.00     0.124 S 
ATOM    104  O   UNL A   1      35.990  31.070  39.844  1.00  0.00    -0.237 OA
ATOM    105  O   UNL A   1      37.860  30.428  41.322  1.00  0.00    -0.237 OA
ATOM    106  O   UNL A   1      36.038  31.860  42.177  1.00  0.00    -0.744 OA
ENDBRANCH  99 103
ENDBRANCH  73  96
ENDBRANCH  47  48
ENDBRANCH  39  42
ENDBRANCH  37  38
ENDBRANCH  36  37
ENDBRANCH   1  36
TORSDOF 19
ENDMDL
MODEL 3
REMARK VINA RESULT:      -8.9      7.099     12.875
REMARK SMILES Cc1c(/C=C2/SC(=S)N(CCC(=O)NCCCCNC(=O)c3ccc(-c4c5nc(c(-c6cc(S(=O)(=O)[O-])ccc6F)c6ccc([nH]6)c(-c6cc(S(=O)(=O)[O-])ccc6F)c6nc(c(-c7cc(S(=O)(=O)[O-])ccc7F)c7ccc4[nH]7)C=C6)C=C5)cc3)C2=O)c(N2C[C@@H](C)C[C@H](C)C2)n(C)c(=O)c1C#N
REMARK SMILES IDX 16 1 15 2 14 3 12 4 13 5 11 7 10 8 9 9 4 10 5 11 6 12 85 13
REMARK SMILES IDX 7 14 86 15 8 16 3 17 1 18 2 19 100 20 87 21 98 22 96 23
REMARK SMILES IDX 99 24 97 25 101 26 102 27 88 28 89 29 95 30 90 31 93 32
REMARK SMILES IDX 91 33 92 34 94 35 17 36 18 37 19 38 20 39 21 41 22 42 23 43
REMARK SMILES IDX 84 44 24 45 83 46 25 47 26 48 27 49 77 50 28 51 82 52 76 53
REMARK SMILES IDX 78 54 29 55 81 56 75 57 74 58 30 60 62 61 42 62 61 63 43 64
REMARK SMILES IDX 46 65 60 66 79 67 44 68 45 69 59 71 80 72 47 73 31 74 32 75
REMARK SMILES IDX 40 76 33 77 39 78 41 79 38 80 34 81 35 82 36 83 37 84 63 85
REMARK SMILES IDX 64 86 72 87 65 88 71 89 73 90 70 91 66 92 67 93 68 94 69 95
REMARK SMILES IDX 48 96 49 97 57 98 50 99 56 100 58 101 55 102 51 103 52 104
REMARK SMILES IDX 53 105 54 106
REMARK H PARENT 14 6 19 40 78 59 46 70
REMARK Flexibility Score: inf
ROOT
ATOM      1  C   UNL A   1      36.483  33.175  32.034  1.00  0.00     0.023 C 
ENDROOT
BRANCH   1   2
ATOM      2  C   UNL A   1      37.132  34.469  32.626  1.00  0.00     0.116 C 
BRANCH   2   3
ATOM      3  N   UNL A   1      38.557  34.676  32.361  1.00  0.00    -0.356 N 
ATOM      4  C   UNL A   1      39.629  34.643  33.208  1.00  0.00     0.221 C 
ATOM      5  O   UNL A   1      40.751  34.436  32.746  1.00  0.00    -0.275 OA
ATOM      6  H   UNL A   1      38.778  34.870  31.422  1.00  0.00     0.163 HD
BRANCH   4   7
ATOM      7  C   UNL A   1      39.444  34.938  34.673  1.00  0.00     0.122 C 
BRANCH   7   8
ATOM      8  C   UNL A   1      40.243  33.944  35.524  1.00  0.00     0.137 C 
BRANCH   8   9
ATOM      9  N   UNL A   1      39.466  33.418  36.656  1.00  0.00    -0.292 N 
ATOM     10  C   UNL A   1      38.542  33.846  40.164  1.00  0.00     0.033 C 
ATOM     11  C   UNL A   1      38.757  33.393  38.913  1.00  0.00     0.081 C 
ATOM     12  S   UNL A   1      37.747  32.212  38.148  1.00  0.00    -0.054 SA
ATOM     13  C   UNL A   1      39.813  33.806  37.946  1.00  0.00     0.266 C 
ATOM     14  C   UNL A   1      38.384  32.575  36.545  1.00  0.00     0.148 C 
ATOM     15  O   UNL A   1      40.839  34.395  38.263  1.00  0.00    -0.268 OA
ATOM     16  S   UNL A   1      37.675  31.986  35.151  1.00  0.00    -0.052 S 
BRANCH  10  17
ATOM     17  C   UNL A   1      39.345  34.815  40.921  1.00  0.00     0.021 A 
ATOM     18  C   UNL A   1      38.641  37.375  40.193  1.00  0.00     0.047 C 
ATOM     19  C   UNL A   1      39.560  36.239  40.527  1.00  0.00    -0.017 A 
ATOM     20  C   UNL A   1      40.763  36.753  40.712  1.00  0.00     0.121 A 
ATOM     21  C   UNL A   1      40.077  34.291  41.961  1.00  0.00     0.118 A 
ATOM     22  C   UNL A   1      41.664  36.133  41.725  1.00  0.00     0.270 A 
ATOM     23  N   UNL A   1      41.133  35.067  42.451  1.00  0.00    -0.296 N 
ATOM     24  O   UNL A   1      42.757  36.650  41.951  1.00  0.00    -0.268 OA
ATOM     25  C   UNL A   1      41.864  34.672  43.649  1.00  0.00     0.155 C 
BRANCH  20  26
ATOM     26  C   UNL A   1      41.223  38.103  40.188  1.00  0.00     0.105 C 
ATOM     27  N   UNL A   1      41.605  39.224  39.755  1.00  0.00    -0.192 NA
ENDBRANCH  20  26
BRANCH  21  28
ATOM     28  N   UNL A   1      39.855  32.997  42.507  1.00  0.00    -0.357 N 
ATOM     29  C   UNL A   1      40.327  31.749  41.888  1.00  0.00     0.121 C 
ATOM     30  C   UNL A   1      38.800  32.787  43.506  1.00  0.00     0.121 C 
ATOM     31  C   UNL A   1      40.779  30.704  42.918  1.00  0.00     0.006 C 
ATOM     32  C   UNL A   1      39.294  31.861  44.627  1.00  0.00     0.006 C 
ATOM     33  C   UNL A   1      42.168  31.029  43.466  1.00  0.00     0.009 C 
ATOM     34  C   UNL A   1      39.742  30.521  44.034  1.00  0.00     0.010 C 
ATOM     35  C   UNL A   1      38.213  31.650  45.687  1.00  0.00     0.009 C 
ENDBRANCH  21  28
ENDBRANCH  10  17
ENDBRANCH   8   9
ENDBRANCH   7   8
ENDBRANCH   4   7
ENDBRANCH   2   3
ENDBRANCH   1   2
BRANCH   1  36
ATOM     36  C   UNL A   1      35.022  33.421  31.677  1.00  0.00     0.023 C 
BRANCH  36  37
ATOM     37  C   UNL A   1      34.430  33.949  30.344  1.00  0.00     0.116 C 
BRANCH  37  38
ATOM     38  N   UNL A   1      34.080  33.146  29.195  1.00  0.00    -0.352 N 
ATOM     39  C   UNL A   1      34.614  31.927  28.733  1.00  0.00     0.251 C 
ATOM     40  H   UNL A   1      33.349  33.510  28.646  1.00  0.00     0.163 HD
ATOM     41  O   UNL A   1      33.882  31.312  27.948  1.00  0.00    -0.269 OA
BRANCH  39  42
ATOM     42  C   UNL A   1      36.004  31.318  29.004  1.00  0.00     0.039 A 
ATOM     43  C   UNL A   1      36.046  30.129  29.767  1.00  0.00     0.014 A 
ATOM     44  C   UNL A   1      37.260  31.810  28.640  1.00  0.00     0.014 A 
ATOM     45  C   UNL A   1      37.259  29.466  30.111  1.00  0.00     0.010 A 
ATOM     46  C   UNL A   1      38.474  31.103  28.903  1.00  0.00     0.010 A 
ATOM     47  C   UNL A   1      38.507  29.932  29.674  1.00  0.00    -0.014 A 
BRANCH  47  48
ATOM     48  C   UNL A   1      39.806  29.270  30.097  1.00  0.00     0.031 A 
ATOM     49  C   UNL A   1      40.546  29.723  31.341  1.00  0.00     0.074 A 
ATOM     50  C   UNL A   1      40.361  28.243  29.410  1.00  0.00     0.049 A 
ATOM     51  N   UNL A   1      41.648  29.243  31.871  1.00  0.00    -0.248 NA
ATOM     52  C   UNL A   1      39.981  30.857  32.083  1.00  0.00     0.031 C 
ATOM     53  C   UNL A   1      39.819  27.684  28.182  1.00  0.00     0.029 A 
ATOM     54  N   UNL A   1      41.499  27.488  29.629  1.00  0.00    -0.354 N 
ATOM     55  C   UNL A   1      41.906  30.014  33.000  1.00  0.00     0.074 A 
ATOM     56  C   UNL A   1      40.869  31.022  33.054  1.00  0.00     0.031 C 
ATOM     57  C   UNL A   1      40.596  26.674  27.759  1.00  0.00     0.029 A 
ATOM     58  C   UNL A   1      41.731  26.523  28.668  1.00  0.00     0.049 A 
ATOM     59  H   UNL A   1      42.092  27.627  30.402  1.00  0.00     0.167 HD
ATOM     60  C   UNL A   1      42.894  29.890  33.922  1.00  0.00     0.034 A 
ATOM     61  C   UNL A   1      42.728  25.621  28.508  1.00  0.00     0.034 A 
ATOM     62  C   UNL A   1      43.923  28.881  33.910  1.00  0.00     0.049 A 
ATOM     63  C   UNL A   1      43.836  25.518  29.528  1.00  0.00     0.074 A 
ATOM     64  C   UNL A   1      44.907  28.661  34.861  1.00  0.00     0.029 A 
ATOM     65  N   UNL A   1      44.117  27.935  32.917  1.00  0.00    -0.354 N 
ATOM     66  N   UNL A   1      43.991  26.194  30.640  1.00  0.00    -0.248 NA
ATOM     67  C   UNL A   1      44.900  24.528  29.284  1.00  0.00     0.031 C 
ATOM     68  C   UNL A   1      45.734  27.631  34.415  1.00  0.00     0.029 A 
ATOM     69  C   UNL A   1      45.227  27.158  33.218  1.00  0.00     0.049 A 
ATOM     70  H   UNL A   1      43.553  27.831  32.118  1.00  0.00     0.167 HD
ATOM     71  C   UNL A   1      45.149  25.697  31.235  1.00  0.00     0.074 A 
ATOM     72  C   UNL A   1      45.649  24.649  30.374  1.00  0.00     0.031 C 
ATOM     73  C   UNL A   1      45.736  26.089  32.392  1.00  0.00     0.034 A 
BRANCH  60  74
ATOM     74  C   UNL A   1      42.922  30.856  35.083  1.00  0.00     0.023 A 
ATOM     75  C   UNL A   1      43.613  32.078  34.965  1.00  0.00     0.031 A 
ATOM     76  C   UNL A   1      42.424  30.489  36.345  1.00  0.00     0.131 A 
ATOM     77  C   UNL A   1      43.820  32.870  36.100  1.00  0.00     0.055 A 
ATOM     78  C   UNL A   1      42.600  31.302  37.466  1.00  0.00     0.041 A 
ATOM     79  F   UNL A   1      41.765  29.331  36.507  1.00  0.00    -0.206 F 
ATOM     80  C   UNL A   1      43.312  32.492  37.348  1.00  0.00     0.022 A 
BRANCH  77  81
ATOM     81  S   UNL A   1      44.803  34.392  36.016  1.00  0.00     0.124 S 
ATOM     82  O   UNL A   1      45.604  34.300  37.235  1.00  0.00    -0.237 OA
ATOM     83  O   UNL A   1      45.541  34.209  34.770  1.00  0.00    -0.237 OA
ATOM     84  O   UNL A   1      43.804  35.455  36.012  1.00  0.00    -0.744 OA
ENDBRANCH  77  81
ENDBRANCH  60  74
BRANCH  61  85
ATOM     85  C   UNL A   1      42.702  24.703  27.326  1.00  0.00     0.023 A 
ATOM     86  C   UNL A   1      42.081  23.444  27.408  1.00  0.00     0.031 A 
ATOM     87  C   UNL A   1      43.360  25.038  26.130  1.00  0.00     0.131 A 
ATOM     88  C   UNL A   1      42.194  22.541  26.343  1.00  0.00     0.055 A 
ATOM     89  C   UNL A   1      43.406  24.161  25.043  1.00  0.00     0.041 A 
ATOM     90  F   UNL A   1      43.966  26.227  26.001  1.00  0.00    -0.206 F 
ATOM     91  C   UNL A   1      42.835  22.898  25.153  1.00  0.00     0.022 A 
BRANCH  88  92
ATOM     92  S   UNL A   1      41.605  20.834  26.512  1.00  0.00     0.124 S 
ATOM     93  O   UNL A   1      40.179  20.970  26.232  1.00  0.00    -0.237 OA
ATOM     94  O   UNL A   1      42.392  20.157  25.483  1.00  0.00    -0.237 OA
ATOM     95  O   UNL A   1      41.950  20.491  27.886  1.00  0.00    -0.744 OA
ENDBRANCH  88  92
ENDBRANCH  61  85
BRANCH  73  96
ATOM     96  C   UNL A   1      46.997  25.401  32.861  1.00  0.00     0.023 A 
ATOM     97  C   UNL A   1      46.925  24.389  33.838  1.00  0.00     0.031 A 
ATOM     98  C   UNL A   1      48.266  25.863  32.478  1.00  0.00     0.131 A 
ATOM     99  C   UNL A   1      48.098  23.911  34.439  1.00  0.00     0.055 A 
ATOM    100  C   UNL A   1      49.436  25.353  33.048  1.00  0.00     0.041 A 
ATOM    101  F   UNL A   1      48.390  26.831  31.555  1.00  0.00    -0.206 F 
ATOM    102  C   UNL A   1      49.354  24.383  34.044  1.00  0.00     0.022 A 
BRANCH  99 103
ATOM    103  S   UNL A   1      48.034  22.713  35.801  1.00  0.00     0.124 S 
ATOM    104  O   UNL A   1      49.329  22.047  35.685  1.00  0.00    -0.237 OA
ATOM    105  O   UNL A   1      47.882  23.581  36.966  1.00  0.00    -0.237 OA
ATOM    106  O   UNL A   1      46.879  21.880  35.482  1.00  0.00    -0.744 OA
ENDBRANCH  99 103
ENDBRANCH  73  96
ENDBRANCH  47  48
ENDBRANCH  39  42
ENDBRANCH  37  38
ENDBRANCH  36  37
ENDBRANCH   1  36
TORSDOF 19
ENDMDL
