MODEL 1
REMARK VINA RESULT:     -11.2      0.000      0.000
REMARK SMILES COc1ccc(NCc2cc(C(=O)NCCCCNC(=O)c3ccc(-c4c5nc(c(-c6cc(S(=O)(=O)[O-])ccc6F)c6ccc([nH]6)c(-c6cc(S(=O)(=O)[O-])ccc6F)c6nc(c(-c7cc(S(=O)(=O)[O-])ccc7F)c7ccc4[nH]7)C=C6)C=C5)cc3)cs2)cc1Br
REMARK SMILES IDX 16 1 15 2 14 3 12 4 13 5 11 7 9 8 10 9 86 10 85 11 8 12 7 13
REMARK SMILES IDX 6 15 3 16 4 17 88 18 5 19 87 20 89 21 2 22 1 23 17 24 18 25
REMARK SMILES IDX 19 26 20 27 21 29 22 30 23 31 84 32 24 33 83 34 25 35 26 36
REMARK SMILES IDX 27 37 77 38 28 39 82 40 76 41 78 42 29 43 81 44 75 45 74 46
REMARK SMILES IDX 30 48 62 49 42 50 61 51 43 52 46 53 60 54 79 55 44 56 45 57
REMARK SMILES IDX 59 59 80 60 47 61 31 62 32 63 40 64 33 65 39 66 41 67 38 68
REMARK SMILES IDX 34 69 35 70 36 71 37 72 63 73 64 74 72 75 65 76 71 77 73 78
REMARK SMILES IDX 70 79 66 80 67 81 68 82 69 83 48 84 49 85 57 86 50 87 56 88
REMARK SMILES IDX 58 89 55 90 51 91 52 92 53 93 54 94
REMARK H PARENT 14 6 7 14 19 28 78 47 46 58
REMARK Flexibility Score: inf
ROOT
ATOM      1  C   UNL A   1      32.806  29.338  24.568  1.00  0.00     0.023 C 
ENDROOT
BRANCH   1   2
ATOM      2  C   UNL A   1      32.226  29.019  23.190  1.00  0.00     0.116 C 
BRANCH   2   3
ATOM      3  N   UNL A   1      33.110  28.152  22.438  1.00  0.00    -0.352 N 
ATOM      4  C   UNL A   1      33.190  26.786  22.327  1.00  0.00     0.252 C 
ATOM      5  O   UNL A   1      34.026  26.341  21.544  1.00  0.00    -0.269 OA
ATOM      6  H   UNL A   1      33.781  28.635  21.905  1.00  0.00     0.163 HD
BRANCH   4   7
ATOM      7  C   UNL A   1      32.303  25.887  23.076  1.00  0.00     0.050 A 
ATOM      8  C   UNL A   1      31.196  24.749  24.826  1.00  0.00     0.024 A 
ATOM      9  C   UNL A   1      32.225  25.600  24.476  1.00  0.00     0.031 A 
ATOM     10  S   UNL A   1      30.375  24.180  23.444  1.00  0.00    -0.146 S 
ATOM     11  C   UNL A   1      31.368  25.108  22.407  1.00  0.00     0.079 A 
BRANCH   8  12
ATOM     12  C   UNL A   1      30.793  24.315  26.208  1.00  0.00     0.159 C 
BRANCH  12  13
ATOM     13  N   UNL A   1      31.898  23.763  26.980  1.00  0.00    -0.380 N 
ATOM     14  H   UNL A   1      31.844  23.877  27.957  1.00  0.00     0.160 HD
BRANCH  13  15
ATOM     15  C   UNL A   1      33.010  23.099  26.504  1.00  0.00     0.036 A 
ATOM     16  C   UNL A   1      35.195  21.503  25.646  1.00  0.00     0.133 A 
ATOM     17  C   UNL A   1      35.410  22.718  26.297  1.00  0.00     0.050 A 
ATOM     18  C   UNL A   1      33.888  21.083  25.413  1.00  0.00     0.062 A 
ATOM     19  C   UNL A   1      34.329  23.510  26.713  1.00  0.00     0.029 A 
ATOM     20  C   UNL A   1      32.815  21.884  25.829  1.00  0.00     0.045 A 
ATOM     21  Br  UNL A   1      33.464  19.404  24.637  1.00  0.00    -0.047 Br
BRANCH  16  22
ATOM     22  O   UNL A   1      36.300  20.726  25.419  1.00  0.00    -0.496 OA
ATOM     23  C   UNL A   1      37.181  21.286  24.443  1.00  0.00     0.278 C 
ENDBRANCH  16  22
ENDBRANCH  13  15
ENDBRANCH  12  13
ENDBRANCH   8  12
ENDBRANCH   4   7
ENDBRANCH   2   3
ENDBRANCH   1   2
BRANCH   1  24
ATOM     24  C   UNL A   1      31.740  29.593  25.639  1.00  0.00     0.023 C 
BRANCH  24  25
ATOM     25  C   UNL A   1      32.269  30.181  26.945  1.00  0.00     0.116 C 
BRANCH  25  26
ATOM     26  N   UNL A   1      32.276  31.636  26.967  1.00  0.00    -0.352 N 
ATOM     27  C   UNL A   1      33.276  32.468  27.416  1.00  0.00     0.251 C 
ATOM     28  H   UNL A   1      31.468  32.078  26.619  1.00  0.00     0.163 HD
ATOM     29  O   UNL A   1      33.098  33.680  27.466  1.00  0.00    -0.269 OA
BRANCH  27  30
ATOM     30  C   UNL A   1      34.543  31.861  27.876  1.00  0.00     0.039 A 
ATOM     31  C   UNL A   1      35.657  32.679  28.066  1.00  0.00     0.014 A 
ATOM     32  C   UNL A   1      34.594  30.504  28.206  1.00  0.00     0.014 A 
ATOM     33  C   UNL A   1      36.803  32.148  28.661  1.00  0.00     0.010 A 
ATOM     34  C   UNL A   1      35.706  30.000  28.871  1.00  0.00     0.010 A 
ATOM     35  C   UNL A   1      36.822  30.816  29.112  1.00  0.00    -0.014 A 
BRANCH  35  36
ATOM     36  C   UNL A   1      37.993  30.267  29.848  1.00  0.00     0.031 A 
ATOM     37  C   UNL A   1      38.268  30.701  31.263  1.00  0.00     0.074 A 
ATOM     38  C   UNL A   1      38.840  29.425  29.222  1.00  0.00     0.049 A 
ATOM     39  N   UNL A   1      39.266  30.382  32.046  1.00  0.00    -0.248 NA
ATOM     40  C   UNL A   1      37.311  31.643  31.862  1.00  0.00     0.031 C 
ATOM     41  C   UNL A   1      38.706  28.967  27.836  1.00  0.00     0.029 A 
ATOM     42  N   UNL A   1      39.985  28.807  29.663  1.00  0.00    -0.354 N 
ATOM     43  C   UNL A   1      39.061  31.088  33.227  1.00  0.00     0.074 A 
ATOM     44  C   UNL A   1      37.884  31.906  33.026  1.00  0.00     0.031 C 
ATOM     45  C   UNL A   1      39.707  28.116  27.555  1.00  0.00     0.029 A 
ATOM     46  C   UNL A   1      40.585  28.008  28.716  1.00  0.00     0.049 A 
ATOM     47  H   UNL A   1      40.343  28.925  30.572  1.00  0.00     0.167 HD
ATOM     48  C   UNL A   1      39.773  31.039  34.380  1.00  0.00     0.034 A 
ATOM     49  C   UNL A   1      41.718  27.278  28.770  1.00  0.00     0.034 A 
ATOM     50  C   UNL A   1      40.941  30.212  34.564  1.00  0.00     0.049 A 
ATOM     51  C   UNL A   1      42.515  27.269  30.052  1.00  0.00     0.074 A 
ATOM     52  C   UNL A   1      41.704  30.044  35.707  1.00  0.00     0.029 A 
ATOM     53  N   UNL A   1      41.523  29.424  33.581  1.00  0.00    -0.354 N 
ATOM     54  N   UNL A   1      42.273  27.898  31.180  1.00  0.00    -0.248 NA
ATOM     55  C   UNL A   1      43.730  26.444  30.072  1.00  0.00     0.031 C 
ATOM     56  C   UNL A   1      42.791  29.223  35.392  1.00  0.00     0.029 A 
ATOM     57  C   UNL A   1      42.657  28.800  34.079  1.00  0.00     0.049 A 
ATOM     58  H   UNL A   1      41.182  29.322  32.663  1.00  0.00     0.167 HD
ATOM     59  C   UNL A   1      43.288  27.513  32.053  1.00  0.00     0.074 A 
ATOM     60  C   UNL A   1      44.133  26.590  31.326  1.00  0.00     0.031 C 
ATOM     61  C   UNL A   1      43.497  27.885  33.342  1.00  0.00     0.034 A 
BRANCH  48  62
ATOM     62  C   UNL A   1      39.318  31.923  35.518  1.00  0.00     0.023 A 
ATOM     63  C   UNL A   1      39.805  33.232  35.676  1.00  0.00     0.031 A 
ATOM     64  C   UNL A   1      38.401  31.444  36.471  1.00  0.00     0.131 A 
ATOM     65  C   UNL A   1      39.434  33.987  36.798  1.00  0.00     0.055 A 
ATOM     66  C   UNL A   1      37.967  32.233  37.537  1.00  0.00     0.041 A 
ATOM     67  F   UNL A   1      37.919  30.194  36.388  1.00  0.00    -0.206 F 
ATOM     68  C   UNL A   1      38.497  33.508  37.716  1.00  0.00     0.022 A 
BRANCH  65  69
ATOM     69  S   UNL A   1      40.313  35.540  37.123  1.00  0.00     0.124 S 
ATOM     70  O   UNL A   1      39.652  36.453  36.193  1.00  0.00    -0.237 OA
ATOM     71  O   UNL A   1      40.044  35.765  38.539  1.00  0.00    -0.237 OA
ATOM     72  O   UNL A   1      41.702  35.224  36.793  1.00  0.00    -0.744 OA
ENDBRANCH  65  69
ENDBRANCH  48  62
BRANCH  49  73
ATOM     73  C   UNL A   1      42.182  26.506  27.580  1.00  0.00     0.023 A 
ATOM     74  C   UNL A   1      41.877  25.143  27.435  1.00  0.00     0.031 A 
ATOM     75  C   UNL A   1      42.982  27.108  26.592  1.00  0.00     0.131 A 
ATOM     76  C   UNL A   1      42.410  24.415  26.360  1.00  0.00     0.055 A 
ATOM     77  C   UNL A   1      43.459  26.395  25.491  1.00  0.00     0.041 A 
ATOM     78  F   UNL A   1      43.305  28.409  26.678  1.00  0.00    -0.206 F 
ATOM     79  C   UNL A   1      43.186  25.035  25.378  1.00  0.00     0.022 A 
BRANCH  76  80
ATOM     80  S   UNL A   1      42.159  22.619  26.317  1.00  0.00     0.124 S 
ATOM     81  O   UNL A   1      42.684  22.278  24.999  1.00  0.00    -0.237 OA
ATOM     82  O   UNL A   1      42.952  22.176  27.460  1.00  0.00    -0.237 OA
ATOM     83  O   UNL A   1      40.713  22.475  26.471  1.00  0.00    -0.744 OA
ENDBRANCH  76  80
ENDBRANCH  49  73
BRANCH  61  84
ATOM     84  C   UNL A   1      44.660  27.247  34.066  1.00  0.00     0.023 A 
ATOM     85  C   UNL A   1      44.534  26.021  34.742  1.00  0.00     0.031 A 
ATOM     86  C   UNL A   1      45.916  27.881  34.074  1.00  0.00     0.131 A 
ATOM     87  C   UNL A   1      45.630  25.494  35.442  1.00  0.00     0.055 A 
ATOM     88  C   UNL A   1      47.020  27.319  34.716  1.00  0.00     0.041 A 
ATOM     89  F   UNL A   1      46.093  29.055  33.449  1.00  0.00    -0.206 F 
ATOM     90  C   UNL A   1      46.878  26.124  35.416  1.00  0.00     0.022 A 
BRANCH  87  91
ATOM     91  S   UNL A   1      45.383  24.019  36.468  1.00  0.00     0.124 S 
ATOM     92  O   UNL A   1      45.144  24.602  37.784  1.00  0.00    -0.237 OA
ATOM     93  O   UNL A   1      44.231  23.386  35.833  1.00  0.00    -0.237 OA
ATOM     94  O   UNL A   1      46.643  23.290  36.331  1.00  0.00    -0.744 OA
ENDBRANCH  87  91
ENDBRANCH  61  84
ENDBRANCH  35  36
ENDBRANCH  27  30
ENDBRANCH  25  26
ENDBRANCH  24  25
ENDBRANCH   1  24
TORSDOF 18
ENDMDL
MODEL 2
REMARK VINA RESULT:     -11.2      2.585      8.038
REMARK SMILES COc1ccc(NCc2cc(C(=O)NCCCCNC(=O)c3ccc(-c4c5nc(c(-c6cc(S(=O)(=O)[O-])ccc6F)c6ccc([nH]6)c(-c6cc(S(=O)(=O)[O-])ccc6F)c6nc(c(-c7cc(S(=O)(=O)[O-])ccc7F)c7ccc4[nH]7)C=C6)C=C5)cc3)cs2)cc1Br
REMARK SMILES IDX 16 1 15 2 14 3 12 4 13 5 11 7 9 8 10 9 86 10 85 11 8 12 7 13
REMARK SMILES IDX 6 15 3 16 4 17 88 18 5 19 87 20 89 21 2 22 1 23 17 24 18 25
REMARK SMILES IDX 19 26 20 27 21 29 22 30 23 31 84 32 24 33 83 34 25 35 26 36
REMARK SMILES IDX 27 37 77 38 28 39 82 40 76 41 78 42 29 43 81 44 75 45 74 46
REMARK SMILES IDX 30 48 62 49 42 50 61 51 43 52 46 53 60 54 79 55 44 56 45 57
REMARK SMILES IDX 59 59 80 60 47 61 31 62 32 63 40 64 33 65 39 66 41 67 38 68
REMARK SMILES IDX 34 69 35 70 36 71 37 72 63 73 64 74 72 75 65 76 71 77 73 78
REMARK SMILES IDX 70 79 66 80 67 81 68 82 69 83 48 84 49 85 57 86 50 87 56 88
REMARK SMILES IDX 58 89 55 90 51 91 52 92 53 93 54 94
REMARK H PARENT 14 6 7 14 19 28 78 47 46 58
REMARK Flexibility Score: inf
ROOT
ATOM      1  C   UNL A   1      35.007  30.353  27.788  1.00  0.00     0.023 C 
ENDROOT
BRANCH   1   2
ATOM      2  C   UNL A   1      34.481  29.113  27.065  1.00  0.00     0.116 C 
BRANCH   2   3
ATOM      3  N   UNL A   1      33.219  28.675  27.627  1.00  0.00    -0.352 N 
ATOM      4  C   UNL A   1      32.075  28.179  27.054  1.00  0.00     0.252 C 
ATOM      5  O   UNL A   1      31.178  27.829  27.819  1.00  0.00    -0.269 OA
ATOM      6  H   UNL A   1      33.175  28.747  28.607  1.00  0.00     0.163 HD
BRANCH   4   7
ATOM      7  C   UNL A   1      31.927  28.033  25.601  1.00  0.00     0.050 A 
ATOM      8  C   UNL A   1      32.007  27.183  23.397  1.00  0.00     0.024 A 
ATOM      9  C   UNL A   1      32.422  27.033  24.705  1.00  0.00     0.031 A 
ATOM     10  S   UNL A   1      31.105  28.618  23.203  1.00  0.00    -0.146 S 
ATOM     11  C   UNL A   1      31.240  28.990  24.866  1.00  0.00     0.079 A 
BRANCH   8  12
ATOM     12  C   UNL A   1      32.280  26.270  22.235  1.00  0.00     0.159 C 
BRANCH  12  13
ATOM     13  N   UNL A   1      31.805  24.910  22.451  1.00  0.00    -0.380 N 
ATOM     14  H   UNL A   1      30.959  24.670  22.008  1.00  0.00     0.160 HD
BRANCH  13  15
ATOM     15  C   UNL A   1      32.403  23.919  23.201  1.00  0.00     0.036 A 
ATOM     16  C   UNL A   1      33.784  21.817  24.520  1.00  0.00     0.133 A 
ATOM     17  C   UNL A   1      32.390  21.889  24.554  1.00  0.00     0.050 A 
ATOM     18  C   UNL A   1      34.495  22.798  23.834  1.00  0.00     0.062 A 
ATOM     19  C   UNL A   1      31.710  22.933  23.909  1.00  0.00     0.029 A 
ATOM     20  C   UNL A   1      33.805  23.840  23.196  1.00  0.00     0.045 A 
ATOM     21  Br  UNL A   1      36.379  22.752  23.621  1.00  0.00    -0.047 Br
BRANCH  16  22
ATOM     22  O   UNL A   1      34.351  20.684  25.039  1.00  0.00    -0.496 OA
ATOM     23  C   UNL A   1      33.682  19.489  24.627  1.00  0.00     0.278 C 
ENDBRANCH  16  22
ENDBRANCH  13  15
ENDBRANCH  12  13
ENDBRANCH   8  12
ENDBRANCH   4   7
ENDBRANCH   2   3
ENDBRANCH   1   2
BRANCH   1  24
ATOM     24  C   UNL A   1      34.467  31.671  27.220  1.00  0.00     0.023 C 
BRANCH  24  25
ATOM     25  C   UNL A   1      33.045  32.022  27.652  1.00  0.00     0.116 C 
BRANCH  25  26
ATOM     26  N   UNL A   1      32.779  33.453  27.664  1.00  0.00    -0.352 N 
ATOM     27  C   UNL A   1      33.388  34.418  28.433  1.00  0.00     0.251 C 
ATOM     28  H   UNL A   1      32.078  33.768  27.048  1.00  0.00     0.163 HD
ATOM     29  O   UNL A   1      32.987  35.576  28.407  1.00  0.00    -0.269 OA
BRANCH  27  30
ATOM     30  C   UNL A   1      34.503  34.014  29.317  1.00  0.00     0.039 A 
ATOM     31  C   UNL A   1      34.241  33.165  30.393  1.00  0.00     0.014 A 
ATOM     32  C   UNL A   1      35.811  34.403  29.020  1.00  0.00     0.014 A 
ATOM     33  C   UNL A   1      35.308  32.643  31.127  1.00  0.00     0.010 A 
ATOM     34  C   UNL A   1      36.873  33.819  29.702  1.00  0.00     0.010 A 
ATOM     35  C   UNL A   1      36.635  32.927  30.759  1.00  0.00    -0.014 A 
BRANCH  35  36
ATOM     36  C   UNL A   1      37.783  32.291  31.461  1.00  0.00     0.031 A 
ATOM     37  C   UNL A   1      38.511  31.136  30.826  1.00  0.00     0.074 A 
ATOM     38  C   UNL A   1      38.131  32.714  32.693  1.00  0.00     0.049 A 
ATOM     39  N   UNL A   1      39.493  30.415  31.303  1.00  0.00    -0.248 NA
ATOM     40  C   UNL A   1      38.052  30.719  29.492  1.00  0.00     0.031 C 
ATOM     41  C   UNL A   1      37.471  33.793  33.433  1.00  0.00     0.029 A 
ATOM     42  N   UNL A   1      39.119  32.287  33.547  1.00  0.00    -0.354 N 
ATOM     43  C   UNL A   1      39.764  29.456  30.332  1.00  0.00     0.074 A 
ATOM     44  C   UNL A   1      38.794  29.645  29.275  1.00  0.00     0.031 C 
ATOM     45  C   UNL A   1      38.094  33.964  34.610  1.00  0.00     0.029 A 
ATOM     46  C   UNL A   1      39.161  32.977  34.737  1.00  0.00     0.049 A 
ATOM     47  H   UNL A   1      39.739  31.555  33.327  1.00  0.00     0.167 HD
ATOM     48  C   UNL A   1      40.747  28.523  30.313  1.00  0.00     0.034 A 
ATOM     49  C   UNL A   1      39.960  32.826  35.813  1.00  0.00     0.034 A 
ATOM     50  C   UNL A   1      41.710  28.353  31.374  1.00  0.00     0.049 A 
ATOM     51  C   UNL A   1      41.022  31.754  35.785  1.00  0.00     0.074 A 
ATOM     52  C   UNL A   1      42.780  27.476  31.433  1.00  0.00     0.029 A 
ATOM     53  N   UNL A   1      41.716  29.063  32.567  1.00  0.00    -0.354 N 
ATOM     54  N   UNL A   1      41.302  30.894  34.833  1.00  0.00    -0.248 NA
ATOM     55  C   UNL A   1      41.882  31.641  36.970  1.00  0.00     0.031 C 
ATOM     56  C   UNL A   1      43.379  27.599  32.690  1.00  0.00     0.029 A 
ATOM     57  C   UNL A   1      42.746  28.617  33.383  1.00  0.00     0.049 A 
ATOM     58  H   UNL A   1      41.082  29.779  32.801  1.00  0.00     0.167 HD
ATOM     59  C   UNL A   1      42.395  30.162  35.293  1.00  0.00     0.074 A 
ATOM     60  C   UNL A   1      42.729  30.692  36.598  1.00  0.00     0.031 C 
ATOM     61  C   UNL A   1      43.066  29.149  34.687  1.00  0.00     0.034 A 
BRANCH  48  62
ATOM     62  C   UNL A   1      40.810  27.600  29.118  1.00  0.00     0.023 A 
ATOM     63  C   UNL A   1      41.746  27.791  28.086  1.00  0.00     0.031 A 
ATOM     64  C   UNL A   1      39.910  26.527  28.997  1.00  0.00     0.131 A 
ATOM     65  C   UNL A   1      41.710  26.973  26.948  1.00  0.00     0.055 A 
ATOM     66  C   UNL A   1      39.937  25.661  27.902  1.00  0.00     0.041 A 
ATOM     67  F   UNL A   1      38.977  26.307  29.937  1.00  0.00    -0.206 F 
ATOM     68  C   UNL A   1      40.832  25.892  26.859  1.00  0.00     0.022 A 
BRANCH  65  69
ATOM     69  S   UNL A   1      42.724  27.439  25.517  1.00  0.00     0.124 S 
ATOM     70  O   UNL A   1      42.042  28.644  25.052  1.00  0.00    -0.237 OA
ATOM     71  O   UNL A   1      44.040  27.639  26.114  1.00  0.00    -0.237 OA
ATOM     72  O   UNL A   1      42.611  26.285  24.626  1.00  0.00    -0.744 OA
ENDBRANCH  65  69
ENDBRANCH  48  62
BRANCH  49  73
ATOM     73  C   UNL A   1      39.787  33.693  37.016  1.00  0.00     0.023 A 
ATOM     74  C   UNL A   1      39.075  33.241  38.139  1.00  0.00     0.031 A 
ATOM     75  C   UNL A   1      40.288  35.007  37.042  1.00  0.00     0.131 A 
ATOM     76  C   UNL A   1      38.839  34.111  39.216  1.00  0.00     0.055 A 
ATOM     77  C   UNL A   1      40.105  35.847  38.141  1.00  0.00     0.041 A 
ATOM     78  F   UNL A   1      40.978  35.491  35.995  1.00  0.00    -0.206 F 
ATOM     79  C   UNL A   1      39.363  35.406  39.231  1.00  0.00     0.022 A 
BRANCH  76  80
ATOM     80  S   UNL A   1      37.749  33.558  40.556  1.00  0.00     0.124 S 
ATOM     81  O   UNL A   1      38.633  32.679  41.313  1.00  0.00    -0.237 OA
ATOM     82  O   UNL A   1      37.394  34.821  41.197  1.00  0.00    -0.237 OA
ATOM     83  O   UNL A   1      36.657  32.890  39.851  1.00  0.00    -0.744 OA
ENDBRANCH  76  80
ENDBRANCH  49  73
BRANCH  61  84
ATOM     84  C   UNL A   1      44.265  28.583  35.410  1.00  0.00     0.023 A 
ATOM     85  C   UNL A   1      44.160  27.480  36.276  1.00  0.00     0.031 A 
ATOM     86  C   UNL A   1      45.535  29.160  35.226  1.00  0.00     0.131 A 
ATOM     87  C   UNL A   1      45.295  27.023  36.964  1.00  0.00     0.055 A 
ATOM     88  C   UNL A   1      46.671  28.658  35.861  1.00  0.00     0.041 A 
ATOM     89  F   UNL A   1      45.693  30.218  34.414  1.00  0.00    -0.206 F 
ATOM     90  C   UNL A   1      46.553  27.591  36.746  1.00  0.00     0.022 A 
BRANCH  87  91
ATOM     91  S   UNL A   1      45.091  25.731  38.221  1.00  0.00     0.124 S 
ATOM     92  O   UNL A   1      44.526  24.636  37.441  1.00  0.00    -0.237 OA
ATOM     93  O   UNL A   1      46.459  25.537  38.694  1.00  0.00    -0.237 OA
ATOM     94  O   UNL A   1      44.182  26.337  39.192  1.00  0.00    -0.744 OA
ENDBRANCH  87  91
ENDBRANCH  61  84
ENDBRANCH  35  36
ENDBRANCH  27  30
ENDBRANCH  25  26
ENDBRANCH  24  25
ENDBRANCH   1  24
TORSDOF 18
ENDMDL
MODEL 3
REMARK VINA RESULT:     -11.2      4.679      9.686
REMARK SMILES COc1ccc(NCc2cc(C(=O)NCCCCNC(=O)c3ccc(-c4c5nc(c(-c6cc(S(=O)(=O)[O-])ccc6F)c6ccc([nH]6)c(-c6cc(S(=O)(=O)[O-])ccc6F)c6nc(c(-c7cc(S(=O)(=O)[O-])ccc7F)c7ccc4[nH]7)C=C6)C=C5)cc3)cs2)cc1Br
REMARK SMILES IDX 16 1 15 2 14 3 12 4 13 5 11 7 9 8 10 9 86 10 85 11 8 12 7 13
REMARK SMILES IDX 6 15 3 16 4 17 88 18 5 19 87 20 89 21 2 22 1 23 17 24 18 25
REMARK SMILES IDX 19 26 20 27 21 29 22 30 23 31 84 32 24 33 83 34 25 35 26 36
REMARK SMILES IDX 27 37 77 38 28 39 82 40 76 41 78 42 29 43 81 44 75 45 74 46
REMARK SMILES IDX 30 48 62 49 42 50 61 51 43 52 46 53 60 54 79 55 44 56 45 57
REMARK SMILES IDX 59 59 80 60 47 61 31 62 32 63 40 64 33 65 39 66 41 67 38 68
REMARK SMILES IDX 34 69 35 70 36 71 37 72 63 73 64 74 72 75 65 76 71 77 73 78
REMARK SMILES IDX 70 79 66 80 67 81 68 82 69 83 48 84 49 85 57 86 50 87 56 88
REMARK SMILES IDX 58 89 55 90 51 91 52 92 53 93 54 94
REMARK H PARENT 14 6 7 14 19 28 78 47 46 58
REMARK Flexibility Score: inf
ROOT
ATOM      1  C   UNL A   1      36.050  22.064  24.337  1.00  0.00     0.023 C 
ENDROOT
BRANCH   1   2
ATOM      2  C   UNL A   1      35.575  21.136  25.455  1.00  0.00     0.116 C 
BRANCH   2   3
ATOM      3  N   UNL A   1      34.761  20.058  24.931  1.00  0.00    -0.352 N 
ATOM      4  C   UNL A   1      33.457  20.007  24.508  1.00  0.00     0.252 C 
ATOM      5  O   UNL A   1      33.064  18.936  24.048  1.00  0.00    -0.269 OA
ATOM      6  H   UNL A   1      35.235  19.198  24.867  1.00  0.00     0.163 HD
BRANCH   4   7
ATOM      7  C   UNL A   1      32.569  21.176  24.563  1.00  0.00     0.050 A 
ATOM      8  C   UNL A   1      31.195  22.932  25.343  1.00  0.00     0.024 A 
ATOM      9  C   UNL A   1      31.884  21.780  25.664  1.00  0.00     0.031 A 
ATOM     10  S   UNL A   1      31.262  23.238  23.666  1.00  0.00    -0.146 S 
ATOM     11  C   UNL A   1      32.244  21.864  23.402  1.00  0.00     0.079 A 
BRANCH   8  12
ATOM     12  C   UNL A   1      30.444  23.844  26.273  1.00  0.00     0.159 C 
BRANCH  12  13
ATOM     13  N   UNL A   1      31.285  24.875  26.867  1.00  0.00    -0.380 N 
ATOM     14  H   UNL A   1      31.323  24.890  27.851  1.00  0.00     0.160 HD
BRANCH  13  15
ATOM     15  C   UNL A   1      32.035  25.831  26.213  1.00  0.00     0.036 A 
ATOM     16  C   UNL A   1      33.373  27.810  24.680  1.00  0.00     0.133 A 
ATOM     17  C   UNL A   1      34.028  26.639  25.063  1.00  0.00     0.050 A 
ATOM     18  C   UNL A   1      32.049  28.002  25.068  1.00  0.00     0.062 A 
ATOM     19  C   UNL A   1      33.368  25.665  25.828  1.00  0.00     0.029 A 
ATOM     20  C   UNL A   1      31.401  27.025  25.836  1.00  0.00     0.045 A 
ATOM     21  Br  UNL A   1      31.017  29.497  24.520  1.00  0.00    -0.047 Br
BRANCH  16  22
ATOM     22  O   UNL A   1      34.040  28.627  23.806  1.00  0.00    -0.496 OA
ATOM     23  C   UNL A   1      33.945  28.184  22.450  1.00  0.00     0.278 C 
ENDBRANCH  16  22
ENDBRANCH  13  15
ENDBRANCH  12  13
ENDBRANCH   8  12
ENDBRANCH   4   7
ENDBRANCH   2   3
ENDBRANCH   1   2
BRANCH   1  24
ATOM     24  C   UNL A   1      37.319  22.849  24.687  1.00  0.00     0.023 C 
BRANCH  24  25
ATOM     25  C   UNL A   1      37.962  22.471  26.019  1.00  0.00     0.116 C 
BRANCH  25  26
ATOM     26  N   UNL A   1      39.263  21.834  25.877  1.00  0.00    -0.352 N 
ATOM     27  C   UNL A   1      40.499  22.372  26.154  1.00  0.00     0.251 C 
ATOM     28  H   UNL A   1      39.257  20.908  25.543  1.00  0.00     0.163 HD
ATOM     29  O   UNL A   1      41.520  21.747  25.889  1.00  0.00    -0.269 OA
BRANCH  27  30
ATOM     30  C   UNL A   1      40.563  23.730  26.734  1.00  0.00     0.039 A 
ATOM     31  C   UNL A   1      41.011  23.887  28.046  1.00  0.00     0.014 A 
ATOM     32  C   UNL A   1      40.270  24.845  25.945  1.00  0.00     0.014 A 
ATOM     33  C   UNL A   1      41.237  25.173  28.542  1.00  0.00     0.010 A 
ATOM     34  C   UNL A   1      40.572  26.119  26.415  1.00  0.00     0.010 A 
ATOM     35  C   UNL A   1      41.066  26.298  27.716  1.00  0.00    -0.014 A 
BRANCH  35  36
ATOM     36  C   UNL A   1      41.409  27.665  28.194  1.00  0.00     0.031 A 
ATOM     37  C   UNL A   1      42.846  28.110  28.241  1.00  0.00     0.074 A 
ATOM     38  C   UNL A   1      40.433  28.482  28.639  1.00  0.00     0.049 A 
ATOM     39  N   UNL A   1      43.349  29.236  28.679  1.00  0.00    -0.248 NA
ATOM     40  C   UNL A   1      43.851  27.148  27.763  1.00  0.00     0.031 C 
ATOM     41  C   UNL A   1      39.007  28.147  28.687  1.00  0.00     0.029 A 
ATOM     42  N   UNL A   1      40.487  29.759  29.142  1.00  0.00    -0.354 N 
ATOM     43  C   UNL A   1      44.728  29.115  28.536  1.00  0.00     0.074 A 
ATOM     44  C   UNL A   1      44.981  27.780  28.039  1.00  0.00     0.031 C 
ATOM     45  C   UNL A   1      38.323  29.202  29.157  1.00  0.00     0.029 A 
ATOM     46  C   UNL A   1      39.259  30.269  29.497  1.00  0.00     0.049 A 
ATOM     47  H   UNL A   1      41.327  30.262  29.241  1.00  0.00     0.167 HD
ATOM     48  C   UNL A   1      45.689  30.042  28.771  1.00  0.00     0.034 A 
ATOM     49  C   UNL A   1      38.924  31.456  30.043  1.00  0.00     0.034 A 
ATOM     50  C   UNL A   1      45.417  31.371  29.261  1.00  0.00     0.049 A 
ATOM     51  C   UNL A   1      40.016  32.457  30.332  1.00  0.00     0.074 A 
ATOM     52  C   UNL A   1      46.309  32.406  29.482  1.00  0.00     0.029 A 
ATOM     53  N   UNL A   1      44.162  31.848  29.616  1.00  0.00    -0.354 N 
ATOM     54  N   UNL A   1      41.309  32.348  30.136  1.00  0.00    -0.248 NA
ATOM     55  C   UNL A   1      39.601  33.743  30.907  1.00  0.00     0.031 C 
ATOM     56  C   UNL A   1      45.609  33.476  30.047  1.00  0.00     0.029 A 
ATOM     57  C   UNL A   1      44.264  33.148  30.092  1.00  0.00     0.049 A 
ATOM     58  H   UNL A   1      43.323  31.340  29.543  1.00  0.00     0.167 HD
ATOM     59  C   UNL A   1      41.857  33.567  30.529  1.00  0.00     0.074 A 
ATOM     60  C   UNL A   1      40.752  34.397  30.960  1.00  0.00     0.031 C 
ATOM     61  C   UNL A   1      43.155  33.965  30.526  1.00  0.00     0.034 A 
BRANCH  48  62
ATOM     62  C   UNL A   1      47.124  29.636  28.525  1.00  0.00     0.023 A 
ATOM     63  C   UNL A   1      47.907  29.044  29.531  1.00  0.00     0.031 A 
ATOM     64  C   UNL A   1      47.724  29.860  27.274  1.00  0.00     0.131 A 
ATOM     65  C   UNL A   1      49.262  28.770  29.295  1.00  0.00     0.055 A 
ATOM     66  C   UNL A   1      49.049  29.503  27.017  1.00  0.00     0.041 A 
ATOM     67  F   UNL A   1      47.035  30.444  26.279  1.00  0.00    -0.206 F 
ATOM     68  C   UNL A   1      49.832  28.969  28.036  1.00  0.00     0.022 A 
BRANCH  65  69
ATOM     69  S   UNL A   1      50.305  28.295  30.701  1.00  0.00     0.124 S 
ATOM     70  O   UNL A   1      49.443  28.624  31.833  1.00  0.00    -0.237 OA
ATOM     71  O   UNL A   1      50.531  26.874  30.461  1.00  0.00    -0.237 OA
ATOM     72  O   UNL A   1      51.484  29.148  30.556  1.00  0.00    -0.744 OA
ENDBRANCH  65  69
ENDBRANCH  48  62
BRANCH  49  73
ATOM     73  C   UNL A   1      37.501  31.767  30.368  1.00  0.00     0.023 A 
ATOM     74  C   UNL A   1      36.597  32.162  29.368  1.00  0.00     0.031 A 
ATOM     75  C   UNL A   1      37.032  31.722  31.694  1.00  0.00     0.131 A 
ATOM     76  C   UNL A   1      35.292  32.548  29.713  1.00  0.00     0.055 A 
ATOM     77  C   UNL A   1      35.716  32.047  32.025  1.00  0.00     0.041 A 
ATOM     78  F   UNL A   1      37.851  31.350  32.691  1.00  0.00    -0.206 F 
ATOM     79  C   UNL A   1      34.841  32.478  31.033  1.00  0.00     0.022 A 
BRANCH  76  80
ATOM     80  S   UNL A   1      34.222  33.242  28.424  1.00  0.00     0.124 S 
ATOM     81  O   UNL A   1      33.665  32.036  27.821  1.00  0.00    -0.237 OA
ATOM     82  O   UNL A   1      33.296  34.056  29.206  1.00  0.00    -0.237 OA
ATOM     83  O   UNL A   1      35.149  33.992  27.580  1.00  0.00    -0.744 OA
ENDBRANCH  76  80
ENDBRANCH  49  73
BRANCH  61  84
ATOM     84  C   UNL A   1      43.443  35.384  30.955  1.00  0.00     0.023 A 
ATOM     85  C   UNL A   1      43.514  36.442  30.032  1.00  0.00     0.031 A 
ATOM     86  C   UNL A   1      43.648  35.680  32.316  1.00  0.00     0.131 A 
ATOM     87  C   UNL A   1      43.836  37.735  30.474  1.00  0.00     0.055 A 
ATOM     88  C   UNL A   1      43.901  36.980  32.757  1.00  0.00     0.041 A 
ATOM     89  F   UNL A   1      43.596  34.710  33.242  1.00  0.00    -0.206 F 
ATOM     90  C   UNL A   1      44.008  38.014  31.833  1.00  0.00     0.022 A 
BRANCH  87  91
ATOM     91  S   UNL A   1      44.117  39.034  29.240  1.00  0.00     0.124 S 
ATOM     92  O   UNL A   1      42.856  39.767  29.280  1.00  0.00    -0.237 OA
ATOM     93  O   UNL A   1      45.278  39.734  29.783  1.00  0.00    -0.237 OA
ATOM     94  O   UNL A   1      44.365  38.290  28.007  1.00  0.00    -0.744 OA
ENDBRANCH  87  91
ENDBRANCH  61  84
ENDBRANCH  35  36
ENDBRANCH  27  30
ENDBRANCH  25  26
ENDBRANCH  24  25
ENDBRANCH   1  24
TORSDOF 18
ENDMDL
