MODEL 1
REMARK VINA RESULT:     -11.4      0.000      0.000
REMARK SMILES CC(C)[C@@H]1CCCN1C(=O)N1CCO[C@H](CC(=O)NCCCCNC(=O)c2ccc(-c3c4nc(c(-c5cc(S(=O)(=O)[O-])ccc5F)c5ccc([nH]5)c(-c5cc(S(=O)(=O)[O-])ccc5F)c5nc(c(-c6cc(S(=O)(=O)[O-])ccc6F)c6ccc3[nH]6)C=C5)C=C4)cc2)C1
REMARK SMILES IDX 21 1 20 2 19 3 17 4 18 5 16 7 15 8 11 9 12 10 90 11 13 12
REMARK SMILES IDX 14 13 9 14 10 15 8 16 4 17 5 18 6 19 7 20 2 21 1 22 3 23
REMARK SMILES IDX 22 24 23 25 24 26 25 27 26 29 27 30 28 31 89 32 29 33 88 34
REMARK SMILES IDX 30 35 31 36 32 37 82 38 33 39 87 40 81 41 83 42 34 43 86 44
REMARK SMILES IDX 80 45 79 46 35 48 67 49 47 50 66 51 48 52 51 53 65 54 84 55
REMARK SMILES IDX 49 56 50 57 64 59 85 60 52 61 36 62 37 63 45 64 38 65 44 66
REMARK SMILES IDX 46 67 43 68 39 69 40 70 41 71 42 72 68 73 69 74 77 75 70 76
REMARK SMILES IDX 76 77 78 78 75 79 71 80 72 81 73 82 74 83 53 84 54 85 62 86
REMARK SMILES IDX 55 87 61 88 63 89 60 90 56 91 57 92 58 93 59 94
REMARK H PARENT 19 6 24 28 83 47 51 58
REMARK Flexibility Score: inf
ROOT
ATOM      1  C   UNL A   1      34.986  30.488  27.781  1.00  0.00     0.023 C 
ENDROOT
BRANCH   1   2
ATOM      2  C   UNL A   1      34.434  29.127  27.357  1.00  0.00     0.116 C 
BRANCH   2   3
ATOM      3  N   UNL A   1      33.078  28.910  27.829  1.00  0.00    -0.356 N 
ATOM      4  C   UNL A   1      32.092  28.087  27.374  1.00  0.00     0.222 C 
ATOM      5  O   UNL A   1      31.035  28.020  28.005  1.00  0.00    -0.275 OA
ATOM      6  H   UNL A   1      32.828  29.451  28.612  1.00  0.00     0.163 HD
BRANCH   4   7
ATOM      7  C   UNL A   1      32.322  27.232  26.158  1.00  0.00     0.133 C 
BRANCH   7   8
ATOM      8  C   UNL A   1      31.599  27.746  24.914  1.00  0.00     0.147 C 
ATOM      9  N   UNL A   1      33.072  26.604  23.271  1.00  0.00    -0.320 N 
ATOM     10  C   UNL A   1      33.495  27.912  22.767  1.00  0.00     0.150 C 
ATOM     11  C   UNL A   1      31.707  26.683  23.801  1.00  0.00     0.154 C 
ATOM     12  C   UNL A   1      33.373  28.986  23.847  1.00  0.00     0.182 C 
ATOM     13  O   UNL A   1      32.071  29.023  24.440  1.00  0.00    -0.374 OA
BRANCH   9  14
ATOM     14  C   UNL A   1      33.334  25.551  22.425  1.00  0.00     0.320 C 
ATOM     15  O   UNL A   1      33.490  25.762  21.220  1.00  0.00    -0.248 OA
BRANCH  14  16
ATOM     16  N   UNL A   1      33.387  24.279  22.958  1.00  0.00    -0.321 N 
ATOM     17  C   UNL A   1      33.350  23.747  24.342  1.00  0.00     0.089 C 
ATOM     18  C   UNL A   1      33.387  22.212  24.116  1.00  0.00     0.027 C 
ATOM     19  C   UNL A   1      32.683  22.012  22.799  1.00  0.00     0.024 C 
ATOM     20  C   UNL A   1      33.171  23.202  21.997  1.00  0.00     0.122 C 
BRANCH  17  21
ATOM     21  C   UNL A   1      34.459  24.026  25.400  1.00  0.00     0.005 C 
ATOM     22  C   UNL A   1      34.378  23.283  26.714  1.00  0.00     0.009 C 
ATOM     23  C   UNL A   1      35.841  23.865  24.742  1.00  0.00     0.009 C 
ENDBRANCH  17  21
ENDBRANCH  14  16
ENDBRANCH   9  14
ENDBRANCH   7   8
ENDBRANCH   4   7
ENDBRANCH   2   3
ENDBRANCH   1   2
BRANCH   1  24
ATOM     24  C   UNL A   1      33.885  31.509  28.054  1.00  0.00     0.023 C 
BRANCH  24  25
ATOM     25  C   UNL A   1      34.027  32.822  27.294  1.00  0.00     0.116 C 
BRANCH  25  26
ATOM     26  N   UNL A   1      33.183  33.889  27.811  1.00  0.00    -0.352 N 
ATOM     27  C   UNL A   1      33.338  34.615  28.976  1.00  0.00     0.251 C 
ATOM     28  H   UNL A   1      32.401  34.123  27.260  1.00  0.00     0.163 HD
ATOM     29  O   UNL A   1      32.509  35.449  29.305  1.00  0.00    -0.269 OA
BRANCH  27  30
ATOM     30  C   UNL A   1      34.497  34.313  29.845  1.00  0.00     0.039 A 
ATOM     31  C   UNL A   1      34.279  33.625  31.040  1.00  0.00     0.014 A 
ATOM     32  C   UNL A   1      35.796  34.592  29.412  1.00  0.00     0.014 A 
ATOM     33  C   UNL A   1      35.371  33.121  31.752  1.00  0.00     0.010 A 
ATOM     34  C   UNL A   1      36.875  34.019  30.080  1.00  0.00     0.010 A 
ATOM     35  C   UNL A   1      36.673  33.263  31.246  1.00  0.00    -0.014 A 
BRANCH  35  36
ATOM     36  C   UNL A   1      37.837  32.613  31.910  1.00  0.00     0.031 A 
ATOM     37  C   UNL A   1      38.534  31.462  31.238  1.00  0.00     0.074 A 
ATOM     38  C   UNL A   1      38.213  33.001  33.145  1.00  0.00     0.049 A 
ATOM     39  N   UNL A   1      39.488  30.691  31.692  1.00  0.00    -0.248 NA
ATOM     40  C   UNL A   1      38.065  31.109  29.889  1.00  0.00     0.031 C 
ATOM     41  C   UNL A   1      37.586  34.074  33.925  1.00  0.00     0.029 A 
ATOM     42  N   UNL A   1      39.205  32.533  33.973  1.00  0.00    -0.354 N 
ATOM     43  C   UNL A   1      39.718  29.748  30.695  1.00  0.00     0.074 A 
ATOM     44  C   UNL A   1      38.758  30.009  29.644  1.00  0.00     0.031 C 
ATOM     45  C   UNL A   1      38.223  34.194  35.101  1.00  0.00     0.029 A 
ATOM     46  C   UNL A   1      39.272  33.183  35.184  1.00  0.00     0.049 A 
ATOM     47  H   UNL A   1      39.813  31.801  33.721  1.00  0.00     0.167 HD
ATOM     48  C   UNL A   1      40.660  28.773  30.649  1.00  0.00     0.034 A 
ATOM     49  C   UNL A   1      40.078  32.981  36.247  1.00  0.00     0.034 A 
ATOM     50  C   UNL A   1      41.626  28.542  31.695  1.00  0.00     0.049 A 
ATOM     51  C   UNL A   1      41.118  31.890  36.174  1.00  0.00     0.074 A 
ATOM     52  C   UNL A   1      42.659  27.621  31.727  1.00  0.00     0.029 A 
ATOM     53  N   UNL A   1      41.678  29.238  32.897  1.00  0.00    -0.354 N 
ATOM     54  N   UNL A   1      41.353  31.037  35.204  1.00  0.00    -0.248 NA
ATOM     55  C   UNL A   1      42.006  31.742  37.335  1.00  0.00     0.031 C 
ATOM     56  C   UNL A   1      43.297  27.719  32.968  1.00  0.00     0.029 A 
ATOM     57  C   UNL A   1      42.710  28.750  33.684  1.00  0.00     0.049 A 
ATOM     58  H   UNL A   1      41.073  29.971  33.151  1.00  0.00     0.167 HD
ATOM     59  C   UNL A   1      42.440  30.276  35.625  1.00  0.00     0.074 A 
ATOM     60  C   UNL A   1      42.817  30.775  36.931  1.00  0.00     0.031 C 
ATOM     61  C   UNL A   1      43.073  29.259  34.987  1.00  0.00     0.034 A 
BRANCH  48  62
ATOM     62  C   UNL A   1      40.665  27.874  29.436  1.00  0.00     0.023 A 
ATOM     63  C   UNL A   1      41.590  28.052  28.392  1.00  0.00     0.031 A 
ATOM     64  C   UNL A   1      39.708  26.853  29.299  1.00  0.00     0.131 A 
ATOM     65  C   UNL A   1      41.482  27.286  27.221  1.00  0.00     0.055 A 
ATOM     66  C   UNL A   1      39.664  26.033  28.168  1.00  0.00     0.041 A 
ATOM     67  F   UNL A   1      38.788  26.647  30.253  1.00  0.00    -0.206 F 
ATOM     68  C   UNL A   1      40.542  26.260  27.114  1.00  0.00     0.022 A 
BRANCH  65  69
ATOM     69  S   UNL A   1      42.483  27.760  25.785  1.00  0.00     0.124 S 
ATOM     70  O   UNL A   1      41.864  29.027  25.401  1.00  0.00    -0.237 OA
ATOM     71  O   UNL A   1      43.824  27.849  26.350  1.00  0.00    -0.237 OA
ATOM     72  O   UNL A   1      42.273  26.661  24.844  1.00  0.00    -0.744 OA
ENDBRANCH  65  69
ENDBRANCH  48  62
BRANCH  49  73
ATOM     73  C   UNL A   1      39.940  33.817  37.474  1.00  0.00     0.023 A 
ATOM     74  C   UNL A   1      39.144  33.395  38.551  1.00  0.00     0.031 A 
ATOM     75  C   UNL A   1      40.566  35.073  37.571  1.00  0.00     0.131 A 
ATOM     76  C   UNL A   1      38.955  34.240  39.657  1.00  0.00     0.055 A 
ATOM     77  C   UNL A   1      40.416  35.888  38.694  1.00  0.00     0.041 A 
ATOM     78  F   UNL A   1      41.344  35.522  36.573  1.00  0.00    -0.206 F 
ATOM     79  C   UNL A   1      39.595  35.479  39.741  1.00  0.00     0.022 A 
BRANCH  76  80
ATOM     80  S   UNL A   1      37.791  33.730  40.951  1.00  0.00     0.124 S 
ATOM     81  O   UNL A   1      38.617  32.842  41.761  1.00  0.00    -0.237 OA
ATOM     82  O   UNL A   1      37.436  35.008  41.558  1.00  0.00    -0.237 OA
ATOM     83  O   UNL A   1      36.718  33.077  40.205  1.00  0.00    -0.744 OA
ENDBRANCH  76  80
ENDBRANCH  49  73
BRANCH  61  84
ATOM     84  C   UNL A   1      44.276  28.661  35.671  1.00  0.00     0.023 A 
ATOM     85  C   UNL A   1      44.156  27.626  36.614  1.00  0.00     0.031 A 
ATOM     86  C   UNL A   1      45.565  29.135  35.367  1.00  0.00     0.131 A 
ATOM     87  C   UNL A   1      45.301  27.131  37.256  1.00  0.00     0.055 A 
ATOM     88  C   UNL A   1      46.705  28.602  35.970  1.00  0.00     0.041 A 
ATOM     89  F   UNL A   1      45.737  30.123  34.475  1.00  0.00    -0.206 F 
ATOM     90  C   UNL A   1      46.576  27.601  36.929  1.00  0.00     0.022 A 
BRANCH  87  91
ATOM     91  S   UNL A   1      45.098  25.914  38.586  1.00  0.00     0.124 S 
ATOM     92  O   UNL A   1      44.172  26.596  39.484  1.00  0.00    -0.237 OA
ATOM     93  O   UNL A   1      44.560  24.760  37.873  1.00  0.00    -0.237 OA
ATOM     94  O   UNL A   1      46.453  25.742  39.105  1.00  0.00    -0.744 OA
ENDBRANCH  87  91
ENDBRANCH  61  84
ENDBRANCH  35  36
ENDBRANCH  27  30
ENDBRANCH  25  26
ENDBRANCH  24  25
ENDBRANCH   1  24
TORSDOF 18
ENDMDL
MODEL 2
REMARK VINA RESULT:     -11.2      6.066     11.762
REMARK SMILES CC(C)[C@@H]1CCCN1C(=O)N1CCO[C@H](CC(=O)NCCCCNC(=O)c2ccc(-c3c4nc(c(-c5cc(S(=O)(=O)[O-])ccc5F)c5ccc([nH]5)c(-c5cc(S(=O)(=O)[O-])ccc5F)c5nc(c(-c6cc(S(=O)(=O)[O-])ccc6F)c6ccc3[nH]6)C=C5)C=C4)cc2)C1
REMARK SMILES IDX 21 1 20 2 19 3 17 4 18 5 16 7 15 8 11 9 12 10 90 11 13 12
REMARK SMILES IDX 14 13 9 14 10 15 8 16 4 17 5 18 6 19 7 20 2 21 1 22 3 23
REMARK SMILES IDX 22 24 23 25 24 26 25 27 26 29 27 30 28 31 89 32 29 33 88 34
REMARK SMILES IDX 30 35 31 36 32 37 82 38 33 39 87 40 81 41 83 42 34 43 86 44
REMARK SMILES IDX 80 45 79 46 35 48 67 49 47 50 66 51 48 52 51 53 65 54 84 55
REMARK SMILES IDX 49 56 50 57 64 59 85 60 52 61 36 62 37 63 45 64 38 65 44 66
REMARK SMILES IDX 46 67 43 68 39 69 40 70 41 71 42 72 68 73 69 74 77 75 70 76
REMARK SMILES IDX 76 77 78 78 75 79 71 80 72 81 73 82 74 83 53 84 54 85 62 86
REMARK SMILES IDX 55 87 61 88 63 89 60 90 56 91 57 92 58 93 59 94
REMARK H PARENT 19 6 24 28 83 47 51 58
REMARK Flexibility Score: inf
ROOT
ATOM      1  C   UNL A   1      39.254  23.166  26.577  1.00  0.00     0.023 C 
ENDROOT
BRANCH   1   2
ATOM      2  C   UNL A   1      37.974  23.815  26.048  1.00  0.00     0.116 C 
BRANCH   2   3
ATOM      3  N   UNL A   1      37.670  23.407  24.687  1.00  0.00    -0.356 N 
ATOM      4  C   UNL A   1      36.485  23.331  24.019  1.00  0.00     0.222 C 
ATOM      5  O   UNL A   1      36.495  23.029  22.824  1.00  0.00    -0.275 OA
ATOM      6  H   UNL A   1      38.455  23.139  24.158  1.00  0.00     0.163 HD
BRANCH   4   7
ATOM      7  C   UNL A   1      35.198  23.671  24.719  1.00  0.00     0.133 C 
BRANCH   7   8
ATOM      8  C   UNL A   1      34.234  22.490  24.816  1.00  0.00     0.147 C 
ATOM      9  N   UNL A   1      32.618  23.602  26.342  1.00  0.00    -0.320 N 
ATOM     10  C   UNL A   1      32.920  22.599  27.364  1.00  0.00     0.150 C 
ATOM     11  C   UNL A   1      32.801  23.031  25.002  1.00  0.00     0.154 C 
ATOM     12  C   UNL A   1      34.326  22.030  27.183  1.00  0.00     0.182 C 
ATOM     13  O   UNL A   1      34.556  21.545  25.856  1.00  0.00    -0.374 OA
BRANCH   9  14
ATOM     14  C   UNL A   1      31.451  24.300  26.548  1.00  0.00     0.320 C 
ATOM     15  O   UNL A   1      30.563  23.808  27.249  1.00  0.00    -0.248 OA
BRANCH  14  16
ATOM     16  N   UNL A   1      31.303  25.528  25.935  1.00  0.00    -0.321 N 
ATOM     17  C   UNL A   1      32.225  26.661  25.678  1.00  0.00     0.089 C 
ATOM     18  C   UNL A   1      31.334  27.648  24.878  1.00  0.00     0.027 C 
ATOM     19  C   UNL A   1      30.382  26.760  24.121  1.00  0.00     0.024 C 
ATOM     20  C   UNL A   1      30.091  25.672  25.135  1.00  0.00     0.122 C 
BRANCH  17  21
ATOM     21  C   UNL A   1      32.865  27.520  26.809  1.00  0.00     0.005 C 
ATOM     22  C   UNL A   1      33.950  28.498  26.417  1.00  0.00     0.009 C 
ATOM     23  C   UNL A   1      31.751  28.204  27.621  1.00  0.00     0.009 C 
ENDBRANCH  17  21
ENDBRANCH  14  16
ENDBRANCH   9  14
ENDBRANCH   7   8
ENDBRANCH   4   7
ENDBRANCH   2   3
ENDBRANCH   1   2
BRANCH   1  24
ATOM     24  C   UNL A   1      39.373  21.697  26.183  1.00  0.00     0.023 C 
BRANCH  24  25
ATOM     25  C   UNL A   1      40.342  20.883  27.033  1.00  0.00     0.116 C 
BRANCH  25  26
ATOM     26  N   UNL A   1      41.105  19.905  26.271  1.00  0.00    -0.352 N 
ATOM     27  C   UNL A   1      42.381  20.027  25.756  1.00  0.00     0.251 C 
ATOM     28  H   UNL A   1      40.654  19.047  26.101  1.00  0.00     0.163 HD
ATOM     29  O   UNL A   1      42.871  19.132  25.087  1.00  0.00    -0.269 OA
BRANCH  27  30
ATOM     30  C   UNL A   1      43.114  21.293  25.984  1.00  0.00     0.039 A 
ATOM     31  C   UNL A   1      43.077  22.277  24.993  1.00  0.00     0.014 A 
ATOM     32  C   UNL A   1      43.716  21.549  27.218  1.00  0.00     0.014 A 
ATOM     33  C   UNL A   1      43.552  23.559  25.281  1.00  0.00     0.010 A 
ATOM     34  C   UNL A   1      44.113  22.848  27.527  1.00  0.00     0.010 A 
ATOM     35  C   UNL A   1      44.019  23.870  26.568  1.00  0.00    -0.014 A 
BRANCH  35  36
ATOM     36  C   UNL A   1      44.396  25.262  26.941  1.00  0.00     0.031 A 
ATOM     37  C   UNL A   1      43.357  26.193  27.501  1.00  0.00     0.074 A 
ATOM     38  C   UNL A   1      45.645  25.710  26.699  1.00  0.00     0.049 A 
ATOM     39  N   UNL A   1      43.451  27.468  27.782  1.00  0.00    -0.248 NA
ATOM     40  C   UNL A   1      42.024  25.620  27.740  1.00  0.00     0.031 C 
ATOM     41  C   UNL A   1      46.731  24.919  26.112  1.00  0.00     0.029 A 
ATOM     42  N   UNL A   1      46.213  26.944  26.903  1.00  0.00    -0.354 N 
ATOM     43  C   UNL A   1      42.184  27.854  28.209  1.00  0.00     0.074 A 
ATOM     44  C   UNL A   1      41.330  26.692  28.086  1.00  0.00     0.031 C 
ATOM     45  C   UNL A   1      47.835  25.679  26.028  1.00  0.00     0.029 A 
ATOM     46  C   UNL A   1      47.529  27.023  26.508  1.00  0.00     0.049 A 
ATOM     47  H   UNL A   1      45.723  27.702  27.296  1.00  0.00     0.167 HD
ATOM     48  C   UNL A   1      41.779  29.058  28.684  1.00  0.00     0.034 A 
ATOM     49  C   UNL A   1      48.389  28.062  26.520  1.00  0.00     0.034 A 
ATOM     50  C   UNL A   1      42.650  30.199  28.823  1.00  0.00     0.049 A 
ATOM     51  C   UNL A   1      47.917  29.392  27.053  1.00  0.00     0.074 A 
ATOM     52  C   UNL A   1      42.359  31.447  29.346  1.00  0.00     0.029 A 
ATOM     53  N   UNL A   1      43.984  30.233  28.436  1.00  0.00    -0.354 N 
ATOM     54  N   UNL A   1      46.728  29.728  27.497  1.00  0.00    -0.248 NA
ATOM     55  C   UNL A   1      48.904  30.479  27.093  1.00  0.00     0.031 C 
ATOM     56  C   UNL A   1      43.496  32.252  29.221  1.00  0.00     0.029 A 
ATOM     57  C   UNL A   1      44.521  31.486  28.687  1.00  0.00     0.049 A 
ATOM     58  H   UNL A   1      44.476  29.477  28.043  1.00  0.00     0.167 HD
ATOM     59  C   UNL A   1      46.837  31.056  27.903  1.00  0.00     0.074 A 
ATOM     60  C   UNL A   1      48.207  31.454  27.658  1.00  0.00     0.031 C 
ATOM     61  C   UNL A   1      45.891  31.869  28.436  1.00  0.00     0.034 A 
BRANCH  48  62
ATOM     62  C   UNL A   1      40.323  29.197  29.062  1.00  0.00     0.023 A 
ATOM     63  C   UNL A   1      39.907  29.194  30.405  1.00  0.00     0.031 A 
ATOM     64  C   UNL A   1      39.334  29.292  28.068  1.00  0.00     0.131 A 
ATOM     65  C   UNL A   1      38.539  29.191  30.715  1.00  0.00     0.055 A 
ATOM     66  C   UNL A   1      37.976  29.380  28.387  1.00  0.00     0.041 A 
ATOM     67  F   UNL A   1      39.666  29.281  26.768  1.00  0.00    -0.206 F 
ATOM     68  C   UNL A   1      37.571  29.311  29.716  1.00  0.00     0.022 A 
BRANCH  65  69
ATOM     69  S   UNL A   1      38.044  28.866  32.429  1.00  0.00     0.124 S 
ATOM     70  O   UNL A   1      38.217  27.418  32.516  1.00  0.00    -0.237 OA
ATOM     71  O   UNL A   1      38.995  29.669  33.190  1.00  0.00    -0.237 OA
ATOM     72  O   UNL A   1      36.658  29.326  32.478  1.00  0.00    -0.744 OA
ENDBRANCH  65  69
ENDBRANCH  48  62
BRANCH  49  73
ATOM     73  C   UNL A   1      49.782  27.900  26.011  1.00  0.00     0.023 A 
ATOM     74  C   UNL A   1      50.055  27.910  24.634  1.00  0.00     0.031 A 
ATOM     75  C   UNL A   1      50.857  27.686  26.893  1.00  0.00     0.131 A 
ATOM     76  C   UNL A   1      51.359  27.664  24.175  1.00  0.00     0.055 A 
ATOM     77  C   UNL A   1      52.161  27.492  26.435  1.00  0.00     0.041 A 
ATOM     78  F   UNL A   1      50.654  27.674  28.220  1.00  0.00    -0.206 F 
ATOM     79  C   UNL A   1      52.416  27.466  25.067  1.00  0.00     0.022 A 
BRANCH  76  80
ATOM     80  S   UNL A   1      51.640  27.522  22.389  1.00  0.00     0.124 S 
ATOM     81  O   UNL A   1      52.106  28.863  22.054  1.00  0.00    -0.237 OA
ATOM     82  O   UNL A   1      52.637  26.461  22.323  1.00  0.00    -0.237 OA
ATOM     83  O   UNL A   1      50.322  27.171  21.864  1.00  0.00    -0.744 OA
ENDBRANCH  76  80
ENDBRANCH  49  73
BRANCH  61  84
ATOM     84  C   UNL A   1      46.325  33.254  28.844  1.00  0.00     0.023 A 
ATOM     85  C   UNL A   1      46.497  34.285  27.905  1.00  0.00     0.031 A 
ATOM     86  C   UNL A   1      46.568  33.544  30.199  1.00  0.00     0.131 A 
ATOM     87  C   UNL A   1      46.945  35.546  28.327  1.00  0.00     0.055 A 
ATOM     88  C   UNL A   1      46.961  34.815  30.620  1.00  0.00     0.041 A 
ATOM     89  F   UNL A   1      46.420  32.595  31.137  1.00  0.00    -0.206 F 
ATOM     90  C   UNL A   1      47.162  35.823  29.680  1.00  0.00     0.022 A 
BRANCH  87  91
ATOM     91  S   UNL A   1      47.315  36.805  27.075  1.00  0.00     0.124 S 
ATOM     92  O   UNL A   1      46.184  37.718  27.219  1.00  0.00    -0.237 OA
ATOM     93  O   UNL A   1      48.607  37.317  27.519  1.00  0.00    -0.237 OA
ATOM     94  O   UNL A   1      47.345  36.050  25.825  1.00  0.00    -0.744 OA
ENDBRANCH  87  91
ENDBRANCH  61  84
ENDBRANCH  35  36
ENDBRANCH  27  30
ENDBRANCH  25  26
ENDBRANCH  24  25
ENDBRANCH   1  24
TORSDOF 18
ENDMDL
MODEL 3
REMARK VINA RESULT:     -11.1      2.621      8.102
REMARK SMILES CC(C)[C@@H]1CCCN1C(=O)N1CCO[C@H](CC(=O)NCCCCNC(=O)c2ccc(-c3c4nc(c(-c5cc(S(=O)(=O)[O-])ccc5F)c5ccc([nH]5)c(-c5cc(S(=O)(=O)[O-])ccc5F)c5nc(c(-c6cc(S(=O)(=O)[O-])ccc6F)c6ccc3[nH]6)C=C5)C=C4)cc2)C1
REMARK SMILES IDX 21 1 20 2 19 3 17 4 18 5 16 7 15 8 11 9 12 10 90 11 13 12
REMARK SMILES IDX 14 13 9 14 10 15 8 16 4 17 5 18 6 19 7 20 2 21 1 22 3 23
REMARK SMILES IDX 22 24 23 25 24 26 25 27 26 29 27 30 28 31 89 32 29 33 88 34
REMARK SMILES IDX 30 35 31 36 32 37 82 38 33 39 87 40 81 41 83 42 34 43 86 44
REMARK SMILES IDX 80 45 79 46 35 48 67 49 47 50 66 51 48 52 51 53 65 54 84 55
REMARK SMILES IDX 49 56 50 57 64 59 85 60 52 61 36 62 37 63 45 64 38 65 44 66
REMARK SMILES IDX 46 67 43 68 39 69 40 70 41 71 42 72 68 73 69 74 77 75 70 76
REMARK SMILES IDX 76 77 78 78 75 79 71 80 72 81 73 82 74 83 53 84 54 85 62 86
REMARK SMILES IDX 55 87 61 88 63 89 60 90 56 91 57 92 58 93 59 94
REMARK H PARENT 19 6 24 28 83 47 51 58
REMARK Flexibility Score: inf
ROOT
ATOM      1  C   UNL A   1      31.176  29.669  24.684  1.00  0.00     0.023 C 
ENDROOT
BRANCH   1   2
ATOM      2  C   UNL A   1      31.092  28.620  23.575  1.00  0.00     0.116 C 
BRANCH   2   3
ATOM      3  N   UNL A   1      29.829  27.903  23.588  1.00  0.00    -0.356 N 
ATOM      4  C   UNL A   1      29.519  26.642  23.998  1.00  0.00     0.222 C 
ATOM      5  O   UNL A   1      28.339  26.284  23.985  1.00  0.00    -0.275 OA
ATOM      6  H   UNL A   1      29.065  28.417  23.239  1.00  0.00     0.163 HD
BRANCH   4   7
ATOM      7  C   UNL A   1      30.597  25.728  24.515  1.00  0.00     0.133 C 
BRANCH   7   8
ATOM      8  C   UNL A   1      30.739  25.763  26.036  1.00  0.00     0.147 C 
ATOM      9  N   UNL A   1      32.341  23.870  26.188  1.00  0.00    -0.320 N 
ATOM     10  C   UNL A   1      31.348  23.113  26.951  1.00  0.00     0.150 C 
ATOM     11  C   UNL A   1      32.165  25.309  26.412  1.00  0.00     0.154 C 
ATOM     12  C   UNL A   1      29.928  23.564  26.612  1.00  0.00     0.182 C 
ATOM     13  O   UNL A   1      29.756  24.979  26.741  1.00  0.00    -0.374 OA
BRANCH   9  14
ATOM     14  C   UNL A   1      33.629  23.395  26.289  1.00  0.00     0.320 C 
ATOM     15  O   UNL A   1      34.107  23.168  27.404  1.00  0.00    -0.248 OA
BRANCH  14  16
ATOM     16  N   UNL A   1      34.354  23.211  25.130  1.00  0.00    -0.321 N 
ATOM     17  C   UNL A   1      34.227  23.737  23.749  1.00  0.00     0.089 C 
ATOM     18  C   UNL A   1      35.462  23.123  23.037  1.00  0.00     0.027 C 
ATOM     19  C   UNL A   1      36.500  23.010  24.123  1.00  0.00     0.024 C 
ATOM     20  C   UNL A   1      35.664  22.595  25.317  1.00  0.00     0.122 C 
BRANCH  17  21
ATOM     21  C   UNL A   1      33.022  23.418  22.815  1.00  0.00     0.005 C 
ATOM     22  C   UNL A   1      33.182  23.706  21.340  1.00  0.00     0.009 C 
ATOM     23  C   UNL A   1      32.557  21.972  23.063  1.00  0.00     0.009 C 
ENDBRANCH  17  21
ENDBRANCH  14  16
ENDBRANCH   9  14
ENDBRANCH   7   8
ENDBRANCH   4   7
ENDBRANCH   2   3
ENDBRANCH   1   2
BRANCH   1  24
ATOM     24  C   UNL A   1      32.514  29.642  25.417  1.00  0.00     0.023 C 
BRANCH  24  25
ATOM     25  C   UNL A   1      32.455  30.086  26.874  1.00  0.00     0.116 C 
BRANCH  25  26
ATOM     26  N   UNL A   1      32.430  31.531  27.042  1.00  0.00    -0.352 N 
ATOM     27  C   UNL A   1      33.426  32.354  27.532  1.00  0.00     0.251 C 
ATOM     28  H   UNL A   1      31.596  31.981  26.772  1.00  0.00     0.163 HD
ATOM     29  O   UNL A   1      33.235  33.553  27.665  1.00  0.00    -0.269 OA
BRANCH  27  30
ATOM     30  C   UNL A   1      34.706  31.738  27.949  1.00  0.00     0.039 A 
ATOM     31  C   UNL A   1      35.814  32.564  28.149  1.00  0.00     0.014 A 
ATOM     32  C   UNL A   1      34.766  30.379  28.266  1.00  0.00     0.014 A 
ATOM     33  C   UNL A   1      36.954  32.046  28.769  1.00  0.00     0.010 A 
ATOM     34  C   UNL A   1      35.871  29.888  28.956  1.00  0.00     0.010 A 
ATOM     35  C   UNL A   1      36.969  30.719  29.231  1.00  0.00    -0.014 A 
BRANCH  35  36
ATOM     36  C   UNL A   1      38.114  30.186  30.020  1.00  0.00     0.031 A 
ATOM     37  C   UNL A   1      38.337  30.663  31.429  1.00  0.00     0.074 A 
ATOM     38  C   UNL A   1      38.994  29.342  29.445  1.00  0.00     0.049 A 
ATOM     39  N   UNL A   1      39.330  30.411  32.242  1.00  0.00    -0.248 NA
ATOM     40  C   UNL A   1      37.325  31.576  31.980  1.00  0.00     0.031 C 
ATOM     41  C   UNL A   1      38.916  28.844  28.068  1.00  0.00     0.029 A 
ATOM     42  N   UNL A   1      40.138  28.761  29.938  1.00  0.00    -0.354 N 
ATOM     43  C   UNL A   1      39.075  31.152  33.391  1.00  0.00     0.074 A 
ATOM     44  C   UNL A   1      37.867  31.909  33.139  1.00  0.00     0.031 C 
ATOM     45  C   UNL A   1      39.950  28.017  27.840  1.00  0.00     0.029 A 
ATOM     46  C   UNL A   1      40.791  27.959  29.031  1.00  0.00     0.049 A 
ATOM     47  H   UNL A   1      40.459  28.905  30.857  1.00  0.00     0.167 HD
ATOM     48  C   UNL A   1      39.767  31.177  34.557  1.00  0.00     0.034 A 
ATOM     49  C   UNL A   1      41.942  27.264  29.141  1.00  0.00     0.034 A 
ATOM     50  C   UNL A   1      40.956  30.396  34.800  1.00  0.00     0.049 A 
ATOM     51  C   UNL A   1      42.696  27.307  30.446  1.00  0.00     0.074 A 
ATOM     52  C   UNL A   1      41.702  30.302  35.962  1.00  0.00     0.029 A 
ATOM     53  N   UNL A   1      41.572  29.575  33.865  1.00  0.00    -0.354 N 
ATOM     54  N   UNL A   1      42.415  27.977  31.540  1.00  0.00    -0.248 NA
ATOM     55  C   UNL A   1      43.917  26.495  30.534  1.00  0.00     0.031 C 
ATOM     56  C   UNL A   1      42.801  29.472  35.712  1.00  0.00     0.029 A 
ATOM     57  C   UNL A   1      42.702  28.990  34.416  1.00  0.00     0.049 A 
ATOM     58  H   UNL A   1      41.253  29.429  32.945  1.00  0.00     0.167 HD
ATOM     59  C   UNL A   1      43.406  27.636  32.458  1.00  0.00     0.074 A 
ATOM     60  C   UNL A   1      44.284  26.698  31.791  1.00  0.00     0.031 C 
ATOM     61  C   UNL A   1      43.570  28.056  33.737  1.00  0.00     0.034 A 
BRANCH  48  62
ATOM     62  C   UNL A   1      39.262  32.099  35.641  1.00  0.00     0.023 A 
ATOM     63  C   UNL A   1      39.669  33.443  35.714  1.00  0.00     0.031 A 
ATOM     64  C   UNL A   1      38.395  31.620  36.638  1.00  0.00     0.131 A 
ATOM     65  C   UNL A   1      39.285  34.233  36.807  1.00  0.00     0.055 A 
ATOM     66  C   UNL A   1      37.943  32.439  37.677  1.00  0.00     0.041 A 
ATOM     67  F   UNL A   1      37.986  30.342  36.634  1.00  0.00    -0.206 F 
ATOM     68  C   UNL A   1      38.403  33.748  37.775  1.00  0.00     0.022 A 
BRANCH  65  69
ATOM     69  S   UNL A   1      40.083  35.847  37.028  1.00  0.00     0.124 S 
ATOM     70  O   UNL A   1      41.486  35.463  37.174  1.00  0.00    -0.237 OA
ATOM     71  O   UNL A   1      39.736  36.542  35.794  1.00  0.00    -0.237 OA
ATOM     72  O   UNL A   1      39.459  36.374  38.239  1.00  0.00    -0.744 OA
ENDBRANCH  65  69
ENDBRANCH  48  62
BRANCH  49  73
ATOM     73  C   UNL A   1      42.463  26.472  27.989  1.00  0.00     0.023 A 
ATOM     74  C   UNL A   1      41.970  25.186  27.714  1.00  0.00     0.031 A 
ATOM     75  C   UNL A   1      43.494  26.970  27.173  1.00  0.00     0.131 A 
ATOM     76  C   UNL A   1      42.540  24.423  26.681  1.00  0.00     0.055 A 
ATOM     77  C   UNL A   1      44.023  26.228  26.115  1.00  0.00     0.041 A 
ATOM     78  F   UNL A   1      43.997  28.197  27.387  1.00  0.00    -0.206 F 
ATOM     79  C   UNL A   1      43.555  24.940  25.873  1.00  0.00     0.022 A 
BRANCH  76  80
ATOM     80  S   UNL A   1      41.990  22.709  26.463  1.00  0.00     0.124 S 
ATOM     81  O   UNL A   1      42.640  22.043  27.586  1.00  0.00    -0.237 OA
ATOM     82  O   UNL A   1      40.541  22.844  26.548  1.00  0.00    -0.237 OA
ATOM     83  O   UNL A   1      42.505  22.352  25.143  1.00  0.00    -0.744 OA
ENDBRANCH  76  80
ENDBRANCH  49  73
BRANCH  61  84
ATOM     84  C   UNL A   1      44.713  27.456  34.517  1.00  0.00     0.023 A 
ATOM     85  C   UNL A   1      44.611  26.197  35.134  1.00  0.00     0.031 A 
ATOM     86  C   UNL A   1      45.925  28.159  34.640  1.00  0.00     0.131 A 
ATOM     87  C   UNL A   1      45.686  25.700  35.885  1.00  0.00     0.055 A 
ATOM     88  C   UNL A   1      47.010  27.634  35.343  1.00  0.00     0.041 A 
ATOM     89  F   UNL A   1      46.075  29.365  34.072  1.00  0.00    -0.206 F 
ATOM     90  C   UNL A   1      46.891  26.403  35.980  1.00  0.00     0.022 A 
BRANCH  87  91
ATOM     91  S   UNL A   1      45.466  24.151  36.804  1.00  0.00     0.124 S 
ATOM     92  O   UNL A   1      46.844  23.696  36.966  1.00  0.00    -0.237 OA
ATOM     93  O   UNL A   1      44.798  24.602  38.021  1.00  0.00    -0.237 OA
ATOM     94  O   UNL A   1      44.644  23.336  35.913  1.00  0.00    -0.744 OA
ENDBRANCH  87  91
ENDBRANCH  61  84
ENDBRANCH  35  36
ENDBRANCH  27  30
ENDBRANCH  25  26
ENDBRANCH  24  25
ENDBRANCH   1  24
TORSDOF 18
ENDMDL
