MODEL 1
REMARK VINA RESULT:     -11.8      0.000      0.000
REMARK SMILES O=C(C[C@@H]([NH2+]Cc1ccccc1)C(=O)NCCCCNC(=O)c1ccc(-c2c3nc(c(-c4cc(S(=O)(=O)[O-])ccc4F)c4ccc([nH]4)c(-c4cc(S(=O)(=O)[O-])ccc4F)c4nc(c(-c5cc(S(=O)(=O)[O-])ccc5F)c5ccc2[nH]5)C=C4)C=C3)cc1)Nc1cccc(Cl)c1Cl
REMARK SMILES IDX 17 1 16 2 15 3 13 4 14 5 4 7 3 8 2 9 1 10 86 11 87 13 88 14
REMARK SMILES IDX 93 15 89 16 91 17 94 18 90 19 92 20 5 21 6 24 7 25 8 26
REMARK SMILES IDX 12 27 9 28 11 29 10 30 18 31 19 32 20 33 21 34 22 36 23 37
REMARK SMILES IDX 24 38 85 39 25 40 84 41 26 42 27 43 28 44 78 45 29 46 83 47
REMARK SMILES IDX 77 48 79 49 30 50 82 51 76 52 75 53 31 55 63 56 43 57 62 58
REMARK SMILES IDX 44 59 47 60 61 61 80 62 45 63 46 64 60 66 81 67 48 68 32 69
REMARK SMILES IDX 33 70 41 71 34 72 40 73 42 74 39 75 35 76 36 77 37 78 38 79
REMARK SMILES IDX 64 80 65 81 73 82 66 83 72 84 74 85 71 86 67 87 68 88 69 89
REMARK SMILES IDX 70 90 49 91 50 92 58 93 51 94 57 95 59 96 56 97 52 98 53 99
REMARK SMILES IDX 54 100 55 101
REMARK H PARENT 15 6 86 12 5 22 5 23 20 35 79 54 47 65
REMARK Flexibility Score: inf
ROOT
ATOM      1  C   UNL A   1      31.858  27.225  26.049  1.00  0.00     0.023 C 
ENDROOT
BRANCH   1   2
ATOM      2  C   UNL A   1      31.311  25.896  25.523  1.00  0.00     0.116 C 
BRANCH   2   3
ATOM      3  N   UNL A   1      31.318  24.871  26.551  1.00  0.00    -0.351 N 
ATOM      4  C   UNL A   1      31.916  23.646  26.575  1.00  0.00     0.278 C 
ATOM      5  O   UNL A   1      31.788  22.968  27.599  1.00  0.00    -0.268 OA
ATOM      6  H   UNL A   1      30.808  25.097  27.362  1.00  0.00     0.163 HD
BRANCH   4   7
ATOM      7  C   UNL A   1      32.744  23.115  25.386  1.00  0.00     0.282 C 
BRANCH   7   8
ATOM      8  C   UNL A   1      33.990  23.991  25.198  1.00  0.00     0.175 C 
BRANCH   8   9
ATOM      9  C   UNL A   1      35.163  23.538  26.032  1.00  0.00     0.230 C 
ATOM     10  O   UNL A   1      35.024  23.079  27.160  1.00  0.00    -0.274 OA
ATOM     11  N   UNL A   1      36.379  23.770  25.405  1.00  0.00    -0.325 N 
ATOM     12  H   UNL A   1      36.373  24.251  24.545  1.00  0.00     0.169 HD
BRANCH  11  13
ATOM     13  C   UNL A   1      37.623  23.358  25.925  1.00  0.00     0.061 A 
ATOM     14  C   UNL A   1      38.341  24.326  26.643  1.00  0.00     0.028 A 
ATOM     15  C   UNL A   1      38.176  22.074  25.733  1.00  0.00     0.083 A 
ATOM     16  C   UNL A   1      39.558  24.004  27.243  1.00  0.00     0.004 A 
ATOM     17  C   UNL A   1      39.410  21.767  26.328  1.00  0.00     0.061 A 
ATOM     18  Cl  UNL A   1      37.453  20.953  24.618  1.00  0.00    -0.080 Cl
ATOM     19  C   UNL A   1      40.086  22.724  27.093  1.00  0.00     0.022 A 
ATOM     20  Cl  UNL A   1      40.188  20.233  26.128  1.00  0.00    -0.083 Cl
ENDBRANCH  11  13
ENDBRANCH   8   9
ENDBRANCH   7   8
BRANCH   7  21
ATOM     21  N   UNL A   1      33.061  21.659  25.522  1.00  0.00    -0.332 N 
ATOM     22  H   UNL A   1      33.009  21.405  26.509  1.00  0.00     0.347 HD
ATOM     23  H   UNL A   1      33.997  21.512  25.143  1.00  0.00     0.347 HD
BRANCH  21  24
ATOM     24  C   UNL A   1      32.133  20.795  24.763  1.00  0.00     0.297 C 
BRANCH  24  25
ATOM     25  C   UNL A   1      32.803  19.559  24.212  1.00  0.00     0.006 A 
ATOM     26  C   UNL A   1      34.002  19.094  24.769  1.00  0.00     0.009 A 
ATOM     27  C   UNL A   1      32.218  18.835  23.159  1.00  0.00     0.009 A 
ATOM     28  C   UNL A   1      34.596  17.925  24.291  1.00  0.00     0.001 A 
ATOM     29  C   UNL A   1      32.807  17.659  22.694  1.00  0.00     0.001 A 
ATOM     30  C   UNL A   1      33.996  17.204  23.261  1.00  0.00     0.000 A 
ENDBRANCH  24  25
ENDBRANCH  21  24
ENDBRANCH   7  21
ENDBRANCH   4   7
ENDBRANCH   2   3
ENDBRANCH   1   2
BRANCH   1  31
ATOM     31  C   UNL A   1      33.372  27.394  25.916  1.00  0.00     0.023 C 
BRANCH  31  32
ATOM     32  C   UNL A   1      33.833  28.774  25.461  1.00  0.00     0.116 C 
BRANCH  32  33
ATOM     33  N   UNL A   1      33.050  29.855  26.040  1.00  0.00    -0.352 N 
ATOM     34  C   UNL A   1      33.406  30.703  27.063  1.00  0.00     0.251 C 
ATOM     35  H   UNL A   1      32.156  29.997  25.653  1.00  0.00     0.163 HD
ATOM     36  O   UNL A   1      32.589  31.494  27.525  1.00  0.00    -0.269 OA
BRANCH  34  37
ATOM     37  C   UNL A   1      34.773  30.617  27.618  1.00  0.00     0.039 A 
ATOM     38  C   UNL A   1      35.579  31.758  27.623  1.00  0.00     0.014 A 
ATOM     39  C   UNL A   1      35.225  29.424  28.186  1.00  0.00     0.014 A 
ATOM     40  C   UNL A   1      36.820  31.721  28.266  1.00  0.00     0.010 A 
ATOM     41  C   UNL A   1      36.431  29.409  28.877  1.00  0.00     0.010 A 
ATOM     42  C   UNL A   1      37.238  30.558  28.929  1.00  0.00    -0.014 A 
BRANCH  42  43
ATOM     43  C   UNL A   1      38.525  30.490  29.667  1.00  0.00     0.031 A 
ATOM     44  C   UNL A   1      39.652  29.671  29.104  1.00  0.00     0.074 A 
ATOM     45  C   UNL A   1      38.642  31.067  30.879  1.00  0.00     0.049 A 
ATOM     46  N   UNL A   1      40.775  29.305  29.663  1.00  0.00    -0.248 NA
ATOM     47  C   UNL A   1      39.464  29.163  27.736  1.00  0.00     0.031 C 
ATOM     48  C   UNL A   1      37.612  31.870  31.539  1.00  0.00     0.029 A 
ATOM     49  N   UNL A   1      39.674  31.044  31.784  1.00  0.00    -0.354 N 
ATOM     50  C   UNL A   1      41.415  28.496  28.731  1.00  0.00     0.074 A 
ATOM     51  C   UNL A   1      40.528  28.390  27.591  1.00  0.00     0.031 C 
ATOM     52  C   UNL A   1      38.065  32.265  32.740  1.00  0.00     0.029 A 
ATOM     53  C   UNL A   1      39.395  31.704  32.958  1.00  0.00     0.049 A 
ATOM     54  H   UNL A   1      40.534  30.597  31.609  1.00  0.00     0.167 HD
ATOM     55  C   UNL A   1      42.635  27.910  28.812  1.00  0.00     0.034 A 
ATOM     56  C   UNL A   1      40.118  31.820  34.090  1.00  0.00     0.034 A 
ATOM     57  C   UNL A   1      43.514  28.048  29.948  1.00  0.00     0.049 A 
ATOM     58  C   UNL A   1      41.470  31.153  34.165  1.00  0.00     0.074 A 
ATOM     59  C   UNL A   1      44.786  27.531  30.125  1.00  0.00     0.029 A 
ATOM     60  N   UNL A   1      43.209  28.757  31.103  1.00  0.00    -0.354 N 
ATOM     61  N   UNL A   1      42.068  30.401  33.270  1.00  0.00    -0.248 NA
ATOM     62  C   UNL A   1      42.243  31.356  35.397  1.00  0.00     0.031 C 
ATOM     63  C   UNL A   1      45.230  27.886  31.404  1.00  0.00     0.029 A 
ATOM     64  C   UNL A   1      44.262  28.679  32.000  1.00  0.00     0.049 A 
ATOM     65  H   UNL A   1      42.369  29.243  31.262  1.00  0.00     0.167 HD
ATOM     66  C   UNL A   1      43.306  30.074  33.818  1.00  0.00     0.074 A 
ATOM     67  C   UNL A   1      43.366  30.709  35.119  1.00  0.00     0.031 C 
ATOM     68  C   UNL A   1      44.307  29.326  33.290  1.00  0.00     0.034 A 
BRANCH  55  69
ATOM     69  C   UNL A   1      43.062  27.043  27.653  1.00  0.00     0.023 A 
ATOM     70  C   UNL A   1      43.079  25.640  27.748  1.00  0.00     0.031 A 
ATOM     71  C   UNL A   1      43.509  27.626  26.454  1.00  0.00     0.131 A 
ATOM     72  C   UNL A   1      43.616  24.873  26.704  1.00  0.00     0.055 A 
ATOM     73  C   UNL A   1      43.960  26.851  25.382  1.00  0.00     0.041 A 
ATOM     74  F   UNL A   1      43.537  28.960  26.309  1.00  0.00    -0.206 F 
ATOM     75  C   UNL A   1      44.034  25.468  25.511  1.00  0.00     0.022 A 
BRANCH  72  76
ATOM     76  S   UNL A   1      43.914  23.108  26.995  1.00  0.00     0.124 S 
ATOM     77  O   UNL A   1      45.373  23.049  26.972  1.00  0.00    -0.237 OA
ATOM     78  O   UNL A   1      43.285  22.892  28.293  1.00  0.00    -0.237 OA
ATOM     79  O   UNL A   1      43.254  22.458  25.865  1.00  0.00    -0.744 OA
ENDBRANCH  72  76
ENDBRANCH  55  69
BRANCH  56  80
ATOM     80  C   UNL A   1      39.582  32.581  35.253  1.00  0.00     0.023 A 
ATOM     81  C   UNL A   1      38.880  31.927  36.278  1.00  0.00     0.031 A 
ATOM     82  C   UNL A   1      39.732  33.975  35.340  1.00  0.00     0.131 A 
ATOM     83  C   UNL A   1      38.317  32.673  37.326  1.00  0.00     0.055 A 
ATOM     84  C   UNL A   1      39.210  34.707  36.408  1.00  0.00     0.041 A 
ATOM     85  F   UNL A   1      40.402  34.646  34.390  1.00  0.00    -0.206 F 
ATOM     86  C   UNL A   1      38.486  34.057  37.403  1.00  0.00     0.022 A 
BRANCH  83  87
ATOM     87  S   UNL A   1      37.293  31.812  38.550  1.00  0.00     0.124 S 
ATOM     88  O   UNL A   1      38.138  31.870  39.737  1.00  0.00    -0.237 OA
ATOM     89  O   UNL A   1      36.091  32.641  38.575  1.00  0.00    -0.237 OA
ATOM     90  O   UNL A   1      37.117  30.482  37.971  1.00  0.00    -0.744 OA
ENDBRANCH  83  87
ENDBRANCH  56  80
BRANCH  68  91
ATOM     91  C   UNL A   1      45.580  29.218  34.088  1.00  0.00     0.023 A 
ATOM     92  C   UNL A   1      45.797  28.179  35.008  1.00  0.00     0.031 A 
ATOM     93  C   UNL A   1      46.598  30.172  33.909  1.00  0.00     0.131 A 
ATOM     94  C   UNL A   1      46.991  28.139  35.744  1.00  0.00     0.055 A 
ATOM     95  C   UNL A   1      47.803  30.101  34.609  1.00  0.00     0.041 A 
ATOM     96  F   UNL A   1      46.439  31.184  33.041  1.00  0.00    -0.206 F 
ATOM     97  C   UNL A   1      48.000  29.084  35.539  1.00  0.00     0.022 A 
BRANCH  94  98
ATOM     98  S   UNL A   1      47.191  26.863  37.017  1.00  0.00     0.124 S 
ATOM     99  O   UNL A   1      48.365  26.139  36.540  1.00  0.00    -0.237 OA
ATOM    100  O   UNL A   1      47.379  27.655  38.228  1.00  0.00    -0.237 OA
ATOM    101  O   UNL A   1      45.935  26.116  36.956  1.00  0.00    -0.744 OA
ENDBRANCH  94  98
ENDBRANCH  68  91
ENDBRANCH  42  43
ENDBRANCH  34  37
ENDBRANCH  32  33
ENDBRANCH  31  32
ENDBRANCH   1  31
TORSDOF 20
ENDMDL
MODEL 2
REMARK VINA RESULT:     -11.6      5.048     10.446
REMARK SMILES O=C(C[C@@H]([NH2+]Cc1ccccc1)C(=O)NCCCCNC(=O)c1ccc(-c2c3nc(c(-c4cc(S(=O)(=O)[O-])ccc4F)c4ccc([nH]4)c(-c4cc(S(=O)(=O)[O-])ccc4F)c4nc(c(-c5cc(S(=O)(=O)[O-])ccc5F)c5ccc2[nH]5)C=C4)C=C3)cc1)Nc1cccc(Cl)c1Cl
REMARK SMILES IDX 17 1 16 2 15 3 13 4 14 5 4 7 3 8 2 9 1 10 86 11 87 13 88 14
REMARK SMILES IDX 93 15 89 16 91 17 94 18 90 19 92 20 5 21 6 24 7 25 8 26
REMARK SMILES IDX 12 27 9 28 11 29 10 30 18 31 19 32 20 33 21 34 22 36 23 37
REMARK SMILES IDX 24 38 85 39 25 40 84 41 26 42 27 43 28 44 78 45 29 46 83 47
REMARK SMILES IDX 77 48 79 49 30 50 82 51 76 52 75 53 31 55 63 56 43 57 62 58
REMARK SMILES IDX 44 59 47 60 61 61 80 62 45 63 46 64 60 66 81 67 48 68 32 69
REMARK SMILES IDX 33 70 41 71 34 72 40 73 42 74 39 75 35 76 36 77 37 78 38 79
REMARK SMILES IDX 64 80 65 81 73 82 66 83 72 84 74 85 71 86 67 87 68 88 69 89
REMARK SMILES IDX 70 90 49 91 50 92 58 93 51 94 57 95 59 96 56 97 52 98 53 99
REMARK SMILES IDX 54 100 55 101
REMARK H PARENT 15 6 86 12 5 22 5 23 20 35 79 54 47 65
REMARK Flexibility Score: inf
ROOT
ATOM      1  C   UNL A   1      34.181  21.183  25.525  1.00  0.00     0.023 C 
ENDROOT
BRANCH   1   2
ATOM      2  C   UNL A   1      32.698  21.317  25.172  1.00  0.00     0.116 C 
BRANCH   2   3
ATOM      3  N   UNL A   1      31.938  21.901  26.263  1.00  0.00    -0.351 N 
ATOM      4  C   UNL A   1      31.620  23.201  26.524  1.00  0.00     0.278 C 
ATOM      5  O   UNL A   1      30.927  23.430  27.519  1.00  0.00    -0.268 OA
ATOM      6  H   UNL A   1      31.597  21.252  26.920  1.00  0.00     0.163 HD
BRANCH   4   7
ATOM      7  C   UNL A   1      32.082  24.356  25.611  1.00  0.00     0.282 C 
BRANCH   7   8
ATOM      8  C   UNL A   1      31.098  24.513  24.444  1.00  0.00     0.175 C 
BRANCH   8   9
ATOM      9  C   UNL A   1      30.139  25.663  24.629  1.00  0.00     0.230 C 
ATOM     10  O   UNL A   1      29.581  25.883  25.699  1.00  0.00    -0.274 OA
ATOM     11  N   UNL A   1      29.924  26.367  23.453  1.00  0.00    -0.325 N 
ATOM     12  H   UNL A   1      30.339  26.027  22.628  1.00  0.00     0.169 HD
BRANCH  11  13
ATOM     13  C   UNL A   1      29.146  27.540  23.370  1.00  0.00     0.061 A 
ATOM     14  C   UNL A   1      27.757  27.365  23.457  1.00  0.00     0.028 A 
ATOM     15  C   UNL A   1      29.679  28.831  23.174  1.00  0.00     0.083 A 
ATOM     16  C   UNL A   1      26.903  28.467  23.439  1.00  0.00     0.004 A 
ATOM     17  C   UNL A   1      28.807  29.931  23.140  1.00  0.00     0.061 A 
ATOM     18  Cl  UNL A   1      31.358  29.049  22.778  1.00  0.00    -0.080 Cl
ATOM     19  C   UNL A   1      27.428  29.748  23.290  1.00  0.00     0.022 A 
ATOM     20  Cl  UNL A   1      29.357  31.552  22.875  1.00  0.00    -0.083 Cl
ENDBRANCH  11  13
ENDBRANCH   8   9
ENDBRANCH   7   8
BRANCH   7  21
ATOM     21  N   UNL A   1      32.301  25.626  26.373  1.00  0.00    -0.332 N 
ATOM     22  H   UNL A   1      32.721  25.397  27.274  1.00  0.00     0.347 HD
ATOM     23  H   UNL A   1      31.394  26.079  26.481  1.00  0.00     0.347 HD
BRANCH  21  24
ATOM     24  C   UNL A   1      33.189  26.573  25.666  1.00  0.00     0.297 C 
BRANCH  24  25
ATOM     25  C   UNL A   1      33.157  27.960  26.262  1.00  0.00     0.006 A 
ATOM     26  C   UNL A   1      34.331  28.551  26.747  1.00  0.00     0.009 A 
ATOM     27  C   UNL A   1      31.960  28.695  26.306  1.00  0.00     0.009 A 
ATOM     28  C   UNL A   1      34.311  29.851  27.255  1.00  0.00     0.001 A 
ATOM     29  C   UNL A   1      31.945  29.999  26.801  1.00  0.00     0.001 A 
ATOM     30  C   UNL A   1      33.121  30.577  27.274  1.00  0.00     0.000 A 
ENDBRANCH  24  25
ENDBRANCH  21  24
ENDBRANCH   7  21
ENDBRANCH   4   7
ENDBRANCH   2   3
ENDBRANCH   1   2
BRANCH   1  31
ATOM     31  C   UNL A   1      35.077  22.287  24.963  1.00  0.00     0.023 C 
BRANCH  31  32
ATOM     32  C   UNL A   1      36.399  22.483  25.695  1.00  0.00     0.116 C 
BRANCH  32  33
ATOM     33  N   UNL A   1      37.280  21.329  25.599  1.00  0.00    -0.352 N 
ATOM     34  C   UNL A   1      38.625  21.265  25.884  1.00  0.00     0.251 C 
ATOM     35  H   UNL A   1      36.863  20.491  25.292  1.00  0.00     0.163 HD
ATOM     36  O   UNL A   1      39.262  20.245  25.639  1.00  0.00    -0.269 OA
BRANCH  34  37
ATOM     37  C   UNL A   1      39.291  22.456  26.451  1.00  0.00     0.039 A 
ATOM     38  C   UNL A   1      40.347  22.282  27.348  1.00  0.00     0.014 A 
ATOM     39  C   UNL A   1      38.907  23.735  26.043  1.00  0.00     0.014 A 
ATOM     40  C   UNL A   1      41.070  23.396  27.785  1.00  0.00     0.010 A 
ATOM     41  C   UNL A   1      39.666  24.834  26.430  1.00  0.00     0.010 A 
ATOM     42  C   UNL A   1      40.758  24.676  27.300  1.00  0.00    -0.014 A 
BRANCH  42  43
ATOM     43  C   UNL A   1      41.531  25.880  27.697  1.00  0.00     0.031 A 
ATOM     44  C   UNL A   1      40.855  26.952  28.505  1.00  0.00     0.074 A 
ATOM     45  C   UNL A   1      42.787  26.058  27.246  1.00  0.00     0.049 A 
ATOM     46  N   UNL A   1      41.261  28.162  28.787  1.00  0.00    -0.248 NA
ATOM     47  C   UNL A   1      39.521  26.624  29.030  1.00  0.00     0.031 C 
ATOM     48  C   UNL A   1      43.542  25.099  26.438  1.00  0.00     0.029 A 
ATOM     49  N   UNL A   1      43.644  27.122  27.382  1.00  0.00    -0.354 N 
ATOM     50  C   UNL A   1      40.221  28.753  29.494  1.00  0.00     0.074 A 
ATOM     51  C   UNL A   1      39.149  27.782  29.553  1.00  0.00     0.031 C 
ATOM     52  C   UNL A   1      44.749  25.616  26.154  1.00  0.00     0.029 A 
ATOM     53  C   UNL A   1      44.837  26.961  26.715  1.00  0.00     0.049 A 
ATOM     54  H   UNL A   1      43.426  27.925  27.909  1.00  0.00     0.167 HD
ATOM     55  C   UNL A   1      40.171  29.988  30.055  1.00  0.00     0.034 A 
ATOM     56  C   UNL A   1      45.869  27.812  26.552  1.00  0.00     0.034 A 
ATOM     57  C   UNL A   1      41.259  30.933  30.005  1.00  0.00     0.049 A 
ATOM     58  C   UNL A   1      45.791  29.183  27.176  1.00  0.00     0.074 A 
ATOM     59  C   UNL A   1      41.335  32.195  30.569  1.00  0.00     0.029 A 
ATOM     60  N   UNL A   1      42.466  30.717  29.351  1.00  0.00    -0.354 N 
ATOM     61  N   UNL A   1      44.806  29.726  27.853  1.00  0.00    -0.248 NA
ATOM     62  C   UNL A   1      46.965  30.052  27.019  1.00  0.00     0.031 C 
ATOM     63  C   UNL A   1      42.565  32.761  30.215  1.00  0.00     0.029 A 
ATOM     64  C   UNL A   1      43.285  31.827  29.485  1.00  0.00     0.049 A 
ATOM     65  H   UNL A   1      42.704  29.897  28.863  1.00  0.00     0.167 HD
ATOM     66  C   UNL A   1      45.259  30.986  28.236  1.00  0.00     0.074 A 
ATOM     67  C   UNL A   1      46.603  31.122  27.712  1.00  0.00     0.031 C 
ATOM     68  C   UNL A   1      44.625  31.941  28.963  1.00  0.00     0.034 A 
BRANCH  55  69
ATOM     69  C   UNL A   1      38.883  30.384  30.736  1.00  0.00     0.023 A 
ATOM     70  C   UNL A   1      37.898  31.135  30.070  1.00  0.00     0.031 A 
ATOM     71  C   UNL A   1      38.657  30.053  32.083  1.00  0.00     0.131 A 
ATOM     72  C   UNL A   1      36.782  31.607  30.774  1.00  0.00     0.055 A 
ATOM     73  C   UNL A   1      37.499  30.450  32.755  1.00  0.00     0.041 A 
ATOM     74  F   UNL A   1      39.569  29.355  32.778  1.00  0.00    -0.206 F 
ATOM     75  C   UNL A   1      36.562  31.249  32.106  1.00  0.00     0.022 A 
BRANCH  72  76
ATOM     76  S   UNL A   1      35.709  32.830  29.972  1.00  0.00     0.124 S 
ATOM     77  O   UNL A   1      36.187  34.075  30.567  1.00  0.00    -0.237 OA
ATOM     78  O   UNL A   1      36.013  32.638  28.559  1.00  0.00    -0.237 OA
ATOM     79  O   UNL A   1      34.365  32.428  30.382  1.00  0.00    -0.744 OA
ENDBRANCH  72  76
ENDBRANCH  55  69
BRANCH  56  80
ATOM     80  C   UNL A   1      47.061  27.408  25.755  1.00  0.00     0.023 A 
ATOM     81  C   UNL A   1      47.188  27.788  24.409  1.00  0.00     0.031 A 
ATOM     82  C   UNL A   1      48.071  26.607  26.313  1.00  0.00     0.131 A 
ATOM     83  C   UNL A   1      48.280  27.332  23.654  1.00  0.00     0.055 A 
ATOM     84  C   UNL A   1      49.180  26.195  25.571  1.00  0.00     0.041 A 
ATOM     85  F   UNL A   1      48.001  26.224  27.598  1.00  0.00    -0.206 F 
ATOM     86  C   UNL A   1      49.282  26.547  24.229  1.00  0.00     0.022 A 
BRANCH  83  87
ATOM     87  S   UNL A   1      48.333  27.721  21.884  1.00  0.00     0.124 S 
ATOM     88  O   UNL A   1      49.441  28.667  21.820  1.00  0.00    -0.237 OA
ATOM     89  O   UNL A   1      48.574  26.408  21.293  1.00  0.00    -0.237 OA
ATOM     90  O   UNL A   1      47.012  28.286  21.620  1.00  0.00    -0.744 OA
ENDBRANCH  83  87
ENDBRANCH  56  80
BRANCH  68  91
ATOM     91  C   UNL A   1      45.409  33.183  29.299  1.00  0.00     0.023 A 
ATOM     92  C   UNL A   1      45.425  34.304  28.452  1.00  0.00     0.031 A 
ATOM     93  C   UNL A   1      46.141  33.243  30.498  1.00  0.00     0.131 A 
ATOM     94  C   UNL A   1      46.191  35.427  28.800  1.00  0.00     0.055 A 
ATOM     95  C   UNL A   1      46.863  34.380  30.862  1.00  0.00     0.041 A 
ATOM     96  F   UNL A   1      46.156  32.198  31.340  1.00  0.00    -0.206 F 
ATOM     97  C   UNL A   1      46.897  35.477  30.006  1.00  0.00     0.022 A 
BRANCH  94  98
ATOM     98  S   UNL A   1      46.299  36.809  27.630  1.00  0.00     0.124 S 
ATOM     99  O   UNL A   1      47.653  37.300  27.864  1.00  0.00    -0.237 OA
ATOM    100  O   UNL A   1      46.072  36.151  26.348  1.00  0.00    -0.237 OA
ATOM    101  O   UNL A   1      45.230  37.709  28.061  1.00  0.00    -0.744 OA
ENDBRANCH  94  98
ENDBRANCH  68  91
ENDBRANCH  42  43
ENDBRANCH  34  37
ENDBRANCH  32  33
ENDBRANCH  31  32
ENDBRANCH   1  31
TORSDOF 20
ENDMDL
MODEL 3
REMARK VINA RESULT:     -11.5      2.506      4.235
REMARK SMILES O=C(C[C@@H]([NH2+]Cc1ccccc1)C(=O)NCCCCNC(=O)c1ccc(-c2c3nc(c(-c4cc(S(=O)(=O)[O-])ccc4F)c4ccc([nH]4)c(-c4cc(S(=O)(=O)[O-])ccc4F)c4nc(c(-c5cc(S(=O)(=O)[O-])ccc5F)c5ccc2[nH]5)C=C4)C=C3)cc1)Nc1cccc(Cl)c1Cl
REMARK SMILES IDX 17 1 16 2 15 3 13 4 14 5 4 7 3 8 2 9 1 10 86 11 87 13 88 14
REMARK SMILES IDX 93 15 89 16 91 17 94 18 90 19 92 20 5 21 6 24 7 25 8 26
REMARK SMILES IDX 12 27 9 28 11 29 10 30 18 31 19 32 20 33 21 34 22 36 23 37
REMARK SMILES IDX 24 38 85 39 25 40 84 41 26 42 27 43 28 44 78 45 29 46 83 47
REMARK SMILES IDX 77 48 79 49 30 50 82 51 76 52 75 53 31 55 63 56 43 57 62 58
REMARK SMILES IDX 44 59 47 60 61 61 80 62 45 63 46 64 60 66 81 67 48 68 32 69
REMARK SMILES IDX 33 70 41 71 34 72 40 73 42 74 39 75 35 76 36 77 37 78 38 79
REMARK SMILES IDX 64 80 65 81 73 82 66 83 72 84 74 85 71 86 67 87 68 88 69 89
REMARK SMILES IDX 70 90 49 91 50 92 58 93 51 94 57 95 59 96 56 97 52 98 53 99
REMARK SMILES IDX 54 100 55 101
REMARK H PARENT 15 6 86 12 5 22 5 23 20 35 79 54 47 65
REMARK Flexibility Score: inf
ROOT
ATOM      1  C   UNL A   1      31.830  28.167  27.407  1.00  0.00     0.023 C 
ENDROOT
BRANCH   1   2
ATOM      2  C   UNL A   1      32.237  27.010  26.492  1.00  0.00     0.116 C 
BRANCH   2   3
ATOM      3  N   UNL A   1      31.487  25.803  26.791  1.00  0.00    -0.351 N 
ATOM      4  C   UNL A   1      30.890  24.904  25.958  1.00  0.00     0.278 C 
ATOM      5  O   UNL A   1      30.332  23.931  26.474  1.00  0.00    -0.268 OA
ATOM      6  H   UNL A   1      31.396  25.601  27.750  1.00  0.00     0.163 HD
BRANCH   4   7
ATOM      7  C   UNL A   1      30.917  25.065  24.424  1.00  0.00     0.282 C 
BRANCH   7   8
ATOM      8  C   UNL A   1      30.745  23.692  23.761  1.00  0.00     0.175 C 
BRANCH   8   9
ATOM      9  C   UNL A   1      32.050  22.960  23.568  1.00  0.00     0.230 C 
ATOM     10  O   UNL A   1      32.724  23.081  22.550  1.00  0.00    -0.274 OA
ATOM     11  N   UNL A   1      32.339  22.107  24.623  1.00  0.00    -0.325 N 
ATOM     12  H   UNL A   1      31.666  22.006  25.335  1.00  0.00     0.169 HD
BRANCH  11  13
ATOM     13  C   UNL A   1      33.539  21.376  24.738  1.00  0.00     0.061 A 
ATOM     14  C   UNL A   1      34.688  22.121  25.043  1.00  0.00     0.028 A 
ATOM     15  C   UNL A   1      33.641  19.983  24.532  1.00  0.00     0.083 A 
ATOM     16  C   UNL A   1      35.914  21.485  25.230  1.00  0.00     0.004 A 
ATOM     17  C   UNL A   1      34.885  19.357  24.707  1.00  0.00     0.061 A 
ATOM     18  Cl  UNL A   1      32.306  19.082  23.878  1.00  0.00    -0.080 Cl
ATOM     19  C   UNL A   1      36.011  20.105  25.071  1.00  0.00     0.022 A 
ATOM     20  Cl  UNL A   1      35.123  17.661  24.449  1.00  0.00    -0.083 Cl
ENDBRANCH  11  13
ENDBRANCH   8   9
ENDBRANCH   7   8
BRANCH   7  21
ATOM     21  N   UNL A   1      29.926  26.080  23.944  1.00  0.00    -0.332 N 
ATOM     22  H   UNL A   1      29.470  26.499  24.755  1.00  0.00     0.347 HD
ATOM     23  H   UNL A   1      29.259  25.596  23.342  1.00  0.00     0.347 HD
BRANCH  21  24
ATOM     24  C   UNL A   1      30.547  27.155  23.143  1.00  0.00     0.297 C 
BRANCH  24  25
ATOM     25  C   UNL A   1      29.616  28.319  22.903  1.00  0.00     0.006 A 
ATOM     26  C   UNL A   1      30.099  29.513  22.351  1.00  0.00     0.009 A 
ATOM     27  C   UNL A   1      28.245  28.212  23.193  1.00  0.00     0.009 A 
ATOM     28  C   UNL A   1      29.230  30.571  22.085  1.00  0.00     0.001 A 
ATOM     29  C   UNL A   1      27.376  29.267  22.913  1.00  0.00     0.001 A 
ATOM     30  C   UNL A   1      27.869  30.446  22.358  1.00  0.00     0.000 A 
ENDBRANCH  24  25
ENDBRANCH  21  24
ENDBRANCH   7  21
ENDBRANCH   4   7
ENDBRANCH   2   3
ENDBRANCH   1   2
BRANCH   1  31
ATOM     31  C   UNL A   1      31.409  29.444  26.678  1.00  0.00     0.023 C 
BRANCH  31  32
ATOM     32  C   UNL A   1      32.547  30.395  26.327  1.00  0.00     0.116 C 
BRANCH  32  33
ATOM     33  N   UNL A   1      32.236  31.787  26.617  1.00  0.00    -0.352 N 
ATOM     34  C   UNL A   1      32.953  32.670  27.390  1.00  0.00     0.251 C 
ATOM     35  H   UNL A   1      31.411  32.139  26.211  1.00  0.00     0.163 HD
ATOM     36  O   UNL A   1      32.500  33.783  27.640  1.00  0.00    -0.269 OA
BRANCH  34  37
ATOM     37  C   UNL A   1      34.255  32.241  27.942  1.00  0.00     0.039 A 
ATOM     38  C   UNL A   1      35.306  33.160  27.999  1.00  0.00     0.014 A 
ATOM     39  C   UNL A   1      34.409  30.952  28.455  1.00  0.00     0.014 A 
ATOM     40  C   UNL A   1      36.496  32.805  28.640  1.00  0.00     0.010 A 
ATOM     41  C   UNL A   1      35.569  30.624  29.147  1.00  0.00     0.010 A 
ATOM     42  C   UNL A   1      36.623  31.548  29.251  1.00  0.00    -0.014 A 
BRANCH  42  43
ATOM     43  C   UNL A   1      37.849  31.148  29.987  1.00  0.00     0.031 A 
ATOM     44  C   UNL A   1      38.773  30.132  29.376  1.00  0.00     0.074 A 
ATOM     45  C   UNL A   1      38.073  31.608  31.232  1.00  0.00     0.049 A 
ATOM     46  N   UNL A   1      39.776  29.490  29.913  1.00  0.00    -0.248 NA
ATOM     47  C   UNL A   1      38.498  29.764  27.978  1.00  0.00     0.031 C 
ATOM     48  C   UNL A   1      37.237  32.580  31.940  1.00  0.00     0.029 A 
ATOM     49  N   UNL A   1      39.058  31.298  32.137  1.00  0.00    -0.354 N 
ATOM     50  C   UNL A   1      40.234  28.617  28.933  1.00  0.00     0.074 A 
ATOM     51  C   UNL A   1      39.365  28.782  27.787  1.00  0.00     0.031 C 
ATOM     52  C   UNL A   1      37.748  32.790  33.164  1.00  0.00     0.029 A 
ATOM     53  C   UNL A   1      38.914  31.932  33.350  1.00  0.00     0.049 A 
ATOM     54  H   UNL A   1      39.799  30.681  31.936  1.00  0.00     0.167 HD
ATOM     55  C   UNL A   1      41.290  27.767  28.980  1.00  0.00     0.034 A 
ATOM     56  C   UNL A   1      39.626  31.813  34.488  1.00  0.00     0.034 A 
ATOM     57  C   UNL A   1      42.159  27.634  30.124  1.00  0.00     0.049 A 
ATOM     58  C   UNL A   1      40.793  30.856  34.524  1.00  0.00     0.074 A 
ATOM     59  C   UNL A   1      43.279  26.836  30.271  1.00  0.00     0.029 A 
ATOM     60  N   UNL A   1      42.001  28.322  31.321  1.00  0.00    -0.354 N 
ATOM     61  N   UNL A   1      41.222  30.045  33.585  1.00  0.00    -0.248 NA
ATOM     62  C   UNL A   1      41.571  30.805  35.768  1.00  0.00     0.031 C 
ATOM     63  C   UNL A   1      43.771  27.003  31.571  1.00  0.00     0.029 A 
ATOM     64  C   UNL A   1      42.996  27.955  32.214  1.00  0.00     0.049 A 
ATOM     65  H   UNL A   1      41.289  28.974  31.508  1.00  0.00     0.167 HD
ATOM     66  C   UNL A   1      42.345  29.415  34.115  1.00  0.00     0.074 A 
ATOM     67  C   UNL A   1      42.525  29.940  35.453  1.00  0.00     0.031 C 
ATOM     68  C   UNL A   1      43.162  28.495  33.543  1.00  0.00     0.034 A 
BRANCH  55  69
ATOM     69  C   UNL A   1      41.532  26.899  27.769  1.00  0.00     0.023 A 
ATOM     70  C   UNL A   1      41.089  25.565  27.718  1.00  0.00     0.031 A 
ATOM     71  C   UNL A   1      42.258  27.393  26.671  1.00  0.00     0.131 A 
ATOM     72  C   UNL A   1      41.455  24.746  26.640  1.00  0.00     0.055 A 
ATOM     73  C   UNL A   1      42.542  26.597  25.559  1.00  0.00     0.041 A 
ATOM     74  F   UNL A   1      42.725  28.652  26.669  1.00  0.00    -0.206 F 
ATOM     75  C   UNL A   1      42.157  25.260  25.548  1.00  0.00     0.022 A 
BRANCH  72  76
ATOM     76  S   UNL A   1      41.142  22.964  26.766  1.00  0.00     0.124 S 
ATOM     77  O   UNL A   1      39.687  22.913  26.649  1.00  0.00    -0.237 OA
ATOM     78  O   UNL A   1      41.894  22.432  25.635  1.00  0.00    -0.237 OA
ATOM     79  O   UNL A   1      41.666  22.616  28.085  1.00  0.00    -0.744 OA
ENDBRANCH  72  76
ENDBRANCH  55  69
BRANCH  56  80
ATOM     80  C   UNL A   1      39.255  32.602  35.696  1.00  0.00     0.023 A 
ATOM     81  C   UNL A   1      39.708  33.921  35.861  1.00  0.00     0.031 A 
ATOM     82  C   UNL A   1      38.472  32.040  36.718  1.00  0.00     0.131 A 
ATOM     83  C   UNL A   1      39.411  34.620  37.041  1.00  0.00     0.055 A 
ATOM     84  C   UNL A   1      38.139  32.756  37.870  1.00  0.00     0.041 A 
ATOM     85  F   UNL A   1      38.007  30.785  36.605  1.00  0.00    -0.206 F 
ATOM     86  C   UNL A   1      38.621  34.050  38.042  1.00  0.00     0.022 A 
BRANCH  83  87
ATOM     87  S   UNL A   1      40.137  36.264  37.281  1.00  0.00     0.124 S 
ATOM     88  O   UNL A   1      39.979  36.855  35.957  1.00  0.00    -0.237 OA
ATOM     89  O   UNL A   1      39.292  36.816  38.336  1.00  0.00    -0.237 OA
ATOM     90  O   UNL A   1      41.512  35.974  37.677  1.00  0.00    -0.744 OA
ENDBRANCH  83  87
ENDBRANCH  56  80
BRANCH  68  91
ATOM     91  C   UNL A   1      44.366  28.056  34.335  1.00  0.00     0.023 A 
ATOM     92  C   UNL A   1      44.329  26.939  35.187  1.00  0.00     0.031 A 
ATOM     93  C   UNL A   1      45.574  28.767  34.221  1.00  0.00     0.131 A 
ATOM     94  C   UNL A   1      45.472  26.586  35.921  1.00  0.00     0.055 A 
ATOM     95  C   UNL A   1      46.720  28.385  34.918  1.00  0.00     0.041 A 
ATOM     96  F   UNL A   1      45.659  29.841  33.420  1.00  0.00    -0.206 F 
ATOM     97  C   UNL A   1      46.670  27.293  35.780  1.00  0.00     0.022 A 
BRANCH  94  98
ATOM     98  S   UNL A   1      45.360  25.220  37.109  1.00  0.00     0.124 S 
ATOM     99  O   UNL A   1      46.766  24.899  37.335  1.00  0.00    -0.237 OA
ATOM    100  O   UNL A   1      44.659  25.837  38.230  1.00  0.00    -0.237 OA
ATOM    101  O   UNL A   1      44.600  24.200  36.389  1.00  0.00    -0.744 OA
ENDBRANCH  94  98
ENDBRANCH  68  91
ENDBRANCH  42  43
ENDBRANCH  34  37
ENDBRANCH  32  33
ENDBRANCH  31  32
ENDBRANCH   1  31
TORSDOF 20
ENDMDL
