MODEL 1
REMARK VINA RESULT:     -12.1      0.000      0.000
REMARK SMILES Cc1cc(F)cc(N[C@H](C(=O)NCCCCNC(=O)c2ccc(-c3c4nc(c(-c5cc(S(=O)(=O)[O-])ccc5F)c5ccc([nH]5)c(-c5cc(S(=O)(=O)[O-])ccc5F)c5nc(c(-c6cc(S(=O)(=O)[O-])ccc6F)c6ccc3[nH]6)C=C5)C=C4)cc2)c2cc(Br)cs2)c1
REMARK SMILES IDX 15 1 14 2 13 3 12 4 10 5 11 6 9 8 8 9 7 11 1 12 2 13 3 14
REMARK SMILES IDX 89 15 4 16 5 17 6 18 83 19 84 20 88 21 85 22 87 23 86 24
REMARK SMILES IDX 16 25 17 26 18 27 19 29 20 30 21 31 82 32 22 33 81 34 23 35
REMARK SMILES IDX 24 36 25 37 75 38 26 39 80 40 74 41 76 42 27 43 79 44 73 45
REMARK SMILES IDX 72 46 28 48 60 49 40 50 59 51 41 52 44 53 58 54 77 55 42 56
REMARK SMILES IDX 43 57 57 59 78 60 45 61 29 62 30 63 38 64 31 65 37 66 39 67
REMARK SMILES IDX 36 68 32 69 33 70 34 71 35 72 61 73 62 74 70 75 63 76 69 77
REMARK SMILES IDX 71 78 68 79 64 80 65 81 66 82 67 83 46 84 47 85 55 86 48 87
REMARK SMILES IDX 54 88 56 89 53 90 49 91 50 92 51 93 52 94
REMARK H PARENT 12 7 8 10 17 28 76 47 44 58
REMARK Flexibility Score: inf
ROOT
ATOM      1  C   UNL A   1      31.120  32.068  26.134  1.00  0.00     0.023 C 
ENDROOT
BRANCH   1   2
ATOM      2  C   UNL A   1      31.092  30.701  25.450  1.00  0.00     0.023 C 
BRANCH   2   3
ATOM      3  C   UNL A   1      32.277  29.783  25.739  1.00  0.00     0.116 C 
BRANCH   3   4
ATOM      4  N   UNL A   1      33.211  29.666  24.638  1.00  0.00    -0.354 N 
ATOM      5  C   UNL A   1      33.140  28.880  23.511  1.00  0.00     0.247 C 
ATOM      6  O   UNL A   1      34.062  29.055  22.705  1.00  0.00    -0.272 OA
ATOM      7  H   UNL A   1      34.014  30.231  24.704  1.00  0.00     0.163 HD
BRANCH   5   8
ATOM      8  C   UNL A   1      32.052  27.747  23.344  1.00  0.00     0.210 C 
BRANCH   8   9
ATOM      9  N   UNL A   1      31.059  28.074  22.302  1.00  0.00    -0.369 N 
ATOM     10  H   UNL A   1      31.276  27.790  21.384  1.00  0.00     0.161 HD
BRANCH   9  11
ATOM     11  C   UNL A   1      29.860  28.738  22.476  1.00  0.00     0.038 A 
ATOM     12  C   UNL A   1      28.506  32.214  21.622  1.00  0.00     0.044 C 
ATOM     13  C   UNL A   1      28.575  30.802  22.120  1.00  0.00    -0.046 A 
ATOM     14  C   UNL A   1      27.465  30.211  22.721  1.00  0.00     0.042 A 
ATOM     15  C   UNL A   1      29.766  30.066  22.024  1.00  0.00     0.029 A 
ATOM     16  C   UNL A   1      27.541  28.894  23.152  1.00  0.00     0.125 A 
ATOM     17  F   UNL A   1      26.471  28.325  23.723  1.00  0.00    -0.207 F 
ATOM     18  C   UNL A   1      28.709  28.151  23.005  1.00  0.00     0.065 A 
ENDBRANCH   9  11
ENDBRANCH   8   9
BRANCH   8  19
ATOM     19  C   UNL A   1      32.640  26.329  23.239  1.00  0.00     0.038 A 
ATOM     20  C   UNL A   1      33.322  25.548  24.160  1.00  0.00     0.033 A 
ATOM     21  S   UNL A   1      32.444  25.438  21.757  1.00  0.00    -0.145 S 
ATOM     22  C   UNL A   1      33.844  24.362  23.584  1.00  0.00     0.029 A 
ATOM     23  C   UNL A   1      33.495  24.196  22.271  1.00  0.00     0.080 A 
ATOM     24  Br  UNL A   1      34.940  23.176  24.558  1.00  0.00    -0.050 Br
ENDBRANCH   8  19
ENDBRANCH   5   8
ENDBRANCH   3   4
ENDBRANCH   2   3
ENDBRANCH   1   2
BRANCH   1  25
ATOM     25  C   UNL A   1      32.376  32.398  26.938  1.00  0.00     0.116 C 
BRANCH  25  26
ATOM     26  N   UNL A   1      32.341  33.717  27.553  1.00  0.00    -0.352 N 
ATOM     27  C   UNL A   1      33.194  34.292  28.471  1.00  0.00     0.251 C 
ATOM     28  H   UNL A   1      31.591  34.288  27.270  1.00  0.00     0.163 HD
ATOM     29  O   UNL A   1      32.920  35.387  28.948  1.00  0.00    -0.269 OA
BRANCH  27  30
ATOM     30  C   UNL A   1      34.410  33.569  28.910  1.00  0.00     0.039 A 
ATOM     31  C   UNL A   1      35.665  34.089  28.577  1.00  0.00     0.014 A 
ATOM     32  C   UNL A   1      34.319  32.399  29.667  1.00  0.00     0.014 A 
ATOM     33  C   UNL A   1      36.823  33.494  29.092  1.00  0.00     0.010 A 
ATOM     34  C   UNL A   1      35.466  31.855  30.240  1.00  0.00     0.010 A 
ATOM     35  C   UNL A   1      36.730  32.406  29.975  1.00  0.00    -0.014 A 
BRANCH  35  36
ATOM     36  C   UNL A   1      37.928  31.835  30.649  1.00  0.00     0.031 A 
ATOM     37  C   UNL A   1      38.740  30.769  29.966  1.00  0.00     0.074 A 
ATOM     38  C   UNL A   1      38.225  32.200  31.914  1.00  0.00     0.049 A 
ATOM     39  N   UNL A   1      39.714  30.034  30.440  1.00  0.00    -0.248 NA
ATOM     40  C   UNL A   1      38.381  30.466  28.573  1.00  0.00     0.031 C 
ATOM     41  C   UNL A   1      37.496  33.198  32.701  1.00  0.00     0.029 A 
ATOM     42  N   UNL A   1      39.205  31.759  32.770  1.00  0.00    -0.354 N 
ATOM     43  C   UNL A   1      40.068  29.165  29.413  1.00  0.00     0.074 A 
ATOM     44  C   UNL A   1      39.166  29.433  28.312  1.00  0.00     0.031 C 
ATOM     45  C   UNL A   1      38.060  33.301  33.914  1.00  0.00     0.029 A 
ATOM     46  C   UNL A   1      39.157  32.343  34.016  1.00  0.00     0.049 A 
ATOM     47  H   UNL A   1      39.879  31.089  32.516  1.00  0.00     0.167 HD
ATOM     48  C   UNL A   1      41.064  28.244  29.385  1.00  0.00     0.034 A 
ATOM     49  C   UNL A   1      39.895  32.118  35.122  1.00  0.00     0.034 A 
ATOM     50  C   UNL A   1      41.967  28.004  30.484  1.00  0.00     0.049 A 
ATOM     51  C   UNL A   1      40.985  31.077  35.075  1.00  0.00     0.074 A 
ATOM     52  C   UNL A   1      43.041  27.132  30.543  1.00  0.00     0.029 A 
ATOM     53  N   UNL A   1      41.900  28.632  31.721  1.00  0.00    -0.354 N 
ATOM     54  N   UNL A   1      41.329  30.287  34.084  1.00  0.00    -0.248 NA
ATOM     55  C   UNL A   1      41.791  30.903  36.291  1.00  0.00     0.031 C 
ATOM     56  C   UNL A   1      43.586  27.191  31.830  1.00  0.00     0.029 A 
ATOM     57  C   UNL A   1      42.899  28.151  32.555  1.00  0.00     0.049 A 
ATOM     58  H   UNL A   1      41.240  29.319  31.970  1.00  0.00     0.167 HD
ATOM     59  C   UNL A   1      42.417  29.551  34.546  1.00  0.00     0.074 A 
ATOM     60  C   UNL A   1      42.672  29.991  35.902  1.00  0.00     0.031 C 
ATOM     61  C   UNL A   1      43.144  28.602  33.904  1.00  0.00     0.034 A 
BRANCH  48  62
ATOM     62  C   UNL A   1      41.205  27.414  28.131  1.00  0.00     0.023 A 
ATOM     63  C   UNL A   1      40.817  26.063  28.093  1.00  0.00     0.031 A 
ATOM     64  C   UNL A   1      41.766  27.969  26.967  1.00  0.00     0.131 A 
ATOM     65  C   UNL A   1      41.070  25.292  26.949  1.00  0.00     0.055 A 
ATOM     66  C   UNL A   1      41.935  27.218  25.801  1.00  0.00     0.041 A 
ATOM     67  F   UNL A   1      42.173  29.248  26.946  1.00  0.00    -0.206 F 
ATOM     68  C   UNL A   1      41.603  25.867  25.793  1.00  0.00     0.022 A 
BRANCH  65  69
ATOM     69  S   UNL A   1      40.831  23.497  27.046  1.00  0.00     0.124 S 
ATOM     70  O   UNL A   1      41.376  23.199  28.369  1.00  0.00    -0.237 OA
ATOM     71  O   UNL A   1      39.386  23.363  26.906  1.00  0.00    -0.237 OA
ATOM     72  O   UNL A   1      41.618  22.985  25.926  1.00  0.00    -0.744 OA
ENDBRANCH  65  69
ENDBRANCH  48  62
BRANCH  49  73
ATOM     73  C   UNL A   1      39.625  32.877  36.377  1.00  0.00     0.023 A 
ATOM     74  C   UNL A   1      38.729  32.385  37.339  1.00  0.00     0.031 A 
ATOM     75  C   UNL A   1      40.230  34.123  36.616  1.00  0.00     0.131 A 
ATOM     76  C   UNL A   1      38.425  33.155  38.472  1.00  0.00     0.055 A 
ATOM     77  C   UNL A   1      39.965  34.864  37.770  1.00  0.00     0.041 A 
ATOM     78  F   UNL A   1      41.100  34.637  35.732  1.00  0.00    -0.206 F 
ATOM     79  C   UNL A   1      39.047  34.386  38.700  1.00  0.00     0.022 A 
BRANCH  76  80
ATOM     80  S   UNL A   1      37.143  32.562  39.608  1.00  0.00     0.124 S 
ATOM     81  O   UNL A   1      37.655  31.246  39.974  1.00  0.00    -0.237 OA
ATOM     82  O   UNL A   1      37.174  33.577  40.656  1.00  0.00    -0.237 OA
ATOM     83  O   UNL A   1      35.935  32.556  38.785  1.00  0.00    -0.744 OA
ENDBRANCH  76  80
ENDBRANCH  49  73
BRANCH  61  84
ATOM     84  C   UNL A   1      44.329  28.027  34.639  1.00  0.00     0.023 A 
ATOM     85  C   UNL A   1      44.233  26.853  35.406  1.00  0.00     0.031 A 
ATOM     86  C   UNL A   1      45.579  28.668  34.559  1.00  0.00     0.131 A 
ATOM     87  C   UNL A   1      45.359  26.379  36.098  1.00  0.00     0.055 A 
ATOM     88  C   UNL A   1      46.706  28.163  35.206  1.00  0.00     0.041 A 
ATOM     89  F   UNL A   1      45.725  29.793  33.841  1.00  0.00    -0.206 F 
ATOM     90  C   UNL A   1      46.598  27.016  35.989  1.00  0.00     0.022 A 
BRANCH  87  91
ATOM     91  S   UNL A   1      45.169  24.950  37.199  1.00  0.00     0.124 S 
ATOM     92  O   UNL A   1      44.654  23.931  36.291  1.00  0.00    -0.237 OA
ATOM     93  O   UNL A   1      46.531  24.745  37.681  1.00  0.00    -0.237 OA
ATOM     94  O   UNL A   1      44.221  25.419  38.209  1.00  0.00    -0.744 OA
ENDBRANCH  87  91
ENDBRANCH  61  84
ENDBRANCH  35  36
ENDBRANCH  27  30
ENDBRANCH  25  26
ENDBRANCH   1  25
TORSDOF 17
ENDMDL
MODEL 2
REMARK VINA RESULT:     -11.8      1.591      7.720
REMARK SMILES Cc1cc(F)cc(N[C@H](C(=O)NCCCCNC(=O)c2ccc(-c3c4nc(c(-c5cc(S(=O)(=O)[O-])ccc5F)c5ccc([nH]5)c(-c5cc(S(=O)(=O)[O-])ccc5F)c5nc(c(-c6cc(S(=O)(=O)[O-])ccc6F)c6ccc3[nH]6)C=C5)C=C4)cc2)c2cc(Br)cs2)c1
REMARK SMILES IDX 15 1 14 2 13 3 12 4 10 5 11 6 9 8 8 9 7 11 1 12 2 13 3 14
REMARK SMILES IDX 89 15 4 16 5 17 6 18 83 19 84 20 88 21 85 22 87 23 86 24
REMARK SMILES IDX 16 25 17 26 18 27 19 29 20 30 21 31 82 32 22 33 81 34 23 35
REMARK SMILES IDX 24 36 25 37 75 38 26 39 80 40 74 41 76 42 27 43 79 44 73 45
REMARK SMILES IDX 72 46 28 48 60 49 40 50 59 51 41 52 44 53 58 54 77 55 42 56
REMARK SMILES IDX 43 57 57 59 78 60 45 61 29 62 30 63 38 64 31 65 37 66 39 67
REMARK SMILES IDX 36 68 32 69 33 70 34 71 35 72 61 73 62 74 70 75 63 76 69 77
REMARK SMILES IDX 71 78 68 79 64 80 65 81 66 82 67 83 46 84 47 85 55 86 48 87
REMARK SMILES IDX 54 88 56 89 53 90 49 91 50 92 51 93 52 94
REMARK H PARENT 12 7 8 10 17 28 76 47 44 58
REMARK Flexibility Score: inf
ROOT
ATOM      1  C   UNL A   1      31.073  31.927  26.059  1.00  0.00     0.023 C 
ENDROOT
BRANCH   1   2
ATOM      2  C   UNL A   1      31.187  30.556  25.391  1.00  0.00     0.023 C 
BRANCH   2   3
ATOM      3  C   UNL A   1      32.426  29.738  25.748  1.00  0.00     0.116 C 
BRANCH   3   4
ATOM      4  N   UNL A   1      33.364  29.587  24.654  1.00  0.00    -0.354 N 
ATOM      5  C   UNL A   1      33.292  28.773  23.547  1.00  0.00     0.247 C 
ATOM      6  O   UNL A   1      34.218  28.922  22.741  1.00  0.00    -0.272 OA
ATOM      7  H   UNL A   1      34.171  30.147  24.710  1.00  0.00     0.163 HD
BRANCH   5   8
ATOM      8  C   UNL A   1      32.196  27.646  23.403  1.00  0.00     0.210 C 
BRANCH   8   9
ATOM      9  N   UNL A   1      31.278  27.898  22.276  1.00  0.00    -0.369 N 
ATOM     10  H   UNL A   1      31.512  27.479  21.415  1.00  0.00     0.161 HD
BRANCH   9  11
ATOM     11  C   UNL A   1      30.125  28.660  22.298  1.00  0.00     0.038 A 
ATOM     12  C   UNL A   1      26.573  28.212  23.650  1.00  0.00     0.044 C 
ATOM     13  C   UNL A   1      27.776  28.826  23.002  1.00  0.00    -0.046 A 
ATOM     14  C   UNL A   1      27.709  30.109  22.460  1.00  0.00     0.042 A 
ATOM     15  C   UNL A   1      28.977  28.108  22.895  1.00  0.00     0.029 A 
ATOM     16  C   UNL A   1      28.841  30.670  21.888  1.00  0.00     0.125 A 
ATOM     17  F   UNL A   1      28.776  31.906  21.375  1.00  0.00    -0.207 F 
ATOM     18  C   UNL A   1      30.045  29.974  21.834  1.00  0.00     0.065 A 
ENDBRANCH   9  11
ENDBRANCH   8   9
BRANCH   8  19
ATOM     19  C   UNL A   1      32.764  26.216  23.452  1.00  0.00     0.038 A 
ATOM     20  C   UNL A   1      33.926  25.709  24.014  1.00  0.00     0.033 A 
ATOM     21  S   UNL A   1      31.853  24.918  22.737  1.00  0.00    -0.145 S 
ATOM     22  C   UNL A   1      34.148  24.351  23.670  1.00  0.00     0.029 A 
ATOM     23  C   UNL A   1      33.133  23.805  22.931  1.00  0.00     0.080 A 
ATOM     24  Br  UNL A   1      35.720  23.437  24.169  1.00  0.00    -0.050 Br
ENDBRANCH   8  19
ENDBRANCH   5   8
ENDBRANCH   3   4
ENDBRANCH   2   3
ENDBRANCH   1   2
BRANCH   1  25
ATOM     25  C   UNL A   1      32.016  32.190  27.232  1.00  0.00     0.116 C 
BRANCH  25  26
ATOM     26  N   UNL A   1      32.393  33.589  27.371  1.00  0.00    -0.352 N 
ATOM     27  C   UNL A   1      33.535  34.153  27.897  1.00  0.00     0.251 C 
ATOM     28  H   UNL A   1      31.728  34.233  27.036  1.00  0.00     0.163 HD
ATOM     29  O   UNL A   1      33.608  35.370  28.019  1.00  0.00    -0.269 OA
BRANCH  27  30
ATOM     30  C   UNL A   1      34.650  33.290  28.351  1.00  0.00     0.039 A 
ATOM     31  C   UNL A   1      35.960  33.769  28.260  1.00  0.00     0.014 A 
ATOM     32  C   UNL A   1      34.407  32.024  28.888  1.00  0.00     0.014 A 
ATOM     33  C   UNL A   1      37.012  33.023  28.803  1.00  0.00     0.010 A 
ATOM     34  C   UNL A   1      35.443  31.320  29.496  1.00  0.00     0.010 A 
ATOM     35  C   UNL A   1      36.756  31.818  29.477  1.00  0.00    -0.014 A 
BRANCH  35  36
ATOM     36  C   UNL A   1      37.829  31.069  30.185  1.00  0.00     0.031 A 
ATOM     37  C   UNL A   1      38.149  31.387  31.620  1.00  0.00     0.074 A 
ATOM     38  C   UNL A   1      38.584  30.177  29.510  1.00  0.00     0.049 A 
ATOM     39  N   UNL A   1      39.141  30.968  32.364  1.00  0.00    -0.248 NA
ATOM     40  C   UNL A   1      37.248  32.332  32.296  1.00  0.00     0.031 C 
ATOM     41  C   UNL A   1      38.400  29.804  28.105  1.00  0.00     0.029 A 
ATOM     42  N   UNL A   1      39.672  29.437  29.906  1.00  0.00    -0.354 N 
ATOM     43  C   UNL A   1      38.999  31.617  33.586  1.00  0.00     0.074 A 
ATOM     44  C   UNL A   1      37.855  32.495  33.461  1.00  0.00     0.031 C 
ATOM     45  C   UNL A   1      39.331  28.899  27.764  1.00  0.00     0.029 A 
ATOM     46  C   UNL A   1      40.213  28.664  28.903  1.00  0.00     0.049 A 
ATOM     47  H   UNL A   1      40.031  29.457  30.823  1.00  0.00     0.167 HD
ATOM     48  C   UNL A   1      39.743  31.478  34.712  1.00  0.00     0.034 A 
ATOM     49  C   UNL A   1      41.306  27.874  28.894  1.00  0.00     0.034 A 
ATOM     50  C   UNL A   1      40.869  30.583  34.827  1.00  0.00     0.049 A 
ATOM     51  C   UNL A   1      42.128  27.748  30.151  1.00  0.00     0.074 A 
ATOM     52  C   UNL A   1      41.658  30.327  35.935  1.00  0.00     0.029 A 
ATOM     53  N   UNL A   1      41.371  29.800  33.795  1.00  0.00    -0.354 N 
ATOM     54  N   UNL A   1      41.961  28.343  31.310  1.00  0.00    -0.248 NA
ATOM     55  C   UNL A   1      43.281  26.840  30.103  1.00  0.00     0.031 C 
ATOM     56  C   UNL A   1      42.670  29.437  35.559  1.00  0.00     0.029 A 
ATOM     57  C   UNL A   1      42.471  29.079  34.236  1.00  0.00     0.049 A 
ATOM     58  H   UNL A   1      41.000  29.762  32.884  1.00  0.00     0.167 HD
ATOM     59  C   UNL A   1      42.965  27.849  32.138  1.00  0.00     0.074 A 
ATOM     60  C   UNL A   1      43.731  26.908  31.348  1.00  0.00     0.031 C 
ATOM     61  C   UNL A   1      43.224  28.141  33.438  1.00  0.00     0.034 A 
BRANCH  48  62
ATOM     62  C   UNL A   1      39.372  32.336  35.898  1.00  0.00     0.023 A 
ATOM     63  C   UNL A   1      39.965  33.593  36.114  1.00  0.00     0.031 A 
ATOM     64  C   UNL A   1      38.437  31.881  36.845  1.00  0.00     0.131 A 
ATOM     65  C   UNL A   1      39.682  34.311  37.286  1.00  0.00     0.055 A 
ATOM     66  C   UNL A   1      38.094  32.640  37.966  1.00  0.00     0.041 A 
ATOM     67  F   UNL A   1      37.850  30.682  36.704  1.00  0.00    -0.206 F 
ATOM     68  C   UNL A   1      38.731  33.855  38.201  1.00  0.00     0.022 A 
BRANCH  65  69
ATOM     69  S   UNL A   1      40.686  35.772  37.667  1.00  0.00     0.124 S 
ATOM     70  O   UNL A   1      39.660  36.802  37.815  1.00  0.00    -0.237 OA
ATOM     71  O   UNL A   1      41.372  35.374  38.890  1.00  0.00    -0.237 OA
ATOM     72  O   UNL A   1      41.540  35.918  36.490  1.00  0.00    -0.744 OA
ENDBRANCH  65  69
ENDBRANCH  48  62
BRANCH  49  73
ATOM     73  C   UNL A   1      41.702  27.149  27.653  1.00  0.00     0.023 A 
ATOM     74  C   UNL A   1      41.565  25.755  27.557  1.00  0.00     0.031 A 
ATOM     75  C   UNL A   1      42.261  27.833  26.559  1.00  0.00     0.131 A 
ATOM     76  C   UNL A   1      42.023  25.084  26.412  1.00  0.00     0.055 A 
ATOM     77  C   UNL A   1      42.669  27.168  25.401  1.00  0.00     0.041 A 
ATOM     78  F   UNL A   1      42.409  29.168  26.596  1.00  0.00    -0.206 F 
ATOM     79  C   UNL A   1      42.562  25.782  25.329  1.00  0.00     0.022 A 
BRANCH  76  80
ATOM     80  S   UNL A   1      41.977  23.271  26.392  1.00  0.00     0.124 S 
ATOM     81  O   UNL A   1      40.543  23.009  26.418  1.00  0.00    -0.237 OA
ATOM     82  O   UNL A   1      42.663  22.965  25.141  1.00  0.00    -0.237 OA
ATOM     83  O   UNL A   1      42.703  22.899  27.606  1.00  0.00    -0.744 OA
ENDBRANCH  76  80
ENDBRANCH  49  73
BRANCH  61  84
ATOM     84  C   UNL A   1      44.343  27.382  34.105  1.00  0.00     0.023 A 
ATOM     85  C   UNL A   1      44.181  26.063  34.563  1.00  0.00     0.031 A 
ATOM     86  C   UNL A   1      45.598  27.995  34.276  1.00  0.00     0.131 A 
ATOM     87  C   UNL A   1      45.246  25.413  35.208  1.00  0.00     0.055 A 
ATOM     88  C   UNL A   1      46.668  27.325  34.870  1.00  0.00     0.041 A 
ATOM     89  F   UNL A   1      45.806  29.253  33.857  1.00  0.00    -0.206 F 
ATOM     90  C   UNL A   1      46.492  26.030  35.349  1.00  0.00     0.022 A 
BRANCH  87  91
ATOM     91  S   UNL A   1      44.962  23.771  35.923  1.00  0.00     0.124 S 
ATOM     92  O   UNL A   1      45.235  24.003  37.338  1.00  0.00    -0.237 OA
ATOM     93  O   UNL A   1      43.568  23.516  35.577  1.00  0.00    -0.237 OA
ATOM     94  O   UNL A   1      45.935  22.924  35.235  1.00  0.00    -0.744 OA
ENDBRANCH  87  91
ENDBRANCH  61  84
ENDBRANCH  35  36
ENDBRANCH  27  30
ENDBRANCH  25  26
ENDBRANCH   1  25
TORSDOF 17
ENDMDL
MODEL 3
REMARK VINA RESULT:     -11.8      1.994      2.323
REMARK SMILES Cc1cc(F)cc(N[C@H](C(=O)NCCCCNC(=O)c2ccc(-c3c4nc(c(-c5cc(S(=O)(=O)[O-])ccc5F)c5ccc([nH]5)c(-c5cc(S(=O)(=O)[O-])ccc5F)c5nc(c(-c6cc(S(=O)(=O)[O-])ccc6F)c6ccc3[nH]6)C=C5)C=C4)cc2)c2cc(Br)cs2)c1
REMARK SMILES IDX 15 1 14 2 13 3 12 4 10 5 11 6 9 8 8 9 7 11 1 12 2 13 3 14
REMARK SMILES IDX 89 15 4 16 5 17 6 18 83 19 84 20 88 21 85 22 87 23 86 24
REMARK SMILES IDX 16 25 17 26 18 27 19 29 20 30 21 31 82 32 22 33 81 34 23 35
REMARK SMILES IDX 24 36 25 37 75 38 26 39 80 40 74 41 76 42 27 43 79 44 73 45
REMARK SMILES IDX 72 46 28 48 60 49 40 50 59 51 41 52 44 53 58 54 77 55 42 56
REMARK SMILES IDX 43 57 57 59 78 60 45 61 29 62 30 63 38 64 31 65 37 66 39 67
REMARK SMILES IDX 36 68 32 69 33 70 34 71 35 72 61 73 62 74 70 75 63 76 69 77
REMARK SMILES IDX 71 78 68 79 64 80 65 81 66 82 67 83 46 84 47 85 55 86 48 87
REMARK SMILES IDX 54 88 56 89 53 90 49 91 50 92 51 93 52 94
REMARK H PARENT 12 7 8 10 17 28 76 47 44 58
REMARK Flexibility Score: inf
ROOT
ATOM      1  C   UNL A   1      32.051  30.926  26.925  1.00  0.00     0.023 C 
ENDROOT
BRANCH   1   2
ATOM      2  C   UNL A   1      32.132  30.105  25.637  1.00  0.00     0.023 C 
BRANCH   2   3
ATOM      3  C   UNL A   1      33.350  29.193  25.500  1.00  0.00     0.116 C 
BRANCH   3   4
ATOM      4  N   UNL A   1      33.863  29.101  24.148  1.00  0.00    -0.354 N 
ATOM      5  C   UNL A   1      33.356  28.422  23.065  1.00  0.00     0.247 C 
ATOM      6  O   UNL A   1      33.981  28.596  22.012  1.00  0.00    -0.272 OA
ATOM      7  H   UNL A   1      34.696  29.597  23.979  1.00  0.00     0.163 HD
BRANCH   5   8
ATOM      8  C   UNL A   1      32.165  27.393  23.201  1.00  0.00     0.210 C 
BRANCH   8   9
ATOM      9  N   UNL A   1      31.080  27.662  22.238  1.00  0.00    -0.369 N 
ATOM     10  H   UNL A   1      31.182  27.272  21.339  1.00  0.00     0.161 HD
BRANCH   9  11
ATOM     11  C   UNL A   1      29.936  28.405  22.462  1.00  0.00     0.038 A 
ATOM     12  C   UNL A   1      28.786  31.967  21.662  1.00  0.00     0.044 C 
ATOM     13  C   UNL A   1      28.780  30.553  22.157  1.00  0.00    -0.046 A 
ATOM     14  C   UNL A   1      27.659  30.036  22.805  1.00  0.00     0.042 A 
ATOM     15  C   UNL A   1      29.914  29.738  22.012  1.00  0.00     0.029 A 
ATOM     16  C   UNL A   1      27.664  28.717  23.233  1.00  0.00     0.125 A 
ATOM     17  F   UNL A   1      26.583  28.220  23.849  1.00  0.00    -0.207 F 
ATOM     18  C   UNL A   1      28.772  27.897  23.038  1.00  0.00     0.065 A 
ENDBRANCH   9  11
ENDBRANCH   8   9
BRANCH   8  19
ATOM     19  C   UNL A   1      32.616  25.923  23.254  1.00  0.00     0.038 A 
ATOM     20  C   UNL A   1      33.840  25.349  23.567  1.00  0.00     0.033 A 
ATOM     21  S   UNL A   1      31.460  24.668  22.915  1.00  0.00    -0.145 S 
ATOM     22  C   UNL A   1      33.865  23.953  23.318  1.00  0.00     0.029 A 
ATOM     23  C   UNL A   1      32.659  23.454  22.905  1.00  0.00     0.080 A 
ATOM     24  Br  UNL A   1      35.437  22.930  23.512  1.00  0.00    -0.050 Br
ENDBRANCH   8  19
ENDBRANCH   5   8
ENDBRANCH   3   4
ENDBRANCH   2   3
ENDBRANCH   1   2
BRANCH   1  25
ATOM     25  C   UNL A   1      33.241  31.835  27.226  1.00  0.00     0.116 C 
BRANCH  25  26
ATOM     26  N   UNL A   1      32.865  33.220  27.472  1.00  0.00    -0.352 N 
ATOM     27  C   UNL A   1      33.368  34.127  28.380  1.00  0.00     0.251 C 
ATOM     28  H   UNL A   1      32.140  33.560  26.902  1.00  0.00     0.163 HD
ATOM     29  O   UNL A   1      32.831  35.222  28.500  1.00  0.00    -0.269 OA
BRANCH  27  30
ATOM     30  C   UNL A   1      34.522  33.764  29.235  1.00  0.00     0.039 A 
ATOM     31  C   UNL A   1      34.314  32.927  30.336  1.00  0.00     0.014 A 
ATOM     32  C   UNL A   1      35.807  34.225  28.943  1.00  0.00     0.014 A 
ATOM     33  C   UNL A   1      35.408  32.469  31.077  1.00  0.00     0.010 A 
ATOM     34  C   UNL A   1      36.901  33.707  29.633  1.00  0.00     0.010 A 
ATOM     35  C   UNL A   1      36.717  32.809  30.697  1.00  0.00    -0.014 A 
BRANCH  35  36
ATOM     36  C   UNL A   1      37.909  32.231  31.375  1.00  0.00     0.031 A 
ATOM     37  C   UNL A   1      38.671  31.106  30.729  1.00  0.00     0.074 A 
ATOM     38  C   UNL A   1      38.245  32.646  32.615  1.00  0.00     0.049 A 
ATOM     39  N   UNL A   1      39.630  30.363  31.219  1.00  0.00    -0.248 NA
ATOM     40  C   UNL A   1      38.274  30.749  29.359  1.00  0.00     0.031 C 
ATOM     41  C   UNL A   1      37.565  33.705  33.365  1.00  0.00     0.029 A 
ATOM     42  N   UNL A   1      39.226  32.214  33.472  1.00  0.00    -0.354 N 
ATOM     43  C   UNL A   1      39.934  29.434  30.229  1.00  0.00     0.074 A 
ATOM     44  C   UNL A   1      39.018  29.678  29.134  1.00  0.00     0.031 C 
ATOM     45  C   UNL A   1      38.158  33.847  34.561  1.00  0.00     0.029 A 
ATOM     46  C   UNL A   1      39.224  32.858  34.689  1.00  0.00     0.049 A 
ATOM     47  H   UNL A   1      39.873  31.509  33.238  1.00  0.00     0.167 HD
ATOM     48  C   UNL A   1      40.898  28.479  30.228  1.00  0.00     0.034 A 
ATOM     49  C   UNL A   1      39.977  32.661  35.790  1.00  0.00     0.034 A 
ATOM     50  C   UNL A   1      41.815  28.261  31.320  1.00  0.00     0.049 A 
ATOM     51  C   UNL A   1      41.031  31.584  35.773  1.00  0.00     0.074 A 
ATOM     52  C   UNL A   1      42.861  27.358  31.400  1.00  0.00     0.029 A 
ATOM     53  N   UNL A   1      41.794  28.950  32.526  1.00  0.00    -0.354 N 
ATOM     54  N   UNL A   1      41.328  30.735  34.816  1.00  0.00    -0.248 NA
ATOM     55  C   UNL A   1      41.855  31.440  36.980  1.00  0.00     0.031 C 
ATOM     56  C   UNL A   1      43.434  27.459  32.672  1.00  0.00     0.029 A 
ATOM     57  C   UNL A   1      42.794  28.476  33.362  1.00  0.00     0.049 A 
ATOM     58  H   UNL A   1      41.163  29.670  32.753  1.00  0.00     0.167 HD
ATOM     59  C   UNL A   1      42.400  29.986  35.292  1.00  0.00     0.074 A 
ATOM     60  C   UNL A   1      42.697  30.482  36.619  1.00  0.00     0.031 C 
ATOM     61  C   UNL A   1      43.082  28.983  34.683  1.00  0.00     0.034 A 
BRANCH  48  62
ATOM     62  C   UNL A   1      40.986  27.585  29.013  1.00  0.00     0.023 A 
ATOM     63  C   UNL A   1      41.995  27.749  28.048  1.00  0.00     0.031 A 
ATOM     64  C   UNL A   1      40.029  26.577  28.798  1.00  0.00     0.131 A 
ATOM     65  C   UNL A   1      41.977  26.977  26.877  1.00  0.00     0.055 A 
ATOM     66  C   UNL A   1      40.068  25.753  27.672  1.00  0.00     0.041 A 
ATOM     67  F   UNL A   1      39.031  26.384  29.675  1.00  0.00    -0.206 F 
ATOM     68  C   UNL A   1      41.036  25.962  26.693  1.00  0.00     0.022 A 
BRANCH  65  69
ATOM     69  S   UNL A   1      43.111  27.421  25.532  1.00  0.00     0.124 S 
ATOM     70  O   UNL A   1      44.132  28.183  26.248  1.00  0.00    -0.237 OA
ATOM     71  O   UNL A   1      43.524  26.119  25.025  1.00  0.00    -0.237 OA
ATOM     72  O   UNL A   1      42.277  28.209  24.627  1.00  0.00    -0.744 OA
ENDBRANCH  65  69
ENDBRANCH  48  62
BRANCH  49  73
ATOM     73  C   UNL A   1      39.759  33.489  37.012  1.00  0.00     0.023 A 
ATOM     74  C   UNL A   1      40.552  34.618  37.269  1.00  0.00     0.031 A 
ATOM     75  C   UNL A   1      38.781  33.140  37.960  1.00  0.00     0.131 A 
ATOM     76  C   UNL A   1      40.386  35.333  38.465  1.00  0.00     0.055 A 
ATOM     77  C   UNL A   1      38.584  33.883  39.125  1.00  0.00     0.041 A 
ATOM     78  F   UNL A   1      37.991  32.073  37.760  1.00  0.00    -0.206 F 
ATOM     79  C   UNL A   1      39.399  34.980  39.389  1.00  0.00     0.022 A 
BRANCH  76  80
ATOM     80  S   UNL A   1      41.535  36.686  38.836  1.00  0.00     0.124 S 
ATOM     81  O   UNL A   1      40.660  37.646  39.500  1.00  0.00    -0.237 OA
ATOM     82  O   UNL A   1      42.520  36.022  39.683  1.00  0.00    -0.237 OA
ATOM     83  O   UNL A   1      42.020  37.091  37.518  1.00  0.00    -0.744 OA
ENDBRANCH  76  80
ENDBRANCH  49  73
BRANCH  61  84
ATOM     84  C   UNL A   1      44.262  28.404  35.422  1.00  0.00     0.023 A 
ATOM     85  C   UNL A   1      44.155  27.241  36.204  1.00  0.00     0.031 A 
ATOM     86  C   UNL A   1      45.519  29.030  35.331  1.00  0.00     0.131 A 
ATOM     87  C   UNL A   1      45.277  26.763  36.900  1.00  0.00     0.055 A 
ATOM     88  C   UNL A   1      46.643  28.520  35.982  1.00  0.00     0.041 A 
ATOM     89  F   UNL A   1      45.676  30.143  34.598  1.00  0.00    -0.206 F 
ATOM     90  C   UNL A   1      46.523  27.385  36.780  1.00  0.00     0.022 A 
BRANCH  87  91
ATOM     91  S   UNL A   1      45.075  25.351  38.020  1.00  0.00     0.124 S 
ATOM     92  O   UNL A   1      46.199  24.500  37.644  1.00  0.00    -0.237 OA
ATOM     93  O   UNL A   1      45.162  25.980  39.334  1.00  0.00    -0.237 OA
ATOM     94  O   UNL A   1      43.755  24.825  37.674  1.00  0.00    -0.744 OA
ENDBRANCH  87  91
ENDBRANCH  61  84
ENDBRANCH  35  36
ENDBRANCH  27  30
ENDBRANCH  25  26
ENDBRANCH   1  25
TORSDOF 17
ENDMDL
