MODEL 1
REMARK VINA RESULT:     -10.4      0.000      0.000
REMARK SMILES O=C(NCCCCNC(=O)c1ccc(-c2c3nc(c(-c4cc(S(=O)(=O)[O-])ccc4F)c4ccc([nH]4)c(-c4cc(S(=O)(=O)[O-])ccc4F)c4nc(c(-c5cc(S(=O)(=O)[O-])ccc5F)c5ccc2[nH]5)C=C4)C=C3)cc1)C1=Cc2cc(Cl)cc(C#Cc3ccccc3)c2O[C@@H]1C(F)(F)F
REMARK SMILES IDX 6 1 5 2 4 3 3 4 1 5 2 6 74 8 75 9 92 10 76 11 91 12 77 13
REMARK SMILES IDX 90 14 78 15 81 16 79 17 80 18 93 19 94 20 95 21 96 22 82 23
REMARK SMILES IDX 83 24 84 25 85 26 89 27 86 28 88 29 87 30 7 31 8 32 9 33
REMARK SMILES IDX 10 35 11 36 12 37 73 38 13 39 72 40 14 41 15 42 16 43 66 44
REMARK SMILES IDX 17 45 71 46 65 47 67 48 18 49 70 50 64 51 63 52 19 54 51 55
REMARK SMILES IDX 31 56 50 57 32 58 35 59 49 60 68 61 33 62 34 63 48 65 69 66
REMARK SMILES IDX 36 67 20 68 21 69 29 70 22 71 28 72 30 73 27 74 23 75 24 76
REMARK SMILES IDX 25 77 26 78 52 79 53 80 61 81 54 82 60 83 62 84 59 85 55 86
REMARK SMILES IDX 56 87 57 88 58 89 37 90 38 91 46 92 39 93 45 94 47 95 44 96
REMARK SMILES IDX 40 97 41 98 42 99 43 100
REMARK H PARENT 3 7 8 34 67 53 35 64
REMARK Flexibility Score: inf
ROOT
ATOM      1  C   UNL A   1      48.562  26.324  24.136  1.00  0.00     0.023 C 
ENDROOT
BRANCH   1   2
ATOM      2  C   UNL A   1      47.353  27.228  23.947  1.00  0.00     0.023 C 
BRANCH   2   3
ATOM      3  C   UNL A   1      46.447  27.329  25.168  1.00  0.00     0.116 C 
BRANCH   3   4
ATOM      4  N   UNL A   1      45.024  27.183  24.926  1.00  0.00    -0.352 N 
ATOM      5  O   UNL A   1      42.997  26.229  25.108  1.00  0.00    -0.270 OA
ATOM      6  C   UNL A   1      44.219  26.090  25.097  1.00  0.00     0.251 C 
ATOM      7  H   UNL A   1      44.571  27.990  24.590  1.00  0.00     0.163 HD
BRANCH   6   8
ATOM      8  C   UNL A   1      44.768  24.726  25.363  1.00  0.00     0.067 C 
ATOM      9  C   UNL A   1      45.384  24.409  26.516  1.00  0.00     0.025 C 
ATOM     10  C   UNL A   1      44.029  23.637  24.625  1.00  0.00     0.314 C 
ATOM     11  C   UNL A   1      44.564  23.480  27.347  1.00  0.00     0.020 A 
ATOM     12  O   UNL A   1      43.045  23.012  25.492  1.00  0.00    -0.474 OA
ATOM     13  C   UNL A   1      44.813  23.486  28.726  1.00  0.00     0.032 A 
ATOM     14  C   UNL A   1      43.328  23.011  26.841  1.00  0.00     0.143 A 
ATOM     15  C   UNL A   1      43.789  23.136  29.602  1.00  0.00     0.043 A 
ATOM     16  C   UNL A   1      42.280  22.743  27.739  1.00  0.00     0.069 A 
ATOM     17  Cl  UNL A   1      44.033  23.326  31.295  1.00  0.00    -0.084 Cl
ATOM     18  C   UNL A   1      42.524  22.793  29.120  1.00  0.00     0.041 A 
BRANCH  10  19
ATOM     19  C   UNL A   1      45.006  22.628  23.995  1.00  0.00     0.429 C 
ATOM     20  F   UNL A   1      46.240  23.158  23.825  1.00  0.00    -0.167 F 
ATOM     21  F   UNL A   1      45.156  21.529  24.776  1.00  0.00    -0.167 F 
ATOM     22  F   UNL A   1      44.591  22.187  22.782  1.00  0.00    -0.167 F 
ENDBRANCH  10  19
BRANCH  16  23
ATOM     23  C   UNL A   1      40.907  22.699  27.300  1.00  0.00    -0.058 C 
ATOM     24  C   UNL A   1      39.820  22.643  26.793  1.00  0.00    -0.062 C 
BRANCH  24  25
ATOM     25  C   UNL A   1      38.548  22.648  26.121  1.00  0.00     0.025 A 
ATOM     26  C   UNL A   1      38.115  21.498  25.458  1.00  0.00     0.017 A 
ATOM     27  C   UNL A   1      37.705  23.763  26.170  1.00  0.00     0.017 A 
ATOM     28  C   UNL A   1      36.839  21.448  24.891  1.00  0.00     0.001 A 
ATOM     29  C   UNL A   1      36.418  23.704  25.622  1.00  0.00     0.001 A 
ATOM     30  C   UNL A   1      35.982  22.543  24.993  1.00  0.00     0.000 A 
ENDBRANCH  24  25
ENDBRANCH  16  23
ENDBRANCH   6   8
ENDBRANCH   3   4
ENDBRANCH   2   3
ENDBRANCH   1   2
BRANCH   1  31
ATOM     31  C   UNL A   1      49.804  26.988  24.731  1.00  0.00     0.116 C 
BRANCH  31  32
ATOM     32  N   UNL A   1      50.837  26.052  25.168  1.00  0.00    -0.352 N 
ATOM     33  C   UNL A   1      51.061  25.553  26.439  1.00  0.00     0.251 C 
ATOM     34  H   UNL A   1      51.455  25.737  24.468  1.00  0.00     0.163 HD
ATOM     35  O   UNL A   1      52.020  24.828  26.674  1.00  0.00    -0.269 OA
BRANCH  33  36
ATOM     36  C   UNL A   1      50.116  25.932  27.512  1.00  0.00     0.039 A 
ATOM     37  C   UNL A   1      50.337  27.063  28.296  1.00  0.00     0.014 A 
ATOM     38  C   UNL A   1      48.921  25.226  27.614  1.00  0.00     0.014 A 
ATOM     39  C   UNL A   1      49.293  27.556  29.092  1.00  0.00     0.010 A 
ATOM     40  C   UNL A   1      47.853  25.787  28.299  1.00  0.00     0.010 A 
ATOM     41  C   UNL A   1      48.019  26.964  29.042  1.00  0.00    -0.014 A 
BRANCH  41  42
ATOM     42  C   UNL A   1      46.820  27.557  29.702  1.00  0.00     0.031 A 
ATOM     43  C   UNL A   1      46.192  28.807  29.134  1.00  0.00     0.074 A 
ATOM     44  C   UNL A   1      46.398  27.064  30.887  1.00  0.00     0.049 A 
ATOM     45  N   UNL A   1      45.241  29.553  29.633  1.00  0.00    -0.248 NA
ATOM     46  C   UNL A   1      46.739  29.311  27.862  1.00  0.00     0.031 C 
ATOM     47  C   UNL A   1      46.984  25.915  31.585  1.00  0.00     0.029 A 
ATOM     48  N   UNL A   1      45.398  27.480  31.733  1.00  0.00    -0.354 N 
ATOM     49  C   UNL A   1      45.094  30.621  28.753  1.00  0.00     0.074 A 
ATOM     50  C   UNL A   1      46.097  30.462  27.724  1.00  0.00     0.031 C 
ATOM     51  C   UNL A   1      46.318  25.705  32.732  1.00  0.00     0.029 A 
ATOM     52  C   UNL A   1      45.293  26.731  32.887  1.00  0.00     0.049 A 
ATOM     53  H   UNL A   1      44.810  28.244  31.534  1.00  0.00     0.167 HD
ATOM     54  C   UNL A   1      44.191  31.630  28.790  1.00  0.00     0.034 A 
ATOM     55  C   UNL A   1      44.475  26.864  33.952  1.00  0.00     0.034 A 
ATOM     56  C   UNL A   1      43.174  31.752  29.804  1.00  0.00     0.049 A 
ATOM     57  C   UNL A   1      43.468  27.992  33.957  1.00  0.00     0.074 A 
ATOM     58  C   UNL A   1      42.139  32.668  29.873  1.00  0.00     0.029 A 
ATOM     59  N   UNL A   1      43.070  30.947  30.929  1.00  0.00    -0.354 N 
ATOM     60  N   UNL A   1      43.277  28.931  33.058  1.00  0.00    -0.248 NA
ATOM     61  C   UNL A   1      42.558  28.072  35.108  1.00  0.00     0.031 C 
ATOM     62  C   UNL A   1      41.467  32.476  31.082  1.00  0.00     0.029 A 
ATOM     63  C   UNL A   1      42.014  31.373  31.717  1.00  0.00     0.049 A 
ATOM     64  H   UNL A   1      43.658  30.185  31.137  1.00  0.00     0.167 HD
ATOM     65  C   UNL A   1      42.190  29.674  33.514  1.00  0.00     0.074 A 
ATOM     66  C   UNL A   1      41.766  29.074  34.759  1.00  0.00     0.031 C 
ATOM     67  C   UNL A   1      41.592  30.752  32.950  1.00  0.00     0.034 A 
BRANCH  54  68
ATOM     68  C   UNL A   1      44.250  32.689  27.716  1.00  0.00     0.023 A 
ATOM     69  C   UNL A   1      44.748  33.978  27.969  1.00  0.00     0.031 A 
ATOM     70  C   UNL A   1      43.853  32.383  26.402  1.00  0.00     0.131 A 
ATOM     71  C   UNL A   1      44.799  34.925  26.934  1.00  0.00     0.055 A 
ATOM     72  C   UNL A   1      43.978  33.304  25.360  1.00  0.00     0.041 A 
ATOM     73  F   UNL A   1      43.345  31.176  26.104  1.00  0.00    -0.206 F 
ATOM     74  C   UNL A   1      44.447  34.587  25.625  1.00  0.00     0.022 A 
BRANCH  71  75
ATOM     75  S   UNL A   1      45.237  36.636  27.343  1.00  0.00     0.124 S 
ATOM     76  O   UNL A   1      46.455  36.822  26.560  1.00  0.00    -0.237 OA
ATOM     77  O   UNL A   1      44.067  37.379  26.893  1.00  0.00    -0.237 OA
ATOM     78  O   UNL A   1      45.436  36.601  28.791  1.00  0.00    -0.744 OA
ENDBRANCH  71  75
ENDBRANCH  54  68
BRANCH  55  79
ATOM     79  C   UNL A   1      44.556  25.922  35.111  1.00  0.00     0.023 A 
ATOM     80  C   UNL A   1      45.400  26.196  36.200  1.00  0.00     0.031 A 
ATOM     81  C   UNL A   1      43.868  24.696  35.110  1.00  0.00     0.131 A 
ATOM     82  C   UNL A   1      45.604  25.225  37.193  1.00  0.00     0.055 A 
ATOM     83  C   UNL A   1      44.012  23.765  36.143  1.00  0.00     0.041 A 
ATOM     84  F   UNL A   1      43.044  24.378  34.099  1.00  0.00    -0.206 F 
ATOM     85  C   UNL A   1      44.903  24.018  37.181  1.00  0.00     0.022 A 
BRANCH  82  86
ATOM     86  S   UNL A   1      46.920  25.500  38.412  1.00  0.00     0.124 S 
ATOM     87  O   UNL A   1      46.241  25.155  39.657  1.00  0.00    -0.237 OA
ATOM     88  O   UNL A   1      47.947  24.569  37.962  1.00  0.00    -0.237 OA
ATOM     89  O   UNL A   1      47.244  26.915  38.248  1.00  0.00    -0.744 OA
ENDBRANCH  82  86
ENDBRANCH  55  79
BRANCH  67  90
ATOM     90  C   UNL A   1      40.361  31.305  33.627  1.00  0.00     0.023 A 
ATOM     91  C   UNL A   1      40.401  32.458  34.427  1.00  0.00     0.031 A 
ATOM     92  C   UNL A   1      39.120  30.669  33.441  1.00  0.00     0.131 A 
ATOM     93  C   UNL A   1      39.229  32.915  35.049  1.00  0.00     0.055 A 
ATOM     94  C   UNL A   1      37.946  31.167  34.006  1.00  0.00     0.041 A 
ATOM     95  F   UNL A   1      39.025  29.560  32.689  1.00  0.00    -0.206 F 
ATOM     96  C   UNL A   1      37.999  32.291  34.824  1.00  0.00     0.022 A 
BRANCH  93  97
ATOM     97  S   UNL A   1      39.346  34.291  36.223  1.00  0.00     0.124 S 
ATOM     98  O   UNL A   1      38.197  34.050  37.089  1.00  0.00    -0.237 OA
ATOM     99  O   UNL A   1      40.657  34.077  36.828  1.00  0.00    -0.237 OA
ATOM    100  O   UNL A   1      39.244  35.476  35.373  1.00  0.00    -0.744 OA
ENDBRANCH  93  97
ENDBRANCH  67  90
ENDBRANCH  41  42
ENDBRANCH  33  36
ENDBRANCH  31  32
ENDBRANCH   1  31
TORSDOF 17
ENDMDL
MODEL 2
REMARK VINA RESULT:     -10.3      4.071      8.993
REMARK SMILES O=C(NCCCCNC(=O)c1ccc(-c2c3nc(c(-c4cc(S(=O)(=O)[O-])ccc4F)c4ccc([nH]4)c(-c4cc(S(=O)(=O)[O-])ccc4F)c4nc(c(-c5cc(S(=O)(=O)[O-])ccc5F)c5ccc2[nH]5)C=C4)C=C3)cc1)C1=Cc2cc(Cl)cc(C#Cc3ccccc3)c2O[C@@H]1C(F)(F)F
REMARK SMILES IDX 6 1 5 2 4 3 3 4 1 5 2 6 74 8 75 9 92 10 76 11 91 12 77 13
REMARK SMILES IDX 90 14 78 15 81 16 79 17 80 18 93 19 94 20 95 21 96 22 82 23
REMARK SMILES IDX 83 24 84 25 85 26 89 27 86 28 88 29 87 30 7 31 8 32 9 33
REMARK SMILES IDX 10 35 11 36 12 37 73 38 13 39 72 40 14 41 15 42 16 43 66 44
REMARK SMILES IDX 17 45 71 46 65 47 67 48 18 49 70 50 64 51 63 52 19 54 51 55
REMARK SMILES IDX 31 56 50 57 32 58 35 59 49 60 68 61 33 62 34 63 48 65 69 66
REMARK SMILES IDX 36 67 20 68 21 69 29 70 22 71 28 72 30 73 27 74 23 75 24 76
REMARK SMILES IDX 25 77 26 78 52 79 53 80 61 81 54 82 60 83 62 84 59 85 55 86
REMARK SMILES IDX 56 87 57 88 58 89 37 90 38 91 46 92 39 93 45 94 47 95 44 96
REMARK SMILES IDX 40 97 41 98 42 99 43 100
REMARK H PARENT 3 7 8 34 67 53 35 64
REMARK Flexibility Score: inf
ROOT
ATOM      1  C   UNL A   1      42.379  21.255  27.445  1.00  0.00     0.023 C 
ENDROOT
BRANCH   1   2
ATOM      2  C   UNL A   1      43.492  21.692  26.503  1.00  0.00     0.023 C 
BRANCH   2   3
ATOM      3  C   UNL A   1      43.008  22.176  25.142  1.00  0.00     0.116 C 
BRANCH   3   4
ATOM      4  N   UNL A   1      42.825  23.608  24.998  1.00  0.00    -0.352 N 
ATOM      5  O   UNL A   1      43.467  25.740  24.690  1.00  0.00    -0.270 OA
ATOM      6  C   UNL A   1      43.739  24.620  25.119  1.00  0.00     0.251 C 
ATOM      7  H   UNL A   1      41.909  23.894  24.780  1.00  0.00     0.163 HD
BRANCH   6   8
ATOM      8  C   UNL A   1      45.106  24.400  25.678  1.00  0.00     0.067 C 
ATOM      9  C   UNL A   1      46.186  24.222  24.894  1.00  0.00     0.025 C 
ATOM     10  C   UNL A   1      45.302  25.041  27.029  1.00  0.00     0.314 C 
ATOM     11  C   UNL A   1      47.111  25.392  24.949  1.00  0.00     0.020 A 
ATOM     12  O   UNL A   1      45.963  26.327  26.893  1.00  0.00    -0.474 OA
ATOM     13  C   UNL A   1      47.953  25.577  23.845  1.00  0.00     0.032 A 
ATOM     14  C   UNL A   1      46.805  26.473  25.811  1.00  0.00     0.143 A 
ATOM     15  C   UNL A   1      48.395  26.861  23.537  1.00  0.00     0.043 A 
ATOM     16  C   UNL A   1      47.189  27.772  25.438  1.00  0.00     0.069 A 
ATOM     17  Cl  UNL A   1      49.270  27.117  22.077  1.00  0.00    -0.084 Cl
ATOM     18  C   UNL A   1      47.997  27.956  24.306  1.00  0.00     0.041 A 
BRANCH  10  19
ATOM     19  C   UNL A   1      46.029  24.089  27.998  1.00  0.00     0.429 C 
ATOM     20  F   UNL A   1      46.403  22.939  27.391  1.00  0.00    -0.167 F 
ATOM     21  F   UNL A   1      47.158  24.655  28.495  1.00  0.00    -0.167 F 
ATOM     22  F   UNL A   1      45.266  23.748  29.065  1.00  0.00    -0.167 F 
ENDBRANCH  10  19
BRANCH  16  23
ATOM     23  C   UNL A   1      46.551  28.935  26.004  1.00  0.00    -0.058 C 
ATOM     24  C   UNL A   1      46.141  29.984  26.422  1.00  0.00    -0.062 C 
BRANCH  24  25
ATOM     25  C   UNL A   1      45.740  31.253  26.969  1.00  0.00     0.025 A 
ATOM     26  C   UNL A   1      44.382  31.554  27.086  1.00  0.00     0.017 A 
ATOM     27  C   UNL A   1      46.683  32.169  27.446  1.00  0.00     0.017 A 
ATOM     28  C   UNL A   1      43.972  32.734  27.712  1.00  0.00     0.001 A 
ATOM     29  C   UNL A   1      46.271  33.340  28.093  1.00  0.00     0.001 A 
ATOM     30  C   UNL A   1      44.915  33.616  28.235  1.00  0.00     0.000 A 
ENDBRANCH  24  25
ENDBRANCH  16  23
ENDBRANCH   6   8
ENDBRANCH   3   4
ENDBRANCH   2   3
ENDBRANCH   1   2
BRANCH   1  31
ATOM     31  C   UNL A   1      41.254  22.267  27.661  1.00  0.00     0.116 C 
BRANCH  31  32
ATOM     32  N   UNL A   1      40.077  22.049  26.824  1.00  0.00    -0.352 N 
ATOM     33  C   UNL A   1      39.077  22.949  26.499  1.00  0.00     0.251 C 
ATOM     34  H   UNL A   1      39.982  21.146  26.442  1.00  0.00     0.163 HD
ATOM     35  O   UNL A   1      38.103  22.601  25.842  1.00  0.00    -0.269 OA
BRANCH  33  36
ATOM     36  C   UNL A   1      39.209  24.341  26.980  1.00  0.00     0.039 A 
ATOM     37  C   UNL A   1      38.858  24.685  28.285  1.00  0.00     0.014 A 
ATOM     38  C   UNL A   1      39.843  25.265  26.154  1.00  0.00     0.014 A 
ATOM     39  C   UNL A   1      39.264  25.925  28.796  1.00  0.00     0.010 A 
ATOM     40  C   UNL A   1      40.354  26.432  26.701  1.00  0.00     0.010 A 
ATOM     41  C   UNL A   1      40.081  26.778  28.032  1.00  0.00    -0.014 A 
BRANCH  41  42
ATOM     42  C   UNL A   1      40.713  28.010  28.585  1.00  0.00     0.031 A 
ATOM     43  C   UNL A   1      42.177  28.001  28.954  1.00  0.00     0.074 A 
ATOM     44  C   UNL A   1      39.943  29.075  28.896  1.00  0.00     0.049 A 
ATOM     45  N   UNL A   1      42.878  28.914  29.575  1.00  0.00    -0.248 NA
ATOM     46  C   UNL A   1      42.942  26.784  28.627  1.00  0.00     0.031 C 
ATOM     47  C   UNL A   1      38.496  29.169  28.672  1.00  0.00     0.029 A 
ATOM     48  N   UNL A   1      40.255  30.273  29.492  1.00  0.00    -0.354 N 
ATOM     49  C   UNL A   1      44.151  28.376  29.733  1.00  0.00     0.074 A 
ATOM     50  C   UNL A   1      44.110  27.032  29.202  1.00  0.00     0.031 C 
ATOM     51  C   UNL A   1      38.057  30.364  29.099  1.00  0.00     0.029 A 
ATOM     52  C   UNL A   1      39.172  31.106  29.678  1.00  0.00     0.049 A 
ATOM     53  H   UNL A   1      41.170  30.515  29.763  1.00  0.00     0.167 HD
ATOM     54  C   UNL A   1      45.258  28.958  30.253  1.00  0.00     0.034 A 
ATOM     55  C   UNL A   1      39.083  32.320  30.260  1.00  0.00     0.034 A 
ATOM     56  C   UNL A   1      45.290  30.312  30.744  1.00  0.00     0.049 A 
ATOM     57  C   UNL A   1      40.339  32.950  30.819  1.00  0.00     0.074 A 
ATOM     58  C   UNL A   1      46.382  31.038  31.186  1.00  0.00     0.029 A 
ATOM     59  N   UNL A   1      44.184  31.140  30.871  1.00  0.00    -0.354 N 
ATOM     60  N   UNL A   1      41.558  32.462  30.861  1.00  0.00    -0.248 NA
ATOM     61  C   UNL A   1      40.214  34.296  31.396  1.00  0.00     0.031 C 
ATOM     62  C   UNL A   1      45.925  32.267  31.665  1.00  0.00     0.029 A 
ATOM     63  C   UNL A   1      44.563  32.352  31.424  1.00  0.00     0.049 A 
ATOM     64  H   UNL A   1      43.265  30.902  30.608  1.00  0.00     0.167 HD
ATOM     65  C   UNL A   1      42.348  33.465  31.417  1.00  0.00     0.074 A 
ATOM     66  C   UNL A   1      41.473  34.584  31.689  1.00  0.00     0.031 C 
ATOM     67  C   UNL A   1      43.680  33.465  31.673  1.00  0.00     0.034 A 
BRANCH  54  68
ATOM     68  C   UNL A   1      46.529  28.147  30.330  1.00  0.00     0.023 A 
ATOM     69  C   UNL A   1      47.584  28.328  29.420  1.00  0.00     0.031 A 
ATOM     70  C   UNL A   1      46.709  27.215  31.370  1.00  0.00     0.131 A 
ATOM     71  C   UNL A   1      48.753  27.561  29.542  1.00  0.00     0.055 A 
ATOM     72  C   UNL A   1      47.904  26.512  31.532  1.00  0.00     0.041 A 
ATOM     73  F   UNL A   1      45.727  26.981  32.255  1.00  0.00    -0.206 F 
ATOM     74  C   UNL A   1      48.933  26.678  30.610  1.00  0.00     0.022 A 
BRANCH  71  75
ATOM     75  S   UNL A   1      49.998  27.662  28.228  1.00  0.00     0.124 S 
ATOM     76  O   UNL A   1      49.733  26.436  27.479  1.00  0.00    -0.237 OA
ATOM     77  O   UNL A   1      49.650  28.909  27.557  1.00  0.00    -0.237 OA
ATOM     78  O   UNL A   1      51.265  27.676  28.956  1.00  0.00    -0.744 OA
ENDBRANCH  71  75
ENDBRANCH  54  68
BRANCH  55  79
ATOM     79  C   UNL A   1      37.774  33.037  30.357  1.00  0.00     0.023 A 
ATOM     80  C   UNL A   1      37.091  33.119  31.583  1.00  0.00     0.031 A 
ATOM     81  C   UNL A   1      37.142  33.569  29.220  1.00  0.00     0.131 A 
ATOM     82  C   UNL A   1      35.786  33.635  31.626  1.00  0.00     0.055 A 
ATOM     83  C   UNL A   1      35.875  34.156  29.284  1.00  0.00     0.041 A 
ATOM     84  F   UNL A   1      37.745  33.524  28.022  1.00  0.00    -0.206 F 
ATOM     85  C   UNL A   1      35.179  34.169  30.489  1.00  0.00     0.022 A 
BRANCH  82  86
ATOM     86  S   UNL A   1      34.836  33.449  33.161  1.00  0.00     0.124 S 
ATOM     87  O   UNL A   1      35.776  32.710  33.998  1.00  0.00    -0.237 OA
ATOM     88  O   UNL A   1      34.596  34.838  33.537  1.00  0.00    -0.237 OA
ATOM     89  O   UNL A   1      33.653  32.703  32.739  1.00  0.00    -0.744 OA
ENDBRANCH  82  86
ENDBRANCH  55  79
BRANCH  67  90
ATOM     90  C   UNL A   1      44.292  34.740  32.200  1.00  0.00     0.023 A 
ATOM     91  C   UNL A   1      44.716  35.774  31.350  1.00  0.00     0.031 A 
ATOM     92  C   UNL A   1      44.426  34.926  33.589  1.00  0.00     0.131 A 
ATOM     93  C   UNL A   1      45.296  36.929  31.895  1.00  0.00     0.055 A 
ATOM     94  C   UNL A   1      44.940  36.105  34.127  1.00  0.00     0.041 A 
ATOM     95  F   UNL A   1      44.040  33.968  34.447  1.00  0.00    -0.206 F 
ATOM     96  C   UNL A   1      45.389  37.111  33.277  1.00  0.00     0.022 A 
BRANCH  93  97
ATOM     97  S   UNL A   1      46.005  38.162  30.769  1.00  0.00     0.124 S 
ATOM     98  O   UNL A   1      44.889  39.086  30.590  1.00  0.00    -0.237 OA
ATOM     99  O   UNL A   1      47.138  38.671  31.535  1.00  0.00    -0.237 OA
ATOM    100  O   UNL A   1      46.359  37.381  29.585  1.00  0.00    -0.744 OA
ENDBRANCH  93  97
ENDBRANCH  67  90
ENDBRANCH  41  42
ENDBRANCH  33  36
ENDBRANCH  31  32
ENDBRANCH   1  31
TORSDOF 17
ENDMDL
MODEL 3
REMARK VINA RESULT:     -10.2      5.315     10.270
REMARK SMILES O=C(NCCCCNC(=O)c1ccc(-c2c3nc(c(-c4cc(S(=O)(=O)[O-])ccc4F)c4ccc([nH]4)c(-c4cc(S(=O)(=O)[O-])ccc4F)c4nc(c(-c5cc(S(=O)(=O)[O-])ccc5F)c5ccc2[nH]5)C=C4)C=C3)cc1)C1=Cc2cc(Cl)cc(C#Cc3ccccc3)c2O[C@@H]1C(F)(F)F
REMARK SMILES IDX 6 1 5 2 4 3 3 4 1 5 2 6 74 8 75 9 92 10 76 11 91 12 77 13
REMARK SMILES IDX 90 14 78 15 81 16 79 17 80 18 93 19 94 20 95 21 96 22 82 23
REMARK SMILES IDX 83 24 84 25 85 26 89 27 86 28 88 29 87 30 7 31 8 32 9 33
REMARK SMILES IDX 10 35 11 36 12 37 73 38 13 39 72 40 14 41 15 42 16 43 66 44
REMARK SMILES IDX 17 45 71 46 65 47 67 48 18 49 70 50 64 51 63 52 19 54 51 55
REMARK SMILES IDX 31 56 50 57 32 58 35 59 49 60 68 61 33 62 34 63 48 65 69 66
REMARK SMILES IDX 36 67 20 68 21 69 29 70 22 71 28 72 30 73 27 74 23 75 24 76
REMARK SMILES IDX 25 77 26 78 52 79 53 80 61 81 54 82 60 83 62 84 59 85 55 86
REMARK SMILES IDX 56 87 57 88 58 89 37 90 38 91 46 92 39 93 45 94 47 95 44 96
REMARK SMILES IDX 40 97 41 98 42 99 43 100
REMARK H PARENT 3 7 8 34 67 53 35 64
REMARK Flexibility Score: inf
ROOT
ATOM      1  C   UNL A   1      39.234  22.303  26.730  1.00  0.00     0.023 C 
ENDROOT
BRANCH   1   2
ATOM      2  C   UNL A   1      38.529  23.633  26.507  1.00  0.00     0.023 C 
BRANCH   2   3
ATOM      3  C   UNL A   1      37.202  23.524  25.768  1.00  0.00     0.116 C 
BRANCH   3   4
ATOM      4  N   UNL A   1      36.367  24.710  25.768  1.00  0.00    -0.352 N 
ATOM      5  O   UNL A   1      34.438  25.863  25.770  1.00  0.00    -0.270 OA
ATOM      6  C   UNL A   1      35.044  24.844  25.444  1.00  0.00     0.251 C 
ATOM      7  H   UNL A   1      36.818  25.540  26.042  1.00  0.00     0.163 HD
BRANCH   6   8
ATOM      8  C   UNL A   1      34.269  23.753  24.781  1.00  0.00     0.067 C 
ATOM      9  C   UNL A   1      33.547  22.855  25.477  1.00  0.00     0.025 C 
ATOM     10  C   UNL A   1      33.808  24.116  23.391  1.00  0.00     0.314 C 
ATOM     11  C   UNL A   1      32.080  23.058  25.293  1.00  0.00     0.020 A 
ATOM     12  O   UNL A   1      32.432  24.581  23.415  1.00  0.00    -0.474 OA
ATOM     13  C   UNL A   1      31.248  22.577  26.311  1.00  0.00     0.032 A 
ATOM     14  C   UNL A   1      31.630  24.072  24.414  1.00  0.00     0.143 A 
ATOM     15  C   UNL A   1      30.015  23.187  26.525  1.00  0.00     0.043 A 
ATOM     16  C   UNL A   1      30.422  24.732  24.695  1.00  0.00     0.069 A 
ATOM     17  Cl  UNL A   1      29.077  22.724  27.892  1.00  0.00    -0.084 Cl
ATOM     18  C   UNL A   1      29.612  24.273  25.745  1.00  0.00     0.041 A 
BRANCH  10  19
ATOM     19  C   UNL A   1      34.036  22.954  22.407  1.00  0.00     0.429 C 
ATOM     20  F   UNL A   1      35.334  22.579  22.359  1.00  0.00    -0.167 F 
ATOM     21  F   UNL A   1      33.324  21.855  22.764  1.00  0.00    -0.167 F 
ATOM     22  F   UNL A   1      33.662  23.262  21.140  1.00  0.00    -0.167 F 
ENDBRANCH  10  19
BRANCH  16  23
ATOM     23  C   UNL A   1      30.124  26.027  24.136  1.00  0.00    -0.058 C 
ATOM     24  C   UNL A   1      29.748  27.102  23.754  1.00  0.00    -0.062 C 
BRANCH  24  25
ATOM     25  C   UNL A   1      29.208  28.345  23.270  1.00  0.00     0.025 A 
ATOM     26  C   UNL A   1      27.827  28.488  23.130  1.00  0.00     0.017 A 
ATOM     27  C   UNL A   1      30.037  29.438  22.996  1.00  0.00     0.017 A 
ATOM     28  C   UNL A   1      27.278  29.721  22.765  1.00  0.00     0.001 A 
ATOM     29  C   UNL A   1      29.485  30.678  22.652  1.00  0.00     0.001 A 
ATOM     30  C   UNL A   1      28.105  30.821  22.548  1.00  0.00     0.000 A 
ENDBRANCH  24  25
ENDBRANCH  16  23
ENDBRANCH   6   8
ENDBRANCH   3   4
ENDBRANCH   2   3
ENDBRANCH   1   2
BRANCH   1  31
ATOM     31  C   UNL A   1      39.308  21.376  25.517  1.00  0.00     0.116 C 
BRANCH  31  32
ATOM     32  N   UNL A   1      39.920  20.078  25.785  1.00  0.00    -0.352 N 
ATOM     33  C   UNL A   1      41.233  19.803  26.127  1.00  0.00     0.251 C 
ATOM     34  H   UNL A   1      39.324  19.297  25.713  1.00  0.00     0.163 HD
ATOM     35  O   UNL A   1      41.625  18.649  26.250  1.00  0.00    -0.269 OA
BRANCH  33  36
ATOM     36  C   UNL A   1      42.154  20.942  26.326  1.00  0.00     0.039 A 
ATOM     37  C   UNL A   1      42.521  21.762  25.259  1.00  0.00     0.014 A 
ATOM     38  C   UNL A   1      42.518  21.275  27.627  1.00  0.00     0.014 A 
ATOM     39  C   UNL A   1      43.147  22.988  25.525  1.00  0.00     0.010 A 
ATOM     40  C   UNL A   1      43.017  22.541  27.894  1.00  0.00     0.010 A 
ATOM     41  C   UNL A   1      43.332  23.421  26.849  1.00  0.00    -0.014 A 
BRANCH  41  42
ATOM     42  C   UNL A   1      43.802  24.792  27.200  1.00  0.00     0.031 A 
ATOM     43  C   UNL A   1      42.823  25.802  27.749  1.00  0.00     0.074 A 
ATOM     44  C   UNL A   1      45.058  25.170  26.880  1.00  0.00     0.049 A 
ATOM     45  N   UNL A   1      42.997  27.078  27.982  1.00  0.00    -0.248 NA
ATOM     46  C   UNL A   1      41.456  25.327  28.028  1.00  0.00     0.031 C 
ATOM     47  C   UNL A   1      46.071  24.310  26.259  1.00  0.00     0.029 A 
ATOM     48  N   UNL A   1      45.697  26.381  27.004  1.00  0.00    -0.354 N 
ATOM     49  C   UNL A   1      41.762  27.559  28.407  1.00  0.00     0.074 A 
ATOM     50  C   UNL A   1      40.832  26.454  28.339  1.00  0.00     0.031 C 
ATOM     51  C   UNL A   1      47.203  25.011  26.082  1.00  0.00     0.029 A 
ATOM     52  C   UNL A   1      46.990  26.384  26.524  1.00  0.00     0.049 A 
ATOM     53  H   UNL A   1      45.269  27.175  27.400  1.00  0.00     0.167 HD
ATOM     54  C   UNL A   1      41.440  28.803  28.836  1.00  0.00     0.034 A 
ATOM     55  C   UNL A   1      47.895  27.381  26.437  1.00  0.00     0.034 A 
ATOM     56  C   UNL A   1      42.389  29.883  28.932  1.00  0.00     0.049 A 
ATOM     57  C   UNL A   1      47.511  28.756  26.937  1.00  0.00     0.074 A 
ATOM     58  C   UNL A   1      42.197  31.148  29.459  1.00  0.00     0.029 A 
ATOM     59  N   UNL A   1      43.701  29.833  28.482  1.00  0.00    -0.354 N 
ATOM     60  N   UNL A   1      46.365  29.161  27.436  1.00  0.00    -0.248 NA
ATOM     61  C   UNL A   1      48.539  29.803  26.877  1.00  0.00     0.031 C 
ATOM     62  C   UNL A   1      43.360  31.891  29.245  1.00  0.00     0.029 A 
ATOM     63  C   UNL A   1      44.314  31.059  28.681  1.00  0.00     0.049 A 
ATOM     64  H   UNL A   1      44.132  29.044  28.080  1.00  0.00     0.167 HD
ATOM     65  C   UNL A   1      46.559  30.492  27.797  1.00  0.00     0.074 A 
ATOM     66  C   UNL A   1      47.928  30.819  27.466  1.00  0.00     0.031 C 
ATOM     67  C   UNL A   1      45.687  31.364  28.360  1.00  0.00     0.034 A 
BRANCH  54  68
ATOM     68  C   UNL A   1      40.010  29.080  29.231  1.00  0.00     0.023 A 
ATOM     69  C   UNL A   1      39.607  29.140  30.576  1.00  0.00     0.031 A 
ATOM     70  C   UNL A   1      39.044  29.345  28.243  1.00  0.00     0.131 A 
ATOM     71  C   UNL A   1      38.269  29.417  30.894  1.00  0.00     0.055 A 
ATOM     72  C   UNL A   1      37.733  29.697  28.568  1.00  0.00     0.041 A 
ATOM     73  F   UNL A   1      39.363  29.279  26.940  1.00  0.00    -0.206 F 
ATOM     74  C   UNL A   1      37.337  29.727  29.901  1.00  0.00     0.022 A 
BRANCH  71  75
ATOM     75  S   UNL A   1      37.740  29.268  32.622  1.00  0.00     0.124 S 
ATOM     76  O   UNL A   1      38.769  30.040  33.312  1.00  0.00    -0.237 OA
ATOM     77  O   UNL A   1      36.407  29.859  32.597  1.00  0.00    -0.237 OA
ATOM     78  O   UNL A   1      37.781  27.828  32.870  1.00  0.00    -0.744 OA
ENDBRANCH  71  75
ENDBRANCH  54  68
BRANCH  55  79
ATOM     79  C   UNL A   1      49.253  27.144  25.858  1.00  0.00     0.023 A 
ATOM     80  C   UNL A   1      49.544  27.518  24.535  1.00  0.00     0.031 A 
ATOM     81  C   UNL A   1      50.250  26.463  26.578  1.00  0.00     0.131 A 
ATOM     82  C   UNL A   1      50.757  27.131  23.946  1.00  0.00     0.055 A 
ATOM     83  C   UNL A   1      51.489  26.150  26.012  1.00  0.00     0.041 A 
ATOM     84  F   UNL A   1      50.033  26.082  27.847  1.00  0.00    -0.206 F 
ATOM     85  C   UNL A   1      51.739  26.464  24.680  1.00  0.00     0.022 A 
BRANCH  82  86
ATOM     86  S   UNL A   1      50.965  27.373  22.159  1.00  0.00     0.124 S 
ATOM     87  O   UNL A   1      50.957  28.829  22.059  1.00  0.00    -0.237 OA
ATOM     88  O   UNL A   1      52.246  26.719  21.914  1.00  0.00    -0.237 OA
ATOM     89  O   UNL A   1      49.801  26.700  21.588  1.00  0.00    -0.744 OA
ENDBRANCH  82  86
ENDBRANCH  55  79
BRANCH  67  90
ATOM     90  C   UNL A   1      46.206  32.732  28.732  1.00  0.00     0.023 A 
ATOM     91  C   UNL A   1      46.081  33.838  27.876  1.00  0.00     0.031 A 
ATOM     92  C   UNL A   1      46.816  32.928  29.985  1.00  0.00     0.131 A 
ATOM     93  C   UNL A   1      46.600  35.082  28.266  1.00  0.00     0.055 A 
ATOM     94  C   UNL A   1      47.268  34.182  30.394  1.00  0.00     0.041 A 
ATOM     95  F   UNL A   1      46.965  31.904  30.841  1.00  0.00    -0.206 F 
ATOM     96  C   UNL A   1      47.171  35.266  29.528  1.00  0.00     0.022 A 
BRANCH  93  97
ATOM     97  S   UNL A   1      46.593  36.443  27.068  1.00  0.00     0.124 S 
ATOM     98  O   UNL A   1      47.248  37.511  27.817  1.00  0.00    -0.237 OA
ATOM     99  O   UNL A   1      47.353  35.885  25.955  1.00  0.00    -0.237 OA
ATOM    100  O   UNL A   1      45.171  36.656  26.801  1.00  0.00    -0.744 OA
ENDBRANCH  93  97
ENDBRANCH  67  90
ENDBRANCH  41  42
ENDBRANCH  33  36
ENDBRANCH  31  32
ENDBRANCH   1  31
TORSDOF 17
ENDMDL
