MODEL 1
REMARK VINA RESULT:     -11.8      0.000      0.000
REMARK SMILES CC(=O)N[C@@]1(C(=O)NCCCCNC(=O)c2ccc(-c3c4nc(c(-c5cc(S(=O)(=O)[O-])ccc5F)c5ccc([nH]5)c(-c5cc(S(=O)(=O)[O-])ccc5F)c5nc(c(-c6cc(S(=O)(=O)[O-])ccc6F)c6ccc3[nH]6)C=C5)C=C4)cc2)CCCc2ccccc21
REMARK SMILES IDX 11 1 10 2 9 3 8 4 6 5 7 6 5 8 79 9 87 10 80 11 82 12 86 13
REMARK SMILES IDX 81 14 83 15 85 16 84 17 4 18 1 19 2 20 3 21 12 23 13 24
REMARK SMILES IDX 14 25 15 27 16 28 17 29 78 30 18 31 77 32 19 33 20 34 21 35
REMARK SMILES IDX 71 36 22 37 76 38 70 39 72 40 23 41 75 42 69 43 68 44 24 46
REMARK SMILES IDX 56 47 36 48 55 49 37 50 40 51 54 52 73 53 38 54 39 55 53 57
REMARK SMILES IDX 74 58 41 59 25 60 26 61 34 62 27 63 33 64 35 65 32 66 28 67
REMARK SMILES IDX 29 68 30 69 31 70 57 71 58 72 66 73 59 74 65 75 67 76 64 77
REMARK SMILES IDX 60 78 61 79 62 80 63 81 42 82 43 83 51 84 44 85 50 86 52 87
REMARK SMILES IDX 49 88 45 89 46 90 47 91 48 92
REMARK H PARENT 8 7 4 22 13 26 72 45 40 56
REMARK Flexibility Score: inf
ROOT
ATOM      1  C   UNL A   1      33.418  28.481  25.012  1.00  0.00     0.023 C 
ENDROOT
BRANCH   1   2
ATOM      2  C   UNL A   1      33.899  27.162  24.408  1.00  0.00     0.023 C 
BRANCH   2   3
ATOM      3  C   UNL A   1      32.874  26.025  24.445  1.00  0.00     0.116 C 
BRANCH   3   4
ATOM      4  N   UNL A   1      33.187  25.017  23.447  1.00  0.00    -0.354 N 
ATOM      5  C   UNL A   1      33.749  23.772  23.571  1.00  0.00     0.250 C 
ATOM      6  O   UNL A   1      34.163  23.266  22.523  1.00  0.00    -0.272 OA
ATOM      7  H   UNL A   1      32.955  25.270  22.523  1.00  0.00     0.163 HD
BRANCH   5   8
ATOM      8  C   UNL A   1      33.888  23.059  24.987  1.00  0.00     0.144 C 
ATOM      9  C   UNL A   1      35.230  23.485  25.631  1.00  0.00     0.044 C 
ATOM     10  C   UNL A   1      33.821  21.529  24.796  1.00  0.00    -0.010 A 
ATOM     11  C   UNL A   1      36.414  22.771  24.993  1.00  0.00     0.008 C 
ATOM     12  C   UNL A   1      34.971  20.716  24.923  1.00  0.00    -0.042 A 
ATOM     13  C   UNL A   1      32.617  20.918  24.389  1.00  0.00     0.007 A 
ATOM     14  C   UNL A   1      36.313  21.285  25.306  1.00  0.00     0.036 C 
ATOM     15  C   UNL A   1      34.879  19.333  24.700  1.00  0.00     0.004 A 
ATOM     16  C   UNL A   1      32.549  19.548  24.138  1.00  0.00     0.000 A 
ATOM     17  C   UNL A   1      33.678  18.753  24.303  1.00  0.00     0.000 A 
BRANCH   8  18
ATOM     18  N   UNL A   1      32.698  23.528  25.746  1.00  0.00    -0.338 N 
ATOM     19  C   UNL A   1      33.018  22.525  27.996  1.00  0.00     0.114 C 
ATOM     20  C   UNL A   1      32.209  23.277  26.983  1.00  0.00     0.217 C 
ATOM     21  O   UNL A   1      31.102  23.734  27.274  1.00  0.00    -0.275 OA
ATOM     22  H   UNL A   1      32.144  24.161  25.236  1.00  0.00     0.164 HD
ENDBRANCH   8  18
ENDBRANCH   5   8
ENDBRANCH   3   4
ENDBRANCH   2   3
ENDBRANCH   1   2
BRANCH   1  23
ATOM     23  C   UNL A   1      34.224  28.975  26.206  1.00  0.00     0.116 C 
BRANCH  23  24
ATOM     24  N   UNL A   1      33.810  30.291  26.668  1.00  0.00    -0.352 N 
ATOM     25  C   UNL A   1      34.391  31.087  27.626  1.00  0.00     0.251 C 
ATOM     26  H   UNL A   1      33.006  30.661  26.236  1.00  0.00     0.163 HD
ATOM     27  O   UNL A   1      33.838  32.119  27.981  1.00  0.00    -0.269 OA
BRANCH  25  28
ATOM     28  C   UNL A   1      35.664  30.658  28.247  1.00  0.00     0.039 A 
ATOM     29  C   UNL A   1      35.619  29.825  29.367  1.00  0.00     0.014 A 
ATOM     30  C   UNL A   1      36.892  31.047  27.706  1.00  0.00     0.014 A 
ATOM     31  C   UNL A   1      36.807  29.321  29.901  1.00  0.00     0.010 A 
ATOM     32  C   UNL A   1      38.069  30.488  28.195  1.00  0.00     0.010 A 
ATOM     33  C   UNL A   1      38.038  29.617  29.295  1.00  0.00    -0.014 A 
BRANCH  33  34
ATOM     34  C   UNL A   1      39.307  29.029  29.796  1.00  0.00     0.031 A 
ATOM     35  C   UNL A   1      40.034  29.681  30.941  1.00  0.00     0.074 A 
ATOM     36  C   UNL A   1      39.839  27.960  29.170  1.00  0.00     0.049 A 
ATOM     37  N   UNL A   1      41.194  29.378  31.463  1.00  0.00    -0.248 NA
ATOM     38  C   UNL A   1      39.384  30.848  31.560  1.00  0.00     0.031 C 
ATOM     39  C   UNL A   1      39.247  27.271  28.019  1.00  0.00     0.029 A 
ATOM     40  N   UNL A   1      41.003  27.270  29.402  1.00  0.00    -0.354 N 
ATOM     41  C   UNL A   1      41.426  30.330  32.451  1.00  0.00     0.074 A 
ATOM     42  C   UNL A   1      40.305  31.244  32.425  1.00  0.00     0.031 C 
ATOM     43  C   UNL A   1      40.043  26.251  27.659  1.00  0.00     0.029 A 
ATOM     44  C   UNL A   1      41.221  26.236  28.520  1.00  0.00     0.049 A 
ATOM     45  H   UNL A   1      41.625  27.495  30.131  1.00  0.00     0.167 HD
ATOM     46  C   UNL A   1      42.471  30.420  33.309  1.00  0.00     0.034 A 
ATOM     47  C   UNL A   1      42.259  25.382  28.410  1.00  0.00     0.034 A 
ATOM     48  C   UNL A   1      43.559  29.476  33.348  1.00  0.00     0.049 A 
ATOM     49  C   UNL A   1      43.404  25.503  29.387  1.00  0.00     0.074 A 
ATOM     50  C   UNL A   1      44.618  29.422  34.239  1.00  0.00     0.029 A 
ATOM     51  N   UNL A   1      43.734  28.426  32.458  1.00  0.00    -0.354 N 
ATOM     52  N   UNL A   1      43.567  26.363  30.366  1.00  0.00    -0.248 NA
ATOM     53  C   UNL A   1      44.497  24.531  29.252  1.00  0.00     0.031 C 
ATOM     54  C   UNL A   1      45.465  28.379  33.847  1.00  0.00     0.029 A 
ATOM     55  C   UNL A   1      44.900  27.738  32.757  1.00  0.00     0.049 A 
ATOM     56  H   UNL A   1      43.121  28.203  31.721  1.00  0.00     0.167 HD
ATOM     57  C   UNL A   1      44.762  26.008  30.985  1.00  0.00     0.074 A 
ATOM     58  C   UNL A   1      45.269  24.849  30.280  1.00  0.00     0.031 C 
ATOM     59  C   UNL A   1      45.385  26.582  32.045  1.00  0.00     0.034 A 
BRANCH  46  60
ATOM     60  C   UNL A   1      42.501  31.590  34.260  1.00  0.00     0.023 A 
ATOM     61  C   UNL A   1      41.885  31.540  35.521  1.00  0.00     0.031 A 
ATOM     62  C   UNL A   1      43.171  32.774  33.899  1.00  0.00     0.131 A 
ATOM     63  C   UNL A   1      41.903  32.669  36.353  1.00  0.00     0.055 A 
ATOM     64  C   UNL A   1      43.246  33.868  34.761  1.00  0.00     0.041 A 
ATOM     65  F   UNL A   1      43.760  32.885  32.698  1.00  0.00    -0.206 F 
ATOM     66  C   UNL A   1      42.601  33.824  35.993  1.00  0.00     0.022 A 
BRANCH  63  67
ATOM     67  S   UNL A   1      40.915  32.643  37.874  1.00  0.00     0.124 S 
ATOM     68  O   UNL A   1      40.771  34.070  38.155  1.00  0.00    -0.237 OA
ATOM     69  O   UNL A   1      39.703  31.950  37.453  1.00  0.00    -0.237 OA
ATOM     70  O   UNL A   1      41.758  31.911  38.818  1.00  0.00    -0.744 OA
ENDBRANCH  63  67
ENDBRANCH  46  60
BRANCH  47  71
ATOM     71  C   UNL A   1      42.290  24.344  27.339  1.00  0.00     0.023 A 
ATOM     72  C   UNL A   1      41.673  23.097  27.526  1.00  0.00     0.031 A 
ATOM     73  C   UNL A   1      43.004  24.552  26.145  1.00  0.00     0.131 A 
ATOM     74  C   UNL A   1      41.839  22.082  26.571  1.00  0.00     0.055 A 
ATOM     75  C   UNL A   1      43.115  23.558  25.169  1.00  0.00     0.041 A 
ATOM     76  F   UNL A   1      43.609  25.727  25.910  1.00  0.00    -0.206 F 
ATOM     77  C   UNL A   1      42.546  22.307  25.388  1.00  0.00     0.022 A 
BRANCH  74  78
ATOM     78  S   UNL A   1      41.221  20.420  26.956  1.00  0.00     0.124 S 
ATOM     79  O   UNL A   1      40.137  20.275  25.990  1.00  0.00    -0.237 OA
ATOM     80  O   UNL A   1      42.404  19.597  26.723  1.00  0.00    -0.237 OA
ATOM     81  O   UNL A   1      40.804  20.528  28.352  1.00  0.00    -0.744 OA
ENDBRANCH  74  78
ENDBRANCH  47  71
BRANCH  59  82
ATOM     82  C   UNL A   1      46.650  25.924  32.535  1.00  0.00     0.023 A 
ATOM     83  C   UNL A   1      46.634  24.941  33.539  1.00  0.00     0.031 A 
ATOM     84  C   UNL A   1      47.893  26.296  31.993  1.00  0.00     0.131 A 
ATOM     85  C   UNL A   1      47.841  24.404  34.012  1.00  0.00     0.055 A 
ATOM     86  C   UNL A   1      49.087  25.716  32.424  1.00  0.00     0.041 A 
ATOM     87  F   UNL A   1      47.967  27.230  31.031  1.00  0.00    -0.206 F 
ATOM     88  C   UNL A   1      49.065  24.774  33.448  1.00  0.00     0.022 A 
BRANCH  85  89
ATOM     89  S   UNL A   1      47.797  23.278  35.432  1.00  0.00     0.124 S 
ATOM     90  O   UNL A   1      49.112  23.492  36.029  1.00  0.00    -0.237 OA
ATOM     91  O   UNL A   1      46.660  23.784  36.196  1.00  0.00    -0.237 OA
ATOM     92  O   UNL A   1      47.599  21.965  34.823  1.00  0.00    -0.744 OA
ENDBRANCH  85  89
ENDBRANCH  59  82
ENDBRANCH  33  34
ENDBRANCH  25  28
ENDBRANCH  23  24
ENDBRANCH   1  23
TORSDOF 15
ENDMDL
MODEL 2
REMARK VINA RESULT:     -11.7      2.046      7.784
REMARK SMILES CC(=O)N[C@@]1(C(=O)NCCCCNC(=O)c2ccc(-c3c4nc(c(-c5cc(S(=O)(=O)[O-])ccc5F)c5ccc([nH]5)c(-c5cc(S(=O)(=O)[O-])ccc5F)c5nc(c(-c6cc(S(=O)(=O)[O-])ccc6F)c6ccc3[nH]6)C=C5)C=C4)cc2)CCCc2ccccc21
REMARK SMILES IDX 11 1 10 2 9 3 8 4 6 5 7 6 5 8 79 9 87 10 80 11 82 12 86 13
REMARK SMILES IDX 81 14 83 15 85 16 84 17 4 18 1 19 2 20 3 21 12 23 13 24
REMARK SMILES IDX 14 25 15 27 16 28 17 29 78 30 18 31 77 32 19 33 20 34 21 35
REMARK SMILES IDX 71 36 22 37 76 38 70 39 72 40 23 41 75 42 69 43 68 44 24 46
REMARK SMILES IDX 56 47 36 48 55 49 37 50 40 51 54 52 73 53 38 54 39 55 53 57
REMARK SMILES IDX 74 58 41 59 25 60 26 61 34 62 27 63 33 64 35 65 32 66 28 67
REMARK SMILES IDX 29 68 30 69 31 70 57 71 58 72 66 73 59 74 65 75 67 76 64 77
REMARK SMILES IDX 60 78 61 79 62 80 63 81 42 82 43 83 51 84 44 85 50 86 52 87
REMARK SMILES IDX 49 88 45 89 46 90 47 91 48 92
REMARK H PARENT 8 7 4 22 13 26 72 45 40 56
REMARK Flexibility Score: inf
ROOT
ATOM      1  C   UNL A   1      32.100  28.057  25.448  1.00  0.00     0.023 C 
ENDROOT
BRANCH   1   2
ATOM      2  C   UNL A   1      32.290  27.026  24.337  1.00  0.00     0.023 C 
BRANCH   2   3
ATOM      3  C   UNL A   1      33.658  26.338  24.323  1.00  0.00     0.116 C 
BRANCH   3   4
ATOM      4  N   UNL A   1      33.680  25.252  23.358  1.00  0.00    -0.354 N 
ATOM      5  C   UNL A   1      33.982  23.923  23.506  1.00  0.00     0.250 C 
ATOM      6  O   UNL A   1      34.202  23.305  22.460  1.00  0.00    -0.272 OA
ATOM      7  H   UNL A   1      33.435  25.516  22.440  1.00  0.00     0.163 HD
BRANCH   5   8
ATOM      8  C   UNL A   1      34.078  23.247  24.944  1.00  0.00     0.144 C 
ATOM      9  C   UNL A   1      35.432  23.634  25.587  1.00  0.00     0.044 C 
ATOM     10  C   UNL A   1      33.946  21.716  24.797  1.00  0.00    -0.010 A 
ATOM     11  C   UNL A   1      36.589  22.850  24.981  1.00  0.00     0.008 C 
ATOM     12  C   UNL A   1      35.058  20.858  24.959  1.00  0.00    -0.042 A 
ATOM     13  C   UNL A   1      32.720  21.146  24.397  1.00  0.00     0.007 A 
ATOM     14  C   UNL A   1      36.422  21.380  25.337  1.00  0.00     0.036 C 
ATOM     15  C   UNL A   1      34.909  19.474  24.776  1.00  0.00     0.004 A 
ATOM     16  C   UNL A   1      32.594  19.773  24.186  1.00  0.00     0.000 A 
ATOM     17  C   UNL A   1      33.686  18.936  24.385  1.00  0.00     0.000 A 
BRANCH   8  18
ATOM     18  N   UNL A   1      32.904  23.790  25.678  1.00  0.00    -0.338 N 
ATOM     19  C   UNL A   1      32.967  22.574  27.844  1.00  0.00     0.114 C 
ATOM     20  C   UNL A   1      32.313  23.497  26.860  1.00  0.00     0.217 C 
ATOM     21  O   UNL A   1      31.249  24.056  27.132  1.00  0.00    -0.275 OA
ATOM     22  H   UNL A   1      32.458  24.523  25.198  1.00  0.00     0.164 HD
ENDBRANCH   8  18
ENDBRANCH   5   8
ENDBRANCH   3   4
ENDBRANCH   2   3
ENDBRANCH   1   2
BRANCH   1  23
ATOM     23  C   UNL A   1      33.095  29.211  25.435  1.00  0.00     0.116 C 
BRANCH  23  24
ATOM     24  N   UNL A   1      32.541  30.446  25.966  1.00  0.00    -0.352 N 
ATOM     25  C   UNL A   1      33.036  31.249  26.967  1.00  0.00     0.251 C 
ATOM     26  H   UNL A   1      31.700  30.749  25.553  1.00  0.00     0.163 HD
ATOM     27  O   UNL A   1      32.374  32.193  27.376  1.00  0.00    -0.269 OA
BRANCH  25  28
ATOM     28  C   UNL A   1      34.350  30.929  27.567  1.00  0.00     0.039 A 
ATOM     29  C   UNL A   1      35.281  31.957  27.735  1.00  0.00     0.014 A 
ATOM     30  C   UNL A   1      34.646  29.632  27.992  1.00  0.00     0.014 A 
ATOM     31  C   UNL A   1      36.482  31.697  28.397  1.00  0.00     0.010 A 
ATOM     32  C   UNL A   1      35.811  29.392  28.714  1.00  0.00     0.010 A 
ATOM     33  C   UNL A   1      36.740  30.423  28.926  1.00  0.00    -0.014 A 
BRANCH  33  34
ATOM     34  C   UNL A   1      37.974  30.144  29.705  1.00  0.00     0.031 A 
ATOM     35  C   UNL A   1      39.010  29.202  29.152  1.00  0.00     0.074 A 
ATOM     36  C   UNL A   1      38.122  30.675  30.935  1.00  0.00     0.049 A 
ATOM     37  N   UNL A   1      40.107  28.760  29.711  1.00  0.00    -0.248 NA
ATOM     38  C   UNL A   1      38.765  28.663  27.805  1.00  0.00     0.031 C 
ATOM     39  C   UNL A   1      37.161  31.565  31.594  1.00  0.00     0.029 A 
ATOM     40  N   UNL A   1      39.127  30.536  31.860  1.00  0.00    -0.354 N 
ATOM     41  C   UNL A   1      40.666  27.871  28.799  1.00  0.00     0.074 A 
ATOM     42  C   UNL A   1      39.766  27.807  27.668  1.00  0.00     0.031 C 
ATOM     43  C   UNL A   1      37.632  31.904  32.805  1.00  0.00     0.029 A 
ATOM     44  C   UNL A   1      38.903  31.224  33.031  1.00  0.00     0.049 A 
ATOM     45  H   UNL A   1      39.933  29.995  31.700  1.00  0.00     0.167 HD
ATOM     46  C   UNL A   1      41.832  27.186  28.892  1.00  0.00     0.034 A 
ATOM     47  C   UNL A   1      39.633  31.287  34.163  1.00  0.00     0.034 A 
ATOM     48  C   UNL A   1      42.738  27.295  30.008  1.00  0.00     0.049 A 
ATOM     49  C   UNL A   1      40.932  30.520  34.232  1.00  0.00     0.074 A 
ATOM     50  C   UNL A   1      43.987  26.718  30.160  1.00  0.00     0.029 A 
ATOM     51  N   UNL A   1      42.491  28.020  31.165  1.00  0.00    -0.354 N 
ATOM     52  N   UNL A   1      41.484  29.746  33.325  1.00  0.00    -0.248 NA
ATOM     53  C   UNL A   1      41.712  30.644  35.471  1.00  0.00     0.031 C 
ATOM     54  C   UNL A   1      44.467  27.043  31.434  1.00  0.00     0.029 A 
ATOM     55  C   UNL A   1      43.551  27.880  32.049  1.00  0.00     0.049 A 
ATOM     56  H   UNL A   1      41.683  28.555  31.334  1.00  0.00     0.167 HD
ATOM     57  C   UNL A   1      42.693  29.326  33.873  1.00  0.00     0.074 A 
ATOM     58  C   UNL A   1      42.796  29.942  35.179  1.00  0.00     0.031 C 
ATOM     59  C   UNL A   1      43.637  28.507  33.344  1.00  0.00     0.034 A 
BRANCH  46  60
ATOM     60  C   UNL A   1      42.185  26.243  27.770  1.00  0.00     0.023 A 
ATOM     61  C   UNL A   1      41.646  24.948  27.689  1.00  0.00     0.031 A 
ATOM     62  C   UNL A   1      43.071  26.654  26.757  1.00  0.00     0.131 A 
ATOM     63  C   UNL A   1      42.037  24.092  26.649  1.00  0.00     0.055 A 
ATOM     64  C   UNL A   1      43.401  25.822  25.687  1.00  0.00     0.041 A 
ATOM     65  F   UNL A   1      43.633  27.873  26.795  1.00  0.00    -0.206 F 
ATOM     66  C   UNL A   1      42.891  24.528  25.634  1.00  0.00     0.022 A 
BRANCH  63  67
ATOM     67  S   UNL A   1      41.493  22.363  26.697  1.00  0.00     0.124 S 
ATOM     68  O   UNL A   1      42.219  21.794  25.564  1.00  0.00    -0.237 OA
ATOM     69  O   UNL A   1      41.932  21.929  28.018  1.00  0.00    -0.237 OA
ATOM     70  O   UNL A   1      40.045  22.454  26.519  1.00  0.00    -0.744 OA
ENDBRANCH  63  67
ENDBRANCH  46  60
BRANCH  47  71
ATOM     71  C   UNL A   1      39.168  32.086  35.333  1.00  0.00     0.023 A 
ATOM     72  C   UNL A   1      38.572  31.462  36.441  1.00  0.00     0.031 A 
ATOM     73  C   UNL A   1      39.237  33.491  35.329  1.00  0.00     0.131 A 
ATOM     74  C   UNL A   1      38.007  32.239  37.464  1.00  0.00     0.055 A 
ATOM     75  C   UNL A   1      38.727  34.258  36.379  1.00  0.00     0.041 A 
ATOM     76  F   UNL A   1      39.801  34.141  34.299  1.00  0.00    -0.206 F 
ATOM     77  C   UNL A   1      38.090  33.633  37.447  1.00  0.00     0.022 A 
BRANCH  74  78
ATOM     78  S   UNL A   1      37.049  31.402  38.758  1.00  0.00     0.124 S 
ATOM     79  O   UNL A   1      37.939  31.517  39.908  1.00  0.00    -0.237 OA
ATOM     80  O   UNL A   1      35.835  32.211  38.804  1.00  0.00    -0.237 OA
ATOM     81  O   UNL A   1      36.877  30.050  38.233  1.00  0.00    -0.744 OA
ENDBRANCH  74  78
ENDBRANCH  47  71
BRANCH  59  82
ATOM     82  C   UNL A   1      44.886  28.287  34.160  1.00  0.00     0.023 A 
ATOM     83  C   UNL A   1      44.992  27.233  35.083  1.00  0.00     0.031 A 
ATOM     84  C   UNL A   1      45.984  29.155  34.016  1.00  0.00     0.131 A 
ATOM     85  C   UNL A   1      46.147  27.106  35.869  1.00  0.00     0.055 A 
ATOM     86  C   UNL A   1      47.154  28.989  34.758  1.00  0.00     0.041 A 
ATOM     87  F   UNL A   1      45.936  30.178  33.148  1.00  0.00    -0.206 F 
ATOM     88  C   UNL A   1      47.234  27.967  35.700  1.00  0.00     0.022 A 
BRANCH  85  89
ATOM     89  S   UNL A   1      46.177  25.851  37.178  1.00  0.00     0.124 S 
ATOM     90  O   UNL A   1      47.608  25.713  37.433  1.00  0.00    -0.237 OA
ATOM     91  O   UNL A   1      45.400  26.487  38.238  1.00  0.00    -0.237 OA
ATOM     92  O   UNL A   1      45.542  24.691  36.556  1.00  0.00    -0.744 OA
ENDBRANCH  85  89
ENDBRANCH  59  82
ENDBRANCH  33  34
ENDBRANCH  25  28
ENDBRANCH  23  24
ENDBRANCH   1  23
TORSDOF 15
ENDMDL
MODEL 3
REMARK VINA RESULT:     -11.7      1.346      1.651
REMARK SMILES CC(=O)N[C@@]1(C(=O)NCCCCNC(=O)c2ccc(-c3c4nc(c(-c5cc(S(=O)(=O)[O-])ccc5F)c5ccc([nH]5)c(-c5cc(S(=O)(=O)[O-])ccc5F)c5nc(c(-c6cc(S(=O)(=O)[O-])ccc6F)c6ccc3[nH]6)C=C5)C=C4)cc2)CCCc2ccccc21
REMARK SMILES IDX 11 1 10 2 9 3 8 4 6 5 7 6 5 8 79 9 87 10 80 11 82 12 86 13
REMARK SMILES IDX 81 14 83 15 85 16 84 17 4 18 1 19 2 20 3 21 12 23 13 24
REMARK SMILES IDX 14 25 15 27 16 28 17 29 78 30 18 31 77 32 19 33 20 34 21 35
REMARK SMILES IDX 71 36 22 37 76 38 70 39 72 40 23 41 75 42 69 43 68 44 24 46
REMARK SMILES IDX 56 47 36 48 55 49 37 50 40 51 54 52 73 53 38 54 39 55 53 57
REMARK SMILES IDX 74 58 41 59 25 60 26 61 34 62 27 63 33 64 35 65 32 66 28 67
REMARK SMILES IDX 29 68 30 69 31 70 57 71 58 72 66 73 59 74 65 75 67 76 64 77
REMARK SMILES IDX 60 78 61 79 62 80 63 81 42 82 43 83 51 84 44 85 50 86 52 87
REMARK SMILES IDX 49 88 45 89 46 90 47 91 48 92
REMARK H PARENT 8 7 4 22 13 26 72 45 40 56
REMARK Flexibility Score: inf
ROOT
ATOM      1  C   UNL A   1      33.499  28.329  25.081  1.00  0.00     0.023 C 
ENDROOT
BRANCH   1   2
ATOM      2  C   UNL A   1      33.830  26.897  24.665  1.00  0.00     0.023 C 
BRANCH   2   3
ATOM      3  C   UNL A   1      32.616  26.028  24.325  1.00  0.00     0.116 C 
BRANCH   3   4
ATOM      4  N   UNL A   1      32.963  25.023  23.334  1.00  0.00    -0.354 N 
ATOM      5  C   UNL A   1      33.596  23.813  23.463  1.00  0.00     0.250 C 
ATOM      6  O   UNL A   1      34.014  23.315  22.413  1.00  0.00    -0.272 OA
ATOM      7  H   UNL A   1      32.698  25.250  22.412  1.00  0.00     0.163 HD
BRANCH   5   8
ATOM      8  C   UNL A   1      33.803  23.130  24.885  1.00  0.00     0.144 C 
ATOM      9  C   UNL A   1      35.155  23.604  25.474  1.00  0.00     0.044 C 
ATOM     10  C   UNL A   1      33.772  21.596  24.723  1.00  0.00    -0.010 A 
ATOM     11  C   UNL A   1      36.335  22.910  24.806  1.00  0.00     0.008 C 
ATOM     12  C   UNL A   1      34.947  20.816  24.823  1.00  0.00    -0.042 A 
ATOM     13  C   UNL A   1      32.571  20.946  24.370  1.00  0.00     0.007 A 
ATOM     14  C   UNL A   1      36.286  21.428  25.148  1.00  0.00     0.036 C 
ATOM     15  C   UNL A   1      34.886  19.427  24.628  1.00  0.00     0.004 A 
ATOM     16  C   UNL A   1      32.532  19.569  24.145  1.00  0.00     0.000 A 
ATOM     17  C   UNL A   1      33.688  18.809  24.283  1.00  0.00     0.000 A 
BRANCH   8  18
ATOM     18  N   UNL A   1      32.629  23.581  25.678  1.00  0.00    -0.338 N 
ATOM     19  C   UNL A   1      33.025  22.578  27.916  1.00  0.00     0.114 C 
ATOM     20  C   UNL A   1      32.177  23.321  26.927  1.00  0.00     0.217 C 
ATOM     21  O   UNL A   1      31.073  23.761  27.250  1.00  0.00    -0.275 OA
ATOM     22  H   UNL A   1      32.052  24.208  25.185  1.00  0.00     0.164 HD
ENDBRANCH   8  18
ENDBRANCH   5   8
ENDBRANCH   3   4
ENDBRANCH   2   3
ENDBRANCH   1   2
BRANCH   1  23
ATOM     23  C   UNL A   1      34.117  28.777  26.399  1.00  0.00     0.116 C 
BRANCH  23  24
ATOM     24  N   UNL A   1      33.761  30.140  26.761  1.00  0.00    -0.352 N 
ATOM     25  C   UNL A   1      34.405  30.996  27.625  1.00  0.00     0.251 C 
ATOM     26  H   UNL A   1      32.952  30.499  26.330  1.00  0.00     0.163 HD
ATOM     27  O   UNL A   1      33.897  32.071  27.910  1.00  0.00    -0.269 OA
BRANCH  25  28
ATOM     28  C   UNL A   1      35.688  30.579  28.232  1.00  0.00     0.039 A 
ATOM     29  C   UNL A   1      35.662  29.777  29.375  1.00  0.00     0.014 A 
ATOM     30  C   UNL A   1      36.906  30.948  27.655  1.00  0.00     0.014 A 
ATOM     31  C   UNL A   1      36.859  29.284  29.899  1.00  0.00     0.010 A 
ATOM     32  C   UNL A   1      38.090  30.398  28.135  1.00  0.00     0.010 A 
ATOM     33  C   UNL A   1      38.079  29.558  29.260  1.00  0.00    -0.014 A 
BRANCH  33  34
ATOM     34  C   UNL A   1      39.356  28.979  29.751  1.00  0.00     0.031 A 
ATOM     35  C   UNL A   1      40.095  29.645  30.881  1.00  0.00     0.074 A 
ATOM     36  C   UNL A   1      39.883  27.905  29.131  1.00  0.00     0.049 A 
ATOM     37  N   UNL A   1      41.262  29.351  31.392  1.00  0.00    -0.248 NA
ATOM     38  C   UNL A   1      39.449  30.816  31.496  1.00  0.00     0.031 C 
ATOM     39  C   UNL A   1      39.281  27.203  27.994  1.00  0.00     0.029 A 
ATOM     40  N   UNL A   1      41.053  27.221  29.355  1.00  0.00    -0.354 N 
ATOM     41  C   UNL A   1      41.503  30.314  32.367  1.00  0.00     0.074 A 
ATOM     42  C   UNL A   1      40.379  31.224  32.345  1.00  0.00     0.031 C 
ATOM     43  C   UNL A   1      40.075  26.181  27.634  1.00  0.00     0.029 A 
ATOM     44  C   UNL A   1      41.263  26.179  28.481  1.00  0.00     0.049 A 
ATOM     45  H   UNL A   1      41.682  27.456  30.074  1.00  0.00     0.167 HD
ATOM     46  C   UNL A   1      42.558  30.416  33.211  1.00  0.00     0.034 A 
ATOM     47  C   UNL A   1      42.303  25.327  28.367  1.00  0.00     0.034 A 
ATOM     48  C   UNL A   1      43.649  29.475  33.247  1.00  0.00     0.049 A 
ATOM     49  C   UNL A   1      43.459  25.461  29.329  1.00  0.00     0.074 A 
ATOM     50  C   UNL A   1      44.719  29.434  34.125  1.00  0.00     0.029 A 
ATOM     51  N   UNL A   1      43.817  28.417  32.365  1.00  0.00    -0.354 N 
ATOM     52  N   UNL A   1      43.631  26.332  30.297  1.00  0.00    -0.248 NA
ATOM     53  C   UNL A   1      44.554  24.492  29.190  1.00  0.00     0.031 C 
ATOM     54  C   UNL A   1      45.565  28.390  33.734  1.00  0.00     0.029 A 
ATOM     55  C   UNL A   1      44.988  27.736  32.658  1.00  0.00     0.049 A 
ATOM     56  H   UNL A   1      43.195  28.184  31.639  1.00  0.00     0.167 HD
ATOM     57  C   UNL A   1      44.835  25.987  30.905  1.00  0.00     0.074 A 
ATOM     58  C   UNL A   1      45.337  24.823  30.205  1.00  0.00     0.031 C 
ATOM     59  C   UNL A   1      45.469  26.574  31.952  1.00  0.00     0.034 A 
BRANCH  46  60
ATOM     60  C   UNL A   1      42.596  31.596  34.150  1.00  0.00     0.023 A 
ATOM     61  C   UNL A   1      42.061  31.533  35.447  1.00  0.00     0.031 A 
ATOM     62  C   UNL A   1      43.190  32.803  33.739  1.00  0.00     0.131 A 
ATOM     63  C   UNL A   1      42.081  32.670  36.268  1.00  0.00     0.055 A 
ATOM     64  C   UNL A   1      43.271  33.909  34.587  1.00  0.00     0.041 A 
ATOM     65  F   UNL A   1      43.700  32.928  32.503  1.00  0.00    -0.206 F 
ATOM     66  C   UNL A   1      42.706  33.849  35.856  1.00  0.00     0.022 A 
BRANCH  63  67
ATOM     67  S   UNL A   1      41.191  32.617  37.847  1.00  0.00     0.124 S 
ATOM     68  O   UNL A   1      39.843  32.260  37.413  1.00  0.00    -0.237 OA
ATOM     69  O   UNL A   1      41.916  31.590  38.586  1.00  0.00    -0.237 OA
ATOM     70  O   UNL A   1      41.332  33.976  38.366  1.00  0.00    -0.744 OA
ENDBRANCH  63  67
ENDBRANCH  46  60
BRANCH  47  71
ATOM     71  C   UNL A   1      42.324  24.279  27.306  1.00  0.00     0.023 A 
ATOM     72  C   UNL A   1      41.651  23.059  27.485  1.00  0.00     0.031 A 
ATOM     73  C   UNL A   1      43.082  24.445  26.133  1.00  0.00     0.131 A 
ATOM     74  C   UNL A   1      41.805  22.028  26.544  1.00  0.00     0.055 A 
ATOM     75  C   UNL A   1      43.182  23.438  25.170  1.00  0.00     0.041 A 
ATOM     76  F   UNL A   1      43.742  25.592  25.908  1.00  0.00    -0.206 F 
ATOM     77  C   UNL A   1      42.556  22.214  25.382  1.00  0.00     0.022 A 
BRANCH  74  78
ATOM     78  S   UNL A   1      41.107  20.397  26.925  1.00  0.00     0.124 S 
ATOM     79  O   UNL A   1      42.223  19.514  26.600  1.00  0.00    -0.237 OA
ATOM     80  O   UNL A   1      40.786  20.530  28.342  1.00  0.00    -0.237 OA
ATOM     81  O   UNL A   1      39.956  20.303  26.031  1.00  0.00    -0.744 OA
ENDBRANCH  74  78
ENDBRANCH  47  71
BRANCH  59  82
ATOM     82  C   UNL A   1      46.742  25.925  32.433  1.00  0.00     0.023 A 
ATOM     83  C   UNL A   1      47.975  26.148  31.797  1.00  0.00     0.031 A 
ATOM     84  C   UNL A   1      46.715  25.060  33.542  1.00  0.00     0.131 A 
ATOM     85  C   UNL A   1      49.121  25.470  32.236  1.00  0.00     0.055 A 
ATOM     86  C   UNL A   1      47.870  24.434  34.013  1.00  0.00     0.041 A 
ATOM     87  F   UNL A   1      45.564  24.811  34.187  1.00  0.00    -0.206 F 
ATOM     88  C   UNL A   1      49.079  24.628  33.351  1.00  0.00     0.022 A 
BRANCH  85  89
ATOM     89  S   UNL A   1      50.653  25.636  31.281  1.00  0.00     0.124 S 
ATOM     90  O   UNL A   1      51.551  24.727  31.986  1.00  0.00    -0.237 OA
ATOM     91  O   UNL A   1      50.236  25.213  29.947  1.00  0.00    -0.237 OA
ATOM     92  O   UNL A   1      50.983  27.054  31.406  1.00  0.00    -0.744 OA
ENDBRANCH  85  89
ENDBRANCH  59  82
ENDBRANCH  33  34
ENDBRANCH  25  28
ENDBRANCH  23  24
ENDBRANCH   1  23
TORSDOF 15
ENDMDL
