MODEL 1
REMARK VINA RESULT:     -11.4      0.000      0.000
REMARK SMILES C[C@@H]1[C@@H](C(=O)NCCCCNC(=O)c2ccc(-c3c4nc(c(-c5cc(S(=O)(=O)[O-])ccc5F)c5ccc([nH]5)c(-c5cc(S(=O)(=O)[O-])ccc5F)c5nc(c(-c6cc(S(=O)(=O)[O-])ccc6F)c6ccc3[nH]6)C=C5)C=C4)cc2)CCN1C(=O)[C@@H](C)OCc1ccccc1
REMARK SMILES IDX 7 1 6 2 4 3 5 4 3 6 1 7 2 8 79 9 77 10 78 11 80 12 81 13
REMARK SMILES IDX 82 14 83 15 84 16 85 17 86 18 87 19 91 20 88 21 90 22 89 23
REMARK SMILES IDX 8 24 9 25 10 26 11 27 12 28 13 30 14 31 15 32 76 33 16 34
REMARK SMILES IDX 75 35 17 36 18 37 19 38 69 39 20 40 74 41 68 42 70 43 21 44
REMARK SMILES IDX 73 45 67 46 66 47 22 49 54 50 34 51 53 52 35 53 38 54 52 55
REMARK SMILES IDX 71 56 36 57 37 58 51 60 72 61 39 62 23 63 24 64 32 65 25 66
REMARK SMILES IDX 31 67 33 68 30 69 26 70 27 71 28 72 29 73 55 74 56 75 64 76
REMARK SMILES IDX 57 77 63 78 65 79 62 80 58 81 59 82 60 83 61 84 40 85 41 86
REMARK SMILES IDX 49 87 42 88 48 89 50 90 47 91 43 92 44 93 45 94 46 95
REMARK H PARENT 6 5 11 29 70 48 38 59
REMARK Flexibility Score: inf
ROOT
ATOM      1  C   UNL A   1      32.131  28.533  23.747  1.00  0.00     0.116 C 
ENDROOT
BRANCH   1   2
ATOM      2  N   UNL A   1      32.941  27.911  22.718  1.00  0.00    -0.356 N 
ATOM      3  C   UNL A   1      33.248  26.586  22.572  1.00  0.00     0.225 C 
ATOM      4  O   UNL A   1      33.899  26.238  21.590  1.00  0.00    -0.275 OA
ATOM      5  H   UNL A   1      33.317  28.517  22.040  1.00  0.00     0.163 HD
BRANCH   3   6
ATOM      6  C   UNL A   1      32.804  25.622  23.662  1.00  0.00     0.102 C 
ATOM      7  C   UNL A   1      33.557  24.581  25.811  1.00  0.00     0.032 C 
ATOM      8  C   UNL A   1      33.976  24.928  24.371  1.00  0.00     0.094 C 
ATOM      9  N   UNL A   1      34.202  23.709  23.615  1.00  0.00    -0.337 N 
ATOM     10  C   UNL A   1      31.996  24.442  23.113  1.00  0.00     0.037 C 
ATOM     11  C   UNL A   1      33.040  23.376  22.808  1.00  0.00     0.121 C 
BRANCH   9  12
ATOM     12  C   UNL A   1      35.330  22.921  23.531  1.00  0.00     0.251 C 
ATOM     13  O   UNL A   1      36.243  23.258  22.762  1.00  0.00    -0.272 OA
BRANCH  12  14
ATOM     14  C   UNL A   1      35.571  21.700  24.500  1.00  0.00     0.204 C 
ATOM     15  C   UNL A   1      37.038  21.267  24.452  1.00  0.00     0.049 C 
BRANCH  14  16
ATOM     16  O   UNL A   1      34.919  21.427  25.727  1.00  0.00    -0.364 OA
BRANCH  16  17
ATOM     17  C   UNL A   1      33.672  20.755  25.791  1.00  0.00     0.196 C 
BRANCH  17  18
ATOM     18  C   UNL A   1      33.450  19.646  24.794  1.00  0.00    -0.022 A 
ATOM     19  C   UNL A   1      32.496  19.770  23.779  1.00  0.00     0.006 A 
ATOM     20  C   UNL A   1      34.207  18.464  24.865  1.00  0.00     0.006 A 
ATOM     21  C   UNL A   1      32.373  18.784  22.798  1.00  0.00     0.000 A 
ATOM     22  C   UNL A   1      34.093  17.485  23.880  1.00  0.00     0.000 A 
ATOM     23  C   UNL A   1      33.185  17.652  22.838  1.00  0.00     0.000 A 
ENDBRANCH  17  18
ENDBRANCH  16  17
ENDBRANCH  14  16
ENDBRANCH  12  14
ENDBRANCH   9  12
ENDBRANCH   3   6
ENDBRANCH   1   2
BRANCH   1  24
ATOM     24  C   UNL A   1      32.950  29.324  24.760  1.00  0.00     0.023 C 
BRANCH  24  25
ATOM     25  C   UNL A   1      33.692  28.487  25.799  1.00  0.00     0.023 C 
BRANCH  25  26
ATOM     26  C   UNL A   1      33.371  28.806  27.255  1.00  0.00     0.116 C 
BRANCH  26  27
ATOM     27  N   UNL A   1      33.428  30.229  27.553  1.00  0.00    -0.352 N 
ATOM     28  C   UNL A   1      34.426  30.960  28.160  1.00  0.00     0.251 C 
ATOM     29  H   UNL A   1      32.636  30.746  27.282  1.00  0.00     0.163 HD
ATOM     30  O   UNL A   1      34.229  32.133  28.442  1.00  0.00    -0.269 OA
BRANCH  28  31
ATOM     31  C   UNL A   1      35.708  30.306  28.499  1.00  0.00     0.039 A 
ATOM     32  C   UNL A   1      36.774  30.405  27.601  1.00  0.00     0.014 A 
ATOM     33  C   UNL A   1      35.868  29.626  29.708  1.00  0.00     0.014 A 
ATOM     34  C   UNL A   1      38.023  29.888  27.953  1.00  0.00     0.010 A 
ATOM     35  C   UNL A   1      37.132  29.191  30.093  1.00  0.00     0.010 A 
ATOM     36  C   UNL A   1      38.224  29.316  29.218  1.00  0.00    -0.014 A 
BRANCH  36  37
ATOM     37  C   UNL A   1      39.560  28.822  29.645  1.00  0.00     0.031 A 
ATOM     38  C   UNL A   1      40.318  29.552  30.722  1.00  0.00     0.074 A 
ATOM     39  C   UNL A   1      40.119  27.767  29.020  1.00  0.00     0.049 A 
ATOM     40  N   UNL A   1      41.531  29.347  31.166  1.00  0.00    -0.248 NA
ATOM     41  C   UNL A   1      39.629  30.686  31.353  1.00  0.00     0.031 C 
ATOM     42  C   UNL A   1      39.502  27.003  27.933  1.00  0.00     0.029 A 
ATOM     43  N   UNL A   1      41.336  27.159  29.201  1.00  0.00    -0.354 N 
ATOM     44  C   UNL A   1      41.758  30.340  32.116  1.00  0.00     0.074 A 
ATOM     45  C   UNL A   1      40.581  31.184  32.126  1.00  0.00     0.031 C 
ATOM     46  C   UNL A   1      40.332  26.014  27.563  1.00  0.00     0.029 A 
ATOM     47  C   UNL A   1      41.558  26.100  28.351  1.00  0.00     0.049 A 
ATOM     48  H   UNL A   1      41.990  27.454  29.875  1.00  0.00     0.167 HD
ATOM     49  C   UNL A   1      42.834  30.515  32.923  1.00  0.00     0.034 A 
ATOM     50  C   UNL A   1      42.631  25.294  28.217  1.00  0.00     0.034 A 
ATOM     51  C   UNL A   1      43.991  29.653  32.909  1.00  0.00     0.049 A 
ATOM     52  C   UNL A   1      43.822  25.513  29.115  1.00  0.00     0.074 A 
ATOM     53  C   UNL A   1      45.118  29.708  33.712  1.00  0.00     0.029 A 
ATOM     54  N   UNL A   1      44.172  28.579  32.047  1.00  0.00    -0.354 N 
ATOM     55  N   UNL A   1      44.005  26.431  30.037  1.00  0.00    -0.248 NA
ATOM     56  C   UNL A   1      44.945  24.579  28.964  1.00  0.00     0.031 C 
ATOM     57  C   UNL A   1      46.003  28.709  33.295  1.00  0.00     0.029 A 
ATOM     58  C   UNL A   1      45.400  27.978  32.283  1.00  0.00     0.049 A 
ATOM     59  H   UNL A   1      43.524  28.287  31.367  1.00  0.00     0.167 HD
ATOM     60  C   UNL A   1      45.249  26.159  30.600  1.00  0.00     0.074 A 
ATOM     61  C   UNL A   1      45.764  24.987  29.921  1.00  0.00     0.031 C 
ATOM     62  C   UNL A   1      45.902  26.813  31.594  1.00  0.00     0.034 A 
BRANCH  49  63
ATOM     63  C   UNL A   1      42.807  31.697  33.862  1.00  0.00     0.023 A 
ATOM     64  C   UNL A   1      42.412  31.563  35.206  1.00  0.00     0.031 A 
ATOM     65  C   UNL A   1      43.132  32.986  33.401  1.00  0.00     0.131 A 
ATOM     66  C   UNL A   1      42.263  32.702  36.011  1.00  0.00     0.055 A 
ATOM     67  C   UNL A   1      43.070  34.105  34.235  1.00  0.00     0.041 A 
ATOM     68  F   UNL A   1      43.496  33.183  32.124  1.00  0.00    -0.206 F 
ATOM     69  C   UNL A   1      42.614  33.970  35.543  1.00  0.00     0.022 A 
BRANCH  66  70
ATOM     70  S   UNL A   1      41.445  32.519  37.620  1.00  0.00     0.124 S 
ATOM     71  O   UNL A   1      42.175  31.392  38.195  1.00  0.00    -0.237 OA
ATOM     72  O   UNL A   1      41.680  33.817  38.242  1.00  0.00    -0.237 OA
ATOM     73  O   UNL A   1      40.055  32.237  37.268  1.00  0.00    -0.744 OA
ENDBRANCH  66  70
ENDBRANCH  49  63
BRANCH  50  74
ATOM     74  C   UNL A   1      42.636  24.206  27.197  1.00  0.00     0.023 A 
ATOM     75  C   UNL A   1      41.956  22.999  27.426  1.00  0.00     0.031 A 
ATOM     76  C   UNL A   1      43.353  24.340  25.995  1.00  0.00     0.131 A 
ATOM     77  C   UNL A   1      42.045  21.957  26.490  1.00  0.00     0.055 A 
ATOM     78  C   UNL A   1      43.396  23.320  25.043  1.00  0.00     0.041 A 
ATOM     79  F   UNL A   1      44.015  25.477  25.722  1.00  0.00    -0.206 F 
ATOM     80  C   UNL A   1      42.750  22.115  25.295  1.00  0.00     0.022 A 
BRANCH  77  81
ATOM     81  S   UNL A   1      41.286  20.360  26.895  1.00  0.00     0.124 S 
ATOM     82  O   UNL A   1      42.425  19.456  26.794  1.00  0.00    -0.237 OA
ATOM     83  O   UNL A   1      40.773  20.601  28.239  1.00  0.00    -0.237 OA
ATOM     84  O   UNL A   1      40.265  20.198  25.861  1.00  0.00    -0.744 OA
ENDBRANCH  77  81
ENDBRANCH  50  74
BRANCH  62  85
ATOM     85  C   UNL A   1      47.222  26.234  32.044  1.00  0.00     0.023 A 
ATOM     86  C   UNL A   1      47.313  25.339  33.124  1.00  0.00     0.031 A 
ATOM     87  C   UNL A   1      48.410  26.596  31.383  1.00  0.00     0.131 A 
ATOM     88  C   UNL A   1      48.569  24.881  33.548  1.00  0.00     0.055 A 
ATOM     89  C   UNL A   1      49.651  26.090  31.770  1.00  0.00     0.041 A 
ATOM     90  F   UNL A   1      48.381  27.448  30.346  1.00  0.00    -0.206 F 
ATOM     91  C   UNL A   1      49.737  25.238  32.868  1.00  0.00     0.022 A 
BRANCH  88  92
ATOM     92  S   UNL A   1      48.670  23.888  35.062  1.00  0.00     0.124 S 
ATOM     93  O   UNL A   1      47.528  24.381  35.825  1.00  0.00    -0.237 OA
ATOM     94  O   UNL A   1      48.555  22.527  34.550  1.00  0.00    -0.237 OA
ATOM     95  O   UNL A   1      49.980  24.233  35.613  1.00  0.00    -0.744 OA
ENDBRANCH  88  92
ENDBRANCH  62  85
ENDBRANCH  36  37
ENDBRANCH  28  31
ENDBRANCH  26  27
ENDBRANCH  25  26
ENDBRANCH  24  25
ENDBRANCH   1  24
TORSDOF 19
ENDMDL
MODEL 2
REMARK VINA RESULT:     -11.2      2.374      7.797
REMARK SMILES C[C@@H]1[C@@H](C(=O)NCCCCNC(=O)c2ccc(-c3c4nc(c(-c5cc(S(=O)(=O)[O-])ccc5F)c5ccc([nH]5)c(-c5cc(S(=O)(=O)[O-])ccc5F)c5nc(c(-c6cc(S(=O)(=O)[O-])ccc6F)c6ccc3[nH]6)C=C5)C=C4)cc2)CCN1C(=O)[C@@H](C)OCc1ccccc1
REMARK SMILES IDX 7 1 6 2 4 3 5 4 3 6 1 7 2 8 79 9 77 10 78 11 80 12 81 13
REMARK SMILES IDX 82 14 83 15 84 16 85 17 86 18 87 19 91 20 88 21 90 22 89 23
REMARK SMILES IDX 8 24 9 25 10 26 11 27 12 28 13 30 14 31 15 32 76 33 16 34
REMARK SMILES IDX 75 35 17 36 18 37 19 38 69 39 20 40 74 41 68 42 70 43 21 44
REMARK SMILES IDX 73 45 67 46 66 47 22 49 54 50 34 51 53 52 35 53 38 54 52 55
REMARK SMILES IDX 71 56 36 57 37 58 51 60 72 61 39 62 23 63 24 64 32 65 25 66
REMARK SMILES IDX 31 67 33 68 30 69 26 70 27 71 28 72 29 73 55 74 56 75 64 76
REMARK SMILES IDX 57 77 63 78 65 79 62 80 58 81 59 82 60 83 61 84 40 85 41 86
REMARK SMILES IDX 49 87 42 88 48 89 50 90 47 91 43 92 44 93 45 94 46 95
REMARK H PARENT 6 5 11 29 70 48 38 59
REMARK Flexibility Score: inf
ROOT
ATOM      1  C   UNL A   1      32.211  28.361  22.873  1.00  0.00     0.116 C 
ENDROOT
BRANCH   1   2
ATOM      2  N   UNL A   1      32.773  27.520  21.835  1.00  0.00    -0.356 N 
ATOM      3  C   UNL A   1      33.007  26.173  21.875  1.00  0.00     0.225 C 
ATOM      4  O   UNL A   1      33.431  25.620  20.863  1.00  0.00    -0.275 OA
ATOM      5  H   UNL A   1      33.017  27.975  20.996  1.00  0.00     0.163 HD
BRANCH   3   6
ATOM      6  C   UNL A   1      32.774  25.442  23.188  1.00  0.00     0.102 C 
ATOM      7  C   UNL A   1      33.801  25.029  25.434  1.00  0.00     0.032 C 
ATOM      8  C   UNL A   1      34.074  25.080  23.920  1.00  0.00     0.094 C 
ATOM      9  N   UNL A   1      34.420  23.755  23.435  1.00  0.00    -0.337 N 
ATOM     10  C   UNL A   1      32.106  24.078  22.994  1.00  0.00     0.037 C 
ATOM     11  C   UNL A   1      33.267  23.105  22.835  1.00  0.00     0.121 C 
BRANCH   9  12
ATOM     12  C   UNL A   1      35.640  23.113  23.422  1.00  0.00     0.251 C 
ATOM     13  O   UNL A   1      36.305  23.108  22.376  1.00  0.00    -0.272 OA
BRANCH  12  14
ATOM     14  C   UNL A   1      36.292  22.531  24.735  1.00  0.00     0.204 C 
ATOM     15  C   UNL A   1      36.693  23.668  25.677  1.00  0.00     0.049 C 
BRANCH  14  16
ATOM     16  O   UNL A   1      35.987  21.310  25.385  1.00  0.00    -0.364 OA
BRANCH  16  17
ATOM     17  C   UNL A   1      34.712  20.697  25.291  1.00  0.00     0.196 C 
BRANCH  17  18
ATOM     18  C   UNL A   1      33.584  21.369  26.032  1.00  0.00    -0.022 A 
ATOM     19  C   UNL A   1      33.772  21.875  27.323  1.00  0.00     0.006 A 
ATOM     20  C   UNL A   1      32.320  21.502  25.434  1.00  0.00     0.006 A 
ATOM     21  C   UNL A   1      32.753  22.588  27.958  1.00  0.00     0.000 A 
ATOM     22  C   UNL A   1      31.306  22.224  26.064  1.00  0.00     0.000 A 
ATOM     23  C   UNL A   1      31.528  22.779  27.320  1.00  0.00     0.000 A 
ENDBRANCH  17  18
ENDBRANCH  16  17
ENDBRANCH  14  16
ENDBRANCH  12  14
ENDBRANCH   9  12
ENDBRANCH   3   6
ENDBRANCH   1   2
BRANCH   1  24
ATOM     24  C   UNL A   1      33.253  29.218  23.582  1.00  0.00     0.023 C 
BRANCH  24  25
ATOM     25  C   UNL A   1      33.679  28.723  24.963  1.00  0.00     0.023 C 
BRANCH  25  26
ATOM     26  C   UNL A   1      32.674  28.957  26.086  1.00  0.00     0.116 C 
BRANCH  26  27
ATOM     27  N   UNL A   1      32.381  30.365  26.305  1.00  0.00    -0.352 N 
ATOM     28  C   UNL A   1      33.066  31.300  27.050  1.00  0.00     0.251 C 
ATOM     29  H   UNL A   1      31.573  30.700  25.854  1.00  0.00     0.163 HD
ATOM     30  O   UNL A   1      32.583  32.410  27.219  1.00  0.00    -0.269 OA
BRANCH  28  31
ATOM     31  C   UNL A   1      34.358  30.935  27.671  1.00  0.00     0.039 A 
ATOM     32  C   UNL A   1      35.349  31.913  27.789  1.00  0.00     0.014 A 
ATOM     33  C   UNL A   1      34.580  29.647  28.161  1.00  0.00     0.014 A 
ATOM     34  C   UNL A   1      36.532  31.618  28.470  1.00  0.00     0.010 A 
ATOM     35  C   UNL A   1      35.719  29.381  28.913  1.00  0.00     0.010 A 
ATOM     36  C   UNL A   1      36.709  30.364  29.075  1.00  0.00    -0.014 A 
BRANCH  36  37
ATOM     37  C   UNL A   1      37.929  30.048  29.865  1.00  0.00     0.031 A 
ATOM     38  C   UNL A   1      38.951  29.092  29.311  1.00  0.00     0.074 A 
ATOM     39  C   UNL A   1      38.081  30.561  31.102  1.00  0.00     0.049 A 
ATOM     40  N   UNL A   1      40.027  28.608  29.878  1.00  0.00    -0.248 NA
ATOM     41  C   UNL A   1      38.707  28.587  27.953  1.00  0.00     0.031 C 
ATOM     42  C   UNL A   1      37.139  31.466  31.766  1.00  0.00     0.029 A 
ATOM     43  N   UNL A   1      39.081  30.390  32.027  1.00  0.00    -0.354 N 
ATOM     44  C   UNL A   1      40.576  27.726  28.952  1.00  0.00     0.074 A 
ATOM     45  C   UNL A   1      39.674  27.693  27.820  1.00  0.00     0.031 C 
ATOM     46  C   UNL A   1      37.618  31.789  32.978  1.00  0.00     0.029 A 
ATOM     47  C   UNL A   1      38.875  31.082  33.199  1.00  0.00     0.049 A 
ATOM     48  H   UNL A   1      39.870  29.824  31.868  1.00  0.00     0.167 HD
ATOM     49  C   UNL A   1      41.738  27.030  29.027  1.00  0.00     0.034 A 
ATOM     50  C   UNL A   1      39.613  31.133  34.327  1.00  0.00     0.034 A 
ATOM     51  C   UNL A   1      42.633  27.088  30.157  1.00  0.00     0.049 A 
ATOM     52  C   UNL A   1      40.895  30.342  34.395  1.00  0.00     0.074 A 
ATOM     53  C   UNL A   1      43.857  26.463  30.322  1.00  0.00     0.029 A 
ATOM     54  N   UNL A   1      42.401  27.814  31.319  1.00  0.00    -0.354 N 
ATOM     55  N   UNL A   1      41.423  29.544  33.494  1.00  0.00    -0.248 NA
ATOM     56  C   UNL A   1      41.687  30.470  35.624  1.00  0.00     0.031 C 
ATOM     57  C   UNL A   1      44.333  26.760  31.603  1.00  0.00     0.029 A 
ATOM     58  C   UNL A   1      43.446  27.634  32.212  1.00  0.00     0.049 A 
ATOM     59  H   UNL A   1      41.608  28.375  31.484  1.00  0.00     0.167 HD
ATOM     60  C   UNL A   1      42.628  29.106  34.036  1.00  0.00     0.074 A 
ATOM     61  C   UNL A   1      42.751  29.737  35.335  1.00  0.00     0.031 C 
ATOM     62  C   UNL A   1      43.553  28.266  33.506  1.00  0.00     0.034 A 
BRANCH  49  63
ATOM     63  C   UNL A   1      42.082  26.133  27.860  1.00  0.00     0.023 A 
ATOM     64  C   UNL A   1      41.559  24.832  27.752  1.00  0.00     0.031 A 
ATOM     65  C   UNL A   1      42.981  26.563  26.868  1.00  0.00     0.131 A 
ATOM     66  C   UNL A   1      42.008  23.978  26.734  1.00  0.00     0.055 A 
ATOM     67  C   UNL A   1      43.353  25.737  25.804  1.00  0.00     0.041 A 
ATOM     68  F   UNL A   1      43.530  27.786  26.925  1.00  0.00    -0.206 F 
ATOM     69  C   UNL A   1      42.882  24.429  25.743  1.00  0.00     0.022 A 
BRANCH  66  70
ATOM     70  S   UNL A   1      41.563  22.221  26.824  1.00  0.00     0.124 S 
ATOM     71  O   UNL A   1      42.050  21.728  25.537  1.00  0.00    -0.237 OA
ATOM     72  O   UNL A   1      42.296  21.769  28.000  1.00  0.00    -0.237 OA
ATOM     73  O   UNL A   1      40.109  22.243  26.964  1.00  0.00    -0.744 OA
ENDBRANCH  66  70
ENDBRANCH  49  63
BRANCH  50  74
ATOM     74  C   UNL A   1      39.166  31.958  35.485  1.00  0.00     0.023 A 
ATOM     75  C   UNL A   1      38.484  31.376  36.566  1.00  0.00     0.031 A 
ATOM     76  C   UNL A   1      39.378  33.348  35.511  1.00  0.00     0.131 A 
ATOM     77  C   UNL A   1      37.998  32.186  37.605  1.00  0.00     0.055 A 
ATOM     78  C   UNL A   1      38.938  34.142  36.572  1.00  0.00     0.041 A 
ATOM     79  F   UNL A   1      40.032  33.955  34.507  1.00  0.00    -0.206 F 
ATOM     80  C   UNL A   1      38.232  33.563  37.621  1.00  0.00     0.022 A 
BRANCH  77  81
ATOM     81  S   UNL A   1      36.986  31.420  38.901  1.00  0.00     0.124 S 
ATOM     82  O   UNL A   1      37.843  31.567  40.072  1.00  0.00    -0.237 OA
ATOM     83  O   UNL A   1      35.785  32.247  38.876  1.00  0.00    -0.237 OA
ATOM     84  O   UNL A   1      36.807  30.050  38.426  1.00  0.00    -0.744 OA
ENDBRANCH  77  81
ENDBRANCH  50  74
BRANCH  62  85
ATOM     85  C   UNL A   1      44.807  28.031  34.312  1.00  0.00     0.023 A 
ATOM     86  C   UNL A   1      44.914  26.973  35.232  1.00  0.00     0.031 A 
ATOM     87  C   UNL A   1      45.911  28.890  34.162  1.00  0.00     0.131 A 
ATOM     88  C   UNL A   1      46.074  26.836  36.008  1.00  0.00     0.055 A 
ATOM     89  C   UNL A   1      47.086  28.713  34.892  1.00  0.00     0.041 A 
ATOM     90  F   UNL A   1      45.863  29.917  33.298  1.00  0.00    -0.206 F 
ATOM     91  C   UNL A   1      47.167  27.689  35.832  1.00  0.00     0.022 A 
BRANCH  88  92
ATOM     92  S   UNL A   1      46.103  25.585  37.321  1.00  0.00     0.124 S 
ATOM     93  O   UNL A   1      47.504  25.177  37.320  1.00  0.00    -0.237 OA
ATOM     94  O   UNL A   1      45.662  26.346  38.485  1.00  0.00    -0.237 OA
ATOM     95  O   UNL A   1      45.162  24.571  36.851  1.00  0.00    -0.744 OA
ENDBRANCH  88  92
ENDBRANCH  62  85
ENDBRANCH  36  37
ENDBRANCH  28  31
ENDBRANCH  26  27
ENDBRANCH  25  26
ENDBRANCH  24  25
ENDBRANCH   1  24
TORSDOF 19
ENDMDL
MODEL 3
REMARK VINA RESULT:     -11.1      5.422      8.762
REMARK SMILES C[C@@H]1[C@@H](C(=O)NCCCCNC(=O)c2ccc(-c3c4nc(c(-c5cc(S(=O)(=O)[O-])ccc5F)c5ccc([nH]5)c(-c5cc(S(=O)(=O)[O-])ccc5F)c5nc(c(-c6cc(S(=O)(=O)[O-])ccc6F)c6ccc3[nH]6)C=C5)C=C4)cc2)CCN1C(=O)[C@@H](C)OCc1ccccc1
REMARK SMILES IDX 7 1 6 2 4 3 5 4 3 6 1 7 2 8 79 9 77 10 78 11 80 12 81 13
REMARK SMILES IDX 82 14 83 15 84 16 85 17 86 18 87 19 91 20 88 21 90 22 89 23
REMARK SMILES IDX 8 24 9 25 10 26 11 27 12 28 13 30 14 31 15 32 76 33 16 34
REMARK SMILES IDX 75 35 17 36 18 37 19 38 69 39 20 40 74 41 68 42 70 43 21 44
REMARK SMILES IDX 73 45 67 46 66 47 22 49 54 50 34 51 53 52 35 53 38 54 52 55
REMARK SMILES IDX 71 56 36 57 37 58 51 60 72 61 39 62 23 63 24 64 32 65 25 66
REMARK SMILES IDX 31 67 33 68 30 69 26 70 27 71 28 72 29 73 55 74 56 75 64 76
REMARK SMILES IDX 57 77 63 78 65 79 62 80 58 81 59 82 60 83 61 84 40 85 41 86
REMARK SMILES IDX 49 87 42 88 48 89 50 90 47 91 43 92 44 93 45 94 46 95
REMARK H PARENT 6 5 11 29 70 48 38 59
REMARK Flexibility Score: inf
ROOT
ATOM      1  C   UNL A   1      37.275  22.497  25.580  1.00  0.00     0.116 C 
ENDROOT
BRANCH   1   2
ATOM      2  N   UNL A   1      36.225  22.320  26.564  1.00  0.00    -0.356 N 
ATOM      3  C   UNL A   1      34.919  22.716  26.485  1.00  0.00     0.225 C 
ATOM      4  O   UNL A   1      34.156  22.415  27.399  1.00  0.00    -0.275 OA
ATOM      5  H   UNL A   1      36.485  21.856  27.393  1.00  0.00     0.163 HD
BRANCH   3   6
ATOM      6  C   UNL A   1      34.493  23.552  25.287  1.00  0.00     0.102 C 
ATOM      7  C   UNL A   1      33.679  25.833  24.652  1.00  0.00     0.032 C 
ATOM      8  C   UNL A   1      33.508  24.672  25.648  1.00  0.00     0.094 C 
ATOM      9  N   UNL A   1      32.191  24.078  25.491  1.00  0.00    -0.337 N 
ATOM     10  C   UNL A   1      33.714  22.740  24.248  1.00  0.00     0.037 C 
ATOM     11  C   UNL A   1      32.257  22.880  24.670  1.00  0.00     0.121 C 
BRANCH   9  12
ATOM     12  C   UNL A   1      30.985  24.453  26.042  1.00  0.00     0.251 C 
ATOM     13  O   UNL A   1      30.574  23.860  27.050  1.00  0.00    -0.272 OA
BRANCH  12  14
ATOM     14  C   UNL A   1      30.192  25.718  25.534  1.00  0.00     0.204 C 
ATOM     15  C   UNL A   1      30.702  26.980  26.233  1.00  0.00     0.049 C 
BRANCH  14  16
ATOM     16  O   UNL A   1      29.652  25.941  24.243  1.00  0.00    -0.364 OA
BRANCH  16  17
ATOM     17  C   UNL A   1      28.516  26.761  24.027  1.00  0.00     0.196 C 
BRANCH  17  18
ATOM     18  C   UNL A   1      28.734  28.017  23.221  1.00  0.00    -0.022 A 
ATOM     19  C   UNL A   1      27.655  28.822  22.839  1.00  0.00     0.006 A 
ATOM     20  C   UNL A   1      30.031  28.404  22.845  1.00  0.00     0.006 A 
ATOM     21  C   UNL A   1      27.877  30.037  22.187  1.00  0.00     0.000 A 
ATOM     22  C   UNL A   1      30.252  29.622  22.203  1.00  0.00     0.000 A 
ATOM     23  C   UNL A   1      29.176  30.445  21.887  1.00  0.00     0.000 A 
ENDBRANCH  17  18
ENDBRANCH  16  17
ENDBRANCH  14  16
ENDBRANCH  12  14
ENDBRANCH   9  12
ENDBRANCH   3   6
ENDBRANCH   1   2
BRANCH   1  24
ATOM     24  C   UNL A   1      37.342  21.365  24.562  1.00  0.00     0.023 C 
BRANCH  24  25
ATOM     25  C   UNL A   1      38.221  20.180  24.958  1.00  0.00     0.023 C 
BRANCH  25  26
ATOM     26  C   UNL A   1      39.390  20.505  25.882  1.00  0.00     0.116 C 
BRANCH  26  27
ATOM     27  N   UNL A   1      40.349  19.418  25.993  1.00  0.00    -0.352 N 
ATOM     28  C   UNL A   1      41.711  19.465  26.192  1.00  0.00     0.251 C 
ATOM     29  H   UNL A   1      39.969  18.514  25.914  1.00  0.00     0.163 HD
ATOM     30  O   UNL A   1      42.368  18.436  26.124  1.00  0.00    -0.269 OA
BRANCH  28  31
ATOM     31  C   UNL A   1      42.369  20.766  26.444  1.00  0.00     0.039 A 
ATOM     32  C   UNL A   1      42.629  21.610  25.363  1.00  0.00     0.014 A 
ATOM     33  C   UNL A   1      42.697  21.163  27.742  1.00  0.00     0.014 A 
ATOM     34  C   UNL A   1      43.148  22.887  25.593  1.00  0.00     0.010 A 
ATOM     35  C   UNL A   1      43.130  22.463  27.977  1.00  0.00     0.010 A 
ATOM     36  C   UNL A   1      43.362  23.340  26.904  1.00  0.00    -0.014 A 
BRANCH  36  37
ATOM     37  C   UNL A   1      43.847  24.718  27.180  1.00  0.00     0.031 A 
ATOM     38  C   UNL A   1      42.898  25.748  27.733  1.00  0.00     0.074 A 
ATOM     39  C   UNL A   1      45.113  25.061  26.871  1.00  0.00     0.049 A 
ATOM     40  N   UNL A   1      43.092  27.024  27.948  1.00  0.00    -0.248 NA
ATOM     41  C   UNL A   1      41.540  25.284  28.047  1.00  0.00     0.031 C 
ATOM     42  C   UNL A   1      46.116  24.164  26.291  1.00  0.00     0.029 A 
ATOM     43  N   UNL A   1      45.773  26.259  26.991  1.00  0.00    -0.354 N 
ATOM     44  C   UNL A   1      41.874  27.518  28.405  1.00  0.00     0.074 A 
ATOM     45  C   UNL A   1      40.934  26.417  28.366  1.00  0.00     0.031 C 
ATOM     46  C   UNL A   1      47.268  24.836  26.131  1.00  0.00     0.029 A 
ATOM     47  C   UNL A   1      47.077  26.220  26.551  1.00  0.00     0.049 A 
ATOM     48  H   UNL A   1      45.353  27.070  27.356  1.00  0.00     0.167 HD
ATOM     49  C   UNL A   1      41.573  28.766  28.843  1.00  0.00     0.034 A 
ATOM     50  C   UNL A   1      48.009  27.192  26.487  1.00  0.00     0.034 A 
ATOM     51  C   UNL A   1      42.528  29.848  28.890  1.00  0.00     0.049 A 
ATOM     52  C   UNL A   1      47.651  28.576  26.967  1.00  0.00     0.074 A 
ATOM     53  C   UNL A   1      42.347  31.139  29.357  1.00  0.00     0.029 A 
ATOM     54  N   UNL A   1      43.844  29.766  28.454  1.00  0.00    -0.354 N 
ATOM     55  N   UNL A   1      46.506  29.018  27.436  1.00  0.00    -0.248 NA
ATOM     56  C   UNL A   1      48.715  29.587  26.924  1.00  0.00     0.031 C 
ATOM     57  C   UNL A   1      43.532  31.852  29.146  1.00  0.00     0.029 A 
ATOM     58  C   UNL A   1      44.479  30.988  28.619  1.00  0.00     0.049 A 
ATOM     59  H   UNL A   1      44.265  28.958  28.081  1.00  0.00     0.167 HD
ATOM     60  C   UNL A   1      46.726  30.350  27.777  1.00  0.00     0.074 A 
ATOM     61  C   UNL A   1      48.114  30.633  27.469  1.00  0.00     0.031 C 
ATOM     62  C   UNL A   1      45.862  31.256  28.304  1.00  0.00     0.034 A 
BRANCH  49  63
ATOM     63  C   UNL A   1      40.149  29.021  29.278  1.00  0.00     0.023 A 
ATOM     64  C   UNL A   1      39.789  29.058  30.637  1.00  0.00     0.031 A 
ATOM     65  C   UNL A   1      39.127  29.182  28.324  1.00  0.00     0.131 A 
ATOM     66  C   UNL A   1      38.438  29.156  31.002  1.00  0.00     0.055 A 
ATOM     67  C   UNL A   1      37.795  29.372  28.697  1.00  0.00     0.041 A 
ATOM     68  F   UNL A   1      39.404  29.137  27.012  1.00  0.00    -0.206 F 
ATOM     69  C   UNL A   1      37.440  29.339  30.043  1.00  0.00     0.022 A 
BRANCH  66  70
ATOM     70  S   UNL A   1      37.991  28.871  32.737  1.00  0.00     0.124 S 
ATOM     71  O   UNL A   1      37.798  27.422  32.757  1.00  0.00    -0.237 OA
ATOM     72  O   UNL A   1      39.160  29.369  33.450  1.00  0.00    -0.237 OA
ATOM     73  O   UNL A   1      36.771  29.656  32.910  1.00  0.00    -0.744 OA
ENDBRANCH  66  70
ENDBRANCH  49  63
BRANCH  50  74
ATOM     74  C   UNL A   1      49.369  26.900  25.951  1.00  0.00     0.023 A 
ATOM     75  C   UNL A   1      49.741  27.317  24.663  1.00  0.00     0.031 A 
ATOM     76  C   UNL A   1      50.304  26.166  26.701  1.00  0.00     0.131 A 
ATOM     77  C   UNL A   1      50.996  26.959  24.146  1.00  0.00     0.055 A 
ATOM     78  C   UNL A   1      51.570  25.856  26.203  1.00  0.00     0.041 A 
ATOM     79  F   UNL A   1      50.002  25.750  27.942  1.00  0.00    -0.206 F 
ATOM     80  C   UNL A   1      51.917  26.241  24.913  1.00  0.00     0.022 A 
BRANCH  77  81
ATOM     81  S   UNL A   1      51.378  27.379  22.424  1.00  0.00     0.124 S 
ATOM     82  O   UNL A   1      50.333  26.659  21.704  1.00  0.00    -0.237 OA
ATOM     83  O   UNL A   1      51.265  28.833  22.435  1.00  0.00    -0.237 OA
ATOM     84  O   UNL A   1      52.733  26.863  22.240  1.00  0.00    -0.744 OA
ENDBRANCH  77  81
ENDBRANCH  50  74
BRANCH  62  85
ATOM     85  C   UNL A   1      46.417  32.620  28.635  1.00  0.00     0.023 A 
ATOM     86  C   UNL A   1      46.402  33.675  27.706  1.00  0.00     0.031 A 
ATOM     87  C   UNL A   1      46.980  32.862  29.902  1.00  0.00     0.131 A 
ATOM     88  C   UNL A   1      46.992  34.905  28.036  1.00  0.00     0.055 A 
ATOM     89  C   UNL A   1      47.510  34.105  30.246  1.00  0.00     0.041 A 
ATOM     90  F   UNL A   1      47.021  31.889  30.826  1.00  0.00    -0.206 F 
ATOM     91  C   UNL A   1      47.531  35.131  29.306  1.00  0.00     0.022 A 
BRANCH  88  92
ATOM     92  S   UNL A   1      47.132  36.178  26.752  1.00  0.00     0.124 S 
ATOM     93  O   UNL A   1      48.543  36.540  26.838  1.00  0.00    -0.237 OA
ATOM     94  O   UNL A   1      46.732  35.453  25.550  1.00  0.00    -0.237 OA
ATOM     95  O   UNL A   1      46.198  37.213  27.191  1.00  0.00    -0.744 OA
ENDBRANCH  88  92
ENDBRANCH  62  85
ENDBRANCH  36  37
ENDBRANCH  28  31
ENDBRANCH  26  27
ENDBRANCH  25  26
ENDBRANCH  24  25
ENDBRANCH   1  24
TORSDOF 19
ENDMDL
