MODEL 1
REMARK VINA RESULT:     -11.9      0.000      0.000
REMARK SMILES C[C@@H]1C[C@@H](C)CN(C(=O)CSc2csc(C(=O)NCCCCNC(=O)c3ccc(-c4c5nc(c(-c6cc(S(=O)(=O)[O-])ccc6F)c6ccc([nH]6)c(-c6cc(S(=O)(=O)[O-])ccc6F)c6nc(c(-c7cc(S(=O)(=O)[O-])ccc7F)c7ccc4[nH]7)C=C6)C=C5)cc3)c2)C1
REMARK SMILES IDX 20 1 19 2 18 3 16 4 17 5 15 7 12 8 13 9 89 10 14 11 11 12
REMARK SMILES IDX 10 13 8 14 1 15 2 16 3 17 90 18 4 19 7 20 6 21 5 22 9 23
REMARK SMILES IDX 21 24 22 25 23 26 24 27 25 29 26 30 27 31 88 32 28 33 87 34
REMARK SMILES IDX 29 35 30 36 31 37 81 38 32 39 86 40 80 41 82 42 33 43 85 44
REMARK SMILES IDX 79 45 78 46 34 48 66 49 46 50 65 51 47 52 50 53 64 54 83 55
REMARK SMILES IDX 48 56 49 57 63 59 84 60 51 61 35 62 36 63 44 64 37 65 43 66
REMARK SMILES IDX 45 67 42 68 38 69 39 70 40 71 41 72 67 73 68 74 76 75 69 76
REMARK SMILES IDX 75 77 77 78 74 79 70 80 71 81 72 82 73 83 52 84 53 85 61 86
REMARK SMILES IDX 54 87 60 88 62 89 59 90 55 91 56 92 57 93 58 94
REMARK H PARENT 18 6 23 28 82 47 50 58
REMARK Flexibility Score: inf
ROOT
ATOM      1  C   UNL A   1      31.339  30.901  25.809  1.00  0.00     0.023 C 
ENDROOT
BRANCH   1   2
ATOM      2  C   UNL A   1      31.679  29.671  24.969  1.00  0.00     0.116 C 
BRANCH   2   3
ATOM      3  N   UNL A   1      30.978  29.687  23.702  1.00  0.00    -0.351 N 
ATOM      4  C   UNL A   1      30.791  28.732  22.731  1.00  0.00     0.261 C 
ATOM      5  O   UNL A   1      30.096  29.095  21.777  1.00  0.00    -0.268 OA
ATOM      6  H   UNL A   1      30.552  30.551  23.496  1.00  0.00     0.163 HD
BRANCH   4   7
ATOM      7  C   UNL A   1      31.357  27.389  22.834  1.00  0.00     0.093 A 
ATOM      8  C   UNL A   1      31.763  25.096  23.163  1.00  0.00     0.019 A 
ATOM      9  C   UNL A   1      32.982  25.514  22.689  1.00  0.00     0.080 A 
ATOM     10  C   UNL A   1      30.844  26.177  23.264  1.00  0.00     0.040 A 
ATOM     11  S   UNL A   1      33.010  27.188  22.367  1.00  0.00    -0.137 S 
BRANCH   8  12
ATOM     12  S   UNL A   1      31.454  23.411  23.550  1.00  0.00    -0.115 SA
BRANCH  12  13
ATOM     13  C   UNL A   1      31.725  23.241  25.335  1.00  0.00     0.175 C 
BRANCH  13  14
ATOM     14  C   UNL A   1      33.170  23.424  25.772  1.00  0.00     0.232 C 
ATOM     15  C   UNL A   1      36.299  22.636  23.863  1.00  0.00     0.009 C 
ATOM     16  C   UNL A   1      36.292  21.842  25.173  1.00  0.00     0.006 C 
ATOM     17  C   UNL A   1      35.860  20.379  24.946  1.00  0.00     0.010 C 
ATOM     18  C   UNL A   1      35.408  22.521  26.234  1.00  0.00     0.122 C 
ATOM     19  C   UNL A   1      34.345  20.240  24.710  1.00  0.00     0.006 C 
ATOM     20  N   UNL A   1      33.988  22.320  25.952  1.00  0.00    -0.341 N 
ATOM     21  C   UNL A   1      33.578  20.923  25.849  1.00  0.00     0.122 C 
ATOM     22  C   UNL A   1      33.932  18.777  24.584  1.00  0.00     0.009 C 
ATOM     23  O   UNL A   1      33.581  24.568  25.995  1.00  0.00    -0.274 OA
ENDBRANCH  13  14
ENDBRANCH  12  13
ENDBRANCH   8  12
ENDBRANCH   4   7
ENDBRANCH   2   3
ENDBRANCH   1   2
BRANCH   1  24
ATOM     24  C   UNL A   1      32.137  31.010  27.114  1.00  0.00     0.023 C 
BRANCH  24  25
ATOM     25  C   UNL A   1      33.237  32.071  27.114  1.00  0.00     0.116 C 
BRANCH  25  26
ATOM     26  N   UNL A   1      32.760  33.400  27.458  1.00  0.00    -0.352 N 
ATOM     27  C   UNL A   1      33.214  34.243  28.450  1.00  0.00     0.251 C 
ATOM     28  H   UNL A   1      32.016  33.744  26.912  1.00  0.00     0.163 HD
ATOM     29  O   UNL A   1      32.641  35.297  28.672  1.00  0.00    -0.269 OA
BRANCH  27  30
ATOM     30  C   UNL A   1      34.370  33.824  29.275  1.00  0.00     0.039 A 
ATOM     31  C   UNL A   1      34.146  32.957  30.348  1.00  0.00     0.014 A 
ATOM     32  C   UNL A   1      35.665  34.248  28.968  1.00  0.00     0.014 A 
ATOM     33  C   UNL A   1      35.233  32.456  31.069  1.00  0.00     0.010 A 
ATOM     34  C   UNL A   1      36.750  33.698  29.646  1.00  0.00     0.010 A 
ATOM     35  C   UNL A   1      36.546  32.791  30.698  1.00  0.00    -0.014 A 
BRANCH  35  36
ATOM     36  C   UNL A   1      37.717  32.195  31.390  1.00  0.00     0.031 A 
ATOM     37  C   UNL A   1      38.485  31.075  30.744  1.00  0.00     0.074 A 
ATOM     38  C   UNL A   1      38.043  32.615  32.630  1.00  0.00     0.049 A 
ATOM     39  N   UNL A   1      39.476  30.367  31.220  1.00  0.00    -0.248 NA
ATOM     40  C   UNL A   1      38.058  30.681  29.393  1.00  0.00     0.031 C 
ATOM     41  C   UNL A   1      37.345  33.663  33.378  1.00  0.00     0.029 A 
ATOM     42  N   UNL A   1      39.033  32.204  33.485  1.00  0.00    -0.354 N 
ATOM     43  C   UNL A   1      39.783  29.433  30.237  1.00  0.00     0.074 A 
ATOM     44  C   UNL A   1      38.832  29.630  29.162  1.00  0.00     0.031 C 
ATOM     45  C   UNL A   1      37.940  33.824  34.570  1.00  0.00     0.029 A 
ATOM     46  C   UNL A   1      39.033  32.865  34.692  1.00  0.00     0.049 A 
ATOM     47  H   UNL A   1      39.685  31.502  33.257  1.00  0.00     0.167 HD
ATOM     48  C   UNL A   1      40.776  28.509  30.224  1.00  0.00     0.034 A 
ATOM     49  C   UNL A   1      39.817  32.709  35.778  1.00  0.00     0.034 A 
ATOM     50  C   UNL A   1      41.724  28.336  31.297  1.00  0.00     0.049 A 
ATOM     51  C   UNL A   1      40.911  31.672  35.741  1.00  0.00     0.074 A 
ATOM     52  C   UNL A   1      42.805  27.474  31.363  1.00  0.00     0.029 A 
ATOM     53  N   UNL A   1      41.704  29.037  32.497  1.00  0.00    -0.354 N 
ATOM     54  N   UNL A   1      41.220  30.830  34.782  1.00  0.00    -0.248 NA
ATOM     55  C   UNL A   1      41.767  31.572  36.930  1.00  0.00     0.031 C 
ATOM     56  C   UNL A   1      43.399  27.608  32.623  1.00  0.00     0.029 A 
ATOM     57  C   UNL A   1      42.735  28.606  33.318  1.00  0.00     0.049 A 
ATOM     58  H   UNL A   1      41.052  29.736  32.731  1.00  0.00     0.167 HD
ATOM     59  C   UNL A   1      42.327  30.123  35.241  1.00  0.00     0.074 A 
ATOM     60  C   UNL A   1      42.639  30.646  36.555  1.00  0.00     0.031 C 
ATOM     61  C   UNL A   1      43.028  29.134  34.630  1.00  0.00     0.034 A 
BRANCH  48  62
ATOM     62  C   UNL A   1      40.866  27.605  29.018  1.00  0.00     0.023 A 
ATOM     63  C   UNL A   1      41.813  27.822  28.002  1.00  0.00     0.031 A 
ATOM     64  C   UNL A   1      39.977  26.527  28.867  1.00  0.00     0.131 A 
ATOM     65  C   UNL A   1      41.799  27.024  26.848  1.00  0.00     0.055 A 
ATOM     66  C   UNL A   1      40.021  25.685  27.754  1.00  0.00     0.041 A 
ATOM     67  F   UNL A   1      39.037  26.281  29.795  1.00  0.00    -0.206 F 
ATOM     68  C   UNL A   1      40.926  25.941  26.728  1.00  0.00     0.022 A 
BRANCH  65  69
ATOM     69  S   UNL A   1      42.845  27.509  25.448  1.00  0.00     0.124 S 
ATOM     70  O   UNL A   1      42.760  26.326  24.594  1.00  0.00    -0.237 OA
ATOM     71  O   UNL A   1      42.176  28.705  24.952  1.00  0.00    -0.237 OA
ATOM     72  O   UNL A   1      44.154  27.733  26.061  1.00  0.00    -0.744 OA
ENDBRANCH  65  69
ENDBRANCH  48  62
BRANCH  49  73
ATOM     73  C   UNL A   1      39.599  33.541  36.995  1.00  0.00     0.023 A 
ATOM     74  C   UNL A   1      38.955  33.011  38.125  1.00  0.00     0.031 A 
ATOM     75  C   UNL A   1      39.988  34.891  37.031  1.00  0.00     0.131 A 
ATOM     76  C   UNL A   1      38.675  33.839  39.223  1.00  0.00     0.055 A 
ATOM     77  C   UNL A   1      39.753  35.698  38.146  1.00  0.00     0.041 A 
ATOM     78  F   UNL A   1      40.612  35.445  35.979  1.00  0.00    -0.206 F 
ATOM     79  C   UNL A   1      39.080  35.175  39.246  1.00  0.00     0.022 A 
BRANCH  76  80
ATOM     80  S   UNL A   1      37.694  33.163  40.591  1.00  0.00     0.124 S 
ATOM     81  O   UNL A   1      38.411  31.929  40.890  1.00  0.00    -0.237 OA
ATOM     82  O   UNL A   1      37.796  34.222  41.589  1.00  0.00    -0.237 OA
ATOM     83  O   UNL A   1      36.367  32.989  40.004  1.00  0.00    -0.744 OA
ENDBRANCH  76  80
ENDBRANCH  49  73
BRANCH  61  84
ATOM     84  C   UNL A   1      44.228  28.592  35.366  1.00  0.00     0.023 A 
ATOM     85  C   UNL A   1      44.115  27.548  36.300  1.00  0.00     0.031 A 
ATOM     86  C   UNL A   1      45.502  29.140  35.135  1.00  0.00     0.131 A 
ATOM     87  C   UNL A   1      45.248  27.122  37.010  1.00  0.00     0.055 A 
ATOM     88  C   UNL A   1      46.634  28.672  35.801  1.00  0.00     0.041 A 
ATOM     89  F   UNL A   1      45.666  30.140  34.253  1.00  0.00    -0.206 F 
ATOM     90  C   UNL A   1      46.510  27.666  36.755  1.00  0.00     0.022 A 
BRANCH  87  91
ATOM     91  S   UNL A   1      45.038  25.901  38.336  1.00  0.00     0.124 S 
ATOM     92  O   UNL A   1      46.415  25.498  38.598  1.00  0.00    -0.237 OA
ATOM     93  O   UNL A   1      44.393  26.686  39.383  1.00  0.00    -0.237 OA
ATOM     94  O   UNL A   1      44.196  24.873  37.726  1.00  0.00    -0.744 OA
ENDBRANCH  87  91
ENDBRANCH  61  84
ENDBRANCH  35  36
ENDBRANCH  27  30
ENDBRANCH  25  26
ENDBRANCH  24  25
ENDBRANCH   1  24
TORSDOF 17
ENDMDL
MODEL 2
REMARK VINA RESULT:     -11.6      6.041     11.563
REMARK SMILES C[C@@H]1C[C@@H](C)CN(C(=O)CSc2csc(C(=O)NCCCCNC(=O)c3ccc(-c4c5nc(c(-c6cc(S(=O)(=O)[O-])ccc6F)c6ccc([nH]6)c(-c6cc(S(=O)(=O)[O-])ccc6F)c6nc(c(-c7cc(S(=O)(=O)[O-])ccc7F)c7ccc4[nH]7)C=C6)C=C5)cc3)c2)C1
REMARK SMILES IDX 20 1 19 2 18 3 16 4 17 5 15 7 12 8 13 9 89 10 14 11 11 12
REMARK SMILES IDX 10 13 8 14 1 15 2 16 3 17 90 18 4 19 7 20 6 21 5 22 9 23
REMARK SMILES IDX 21 24 22 25 23 26 24 27 25 29 26 30 27 31 88 32 28 33 87 34
REMARK SMILES IDX 29 35 30 36 31 37 81 38 32 39 86 40 80 41 82 42 33 43 85 44
REMARK SMILES IDX 79 45 78 46 34 48 66 49 46 50 65 51 47 52 50 53 64 54 83 55
REMARK SMILES IDX 48 56 49 57 63 59 84 60 51 61 35 62 36 63 44 64 37 65 43 66
REMARK SMILES IDX 45 67 42 68 38 69 39 70 40 71 41 72 67 73 68 74 76 75 69 76
REMARK SMILES IDX 75 77 77 78 74 79 70 80 71 81 72 82 73 83 52 84 53 85 61 86
REMARK SMILES IDX 54 87 60 88 62 89 59 90 55 91 56 92 57 93 58 94
REMARK H PARENT 18 6 23 28 82 47 50 58
REMARK Flexibility Score: inf
ROOT
ATOM      1  C   UNL A   1      36.792  19.865  24.896  1.00  0.00     0.023 C 
ENDROOT
BRANCH   1   2
ATOM      2  C   UNL A   1      35.487  20.656  24.981  1.00  0.00     0.116 C 
BRANCH   2   3
ATOM      3  N   UNL A   1      34.353  19.780  25.200  1.00  0.00    -0.351 N 
ATOM      4  C   UNL A   1      33.003  20.017  25.301  1.00  0.00     0.261 C 
ATOM      5  O   UNL A   1      32.313  19.005  25.459  1.00  0.00    -0.268 OA
ATOM      6  H   UNL A   1      34.598  18.831  25.294  1.00  0.00     0.163 HD
BRANCH   4   7
ATOM      7  C   UNL A   1      32.433  21.360  25.209  1.00  0.00     0.093 A 
ATOM      8  C   UNL A   1      31.441  23.383  24.536  1.00  0.00     0.019 A 
ATOM      9  C   UNL A   1      31.622  23.611  25.878  1.00  0.00     0.080 A 
ATOM     10  C   UNL A   1      31.927  22.101  24.155  1.00  0.00     0.040 A 
ATOM     11  S   UNL A   1      32.364  22.292  26.663  1.00  0.00    -0.137 S 
BRANCH   8  12
ATOM     12  S   UNL A   1      30.674  24.571  23.495  1.00  0.00    -0.115 SA
BRANCH  12  13
ATOM     13  C   UNL A   1      31.992  25.272  22.467  1.00  0.00     0.175 C 
BRANCH  13  14
ATOM     14  C   UNL A   1      32.722  26.449  23.095  1.00  0.00     0.232 C 
ATOM     15  C   UNL A   1      31.699  28.517  26.050  1.00  0.00     0.009 C 
ATOM     16  C   UNL A   1      31.858  29.426  24.827  1.00  0.00     0.006 C 
ATOM     17  C   UNL A   1      30.494  29.768  24.195  1.00  0.00     0.010 C 
ATOM     18  C   UNL A   1      32.808  28.805  23.788  1.00  0.00     0.122 C 
ATOM     19  C   UNL A   1      29.900  28.592  23.397  1.00  0.00     0.006 C 
ATOM     20  N   UNL A   1      32.162  27.716  23.059  1.00  0.00    -0.341 N 
ATOM     21  C   UNL A   1      30.927  28.089  22.375  1.00  0.00     0.122 C 
ATOM     22  C   UNL A   1      28.601  28.988  22.705  1.00  0.00     0.009 C 
ATOM     23  O   UNL A   1      33.833  26.254  23.602  1.00  0.00    -0.274 OA
ENDBRANCH  13  14
ENDBRANCH  12  13
ENDBRANCH   8  12
ENDBRANCH   4   7
ENDBRANCH   2   3
ENDBRANCH   1   2
BRANCH   1  24
ATOM     24  C   UNL A   1      38.052  20.738  24.862  1.00  0.00     0.023 C 
BRANCH  24  25
ATOM     25  C   UNL A   1      38.955  20.621  26.089  1.00  0.00     0.116 C 
BRANCH  25  26
ATOM     26  N   UNL A   1      39.927  19.544  25.995  1.00  0.00    -0.352 N 
ATOM     27  C   UNL A   1      41.298  19.616  26.107  1.00  0.00     0.251 C 
ATOM     28  H   UNL A   1      39.557  18.646  25.829  1.00  0.00     0.163 HD
ATOM     29  O   UNL A   1      41.985  18.626  25.909  1.00  0.00    -0.269 OA
BRANCH  27  30
ATOM     30  C   UNL A   1      41.926  20.921  26.417  1.00  0.00     0.039 A 
ATOM     31  C   UNL A   1      42.160  21.815  25.369  1.00  0.00     0.014 A 
ATOM     32  C   UNL A   1      42.242  21.274  27.731  1.00  0.00     0.014 A 
ATOM     33  C   UNL A   1      42.643  23.096  25.650  1.00  0.00     0.010 A 
ATOM     34  C   UNL A   1      42.662  22.571  28.014  1.00  0.00     0.010 A 
ATOM     35  C   UNL A   1      42.860  23.497  26.978  1.00  0.00    -0.014 A 
BRANCH  35  36
ATOM     36  C   UNL A   1      43.282  24.884  27.305  1.00  0.00     0.031 A 
ATOM     37  C   UNL A   1      42.321  25.827  27.974  1.00  0.00     0.074 A 
ATOM     38  C   UNL A   1      44.506  25.312  26.933  1.00  0.00     0.049 A 
ATOM     39  N   UNL A   1      42.467  27.094  28.260  1.00  0.00    -0.248 NA
ATOM     40  C   UNL A   1      41.008  25.274  28.341  1.00  0.00     0.031 C 
ATOM     41  C   UNL A   1      45.509  24.503  26.237  1.00  0.00     0.029 A 
ATOM     42  N   UNL A   1      45.109  26.536  27.074  1.00  0.00    -0.354 N 
ATOM     43  C   UNL A   1      41.262  27.497  28.826  1.00  0.00     0.074 A 
ATOM     44  C   UNL A   1      40.379  26.351  28.789  1.00  0.00     0.031 C 
ATOM     45  C   UNL A   1      46.607  25.246  26.030  1.00  0.00     0.029 A 
ATOM     46  C   UNL A   1      46.375  26.595  26.538  1.00  0.00     0.049 A 
ATOM     47  H   UNL A   1      44.677  27.301  27.519  1.00  0.00     0.167 HD
ATOM     48  C   UNL A   1      40.932  28.705  29.346  1.00  0.00     0.034 A 
ATOM     49  C   UNL A   1      47.245  27.622  26.453  1.00  0.00     0.034 A 
ATOM     50  C   UNL A   1      41.830  29.833  29.390  1.00  0.00     0.049 A 
ATOM     51  C   UNL A   1      46.851  28.957  27.033  1.00  0.00     0.074 A 
ATOM     52  C   UNL A   1      41.620  31.083  29.946  1.00  0.00     0.029 A 
ATOM     53  N   UNL A   1      43.112  29.851  28.852  1.00  0.00    -0.354 N 
ATOM     54  N   UNL A   1      45.726  29.307  27.611  1.00  0.00    -0.248 NA
ATOM     55  C   UNL A   1      47.850  30.031  26.958  1.00  0.00     0.031 C 
ATOM     56  C   UNL A   1      42.746  31.873  29.691  1.00  0.00     0.029 A 
ATOM     57  C   UNL A   1      43.690  31.097  29.039  1.00  0.00     0.049 A 
ATOM     58  H   UNL A   1      43.545  29.090  28.403  1.00  0.00     0.167 HD
ATOM     59  C   UNL A   1      45.895  30.634  27.997  1.00  0.00     0.074 A 
ATOM     60  C   UNL A   1      47.235  31.014  27.598  1.00  0.00     0.031 C 
ATOM     61  C   UNL A   1      45.026  31.462  28.628  1.00  0.00     0.034 A 
BRANCH  48  62
ATOM     62  C   UNL A   1      39.531  28.868  29.887  1.00  0.00     0.023 A 
ATOM     63  C   UNL A   1      38.493  29.394  29.098  1.00  0.00     0.031 A 
ATOM     64  C   UNL A   1      39.234  28.517  31.215  1.00  0.00     0.131 A 
ATOM     65  C   UNL A   1      37.231  29.626  29.665  1.00  0.00     0.055 A 
ATOM     66  C   UNL A   1      37.953  28.675  31.751  1.00  0.00     0.041 A 
ATOM     67  F   UNL A   1      40.189  28.028  32.022  1.00  0.00    -0.206 F 
ATOM     68  C   UNL A   1      36.946  29.247  30.979  1.00  0.00     0.022 A 
BRANCH  65  69
ATOM     69  S   UNL A   1      36.008  30.558  28.703  1.00  0.00     0.124 S 
ATOM     70  O   UNL A   1      35.259  29.482  28.058  1.00  0.00    -0.237 OA
ATOM     71  O   UNL A   1      35.296  31.305  29.733  1.00  0.00    -0.237 OA
ATOM     72  O   UNL A   1      36.827  31.366  27.799  1.00  0.00    -0.744 OA
ENDBRANCH  65  69
ENDBRANCH  48  62
BRANCH  49  73
ATOM     73  C   UNL A   1      48.566  27.441  25.789  1.00  0.00     0.023 A 
ATOM     74  C   UNL A   1      48.699  27.577  24.397  1.00  0.00     0.031 A 
ATOM     75  C   UNL A   1      49.708  27.084  26.528  1.00  0.00     0.131 A 
ATOM     76  C   UNL A   1      49.933  27.309  23.783  1.00  0.00     0.055 A 
ATOM     77  C   UNL A   1      50.945  26.869  25.918  1.00  0.00     0.041 A 
ATOM     78  F   UNL A   1      49.636  26.948  27.862  1.00  0.00    -0.206 F 
ATOM     79  C   UNL A   1      51.059  26.967  24.535  1.00  0.00     0.022 A 
BRANCH  76  80
ATOM     80  S   UNL A   1      50.022  27.330  21.972  1.00  0.00     0.124 S 
ATOM     81  O   UNL A   1      49.731  28.728  21.675  1.00  0.00    -0.237 OA
ATOM     82  O   UNL A   1      51.394  26.896  21.731  1.00  0.00    -0.237 OA
ATOM     83  O   UNL A   1      48.990  26.377  21.570  1.00  0.00    -0.744 OA
ENDBRANCH  76  80
ENDBRANCH  49  73
BRANCH  61  84
ATOM     84  C   UNL A   1      45.521  32.846  28.966  1.00  0.00     0.023 A 
ATOM     85  C   UNL A   1      45.445  33.905  28.045  1.00  0.00     0.031 A 
ATOM     86  C   UNL A   1      46.093  33.103  30.225  1.00  0.00     0.131 A 
ATOM     87  C   UNL A   1      45.980  35.159  28.378  1.00  0.00     0.055 A 
ATOM     88  C   UNL A   1      46.571  34.366  30.571  1.00  0.00     0.041 A 
ATOM     89  F   UNL A   1      46.192  32.126  31.141  1.00  0.00    -0.206 F 
ATOM     90  C   UNL A   1      46.528  35.400  29.641  1.00  0.00     0.022 A 
BRANCH  87  91
ATOM     91  S   UNL A   1      46.029  36.452  27.106  1.00  0.00     0.124 S 
ATOM     92  O   UNL A   1      45.994  35.668  25.875  1.00  0.00    -0.237 OA
ATOM     93  O   UNL A   1      44.827  37.226  27.402  1.00  0.00    -0.237 OA
ATOM     94  O   UNL A   1      47.290  37.143  27.366  1.00  0.00    -0.744 OA
ENDBRANCH  87  91
ENDBRANCH  61  84
ENDBRANCH  35  36
ENDBRANCH  27  30
ENDBRANCH  25  26
ENDBRANCH  24  25
ENDBRANCH   1  24
TORSDOF 17
ENDMDL
MODEL 3
REMARK VINA RESULT:     -11.5      5.685     11.482
REMARK SMILES C[C@@H]1C[C@@H](C)CN(C(=O)CSc2csc(C(=O)NCCCCNC(=O)c3ccc(-c4c5nc(c(-c6cc(S(=O)(=O)[O-])ccc6F)c6ccc([nH]6)c(-c6cc(S(=O)(=O)[O-])ccc6F)c6nc(c(-c7cc(S(=O)(=O)[O-])ccc7F)c7ccc4[nH]7)C=C6)C=C5)cc3)c2)C1
REMARK SMILES IDX 20 1 19 2 18 3 16 4 17 5 15 7 12 8 13 9 89 10 14 11 11 12
REMARK SMILES IDX 10 13 8 14 1 15 2 16 3 17 90 18 4 19 7 20 6 21 5 22 9 23
REMARK SMILES IDX 21 24 22 25 23 26 24 27 25 29 26 30 27 31 88 32 28 33 87 34
REMARK SMILES IDX 29 35 30 36 31 37 81 38 32 39 86 40 80 41 82 42 33 43 85 44
REMARK SMILES IDX 79 45 78 46 34 48 66 49 46 50 65 51 47 52 50 53 64 54 83 55
REMARK SMILES IDX 48 56 49 57 63 59 84 60 51 61 35 62 36 63 44 64 37 65 43 66
REMARK SMILES IDX 45 67 42 68 38 69 39 70 40 71 41 72 67 73 68 74 76 75 69 76
REMARK SMILES IDX 75 77 77 78 74 79 70 80 71 81 72 82 73 83 52 84 53 85 61 86
REMARK SMILES IDX 54 87 60 88 62 89 59 90 55 91 56 92 57 93 58 94
REMARK H PARENT 18 6 23 28 82 47 50 58
REMARK Flexibility Score: inf
ROOT
ATOM      1  C   UNL A   1      37.404  21.822  24.494  1.00  0.00     0.023 C 
ENDROOT
BRANCH   1   2
ATOM      2  C   UNL A   1      36.497  22.797  25.246  1.00  0.00     0.116 C 
BRANCH   2   3
ATOM      3  N   UNL A   1      35.731  22.119  26.272  1.00  0.00    -0.351 N 
ATOM      4  C   UNL A   1      34.395  21.813  26.383  1.00  0.00     0.261 C 
ATOM      5  O   UNL A   1      34.094  21.185  27.404  1.00  0.00    -0.268 OA
ATOM      6  H   UNL A   1      36.272  21.819  27.038  1.00  0.00     0.163 HD
BRANCH   4   7
ATOM      7  C   UNL A   1      33.417  22.186  25.363  1.00  0.00     0.093 A 
ATOM      8  C   UNL A   1      31.847  23.266  23.985  1.00  0.00     0.019 A 
ATOM      9  C   UNL A   1      31.951  22.047  23.362  1.00  0.00     0.080 A 
ATOM     10  C   UNL A   1      32.673  23.332  25.142  1.00  0.00     0.040 A 
ATOM     11  S   UNL A   1      33.035  21.002  24.163  1.00  0.00    -0.137 S 
BRANCH   8  12
ATOM     12  S   UNL A   1      30.817  24.539  23.353  1.00  0.00    -0.115 SA
BRANCH  12  13
ATOM     13  C   UNL A   1      31.768  25.361  22.046  1.00  0.00     0.175 C 
BRANCH  13  14
ATOM     14  C   UNL A   1      33.019  26.076  22.534  1.00  0.00     0.232 C 
ATOM     15  C   UNL A   1      33.692  27.552  25.913  1.00  0.00     0.009 C 
ATOM     16  C   UNL A   1      33.814  28.647  24.850  1.00  0.00     0.006 C 
ATOM     17  C   UNL A   1      32.546  29.522  24.789  1.00  0.00     0.010 C 
ATOM     18  C   UNL A   1      34.141  28.052  23.469  1.00  0.00     0.122 C 
ATOM     19  C   UNL A   1      31.369  28.810  24.097  1.00  0.00     0.006 C 
ATOM     20  N   UNL A   1      32.967  27.419  22.870  1.00  0.00    -0.341 N 
ATOM     21  C   UNL A   1      31.811  28.297  22.722  1.00  0.00     0.122 C 
ATOM     22  C   UNL A   1      30.160  29.730  23.966  1.00  0.00     0.009 C 
ATOM     23  O   UNL A   1      34.080  25.443  22.587  1.00  0.00    -0.274 OA
ENDBRANCH  13  14
ENDBRANCH  12  13
ENDBRANCH   8  12
ENDBRANCH   4   7
ENDBRANCH   2   3
ENDBRANCH   1   2
BRANCH   1  24
ATOM     24  C   UNL A   1      37.872  20.627  25.333  1.00  0.00     0.023 C 
BRANCH  24  25
ATOM     25  C   UNL A   1      39.171  20.848  26.106  1.00  0.00     0.116 C 
BRANCH  25  26
ATOM     26  N   UNL A   1      40.096  19.730  26.019  1.00  0.00    -0.352 N 
ATOM     27  C   UNL A   1      41.470  19.745  26.118  1.00  0.00     0.251 C 
ATOM     28  H   UNL A   1      39.687  18.846  25.869  1.00  0.00     0.163 HD
ATOM     29  O   UNL A   1      42.112  18.724  25.928  1.00  0.00    -0.269 OA
BRANCH  27  30
ATOM     30  C   UNL A   1      42.155  21.026  26.403  1.00  0.00     0.039 A 
ATOM     31  C   UNL A   1      42.451  21.878  25.336  1.00  0.00     0.014 A 
ATOM     32  C   UNL A   1      42.466  21.400  27.713  1.00  0.00     0.014 A 
ATOM     33  C   UNL A   1      42.991  23.141  25.590  1.00  0.00     0.010 A 
ATOM     34  C   UNL A   1      42.944  22.683  27.968  1.00  0.00     0.010 A 
ATOM     35  C   UNL A   1      43.204  23.569  26.911  1.00  0.00    -0.014 A 
BRANCH  35  36
ATOM     36  C   UNL A   1      43.689  24.942  27.207  1.00  0.00     0.031 A 
ATOM     37  C   UNL A   1      42.740  25.975  27.749  1.00  0.00     0.074 A 
ATOM     38  C   UNL A   1      44.963  25.275  26.920  1.00  0.00     0.049 A 
ATOM     39  N   UNL A   1      42.944  27.245  27.987  1.00  0.00    -0.248 NA
ATOM     40  C   UNL A   1      41.368  25.523  28.030  1.00  0.00     0.031 C 
ATOM     41  C   UNL A   1      45.965  24.372  26.348  1.00  0.00     0.029 A 
ATOM     42  N   UNL A   1      45.632  26.465  27.053  1.00  0.00    -0.354 N 
ATOM     43  C   UNL A   1      41.727  27.749  28.431  1.00  0.00     0.074 A 
ATOM     44  C   UNL A   1      40.776  26.658  28.373  1.00  0.00     0.031 C 
ATOM     45  C   UNL A   1      47.122  25.035  26.200  1.00  0.00     0.029 A 
ATOM     46  C   UNL A   1      46.938  26.420  26.622  1.00  0.00     0.049 A 
ATOM     47  H   UNL A   1      45.216  27.278  27.425  1.00  0.00     0.167 HD
ATOM     48  C   UNL A   1      41.435  29.001  28.865  1.00  0.00     0.034 A 
ATOM     49  C   UNL A   1      47.876  27.385  26.564  1.00  0.00     0.034 A 
ATOM     50  C   UNL A   1      42.398  30.072  28.931  1.00  0.00     0.049 A 
ATOM     51  C   UNL A   1      47.526  28.770  27.046  1.00  0.00     0.074 A 
ATOM     52  C   UNL A   1      42.226  31.360  29.409  1.00  0.00     0.029 A 
ATOM     53  N   UNL A   1      43.718  29.983  28.503  1.00  0.00    -0.354 N 
ATOM     54  N   UNL A   1      46.382  29.218  27.511  1.00  0.00    -0.248 NA
ATOM     55  C   UNL A   1      48.595  29.776  27.005  1.00  0.00     0.031 C 
ATOM     56  C   UNL A   1      43.418  32.065  29.213  1.00  0.00     0.029 A 
ATOM     57  C   UNL A   1      44.359  31.200  28.679  1.00  0.00     0.049 A 
ATOM     58  H   UNL A   1      44.135  29.175  28.127  1.00  0.00     0.167 HD
ATOM     59  C   UNL A   1      46.606  30.550  27.847  1.00  0.00     0.074 A 
ATOM     60  C   UNL A   1      47.995  30.827  27.545  1.00  0.00     0.031 C 
ATOM     61  C   UNL A   1      45.744  31.462  28.365  1.00  0.00     0.034 A 
BRANCH  48  62
ATOM     62  C   UNL A   1      40.008  29.276  29.278  1.00  0.00     0.023 A 
ATOM     63  C   UNL A   1      39.630  29.330  30.631  1.00  0.00     0.031 A 
ATOM     64  C   UNL A   1      39.008  29.459  28.308  1.00  0.00     0.131 A 
ATOM     65  C   UNL A   1      38.278  29.485  30.974  1.00  0.00     0.055 A 
ATOM     66  C   UNL A   1      37.676  29.694  28.657  1.00  0.00     0.041 A 
ATOM     67  F   UNL A   1      39.305  29.398  27.000  1.00  0.00    -0.206 F 
ATOM     68  C   UNL A   1      37.302  29.692  29.998  1.00  0.00     0.022 A 
BRANCH  65  69
ATOM     69  S   UNL A   1      37.798  29.272  32.710  1.00  0.00     0.124 S 
ATOM     70  O   UNL A   1      37.728  27.816  32.820  1.00  0.00    -0.237 OA
ATOM     71  O   UNL A   1      38.894  29.916  33.424  1.00  0.00    -0.237 OA
ATOM     72  O   UNL A   1      36.509  29.958  32.795  1.00  0.00    -0.744 OA
ENDBRANCH  65  69
ENDBRANCH  48  62
BRANCH  49  73
ATOM     73  C   UNL A   1      49.233  27.091  26.021  1.00  0.00     0.023 A 
ATOM     74  C   UNL A   1      50.304  26.793  26.879  1.00  0.00     0.031 A 
ATOM     75  C   UNL A   1      49.491  27.148  24.640  1.00  0.00     0.131 A 
ATOM     76  C   UNL A   1      51.593  26.614  26.352  1.00  0.00     0.055 A 
ATOM     77  C   UNL A   1      50.764  26.917  24.117  1.00  0.00     0.041 A 
ATOM     78  F   UNL A   1      48.500  27.421  23.776  1.00  0.00    -0.206 F 
ATOM     79  C   UNL A   1      51.828  26.662  24.977  1.00  0.00     0.022 A 
BRANCH  76  80
ATOM     80  S   UNL A   1      52.978  26.400  27.504  1.00  0.00     0.124 S 
ATOM     81  O   UNL A   1      52.286  26.083  28.747  1.00  0.00    -0.237 OA
ATOM     82  O   UNL A   1      53.720  25.306  26.885  1.00  0.00    -0.237 OA
ATOM     83  O   UNL A   1      53.648  27.699  27.474  1.00  0.00    -0.744 OA
ENDBRANCH  76  80
ENDBRANCH  49  73
BRANCH  61  84
ATOM     84  C   UNL A   1      46.300  32.828  28.678  1.00  0.00     0.023 A 
ATOM     85  C   UNL A   1      46.212  33.891  27.763  1.00  0.00     0.031 A 
ATOM     86  C   UNL A   1      46.941  33.064  29.907  1.00  0.00     0.131 A 
ATOM     87  C   UNL A   1      46.803  35.126  28.069  1.00  0.00     0.055 A 
ATOM     88  C   UNL A   1      47.476  34.310  30.230  1.00  0.00     0.041 A 
ATOM     89  F   UNL A   1      47.055  32.082  30.817  1.00  0.00    -0.206 F 
ATOM     90  C   UNL A   1      47.421  35.347  29.304  1.00  0.00     0.022 A 
BRANCH  87  91
ATOM     91  S   UNL A   1      46.829  36.420  26.797  1.00  0.00     0.124 S 
ATOM     92  O   UNL A   1      48.115  37.064  27.046  1.00  0.00    -0.237 OA
ATOM     93  O   UNL A   1      46.732  35.646  25.564  1.00  0.00    -0.237 OA
ATOM     94  O   UNL A   1      45.656  37.234  27.111  1.00  0.00    -0.744 OA
ENDBRANCH  87  91
ENDBRANCH  61  84
ENDBRANCH  35  36
ENDBRANCH  27  30
ENDBRANCH  25  26
ENDBRANCH  24  25
ENDBRANCH   1  24
TORSDOF 17
ENDMDL
