MODEL 1
REMARK VINA RESULT:     -12.2      0.000      0.000
REMARK SMILES CCc1nc(N2CC[N@H+](CC=C(C)C)[C@H](C(=O)NCCCCNC(=O)c3ccc(-c4c5nc(c(-c6cc(S(=O)(=O)[O-])ccc6F)c6ccc([nH]6)c(-c6cc(S(=O)(=O)[O-])ccc6F)c6nc(c(-c7cc(S(=O)(=O)[O-])ccc7F)c7ccc4[nH]7)C=C6)C=C5)cc3)C2)no1
REMARK SMILES IDX 21 1 20 2 19 3 18 4 16 5 17 6 15 8 6 9 7 10 89 11 8 12 9 13
REMARK SMILES IDX 5 15 3 16 4 17 91 18 90 19 2 20 1 21 10 22 11 23 12 24 13 25
REMARK SMILES IDX 14 26 22 27 23 28 24 29 25 31 26 32 27 33 88 34 28 35 87 36
REMARK SMILES IDX 29 37 30 38 31 39 81 40 32 41 86 42 80 43 82 44 33 45 85 46
REMARK SMILES IDX 79 47 78 48 34 50 66 51 46 52 65 53 47 54 50 55 64 56 83 57
REMARK SMILES IDX 48 58 49 59 63 61 84 62 51 63 35 64 36 65 44 66 37 67 43 68
REMARK SMILES IDX 45 69 42 70 38 71 39 72 40 73 41 74 67 75 68 76 76 77 69 78
REMARK SMILES IDX 75 79 77 80 74 81 70 82 71 83 72 84 73 85 52 86 53 87 61 88
REMARK SMILES IDX 54 89 60 90 62 91 59 92 55 93 56 94 57 95 58 96
REMARK H PARENT 18 7 9 14 23 30 82 49 50 60
REMARK Flexibility Score: inf
ROOT
ATOM      1  C   UNL A   1      35.124  21.529  25.933  1.00  0.00     0.023 C 
ENDROOT
BRANCH   1   2
ATOM      2  C   UNL A   1      34.233  20.738  24.977  1.00  0.00     0.023 C 
BRANCH   2   3
ATOM      3  C   UNL A   1      33.090  21.499  24.310  1.00  0.00     0.116 C 
BRANCH   3   4
ATOM      4  N   UNL A   1      33.419  22.192  23.073  1.00  0.00    -0.351 N 
ATOM      5  C   UNL A   1      33.102  23.492  22.728  1.00  0.00     0.280 C 
ATOM      6  O   UNL A   1      33.627  23.963  21.715  1.00  0.00    -0.268 OA
ATOM      7  H   UNL A   1      33.925  21.675  22.405  1.00  0.00     0.163 HD
BRANCH   5   8
ATOM      8  C   UNL A   1      32.042  24.286  23.537  1.00  0.00     0.294 C 
ATOM      9  N   UNL A   1      30.526  26.321  23.588  1.00  0.00    -0.326 N 
ATOM     10  C   UNL A   1      30.669  26.354  25.054  1.00  0.00     0.181 C 
ATOM     11  C   UNL A   1      31.448  25.499  22.766  1.00  0.00     0.195 C 
ATOM     12  C   UNL A   1      31.363  25.131  25.664  1.00  0.00     0.284 C 
ATOM     13  N   UNL A   1      32.502  24.617  24.907  1.00  0.00    -0.318 N 
ATOM     14  H   UNL A   1      32.823  23.748  25.334  1.00  0.00     0.349 HD
BRANCH   9  15
ATOM     15  C   UNL A   1      29.886  27.387  23.039  1.00  0.00     0.266 A 
ATOM     16  C   UNL A   1      28.447  28.895  22.810  1.00  0.00     0.227 A 
ATOM     17  N   UNL A   1      28.650  27.782  23.484  1.00  0.00    -0.176 NA
ATOM     18  O   UNL A   1      29.445  29.177  21.930  1.00  0.00    -0.337 OA
ATOM     19  N   UNL A   1      30.396  28.192  22.092  1.00  0.00    -0.038 NA
BRANCH  16  20
ATOM     20  C   UNL A   1      27.365  29.906  22.942  1.00  0.00     0.097 C 
ATOM     21  C   UNL A   1      27.852  31.264  23.435  1.00  0.00     0.014 C 
ENDBRANCH  16  20
ENDBRANCH   9  15
BRANCH  13  22
ATOM     22  C   UNL A   1      33.751  25.366  25.040  1.00  0.00     0.291 C 
BRANCH  22  23
ATOM     23  C   UNL A   1      33.768  26.620  25.859  1.00  0.00     0.032 C 
ATOM     24  C   UNL A   1      33.787  27.881  25.381  1.00  0.00    -0.075 C 
ATOM     25  C   UNL A   1      33.772  29.063  26.308  1.00  0.00     0.039 C 
ATOM     26  C   UNL A   1      33.848  28.204  23.913  1.00  0.00     0.039 C 
ENDBRANCH  22  23
ENDBRANCH  13  22
ENDBRANCH   5   8
ENDBRANCH   3   4
ENDBRANCH   2   3
ENDBRANCH   1   2
BRANCH   1  27
ATOM     27  C   UNL A   1      36.467  22.005  25.388  1.00  0.00     0.116 C 
BRANCH  27  28
ATOM     28  N   UNL A   1      37.510  20.989  25.406  1.00  0.00    -0.352 N 
ATOM     29  C   UNL A   1      38.817  21.046  25.842  1.00  0.00     0.251 C 
ATOM     30  H   UNL A   1      37.235  20.114  25.047  1.00  0.00     0.163 HD
ATOM     31  O   UNL A   1      39.547  20.075  25.678  1.00  0.00    -0.269 OA
BRANCH  29  32
ATOM     32  C   UNL A   1      39.357  22.283  26.453  1.00  0.00     0.039 A 
ATOM     33  C   UNL A   1      40.386  22.177  27.394  1.00  0.00     0.014 A 
ATOM     34  C   UNL A   1      38.874  23.542  26.096  1.00  0.00     0.014 A 
ATOM     35  C   UNL A   1      41.005  23.331  27.884  1.00  0.00     0.010 A 
ATOM     36  C   UNL A   1      39.550  24.687  26.513  1.00  0.00     0.010 A 
ATOM     37  C   UNL A   1      40.632  24.596  27.401  1.00  0.00    -0.014 A 
BRANCH  37  38
ATOM     38  C   UNL A   1      41.377  25.827  27.783  1.00  0.00     0.031 A 
ATOM     39  C   UNL A   1      40.671  26.962  28.472  1.00  0.00     0.074 A 
ATOM     40  C   UNL A   1      42.667  25.967  27.413  1.00  0.00     0.049 A 
ATOM     41  N   UNL A   1      41.117  28.154  28.783  1.00  0.00    -0.248 NA
ATOM     42  C   UNL A   1      39.260  26.740  28.815  1.00  0.00     0.031 C 
ATOM     43  C   UNL A   1      43.447  24.972  26.673  1.00  0.00     0.029 A 
ATOM     44  N   UNL A   1      43.543  27.011  27.584  1.00  0.00    -0.354 N 
ATOM     45  C   UNL A   1      40.035  28.833  29.333  1.00  0.00     0.074 A 
ATOM     46  C   UNL A   1      38.898  27.939  29.248  1.00  0.00     0.031 C 
ATOM     47  C   UNL A   1      44.685  25.447  26.466  1.00  0.00     0.029 A 
ATOM     48  C   UNL A   1      44.777  26.795  27.017  1.00  0.00     0.049 A 
ATOM     49  H   UNL A   1      43.308  27.836  28.068  1.00  0.00     0.167 HD
ATOM     50  C   UNL A   1      39.997  30.076  29.879  1.00  0.00     0.034 A 
ATOM     51  C   UNL A   1      45.859  27.594  26.932  1.00  0.00     0.034 A 
ATOM     52  C   UNL A   1      41.146  30.946  29.969  1.00  0.00     0.049 A 
ATOM     53  C   UNL A   1      45.807  28.963  27.556  1.00  0.00     0.074 A 
ATOM     54  C   UNL A   1      41.247  32.182  30.583  1.00  0.00     0.029 A 
ATOM     55  N   UNL A   1      42.393  30.678  29.417  1.00  0.00    -0.354 N 
ATOM     56  N   UNL A   1      44.801  29.563  28.148  1.00  0.00    -0.248 NA
ATOM     57  C   UNL A   1      47.041  29.757  27.512  1.00  0.00     0.031 C 
ATOM     58  C   UNL A   1      42.528  32.691  30.342  1.00  0.00     0.029 A 
ATOM     59  C   UNL A   1      43.257  31.741  29.643  1.00  0.00     0.049 A 
ATOM     60  H   UNL A   1      42.630  29.853  28.934  1.00  0.00     0.167 HD
ATOM     61  C   UNL A   1      45.286  30.799  28.565  1.00  0.00     0.074 A 
ATOM     62  C   UNL A   1      46.679  30.850  28.169  1.00  0.00     0.031 C 
ATOM     63  C   UNL A   1      44.638  31.795  29.221  1.00  0.00     0.034 A 
BRANCH  50  64
ATOM     64  C   UNL A   1      38.659  30.564  30.388  1.00  0.00     0.023 A 
ATOM     65  C   UNL A   1      37.744  31.223  29.546  1.00  0.00     0.031 A 
ATOM     66  C   UNL A   1      38.318  30.431  31.745  1.00  0.00     0.131 A 
ATOM     67  C   UNL A   1      36.596  31.821  30.087  1.00  0.00     0.055 A 
ATOM     68  C   UNL A   1      37.124  30.945  32.260  1.00  0.00     0.041 A 
ATOM     69  F   UNL A   1      39.153  29.827  32.605  1.00  0.00    -0.206 F 
ATOM     70  C   UNL A   1      36.266  31.665  31.434  1.00  0.00     0.022 A 
BRANCH  67  71
ATOM     71  S   UNL A   1      35.650  32.968  29.045  1.00  0.00     0.124 S 
ATOM     72  O   UNL A   1      34.358  32.990  29.727  1.00  0.00    -0.237 OA
ATOM     73  O   UNL A   1      36.439  34.191  29.128  1.00  0.00    -0.237 OA
ATOM     74  O   UNL A   1      35.644  32.316  27.737  1.00  0.00    -0.744 OA
ENDBRANCH  67  71
ENDBRANCH  50  64
BRANCH  51  75
ATOM     75  C   UNL A   1      47.076  27.122  26.213  1.00  0.00     0.023 A 
ATOM     76  C   UNL A   1      48.127  26.493  26.897  1.00  0.00     0.031 A 
ATOM     77  C   UNL A   1      47.195  27.287  24.822  1.00  0.00     0.131 A 
ATOM     78  C   UNL A   1      49.266  26.074  26.192  1.00  0.00     0.055 A 
ATOM     79  C   UNL A   1      48.312  26.832  24.118  1.00  0.00     0.041 A 
ATOM     80  F   UNL A   1      46.209  27.870  24.121  1.00  0.00    -0.206 F 
ATOM     81  C   UNL A   1      49.359  26.228  24.807  1.00  0.00     0.022 A 
BRANCH  78  82
ATOM     82  S   UNL A   1      50.647  25.350  27.118  1.00  0.00     0.124 S 
ATOM     83  O   UNL A   1      51.564  24.981  26.045  1.00  0.00    -0.237 OA
ATOM     84  O   UNL A   1      51.063  26.463  27.964  1.00  0.00    -0.237 OA
ATOM     85  O   UNL A   1      50.032  24.229  27.826  1.00  0.00    -0.744 OA
ENDBRANCH  78  82
ENDBRANCH  51  75
BRANCH  63  86
ATOM     86  C   UNL A   1      45.448  33.019  29.576  1.00  0.00     0.023 A 
ATOM     87  C   UNL A   1      45.541  34.124  28.711  1.00  0.00     0.031 A 
ATOM     88  C   UNL A   1      46.143  33.076  30.797  1.00  0.00     0.131 A 
ATOM     89  C   UNL A   1      46.352  35.215  29.055  1.00  0.00     0.055 A 
ATOM     90  C   UNL A   1      46.903  34.189  31.160  1.00  0.00     0.041 A 
ATOM     91  F   UNL A   1      46.094  32.049  31.661  1.00  0.00    -0.206 F 
ATOM     92  C   UNL A   1      47.020  35.262  30.282  1.00  0.00     0.022 A 
BRANCH  89  93
ATOM     93  S   UNL A   1      46.596  36.540  27.839  1.00  0.00     0.124 S 
ATOM     94  O   UNL A   1      48.051  36.640  27.788  1.00  0.00    -0.237 OA
ATOM     95  O   UNL A   1      45.951  35.996  26.650  1.00  0.00    -0.237 OA
ATOM     96  O   UNL A   1      45.917  37.686  28.442  1.00  0.00    -0.744 OA
ENDBRANCH  89  93
ENDBRANCH  63  86
ENDBRANCH  37  38
ENDBRANCH  29  32
ENDBRANCH  27  28
ENDBRANCH   1  27
TORSDOF 18
ENDMDL
MODEL 2
REMARK VINA RESULT:     -12.2      4.611     10.002
REMARK SMILES CCc1nc(N2CC[N@H+](CC=C(C)C)[C@H](C(=O)NCCCCNC(=O)c3ccc(-c4c5nc(c(-c6cc(S(=O)(=O)[O-])ccc6F)c6ccc([nH]6)c(-c6cc(S(=O)(=O)[O-])ccc6F)c6nc(c(-c7cc(S(=O)(=O)[O-])ccc7F)c7ccc4[nH]7)C=C6)C=C5)cc3)C2)no1
REMARK SMILES IDX 21 1 20 2 19 3 18 4 16 5 17 6 15 8 6 9 7 10 89 11 8 12 9 13
REMARK SMILES IDX 5 15 3 16 4 17 91 18 90 19 2 20 1 21 10 22 11 23 12 24 13 25
REMARK SMILES IDX 14 26 22 27 23 28 24 29 25 31 26 32 27 33 88 34 28 35 87 36
REMARK SMILES IDX 29 37 30 38 31 39 81 40 32 41 86 42 80 43 82 44 33 45 85 46
REMARK SMILES IDX 79 47 78 48 34 50 66 51 46 52 65 53 47 54 50 55 64 56 83 57
REMARK SMILES IDX 48 58 49 59 63 61 84 62 51 63 35 64 36 65 44 66 37 67 43 68
REMARK SMILES IDX 45 69 42 70 38 71 39 72 40 73 41 74 67 75 68 76 76 77 69 78
REMARK SMILES IDX 75 79 77 80 74 81 70 82 71 83 72 84 73 85 52 86 53 87 61 88
REMARK SMILES IDX 54 89 60 90 62 91 59 92 55 93 56 94 57 95 58 96
REMARK H PARENT 18 7 9 14 23 30 82 49 50 60
REMARK Flexibility Score: inf
ROOT
ATOM      1  C   UNL A   1      31.171  29.961  25.153  1.00  0.00     0.023 C 
ENDROOT
BRANCH   1   2
ATOM      2  C   UNL A   1      31.705  28.942  24.147  1.00  0.00     0.023 C 
BRANCH   2   3
ATOM      3  C   UNL A   1      30.823  27.731  23.858  1.00  0.00     0.116 C 
BRANCH   3   4
ATOM      4  N   UNL A   1      30.364  26.982  25.019  1.00  0.00    -0.351 N 
ATOM      5  C   UNL A   1      30.719  25.698  25.386  1.00  0.00     0.280 C 
ATOM      6  O   UNL A   1      30.371  25.301  26.501  1.00  0.00    -0.268 OA
ATOM      7  H   UNL A   1      29.726  27.443  25.610  1.00  0.00     0.163 HD
BRANCH   5   8
ATOM      8  C   UNL A   1      31.440  24.762  24.380  1.00  0.00     0.294 C 
ATOM      9  N   UNL A   1      32.169  22.385  23.869  1.00  0.00    -0.326 N 
ATOM     10  C   UNL A   1      33.329  22.929  23.141  1.00  0.00     0.181 C 
ATOM     11  C   UNL A   1      31.377  23.258  24.770  1.00  0.00     0.195 C 
ATOM     12  C   UNL A   1      33.299  24.445  22.915  1.00  0.00     0.284 C 
ATOM     13  N   UNL A   1      32.804  25.234  24.041  1.00  0.00    -0.318 N 
ATOM     14  H   UNL A   1      32.722  26.210  23.755  1.00  0.00     0.349 HD
BRANCH   9  15
ATOM     15  C   UNL A   1      32.172  21.038  24.050  1.00  0.00     0.266 A 
ATOM     16  C   UNL A   1      32.512  19.012  23.629  1.00  0.00     0.227 A 
ATOM     17  N   UNL A   1      32.496  20.183  23.027  1.00  0.00    -0.176 NA
ATOM     18  O   UNL A   1      32.153  19.079  24.939  1.00  0.00    -0.337 OA
ATOM     19  N   UNL A   1      31.943  20.413  25.217  1.00  0.00    -0.038 NA
BRANCH  16  20
ATOM     20  C   UNL A   1      32.949  17.685  23.121  1.00  0.00     0.097 C 
ATOM     21  C   UNL A   1      34.141  17.102  23.872  1.00  0.00     0.014 C 
ENDBRANCH  16  20
ENDBRANCH   9  15
BRANCH  13  22
ATOM     22  C   UNL A   1      33.744  25.438  25.143  1.00  0.00     0.291 C 
BRANCH  22  23
ATOM     23  C   UNL A   1      35.089  24.782  25.089  1.00  0.00     0.032 C 
ATOM     24  C   UNL A   1      35.463  23.680  25.772  1.00  0.00    -0.075 C 
ATOM     25  C   UNL A   1      36.838  23.097  25.609  1.00  0.00     0.039 C 
ATOM     26  C   UNL A   1      34.566  22.974  26.751  1.00  0.00     0.039 C 
ENDBRANCH  22  23
ENDBRANCH  13  22
ENDBRANCH   5   8
ENDBRANCH   3   4
ENDBRANCH   2   3
ENDBRANCH   1   2
BRANCH   1  27
ATOM     27  C   UNL A   1      32.122  30.395  26.264  1.00  0.00     0.116 C 
BRANCH  27  28
ATOM     28  N   UNL A   1      31.997  31.796  26.640  1.00  0.00    -0.352 N 
ATOM     29  C   UNL A   1      32.842  32.617  27.356  1.00  0.00     0.251 C 
ATOM     30  H   UNL A   1      31.170  32.231  26.329  1.00  0.00     0.163 HD
ATOM     31  O   UNL A   1      32.485  33.758  27.627  1.00  0.00    -0.269 OA
BRANCH  29  32
ATOM     32  C   UNL A   1      34.149  32.116  27.845  1.00  0.00     0.039 A 
ATOM     33  C   UNL A   1      35.178  33.032  28.079  1.00  0.00     0.014 A 
ATOM     34  C   UNL A   1      34.361  30.759  28.091  1.00  0.00     0.014 A 
ATOM     35  C   UNL A   1      36.373  32.604  28.667  1.00  0.00     0.010 A 
ATOM     36  C   UNL A   1      35.513  30.348  28.760  1.00  0.00     0.010 A 
ATOM     37  C   UNL A   1      36.527  31.268  29.069  1.00  0.00    -0.014 A 
BRANCH  37  38
ATOM     38  C   UNL A   1      37.719  30.817  29.839  1.00  0.00     0.031 A 
ATOM     39  C   UNL A   1      38.698  29.850  29.231  1.00  0.00     0.074 A 
ATOM     40  C   UNL A   1      37.863  31.196  31.126  1.00  0.00     0.049 A 
ATOM     41  N   UNL A   1      39.730  29.257  29.778  1.00  0.00    -0.248 NA
ATOM     42  C   UNL A   1      38.454  29.466  27.835  1.00  0.00     0.031 C 
ATOM     43  C   UNL A   1      36.943  32.069  31.858  1.00  0.00     0.029 A 
ATOM     44  N   UNL A   1      38.822  30.875  32.055  1.00  0.00    -0.354 N 
ATOM     45  C   UNL A   1      40.242  28.410  28.801  1.00  0.00     0.074 A 
ATOM     46  C   UNL A   1      39.363  28.520  27.655  1.00  0.00     0.031 C 
ATOM     47  C   UNL A   1      37.387  32.224  33.114  1.00  0.00     0.029 A 
ATOM     48  C   UNL A   1      38.597  31.429  33.294  1.00  0.00     0.049 A 
ATOM     49  H   UNL A   1      39.597  30.301  31.853  1.00  0.00     0.167 HD
ATOM     50  C   UNL A   1      41.354  27.631  28.846  1.00  0.00     0.034 A 
ATOM     51  C   UNL A   1      39.275  31.300  34.452  1.00  0.00     0.034 A 
ATOM     52  C   UNL A   1      42.227  27.548  29.993  1.00  0.00     0.049 A 
ATOM     53  C   UNL A   1      40.514  30.446  34.482  1.00  0.00     0.074 A 
ATOM     54  C   UNL A   1      43.426  26.868  30.118  1.00  0.00     0.029 A 
ATOM     55  N   UNL A   1      41.988  28.154  31.222  1.00  0.00    -0.354 N 
ATOM     56  N   UNL A   1      41.036  29.714  33.525  1.00  0.00    -0.248 NA
ATOM     57  C   UNL A   1      41.264  30.412  35.744  1.00  0.00     0.031 C 
ATOM     58  C   UNL A   1      43.874  27.005  31.437  1.00  0.00     0.029 A 
ATOM     59  C   UNL A   1      42.997  27.833  32.119  1.00  0.00     0.049 A 
ATOM     60  H   UNL A   1      41.215  28.728  31.426  1.00  0.00     0.167 HD
ATOM     61  C   UNL A   1      42.186  29.146  34.065  1.00  0.00     0.074 A 
ATOM     62  C   UNL A   1      42.289  29.635  35.426  1.00  0.00     0.031 C 
ATOM     63  C   UNL A   1      43.078  28.303  33.484  1.00  0.00     0.034 A 
BRANCH  50  64
ATOM     64  C   UNL A   1      41.656  26.791  27.625  1.00  0.00     0.023 A 
ATOM     65  C   UNL A   1      41.310  25.428  27.561  1.00  0.00     0.031 A 
ATOM     66  C   UNL A   1      42.359  27.338  26.537  1.00  0.00     0.131 A 
ATOM     67  C   UNL A   1      41.764  24.637  26.495  1.00  0.00     0.055 A 
ATOM     68  C   UNL A   1      42.723  26.565  25.431  1.00  0.00     0.041 A 
ATOM     69  F   UNL A   1      42.733  28.627  26.541  1.00  0.00    -0.206 F 
ATOM     70  C   UNL A   1      42.446  25.201  25.416  1.00  0.00     0.022 A 
BRANCH  67  71
ATOM     71  S   UNL A   1      41.619  22.834  26.639  1.00  0.00     0.124 S 
ATOM     72  O   UNL A   1      42.263  22.386  25.407  1.00  0.00    -0.237 OA
ATOM     73  O   UNL A   1      42.342  22.559  27.876  1.00  0.00    -0.237 OA
ATOM     74  O   UNL A   1      40.176  22.609  26.696  1.00  0.00    -0.744 OA
ENDBRANCH  67  71
ENDBRANCH  50  64
BRANCH  51  75
ATOM     75  C   UNL A   1      38.784  31.987  35.679  1.00  0.00     0.023 A 
ATOM     76  C   UNL A   1      38.153  31.274  36.710  1.00  0.00     0.031 A 
ATOM     77  C   UNL A   1      38.951  33.374  35.839  1.00  0.00     0.131 A 
ATOM     78  C   UNL A   1      37.689  31.956  37.846  1.00  0.00     0.055 A 
ATOM     79  C   UNL A   1      38.523  34.041  36.988  1.00  0.00     0.041 A 
ATOM     80  F   UNL A   1      39.561  34.098  34.886  1.00  0.00    -0.206 F 
ATOM     81  C   UNL A   1      37.881  33.331  37.997  1.00  0.00     0.022 A 
BRANCH  78  82
ATOM     82  S   UNL A   1      36.794  31.020  39.117  1.00  0.00     0.124 S 
ATOM     83  O   UNL A   1      36.690  29.703  38.500  1.00  0.00    -0.237 OA
ATOM     84  O   UNL A   1      37.694  31.124  40.261  1.00  0.00    -0.237 OA
ATOM     85  O   UNL A   1      35.534  31.748  39.252  1.00  0.00    -0.744 OA
ENDBRANCH  78  82
ENDBRANCH  51  75
BRANCH  63  86
ATOM     86  C   UNL A   1      44.263  27.880  34.318  1.00  0.00     0.023 A 
ATOM     87  C   UNL A   1      45.456  28.623  34.343  1.00  0.00     0.031 A 
ATOM     88  C   UNL A   1      44.197  26.709  35.095  1.00  0.00     0.131 A 
ATOM     89  C   UNL A   1      46.553  28.161  35.086  1.00  0.00     0.055 A 
ATOM     90  C   UNL A   1      45.272  26.284  35.878  1.00  0.00     0.041 A 
ATOM     91  F   UNL A   1      43.084  25.958  35.107  1.00  0.00    -0.206 F 
ATOM     92  C   UNL A   1      46.462  27.006  35.867  1.00  0.00     0.022 A 
BRANCH  89  93
ATOM     93  S   UNL A   1      48.133  29.042  34.952  1.00  0.00     0.124 S 
ATOM     94  O   UNL A   1      47.885  30.232  35.760  1.00  0.00    -0.237 OA
ATOM     95  O   UNL A   1      49.076  28.078  35.507  1.00  0.00    -0.237 OA
ATOM     96  O   UNL A   1      48.268  29.286  33.517  1.00  0.00    -0.744 OA
ENDBRANCH  89  93
ENDBRANCH  63  86
ENDBRANCH  37  38
ENDBRANCH  29  32
ENDBRANCH  27  28
ENDBRANCH   1  27
TORSDOF 18
ENDMDL
MODEL 3
REMARK VINA RESULT:     -12.0      4.602      7.970
REMARK SMILES CCc1nc(N2CC[N@H+](CC=C(C)C)[C@H](C(=O)NCCCCNC(=O)c3ccc(-c4c5nc(c(-c6cc(S(=O)(=O)[O-])ccc6F)c6ccc([nH]6)c(-c6cc(S(=O)(=O)[O-])ccc6F)c6nc(c(-c7cc(S(=O)(=O)[O-])ccc7F)c7ccc4[nH]7)C=C6)C=C5)cc3)C2)no1
REMARK SMILES IDX 21 1 20 2 19 3 18 4 16 5 17 6 15 8 6 9 7 10 89 11 8 12 9 13
REMARK SMILES IDX 5 15 3 16 4 17 91 18 90 19 2 20 1 21 10 22 11 23 12 24 13 25
REMARK SMILES IDX 14 26 22 27 23 28 24 29 25 31 26 32 27 33 88 34 28 35 87 36
REMARK SMILES IDX 29 37 30 38 31 39 81 40 32 41 86 42 80 43 82 44 33 45 85 46
REMARK SMILES IDX 79 47 78 48 34 50 66 51 46 52 65 53 47 54 50 55 64 56 83 57
REMARK SMILES IDX 48 58 49 59 63 61 84 62 51 63 35 64 36 65 44 66 37 67 43 68
REMARK SMILES IDX 45 69 42 70 38 71 39 72 40 73 41 74 67 75 68 76 76 77 69 78
REMARK SMILES IDX 75 79 77 80 74 81 70 82 71 83 72 84 73 85 52 86 53 87 61 88
REMARK SMILES IDX 54 89 60 90 62 91 59 92 55 93 56 94 57 95 58 96
REMARK H PARENT 18 7 9 14 23 30 82 49 50 60
REMARK Flexibility Score: inf
ROOT
ATOM      1  C   UNL A   1      31.273  30.016  24.971  1.00  0.00     0.023 C 
ENDROOT
BRANCH   1   2
ATOM      2  C   UNL A   1      31.538  28.779  24.115  1.00  0.00     0.023 C 
BRANCH   2   3
ATOM      3  C   UNL A   1      30.575  27.607  24.277  1.00  0.00     0.116 C 
BRANCH   3   4
ATOM      4  N   UNL A   1      30.667  26.872  25.530  1.00  0.00    -0.351 N 
ATOM      5  C   UNL A   1      31.224  25.623  25.734  1.00  0.00     0.280 C 
ATOM      6  O   UNL A   1      31.376  25.245  26.898  1.00  0.00    -0.268 OA
ATOM      7  H   UNL A   1      30.289  27.315  26.324  1.00  0.00     0.163 HD
BRANCH   5   8
ATOM      8  C   UNL A   1      31.546  24.699  24.530  1.00  0.00     0.294 C 
ATOM      9  N   UNL A   1      32.034  22.326  23.773  1.00  0.00    -0.326 N 
ATOM     10  C   UNL A   1      32.875  22.874  22.695  1.00  0.00     0.181 C 
ATOM     11  C   UNL A   1      31.609  23.190  24.902  1.00  0.00     0.195 C 
ATOM     12  C   UNL A   1      32.782  24.393  22.510  1.00  0.00     0.284 C 
ATOM     13  N   UNL A   1      32.713  25.170  23.747  1.00  0.00    -0.318 N 
ATOM     14  H   UNL A   1      32.546  26.149  23.518  1.00  0.00     0.349 HD
BRANCH   9  15
ATOM     15  C   UNL A   1      32.087  20.976  23.927  1.00  0.00     0.266 A 
ATOM     16  C   UNL A   1      32.393  18.963  23.422  1.00  0.00     0.227 A 
ATOM     17  N   UNL A   1      32.264  20.144  22.851  1.00  0.00    -0.176 NA
ATOM     18  O   UNL A   1      32.240  19.004  24.773  1.00  0.00    -0.337 OA
ATOM     19  N   UNL A   1      32.053  20.329  25.104  1.00  0.00    -0.038 NA
BRANCH  16  20
ATOM     20  C   UNL A   1      32.769  17.654  22.829  1.00  0.00     0.097 C 
ATOM     21  C   UNL A   1      33.606  16.778  23.755  1.00  0.00     0.014 C 
ENDBRANCH  16  20
ENDBRANCH   9  15
BRANCH  13  22
ATOM     22  C   UNL A   1      33.977  25.355  24.458  1.00  0.00     0.291 C 
BRANCH  22  23
ATOM     23  C   UNL A   1      35.079  24.359  24.265  1.00  0.00     0.032 C 
ATOM     24  C   UNL A   1      35.433  23.389  25.132  1.00  0.00    -0.075 C 
ATOM     25  C   UNL A   1      36.541  22.427  24.809  1.00  0.00     0.039 C 
ATOM     26  C   UNL A   1      34.782  23.207  26.476  1.00  0.00     0.039 C 
ENDBRANCH  22  23
ENDBRANCH  13  22
ENDBRANCH   5   8
ENDBRANCH   3   4
ENDBRANCH   2   3
ENDBRANCH   1   2
BRANCH   1  27
ATOM     27  C   UNL A   1      32.326  30.369  26.017  1.00  0.00     0.116 C 
BRANCH  27  28
ATOM     28  N   UNL A   1      32.204  31.717  26.553  1.00  0.00    -0.352 N 
ATOM     29  C   UNL A   1      33.026  32.429  27.400  1.00  0.00     0.251 C 
ATOM     30  H   UNL A   1      31.398  32.202  26.260  1.00  0.00     0.163 HD
ATOM     31  O   UNL A   1      32.672  33.535  27.791  1.00  0.00    -0.269 OA
BRANCH  29  32
ATOM     32  C   UNL A   1      34.300  31.847  27.884  1.00  0.00     0.039 A 
ATOM     33  C   UNL A   1      35.361  32.705  28.187  1.00  0.00     0.014 A 
ATOM     34  C   UNL A   1      34.451  30.471  28.056  1.00  0.00     0.014 A 
ATOM     35  C   UNL A   1      36.525  32.195  28.771  1.00  0.00     0.010 A 
ATOM     36  C   UNL A   1      35.572  29.975  28.721  1.00  0.00     0.010 A 
ATOM     37  C   UNL A   1      36.617  30.833  29.100  1.00  0.00    -0.014 A 
BRANCH  37  38
ATOM     38  C   UNL A   1      37.774  30.291  29.864  1.00  0.00     0.031 A 
ATOM     39  C   UNL A   1      38.031  30.740  31.277  1.00  0.00     0.074 A 
ATOM     40  C   UNL A   1      38.655  29.476  29.250  1.00  0.00     0.049 A 
ATOM     41  N   UNL A   1      39.042  30.470  32.064  1.00  0.00    -0.248 NA
ATOM     42  C   UNL A   1      37.039  31.651  31.863  1.00  0.00     0.031 C 
ATOM     43  C   UNL A   1      38.563  29.025  27.860  1.00  0.00     0.029 A 
ATOM     44  N   UNL A   1      39.816  28.900  29.706  1.00  0.00    -0.354 N 
ATOM     45  C   UNL A   1      38.822  31.199  33.228  1.00  0.00     0.074 A 
ATOM     46  C   UNL A   1      37.616  31.972  33.011  1.00  0.00     0.031 C 
ATOM     47  C   UNL A   1      39.612  28.237  27.580  1.00  0.00     0.029 A 
ATOM     48  C   UNL A   1      40.476  28.158  28.754  1.00  0.00     0.049 A 
ATOM     49  H   UNL A   1      40.145  29.010  30.628  1.00  0.00     0.167 HD
ATOM     50  C   UNL A   1      39.543  31.207  34.379  1.00  0.00     0.034 A 
ATOM     51  C   UNL A   1      41.651  27.501  28.809  1.00  0.00     0.034 A 
ATOM     52  C   UNL A   1      40.734  30.416  34.582  1.00  0.00     0.049 A 
ATOM     53  C   UNL A   1      42.431  27.505  30.095  1.00  0.00     0.074 A 
ATOM     54  C   UNL A   1      41.490  30.272  35.733  1.00  0.00     0.029 A 
ATOM     55  N   UNL A   1      41.354  29.644  33.606  1.00  0.00    -0.354 N 
ATOM     56  N   UNL A   1      42.169  28.133  31.218  1.00  0.00    -0.248 NA
ATOM     57  C   UNL A   1      43.659  26.701  30.127  1.00  0.00     0.031 C 
ATOM     58  C   UNL A   1      42.600  29.474  35.434  1.00  0.00     0.029 A 
ATOM     59  C   UNL A   1      42.500  29.053  34.117  1.00  0.00     0.049 A 
ATOM     60  H   UNL A   1      41.026  29.533  32.684  1.00  0.00     0.167 HD
ATOM     61  C   UNL A   1      43.190  27.784  32.097  1.00  0.00     0.074 A 
ATOM     62  C   UNL A   1      44.063  26.878  31.377  1.00  0.00     0.031 C 
ATOM     63  C   UNL A   1      43.381  28.173  33.384  1.00  0.00     0.034 A 
BRANCH  50  64
ATOM     64  C   UNL A   1      39.068  32.124  35.484  1.00  0.00     0.023 A 
ATOM     65  C   UNL A   1      39.437  33.482  35.527  1.00  0.00     0.031 A 
ATOM     66  C   UNL A   1      38.294  31.624  36.545  1.00  0.00     0.131 A 
ATOM     67  C   UNL A   1      39.131  34.257  36.655  1.00  0.00     0.055 A 
ATOM     68  C   UNL A   1      37.909  32.430  37.621  1.00  0.00     0.041 A 
ATOM     69  F   UNL A   1      37.922  30.335  36.574  1.00  0.00    -0.206 F 
ATOM     70  C   UNL A   1      38.348  33.748  37.692  1.00  0.00     0.022 A 
BRANCH  67  71
ATOM     71  S   UNL A   1      39.940  35.873  36.833  1.00  0.00     0.124 S 
ATOM     72  O   UNL A   1      39.185  36.461  37.937  1.00  0.00    -0.237 OA
ATOM     73  O   UNL A   1      41.319  35.503  37.126  1.00  0.00    -0.237 OA
ATOM     74  O   UNL A   1      39.726  36.509  35.534  1.00  0.00    -0.744 OA
ENDBRANCH  67  71
ENDBRANCH  50  64
BRANCH  51  75
ATOM     75  C   UNL A   1      42.165  26.799  27.599  1.00  0.00     0.023 A 
ATOM     76  C   UNL A   1      41.983  25.419  27.425  1.00  0.00     0.031 A 
ATOM     77  C   UNL A   1      42.841  27.511  26.591  1.00  0.00     0.131 A 
ATOM     78  C   UNL A   1      42.494  24.787  26.281  1.00  0.00     0.055 A 
ATOM     79  C   UNL A   1      43.313  26.884  25.436  1.00  0.00     0.041 A 
ATOM     80  F   UNL A   1      43.029  28.835  26.706  1.00  0.00    -0.206 F 
ATOM     81  C   UNL A   1      43.145  25.512  25.280  1.00  0.00     0.022 A 
BRANCH  78  82
ATOM     82  S   UNL A   1      42.323  22.987  26.131  1.00  0.00     0.124 S 
ATOM     83  O   UNL A   1      40.879  22.815  26.238  1.00  0.00    -0.237 OA
ATOM     84  O   UNL A   1      42.905  22.735  24.817  1.00  0.00    -0.237 OA
ATOM     85  O   UNL A   1      43.098  22.477  27.260  1.00  0.00    -0.744 OA
ENDBRANCH  78  82
ENDBRANCH  51  75
BRANCH  63  86
ATOM     86  C   UNL A   1      44.575  27.591  34.103  1.00  0.00     0.023 A 
ATOM     87  C   UNL A   1      44.499  26.373  34.801  1.00  0.00     0.031 A 
ATOM     88  C   UNL A   1      45.805  28.273  34.095  1.00  0.00     0.131 A 
ATOM     89  C   UNL A   1      45.617  25.900  35.505  1.00  0.00     0.055 A 
ATOM     90  C   UNL A   1      46.930  27.768  34.749  1.00  0.00     0.041 A 
ATOM     91  F   UNL A   1      45.935  29.442  33.448  1.00  0.00    -0.206 F 
ATOM     92  C   UNL A   1      46.836  26.581  35.469  1.00  0.00     0.022 A 
BRANCH  89  93
ATOM     93  S   UNL A   1      45.434  24.423  36.543  1.00  0.00     0.124 S 
ATOM     94  O   UNL A   1      44.597  23.568  35.708  1.00  0.00    -0.237 OA
ATOM     95  O   UNL A   1      46.816  23.990  36.717  1.00  0.00    -0.237 OA
ATOM     96  O   UNL A   1      44.787  24.932  37.751  1.00  0.00    -0.744 OA
ENDBRANCH  89  93
ENDBRANCH  63  86
ENDBRANCH  37  38
ENDBRANCH  29  32
ENDBRANCH  27  28
ENDBRANCH   1  27
TORSDOF 18
ENDMDL
