MODEL 1
REMARK VINA RESULT:     -12.0      0.000      0.000
REMARK SMILES Cc1cc(OCC(=O)Nc2sccc2C(=O)NCCCCNC(=O)c2ccc(-c3c4nc(c(-c5cc(S(=O)(=O)[O-])ccc5F)c5ccc([nH]5)c(-c5cc(S(=O)(=O)[O-])ccc5F)c5nc(c(-c6cc(S(=O)(=O)[O-])ccc6F)c6ccc3[nH]6)C=C5)C=C4)cc2)ccc1Cl
REMARK SMILES IDX 19 1 18 2 17 3 15 4 16 5 14 7 10 8 11 9 12 10 13 11 9 12
REMARK SMILES IDX 7 13 8 14 6 16 5 17 4 18 1 19 2 20 3 21 90 22 89 23 91 24
REMARK SMILES IDX 88 25 20 26 21 27 22 28 23 29 24 31 25 32 26 33 87 34 27 35
REMARK SMILES IDX 86 36 28 37 29 38 30 39 80 40 31 41 85 42 79 43 81 44 32 45
REMARK SMILES IDX 84 46 78 47 77 48 33 50 65 51 45 52 64 53 46 54 49 55 63 56
REMARK SMILES IDX 82 57 47 58 48 59 62 61 83 62 50 63 34 64 35 65 43 66 36 67
REMARK SMILES IDX 42 68 44 69 41 70 37 71 38 72 39 73 40 74 66 75 67 76 75 77
REMARK SMILES IDX 68 78 74 79 76 80 73 81 69 82 70 83 71 84 72 85 51 86 52 87
REMARK SMILES IDX 60 88 53 89 59 90 61 91 58 92 54 93 55 94 56 95 57 96
REMARK H PARENT 17 6 9 15 22 30 81 49 49 60
REMARK Flexibility Score: inf
ROOT
ATOM      1  C   UNL A   1      35.526  22.502  26.080  1.00  0.00     0.023 C 
ENDROOT
BRANCH   1   2
ATOM      2  C   UNL A   1      35.480  23.943  25.560  1.00  0.00     0.116 C 
BRANCH   2   3
ATOM      3  N   UNL A   1      35.112  24.064  24.166  1.00  0.00    -0.352 N 
ATOM      4  C   UNL A   1      34.180  24.878  23.568  1.00  0.00     0.254 C 
ATOM      5  O   UNL A   1      33.834  24.588  22.418  1.00  0.00    -0.269 OA
ATOM      6  H   UNL A   1      35.604  23.472  23.552  1.00  0.00     0.163 HD
BRANCH   4   7
ATOM      7  C   UNL A   1      33.505  25.967  24.278  1.00  0.00     0.074 A 
ATOM      8  C   UNL A   1      32.665  25.969  25.378  1.00  0.00     0.108 A 
ATOM      9  S   UNL A   1      31.832  27.459  25.557  1.00  0.00    -0.126 S 
ATOM     10  C   UNL A   1      32.825  28.233  24.416  1.00  0.00     0.068 A 
ATOM     11  C   UNL A   1      33.672  27.335  23.812  1.00  0.00     0.028 A 
BRANCH   8  12
ATOM     12  N   UNL A   1      32.221  25.084  26.325  1.00  0.00    -0.314 N 
ATOM     13  C   UNL A   1      31.372  24.021  26.251  1.00  0.00     0.262 C 
ATOM     14  O   UNL A   1      30.924  23.594  27.325  1.00  0.00    -0.271 OA
ATOM     15  H   UNL A   1      32.583  25.245  27.227  1.00  0.00     0.170 HD
BRANCH  13  16
ATOM     16  C   UNL A   1      31.153  23.209  24.967  1.00  0.00     0.329 C 
BRANCH  16  17
ATOM     17  O   UNL A   1      32.215  22.557  24.325  1.00  0.00    -0.484 OA
BRANCH  17  18
ATOM     18  C   UNL A   1      32.266  21.194  24.270  1.00  0.00     0.120 A 
ATOM     19  C   UNL A   1      32.427  18.125  22.008  1.00  0.00     0.046 C 
ATOM     20  C   UNL A   1      32.451  18.990  23.239  1.00  0.00    -0.029 A 
ATOM     21  C   UNL A   1      32.216  20.382  23.137  1.00  0.00     0.051 A 
ATOM     22  C   UNL A   1      32.754  18.440  24.493  1.00  0.00     0.044 A 
ATOM     23  C   UNL A   1      32.752  19.240  25.629  1.00  0.00     0.024 A 
ATOM     24  Cl  UNL A   1      33.180  16.777  24.682  1.00  0.00    -0.084 Cl
ATOM     25  C   UNL A   1      32.491  20.603  25.515  1.00  0.00     0.048 A 
ENDBRANCH  17  18
ENDBRANCH  16  17
ENDBRANCH  13  16
ENDBRANCH   8  12
ENDBRANCH   4   7
ENDBRANCH   2   3
ENDBRANCH   1   2
BRANCH   1  26
ATOM     26  C   UNL A   1      35.905  21.429  25.046  1.00  0.00     0.023 C 
BRANCH  26  27
ATOM     27  C   UNL A   1      37.352  21.440  24.544  1.00  0.00     0.116 C 
BRANCH  27  28
ATOM     28  N   UNL A   1      38.226  20.493  25.206  1.00  0.00    -0.352 N 
ATOM     29  C   UNL A   1      39.311  20.688  26.031  1.00  0.00     0.251 C 
ATOM     30  H   UNL A   1      38.007  19.548  25.035  1.00  0.00     0.163 HD
ATOM     31  O   UNL A   1      39.932  19.699  26.421  1.00  0.00    -0.269 OA
BRANCH  29  32
ATOM     32  C   UNL A   1      39.789  22.042  26.424  1.00  0.00     0.039 A 
ATOM     33  C   UNL A   1      40.927  22.122  27.235  1.00  0.00     0.014 A 
ATOM     34  C   UNL A   1      39.116  23.222  26.094  1.00  0.00     0.014 A 
ATOM     35  C   UNL A   1      41.425  23.366  27.648  1.00  0.00     0.010 A 
ATOM     36  C   UNL A   1      39.652  24.473  26.458  1.00  0.00     0.010 A 
ATOM     37  C   UNL A   1      40.820  24.563  27.232  1.00  0.00    -0.014 A 
BRANCH  37  38
ATOM     38  C   UNL A   1      41.416  25.885  27.608  1.00  0.00     0.031 A 
ATOM     39  C   UNL A   1      42.808  26.270  27.167  1.00  0.00     0.074 A 
ATOM     40  C   UNL A   1      40.705  26.761  28.350  1.00  0.00     0.049 A 
ATOM     41  N   UNL A   1      43.477  27.373  27.404  1.00  0.00    -0.248 NA
ATOM     42  C   UNL A   1      43.549  25.284  26.368  1.00  0.00     0.031 C 
ATOM     43  C   UNL A   1      39.353  26.528  28.865  1.00  0.00     0.029 A 
ATOM     44  N   UNL A   1      41.009  28.027  28.794  1.00  0.00    -0.354 N 
ATOM     45  C   UNL A   1      44.712  27.218  26.781  1.00  0.00     0.074 A 
ATOM     46  C   UNL A   1      44.718  25.888  26.207  1.00  0.00     0.031 C 
ATOM     47  C   UNL A   1      38.936  27.623  29.520  1.00  0.00     0.029 A 
ATOM     48  C   UNL A   1      40.000  28.623  29.519  1.00  0.00     0.049 A 
ATOM     49  H   UNL A   1      41.870  28.468  28.611  1.00  0.00     0.167 HD
ATOM     50  C   UNL A   1      45.737  28.103  26.674  1.00  0.00     0.034 A 
ATOM     51  C   UNL A   1      39.933  29.828  30.124  1.00  0.00     0.034 A 
ATOM     52  C   UNL A   1      45.735  29.433  27.236  1.00  0.00     0.049 A 
ATOM     53  C   UNL A   1      41.109  30.771  30.036  1.00  0.00     0.074 A 
ATOM     54  C   UNL A   1      46.720  30.405  27.152  1.00  0.00     0.029 A 
ATOM     55  N   UNL A   1      44.708  29.982  27.990  1.00  0.00    -0.354 N 
ATOM     56  N   UNL A   1      42.254  30.610  29.417  1.00  0.00    -0.248 NA
ATOM     57  C   UNL A   1      40.977  32.064  30.726  1.00  0.00     0.031 C 
ATOM     58  C   UNL A   1      46.315  31.515  27.902  1.00  0.00     0.029 A 
ATOM     59  C   UNL A   1      45.046  31.266  28.396  1.00  0.00     0.049 A 
ATOM     60  H   UNL A   1      43.862  29.527  28.206  1.00  0.00     0.167 HD
ATOM     61  C   UNL A   1      42.959  31.796  29.611  1.00  0.00     0.074 A 
ATOM     62  C   UNL A   1      42.108  32.667  30.391  1.00  0.00     0.031 C 
ATOM     63  C   UNL A   1      44.199  32.135  29.176  1.00  0.00     0.034 A 
BRANCH  50  64
ATOM     64  C   UNL A   1      46.968  27.652  25.923  1.00  0.00     0.023 A 
ATOM     65  C   UNL A   1      47.150  27.950  24.563  1.00  0.00     0.031 A 
ATOM     66  C   UNL A   1      47.977  26.924  26.579  1.00  0.00     0.131 A 
ATOM     67  C   UNL A   1      48.283  27.473  23.885  1.00  0.00     0.055 A 
ATOM     68  C   UNL A   1      49.137  26.515  25.918  1.00  0.00     0.041 A 
ATOM     69  F   UNL A   1      47.851  26.595  27.875  1.00  0.00    -0.206 F 
ATOM     70  C   UNL A   1      49.289  26.778  24.560  1.00  0.00     0.022 A 
BRANCH  67  71
ATOM     71  S   UNL A   1      48.366  27.671  22.086  1.00  0.00     0.124 S 
ATOM     72  O   UNL A   1      47.042  28.215  21.789  1.00  0.00    -0.237 OA
ATOM     73  O   UNL A   1      49.487  28.590  21.920  1.00  0.00    -0.237 OA
ATOM     74  O   UNL A   1      48.596  26.313  21.601  1.00  0.00    -0.744 OA
ENDBRANCH  67  71
ENDBRANCH  50  64
BRANCH  51  75
ATOM     75  C   UNL A   1      38.719  30.227  30.896  1.00  0.00     0.023 A 
ATOM     76  C   UNL A   1      37.651  30.896  30.274  1.00  0.00     0.031 A 
ATOM     77  C   UNL A   1      38.648  30.026  32.286  1.00  0.00     0.131 A 
ATOM     78  C   UNL A   1      36.590  31.392  31.046  1.00  0.00     0.055 A 
ATOM     79  C   UNL A   1      37.561  30.468  33.042  1.00  0.00     0.041 A 
ATOM     80  F   UNL A   1      39.641  29.394  32.932  1.00  0.00    -0.206 F 
ATOM     81  C   UNL A   1      36.532  31.172  32.424  1.00  0.00     0.022 A 
BRANCH  78  82
ATOM     82  S   UNL A   1      35.344  32.436  30.241  1.00  0.00     0.124 S 
ATOM     83  O   UNL A   1      34.954  31.611  29.103  1.00  0.00    -0.237 OA
ATOM     84  O   UNL A   1      34.347  32.586  31.297  1.00  0.00    -0.237 OA
ATOM     85  O   UNL A   1      36.083  33.652  29.907  1.00  0.00    -0.744 OA
ENDBRANCH  78  82
ENDBRANCH  51  75
BRANCH  63  86
ATOM     86  C   UNL A   1      44.684  33.531  29.489  1.00  0.00     0.023 A 
ATOM     87  C   UNL A   1      44.279  34.648  28.735  1.00  0.00     0.031 A 
ATOM     88  C   UNL A   1      45.583  33.743  30.550  1.00  0.00     0.131 A 
ATOM     89  C   UNL A   1      44.813  35.914  29.017  1.00  0.00     0.055 A 
ATOM     90  C   UNL A   1      46.068  35.015  30.862  1.00  0.00     0.041 A 
ATOM     91  F   UNL A   1      46.005  32.715  31.304  1.00  0.00    -0.206 F 
ATOM     92  C   UNL A   1      45.693  36.108  30.085  1.00  0.00     0.022 A 
BRANCH  89  93
ATOM     93  S   UNL A   1      44.405  37.301  27.919  1.00  0.00     0.124 S 
ATOM     94  O   UNL A   1      45.720  37.870  27.647  1.00  0.00    -0.237 OA
ATOM     95  O   UNL A   1      43.757  36.629  26.797  1.00  0.00    -0.237 OA
ATOM     96  O   UNL A   1      43.523  38.136  28.732  1.00  0.00    -0.744 OA
ENDBRANCH  89  93
ENDBRANCH  63  86
ENDBRANCH  37  38
ENDBRANCH  29  32
ENDBRANCH  27  28
ENDBRANCH  26  27
ENDBRANCH   1  26
TORSDOF 18
ENDMDL
MODEL 2
REMARK VINA RESULT:     -11.5      5.562      8.559
REMARK SMILES Cc1cc(OCC(=O)Nc2sccc2C(=O)NCCCCNC(=O)c2ccc(-c3c4nc(c(-c5cc(S(=O)(=O)[O-])ccc5F)c5ccc([nH]5)c(-c5cc(S(=O)(=O)[O-])ccc5F)c5nc(c(-c6cc(S(=O)(=O)[O-])ccc6F)c6ccc3[nH]6)C=C5)C=C4)cc2)ccc1Cl
REMARK SMILES IDX 19 1 18 2 17 3 15 4 16 5 14 7 10 8 11 9 12 10 13 11 9 12
REMARK SMILES IDX 7 13 8 14 6 16 5 17 4 18 1 19 2 20 3 21 90 22 89 23 91 24
REMARK SMILES IDX 88 25 20 26 21 27 22 28 23 29 24 31 25 32 26 33 87 34 27 35
REMARK SMILES IDX 86 36 28 37 29 38 30 39 80 40 31 41 85 42 79 43 81 44 32 45
REMARK SMILES IDX 84 46 78 47 77 48 33 50 65 51 45 52 64 53 46 54 49 55 63 56
REMARK SMILES IDX 82 57 47 58 48 59 62 61 83 62 50 63 34 64 35 65 43 66 36 67
REMARK SMILES IDX 42 68 44 69 41 70 37 71 38 72 39 73 40 74 66 75 67 76 75 77
REMARK SMILES IDX 68 78 74 79 76 80 73 81 69 82 70 83 71 84 72 85 51 86 52 87
REMARK SMILES IDX 60 88 53 89 59 90 61 91 58 92 54 93 55 94 56 95 57 96
REMARK H PARENT 17 6 9 15 22 30 81 49 49 60
REMARK Flexibility Score: inf
ROOT
ATOM      1  C   UNL A   1      31.445  30.537  26.019  1.00  0.00     0.023 C 
ENDROOT
BRANCH   1   2
ATOM      2  C   UNL A   1      32.771  29.817  26.283  1.00  0.00     0.116 C 
BRANCH   2   3
ATOM      3  N   UNL A   1      33.479  29.410  25.087  1.00  0.00    -0.352 N 
ATOM      4  C   UNL A   1      33.109  28.526  24.101  1.00  0.00     0.254 C 
ATOM      5  O   UNL A   1      33.999  28.117  23.349  1.00  0.00    -0.269 OA
ATOM      6  H   UNL A   1      34.360  29.831  24.961  1.00  0.00     0.163 HD
BRANCH   4   7
ATOM      7  C   UNL A   1      31.758  27.966  24.003  1.00  0.00     0.074 A 
ATOM      8  C   UNL A   1      31.107  26.993  24.741  1.00  0.00     0.108 A 
ATOM      9  S   UNL A   1      29.686  26.428  23.962  1.00  0.00    -0.126 S 
ATOM     10  C   UNL A   1      29.715  27.699  22.834  1.00  0.00     0.068 A 
ATOM     11  C   UNL A   1      30.861  28.445  22.962  1.00  0.00     0.028 A 
BRANCH   8  12
ATOM     12  N   UNL A   1      31.320  26.265  25.882  1.00  0.00    -0.314 N 
ATOM     13  C   UNL A   1      31.567  24.940  26.085  1.00  0.00     0.262 C 
ATOM     14  O   UNL A   1      31.416  24.520  27.241  1.00  0.00    -0.271 OA
ATOM     15  H   UNL A   1      31.289  26.798  26.710  1.00  0.00     0.170 HD
BRANCH  13  16
ATOM     16  C   UNL A   1      32.235  24.041  25.036  1.00  0.00     0.329 C 
BRANCH  16  17
ATOM     17  O   UNL A   1      32.775  22.794  25.381  1.00  0.00    -0.484 OA
BRANCH  17  18
ATOM     18  C   UNL A   1      34.117  22.563  25.280  1.00  0.00     0.120 A 
ATOM     19  C   UNL A   1      37.618  23.930  25.936  1.00  0.00     0.046 C 
ATOM     20  C   UNL A   1      36.501  22.987  25.580  1.00  0.00    -0.029 A 
ATOM     21  C   UNL A   1      35.160  23.439  25.580  1.00  0.00     0.051 A 
ATOM     22  C   UNL A   1      36.767  21.641  25.295  1.00  0.00     0.044 A 
ATOM     23  C   UNL A   1      35.733  20.780  24.946  1.00  0.00     0.024 A 
ATOM     24  Cl  UNL A   1      38.359  20.981  25.402  1.00  0.00    -0.084 Cl
ATOM     25  C   UNL A   1      34.422  21.247  24.922  1.00  0.00     0.048 A 
ENDBRANCH  17  18
ENDBRANCH  16  17
ENDBRANCH  13  16
ENDBRANCH   8  12
ENDBRANCH   4   7
ENDBRANCH   2   3
ENDBRANCH   1   2
BRANCH   1  26
ATOM     26  C   UNL A   1      31.378  32.003  26.477  1.00  0.00     0.023 C 
BRANCH  26  27
ATOM     27  C   UNL A   1      32.617  32.560  27.184  1.00  0.00     0.116 C 
BRANCH  27  28
ATOM     28  N   UNL A   1      32.491  33.934  27.627  1.00  0.00    -0.352 N 
ATOM     29  C   UNL A   1      33.229  34.662  28.533  1.00  0.00     0.251 C 
ATOM     30  H   UNL A   1      31.752  34.431  27.208  1.00  0.00     0.163 HD
ATOM     31  O   UNL A   1      32.873  35.814  28.782  1.00  0.00    -0.269 OA
BRANCH  29  32
ATOM     32  C   UNL A   1      34.400  34.096  29.257  1.00  0.00     0.039 A 
ATOM     33  C   UNL A   1      34.150  33.193  30.297  1.00  0.00     0.014 A 
ATOM     34  C   UNL A   1      35.720  34.481  29.006  1.00  0.00     0.014 A 
ATOM     35  C   UNL A   1      35.209  32.628  31.023  1.00  0.00     0.010 A 
ATOM     36  C   UNL A   1      36.784  33.869  29.695  1.00  0.00     0.010 A 
ATOM     37  C   UNL A   1      36.545  32.926  30.707  1.00  0.00    -0.014 A 
BRANCH  37  38
ATOM     38  C   UNL A   1      37.665  32.247  31.434  1.00  0.00     0.031 A 
ATOM     39  C   UNL A   1      38.446  31.123  30.795  1.00  0.00     0.074 A 
ATOM     40  C   UNL A   1      37.997  32.641  32.683  1.00  0.00     0.049 A 
ATOM     41  N   UNL A   1      39.444  30.427  31.283  1.00  0.00    -0.248 NA
ATOM     42  C   UNL A   1      38.045  30.723  29.440  1.00  0.00     0.031 C 
ATOM     43  C   UNL A   1      37.327  33.701  33.439  1.00  0.00     0.029 A 
ATOM     44  N   UNL A   1      38.987  32.207  33.535  1.00  0.00    -0.354 N 
ATOM     45  C   UNL A   1      39.795  29.510  30.296  1.00  0.00     0.074 A 
ATOM     46  C   UNL A   1      38.861  29.704  29.205  1.00  0.00     0.031 C 
ATOM     47  C   UNL A   1      37.944  33.856  34.622  1.00  0.00     0.029 A 
ATOM     48  C   UNL A   1      39.024  32.880  34.736  1.00  0.00     0.049 A 
ATOM     49  H   UNL A   1      39.612  31.481  33.307  1.00  0.00     0.167 HD
ATOM     50  C   UNL A   1      40.811  28.609  30.282  1.00  0.00     0.034 A 
ATOM     51  C   UNL A   1      39.824  32.731  35.814  1.00  0.00     0.034 A 
ATOM     52  C   UNL A   1      41.751  28.416  31.361  1.00  0.00     0.049 A 
ATOM     53  C   UNL A   1      40.910  31.683  35.794  1.00  0.00     0.074 A 
ATOM     54  C   UNL A   1      42.828  27.544  31.420  1.00  0.00     0.029 A 
ATOM     55  N   UNL A   1      41.732  29.095  32.571  1.00  0.00    -0.354 N 
ATOM     56  N   UNL A   1      41.239  30.848  34.837  1.00  0.00    -0.248 NA
ATOM     57  C   UNL A   1      41.740  31.563  37.004  1.00  0.00     0.031 C 
ATOM     58  C   UNL A   1      43.420  27.653  32.684  1.00  0.00     0.029 A 
ATOM     59  C   UNL A   1      42.760  28.644  33.389  1.00  0.00     0.049 A 
ATOM     60  H   UNL A   1      41.084  29.795  32.814  1.00  0.00     0.167 HD
ATOM     61  C   UNL A   1      42.335  30.135  35.315  1.00  0.00     0.074 A 
ATOM     62  C   UNL A   1      42.622  30.644  36.639  1.00  0.00     0.031 C 
ATOM     63  C   UNL A   1      43.045  29.150  34.710  1.00  0.00     0.034 A 
BRANCH  50  64
ATOM     64  C   UNL A   1      40.953  27.740  29.054  1.00  0.00     0.023 A 
ATOM     65  C   UNL A   1      41.952  27.979  28.096  1.00  0.00     0.031 A 
ATOM     66  C   UNL A   1      40.085  26.654  28.844  1.00  0.00     0.131 A 
ATOM     67  C   UNL A   1      42.024  27.183  26.943  1.00  0.00     0.055 A 
ATOM     68  C   UNL A   1      40.207  25.819  27.731  1.00  0.00     0.041 A 
ATOM     69  F   UNL A   1      39.100  26.386  29.717  1.00  0.00    -0.206 F 
ATOM     70  C   UNL A   1      41.173  26.089  26.767  1.00  0.00     0.022 A 
BRANCH  67  71
ATOM     71  S   UNL A   1      43.166  27.667  25.623  1.00  0.00     0.124 S 
ATOM     72  O   UNL A   1      44.060  28.583  26.328  1.00  0.00    -0.237 OA
ATOM     73  O   UNL A   1      43.746  26.390  25.221  1.00  0.00    -0.237 OA
ATOM     74  O   UNL A   1      42.298  28.297  24.631  1.00  0.00    -0.744 OA
ENDBRANCH  67  71
ENDBRANCH  50  64
BRANCH  51  75
ATOM     75  C   UNL A   1      39.630  33.575  37.030  1.00  0.00     0.023 A 
ATOM     76  C   UNL A   1      40.419  34.715  37.255  1.00  0.00     0.031 A 
ATOM     77  C   UNL A   1      38.714  33.202  38.030  1.00  0.00     0.131 A 
ATOM     78  C   UNL A   1      40.321  35.406  38.473  1.00  0.00     0.055 A 
ATOM     79  C   UNL A   1      38.578  33.927  39.214  1.00  0.00     0.041 A 
ATOM     80  F   UNL A   1      37.937  32.119  37.868  1.00  0.00    -0.206 F 
ATOM     81  C   UNL A   1      39.398  35.027  39.449  1.00  0.00     0.022 A 
BRANCH  78  82
ATOM     82  S   UNL A   1      41.506  36.738  38.813  1.00  0.00     0.124 S 
ATOM     83  O   UNL A   1      42.340  36.137  39.847  1.00  0.00    -0.237 OA
ATOM     84  O   UNL A   1      42.134  36.924  37.509  1.00  0.00    -0.237 OA
ATOM     85  O   UNL A   1      40.657  37.841  39.258  1.00  0.00    -0.744 OA
ENDBRANCH  78  82
ENDBRANCH  51  75
BRANCH  63  86
ATOM     86  C   UNL A   1      44.238  28.599  35.455  1.00  0.00     0.023 A 
ATOM     87  C   UNL A   1      44.119  27.541  36.375  1.00  0.00     0.031 A 
ATOM     88  C   UNL A   1      45.514  29.156  35.253  1.00  0.00     0.131 A 
ATOM     89  C   UNL A   1      45.243  27.112  37.097  1.00  0.00     0.055 A 
ATOM     90  C   UNL A   1      46.639  28.687  35.933  1.00  0.00     0.041 A 
ATOM     91  F   UNL A   1      45.688  30.168  34.386  1.00  0.00    -0.206 F 
ATOM     92  C   UNL A   1      46.505  27.668  36.871  1.00  0.00     0.022 A 
BRANCH  89  93
ATOM     93  S   UNL A   1      45.023  25.867  38.400  1.00  0.00     0.124 S 
ATOM     94  O   UNL A   1      44.127  24.910  37.758  1.00  0.00    -0.237 OA
ATOM     95  O   UNL A   1      46.389  25.408  38.626  1.00  0.00    -0.237 OA
ATOM     96  O   UNL A   1      44.435  26.624  39.503  1.00  0.00    -0.744 OA
ENDBRANCH  89  93
ENDBRANCH  63  86
ENDBRANCH  37  38
ENDBRANCH  29  32
ENDBRANCH  27  28
ENDBRANCH  26  27
ENDBRANCH   1  26
TORSDOF 18
ENDMDL
MODEL 3
REMARK VINA RESULT:     -11.5      1.139      7.531
REMARK SMILES Cc1cc(OCC(=O)Nc2sccc2C(=O)NCCCCNC(=O)c2ccc(-c3c4nc(c(-c5cc(S(=O)(=O)[O-])ccc5F)c5ccc([nH]5)c(-c5cc(S(=O)(=O)[O-])ccc5F)c5nc(c(-c6cc(S(=O)(=O)[O-])ccc6F)c6ccc3[nH]6)C=C5)C=C4)cc2)ccc1Cl
REMARK SMILES IDX 19 1 18 2 17 3 15 4 16 5 14 7 10 8 11 9 12 10 13 11 9 12
REMARK SMILES IDX 7 13 8 14 6 16 5 17 4 18 1 19 2 20 3 21 90 22 89 23 91 24
REMARK SMILES IDX 88 25 20 26 21 27 22 28 23 29 24 31 25 32 26 33 87 34 27 35
REMARK SMILES IDX 86 36 28 37 29 38 30 39 80 40 31 41 85 42 79 43 81 44 32 45
REMARK SMILES IDX 84 46 78 47 77 48 33 50 65 51 45 52 64 53 46 54 49 55 63 56
REMARK SMILES IDX 82 57 47 58 48 59 62 61 83 62 50 63 34 64 35 65 43 66 36 67
REMARK SMILES IDX 42 68 44 69 41 70 37 71 38 72 39 73 40 74 66 75 67 76 75 77
REMARK SMILES IDX 68 78 74 79 76 80 73 81 69 82 70 83 71 84 72 85 51 86 52 87
REMARK SMILES IDX 60 88 53 89 59 90 61 91 58 92 54 93 55 94 56 95 57 96
REMARK H PARENT 17 6 9 15 22 30 81 49 49 60
REMARK Flexibility Score: inf
ROOT
ATOM      1  C   UNL A   1      35.587  23.297  26.125  1.00  0.00     0.023 C 
ENDROOT
BRANCH   1   2
ATOM      2  C   UNL A   1      34.287  24.042  25.806  1.00  0.00     0.116 C 
BRANCH   2   3
ATOM      3  N   UNL A   1      34.385  25.483  25.903  1.00  0.00    -0.352 N 
ATOM      4  C   UNL A   1      33.491  26.456  25.524  1.00  0.00     0.254 C 
ATOM      5  O   UNL A   1      33.921  27.610  25.428  1.00  0.00    -0.269 OA
ATOM      6  H   UNL A   1      35.221  25.818  26.302  1.00  0.00     0.163 HD
BRANCH   4   7
ATOM      7  C   UNL A   1      32.118  26.154  25.111  1.00  0.00     0.074 A 
ATOM      8  C   UNL A   1      31.542  26.004  23.862  1.00  0.00     0.108 A 
ATOM      9  S   UNL A   1      29.827  26.056  23.926  1.00  0.00    -0.126 S 
ATOM     10  C   UNL A   1      29.816  25.913  25.619  1.00  0.00     0.068 A 
ATOM     11  C   UNL A   1      31.091  25.973  26.126  1.00  0.00     0.028 A 
BRANCH   8  12
ATOM     12  N   UNL A   1      31.946  25.925  22.555  1.00  0.00    -0.314 N 
ATOM     13  C   UNL A   1      32.814  25.090  21.919  1.00  0.00     0.262 C 
ATOM     14  O   UNL A   1      33.208  25.448  20.800  1.00  0.00    -0.271 OA
ATOM     15  H   UNL A   1      31.533  26.598  21.966  1.00  0.00     0.170 HD
BRANCH  13  16
ATOM     16  C   UNL A   1      33.115  23.665  22.404  1.00  0.00     0.329 C 
BRANCH  16  17
ATOM     17  O   UNL A   1      32.310  22.580  22.028  1.00  0.00    -0.484 OA
BRANCH  17  18
ATOM     18  C   UNL A   1      32.252  21.454  22.798  1.00  0.00     0.120 A 
ATOM     19  C   UNL A   1      32.509  17.648  22.859  1.00  0.00     0.046 C 
ATOM     20  C   UNL A   1      32.409  19.076  23.321  1.00  0.00    -0.029 A 
ATOM     21  C   UNL A   1      32.315  20.126  22.377  1.00  0.00     0.051 A 
ATOM     22  C   UNL A   1      32.457  19.389  24.687  1.00  0.00     0.044 A 
ATOM     23  C   UNL A   1      32.342  20.709  25.108  1.00  0.00     0.024 A 
ATOM     24  Cl  UNL A   1      32.702  18.179  25.894  1.00  0.00    -0.084 Cl
ATOM     25  C   UNL A   1      32.221  21.728  24.168  1.00  0.00     0.048 A 
ENDBRANCH  17  18
ENDBRANCH  16  17
ENDBRANCH  13  16
ENDBRANCH   8  12
ENDBRANCH   4   7
ENDBRANCH   2   3
ENDBRANCH   1   2
BRANCH   1  26
ATOM     26  C   UNL A   1      35.691  21.867  25.569  1.00  0.00     0.023 C 
BRANCH  26  27
ATOM     27  C   UNL A   1      36.889  21.569  24.661  1.00  0.00     0.116 C 
BRANCH  27  28
ATOM     28  N   UNL A   1      37.818  20.591  25.192  1.00  0.00    -0.352 N 
ATOM     29  C   UNL A   1      39.004  20.749  25.874  1.00  0.00     0.251 C 
ATOM     30  H   UNL A   1      37.556  19.655  25.038  1.00  0.00     0.163 HD
ATOM     31  O   UNL A   1      39.646  19.741  26.167  1.00  0.00    -0.269 OA
BRANCH  29  32
ATOM     32  C   UNL A   1      39.560  22.086  26.223  1.00  0.00     0.039 A 
ATOM     33  C   UNL A   1      40.701  22.126  27.031  1.00  0.00     0.014 A 
ATOM     34  C   UNL A   1      38.957  23.291  25.852  1.00  0.00     0.014 A 
ATOM     35  C   UNL A   1      41.272  23.352  27.402  1.00  0.00     0.010 A 
ATOM     36  C   UNL A   1      39.564  24.520  26.174  1.00  0.00     0.010 A 
ATOM     37  C   UNL A   1      40.737  24.568  26.946  1.00  0.00    -0.014 A 
BRANCH  37  38
ATOM     38  C   UNL A   1      41.409  25.865  27.277  1.00  0.00     0.031 A 
ATOM     39  C   UNL A   1      40.722  26.909  28.125  1.00  0.00     0.074 A 
ATOM     40  C   UNL A   1      42.655  26.116  26.821  1.00  0.00     0.049 A 
ATOM     41  N   UNL A   1      41.159  28.085  28.507  1.00  0.00    -0.248 NA
ATOM     42  C   UNL A   1      39.365  26.597  28.593  1.00  0.00     0.031 C 
ATOM     43  C   UNL A   1      43.443  25.214  25.979  1.00  0.00     0.029 A 
ATOM     44  N   UNL A   1      43.486  27.197  27.008  1.00  0.00    -0.354 N 
ATOM     45  C   UNL A   1      40.136  28.651  29.263  1.00  0.00     0.074 A 
ATOM     46  C   UNL A   1      39.035  27.710  29.233  1.00  0.00     0.031 C 
ATOM     47  C   UNL A   1      44.648  25.761  25.752  1.00  0.00     0.029 A 
ATOM     48  C   UNL A   1      44.711  27.074  26.389  1.00  0.00     0.049 A 
ATOM     49  H   UNL A   1      43.229  27.988  27.535  1.00  0.00     0.167 HD
ATOM     50  C   UNL A   1      40.119  29.829  29.938  1.00  0.00     0.034 A 
ATOM     51  C   UNL A   1      45.764  27.917  26.328  1.00  0.00     0.034 A 
ATOM     52  C   UNL A   1      41.215  30.769  29.979  1.00  0.00     0.049 A 
ATOM     53  C   UNL A   1      45.696  29.245  27.042  1.00  0.00     0.074 A 
ATOM     54  C   UNL A   1      41.292  31.973  30.662  1.00  0.00     0.029 A 
ATOM     55  N   UNL A   1      42.422  30.619  29.312  1.00  0.00    -0.354 N 
ATOM     56  N   UNL A   1      44.728  29.744  27.773  1.00  0.00    -0.248 NA
ATOM     57  C   UNL A   1      46.872  30.122  26.927  1.00  0.00     0.031 C 
ATOM     58  C   UNL A   1      42.518  32.578  30.359  1.00  0.00     0.029 A 
ATOM     59  C   UNL A   1      43.237  31.719  29.547  1.00  0.00     0.049 A 
ATOM     60  H   UNL A   1      42.666  29.846  28.754  1.00  0.00     0.167 HD
ATOM     61  C   UNL A   1      45.195  30.972  28.234  1.00  0.00     0.074 A 
ATOM     62  C   UNL A   1      46.535  31.134  27.712  1.00  0.00     0.031 C 
ATOM     63  C   UNL A   1      44.573  31.882  29.025  1.00  0.00     0.034 A 
BRANCH  50  64
ATOM     64  C   UNL A   1      38.854  30.182  30.686  1.00  0.00     0.023 A 
ATOM     65  C   UNL A   1      37.805  30.881  30.067  1.00  0.00     0.031 A 
ATOM     66  C   UNL A   1      38.692  29.806  32.032  1.00  0.00     0.131 A 
ATOM     67  C   UNL A   1      36.666  31.235  30.805  1.00  0.00     0.055 A 
ATOM     68  C   UNL A   1      37.524  30.097  32.741  1.00  0.00     0.041 A 
ATOM     69  F   UNL A   1      39.667  29.150  32.681  1.00  0.00    -0.206 F 
ATOM     70  C   UNL A   1      36.508  30.826  32.132  1.00  0.00     0.022 A 
BRANCH  67  71
ATOM     71  S   UNL A   1      35.446  32.338  30.044  1.00  0.00     0.124 S 
ATOM     72  O   UNL A   1      34.494  32.523  31.137  1.00  0.00    -0.237 OA
ATOM     73  O   UNL A   1      36.249  33.504  29.693  1.00  0.00    -0.237 OA
ATOM     74  O   UNL A   1      34.942  31.565  28.912  1.00  0.00    -0.744 OA
ENDBRANCH  67  71
ENDBRANCH  50  64
BRANCH  51  75
ATOM     75  C   UNL A   1      46.983  27.558  25.543  1.00  0.00     0.023 A 
ATOM     76  C   UNL A   1      47.125  27.956  24.203  1.00  0.00     0.031 A 
ATOM     77  C   UNL A   1      47.981  26.735  26.094  1.00  0.00     0.131 A 
ATOM     78  C   UNL A   1      48.206  27.482  23.443  1.00  0.00     0.055 A 
ATOM     79  C   UNL A   1      49.086  26.316  25.352  1.00  0.00     0.041 A 
ATOM     80  F   UNL A   1      47.894  26.324  27.370  1.00  0.00    -0.206 F 
ATOM     81  C   UNL A   1      49.193  26.675  24.012  1.00  0.00     0.022 A 
BRANCH  78  82
ATOM     82  S   UNL A   1      48.239  27.838  21.664  1.00  0.00     0.124 S 
ATOM     83  O   UNL A   1      49.288  28.848  21.582  1.00  0.00    -0.237 OA
ATOM     84  O   UNL A   1      48.560  26.531  21.100  1.00  0.00    -0.237 OA
ATOM     85  O   UNL A   1      46.887  28.319  21.389  1.00  0.00    -0.744 OA
ENDBRANCH  78  82
ENDBRANCH  51  75
BRANCH  63  86
ATOM     86  C   UNL A   1      45.359  33.109  29.419  1.00  0.00     0.023 A 
ATOM     87  C   UNL A   1      45.344  34.285  28.647  1.00  0.00     0.031 A 
ATOM     88  C   UNL A   1      46.155  33.094  30.580  1.00  0.00     0.131 A 
ATOM     89  C   UNL A   1      46.148  35.375  29.014  1.00  0.00     0.055 A 
ATOM     90  C   UNL A   1      46.910  34.201  30.971  1.00  0.00     0.041 A 
ATOM     91  F   UNL A   1      46.209  31.999  31.356  1.00  0.00    -0.206 F 
ATOM     92  C   UNL A   1      46.920  35.346  30.179  1.00  0.00     0.022 A 
BRANCH  89  93
ATOM     93  S   UNL A   1      46.239  36.809  27.904  1.00  0.00     0.124 S 
ATOM     94  O   UNL A   1      47.025  36.284  26.793  1.00  0.00    -0.237 OA
ATOM     95  O   UNL A   1      44.832  37.073  27.622  1.00  0.00    -0.237 OA
ATOM     96  O   UNL A   1      46.909  37.827  28.712  1.00  0.00    -0.744 OA
ENDBRANCH  89  93
ENDBRANCH  63  86
ENDBRANCH  37  38
ENDBRANCH  29  32
ENDBRANCH  27  28
ENDBRANCH  26  27
ENDBRANCH   1  26
TORSDOF 18
ENDMDL
