MODEL 1
REMARK VINA RESULT:     -12.8      0.000      0.000
REMARK SMILES Cc1c(CC(=O)NCCCCNC(=O)c2ccc(-c3c4nc(c(-c5cc(S(=O)(=O)[O-])ccc5F)c5ccc([nH]5)c(-c5cc(S(=O)(=O)[O-])ccc5F)c5nc(c(-c6cc(S(=O)(=O)[O-])ccc6F)c6ccc3[nH]6)C=C5)C=C4)cc2)cccc1-c1ccn(C(F)F)c(=O)c1
REMARK SMILES IDX 9 1 8 2 7 3 5 4 6 5 4 7 3 8 1 9 2 10 81 11 78 12 80 13 79 14
REMARK SMILES IDX 82 15 83 16 91 17 84 18 89 19 85 20 90 21 86 22 87 23 88 24
REMARK SMILES IDX 10 25 11 26 12 27 13 28 14 30 15 31 16 32 77 33 17 34 76 35
REMARK SMILES IDX 18 36 19 37 20 38 70 39 21 40 75 41 69 42 71 43 22 44 74 45
REMARK SMILES IDX 68 46 67 47 23 49 55 50 35 51 54 52 36 53 39 54 53 55 72 56
REMARK SMILES IDX 37 57 38 58 52 60 73 61 40 62 24 63 25 64 33 65 26 66 32 67
REMARK SMILES IDX 34 68 31 69 27 70 28 71 29 72 30 73 56 74 57 75 65 76 58 77
REMARK SMILES IDX 64 78 66 79 63 80 59 81 60 82 61 83 62 84 41 85 42 86 50 87
REMARK SMILES IDX 43 88 49 89 51 90 48 91 44 92 45 93 46 94 47 95
REMARK H PARENT 7 6 12 29 71 48 39 59
REMARK Flexibility Score: inf
ROOT
ATOM      1  C   UNL A   1      34.031  28.184  26.224  1.00  0.00     0.023 C 
ENDROOT
BRANCH   1   2
ATOM      2  C   UNL A   1      32.653  27.503  26.286  1.00  0.00     0.116 C 
BRANCH   2   3
ATOM      3  N   UNL A   1      31.716  28.011  25.290  1.00  0.00    -0.356 N 
ATOM      4  C   UNL A   1      30.713  27.363  24.627  1.00  0.00     0.224 C 
ATOM      5  O   UNL A   1      30.040  28.002  23.812  1.00  0.00    -0.275 OA
ATOM      6  H   UNL A   1      31.823  28.963  25.061  1.00  0.00     0.163 HD
BRANCH   4   7
ATOM      7  C   UNL A   1      30.415  25.891  24.898  1.00  0.00     0.135 C 
BRANCH   7   8
ATOM      8  C   UNL A   1      31.195  24.943  24.009  1.00  0.00    -0.035 A 
ATOM      9  C   UNL A   1      30.696  22.926  25.491  1.00  0.00     0.045 C 
ATOM     10  C   UNL A   1      31.420  23.579  24.333  1.00  0.00    -0.040 A 
ATOM     11  C   UNL A   1      32.316  22.827  23.529  1.00  0.00    -0.015 A 
ATOM     12  C   UNL A   1      31.781  25.491  22.848  1.00  0.00     0.004 A 
ATOM     13  C   UNL A   1      32.905  23.418  22.395  1.00  0.00     0.009 A 
ATOM     14  C   UNL A   1      32.628  24.736  22.048  1.00  0.00     0.001 A 
BRANCH  11  15
ATOM     15  C   UNL A   1      32.716  21.437  23.859  1.00  0.00    -0.011 A 
ATOM     16  C   UNL A   1      33.631  21.112  24.936  1.00  0.00     0.027 A 
ATOM     17  C   UNL A   1      32.252  20.441  23.082  1.00  0.00     0.080 A 
ATOM     18  C   UNL A   1      34.107  19.868  25.062  1.00  0.00     0.095 A 
ATOM     19  C   UNL A   1      32.618  19.022  23.352  1.00  0.00     0.255 A 
ATOM     20  N   UNL A   1      33.656  18.841  24.251  1.00  0.00    -0.258 N 
ATOM     21  O   UNL A   1      31.953  18.133  22.829  1.00  0.00    -0.269 OA
BRANCH  20  22
ATOM     22  C   UNL A   1      34.166  17.509  24.441  1.00  0.00     0.451 C 
ATOM     23  F   UNL A   1      35.526  17.547  24.496  1.00  0.00    -0.185 F 
ATOM     24  F   UNL A   1      33.741  16.906  25.574  1.00  0.00    -0.185 F 
ENDBRANCH  20  22
ENDBRANCH  11  15
ENDBRANCH   7   8
ENDBRANCH   4   7
ENDBRANCH   2   3
ENDBRANCH   1   2
BRANCH   1  25
ATOM     25  C   UNL A   1      34.032  29.684  26.516  1.00  0.00     0.023 C 
BRANCH  25  26
ATOM     26  C   UNL A   1      33.905  30.016  27.994  1.00  0.00     0.116 C 
BRANCH  26  27
ATOM     27  N   UNL A   1      34.716  31.121  28.476  1.00  0.00    -0.352 N 
ATOM     28  C   UNL A   1      36.012  31.097  28.981  1.00  0.00     0.251 C 
ATOM     29  H   UNL A   1      34.290  32.008  28.441  1.00  0.00     0.163 HD
ATOM     30  O   UNL A   1      36.494  32.078  29.509  1.00  0.00    -0.269 OA
BRANCH  28  31
ATOM     31  C   UNL A   1      36.855  29.887  28.759  1.00  0.00     0.039 A 
ATOM     32  C   UNL A   1      37.080  29.042  29.854  1.00  0.00     0.014 A 
ATOM     33  C   UNL A   1      37.586  29.710  27.589  1.00  0.00     0.014 A 
ATOM     34  C   UNL A   1      38.197  28.206  29.860  1.00  0.00     0.010 A 
ATOM     35  C   UNL A   1      38.759  28.986  27.640  1.00  0.00     0.010 A 
ATOM     36  C   UNL A   1      39.096  28.280  28.795  1.00  0.00    -0.014 A 
BRANCH  36  37
ATOM     37  C   UNL A   1      40.451  27.747  28.845  1.00  0.00     0.031 A 
ATOM     38  C   UNL A   1      40.729  26.365  28.386  1.00  0.00     0.074 A 
ATOM     39  C   UNL A   1      41.481  28.526  29.254  1.00  0.00     0.049 A 
ATOM     40  N   UNL A   1      41.655  25.614  28.881  1.00  0.00    -0.248 NA
ATOM     41  C   UNL A   1      39.963  25.707  27.328  1.00  0.00     0.031 C 
ATOM     42  C   UNL A   1      42.903  28.200  29.156  1.00  0.00     0.029 A 
ATOM     43  N   UNL A   1      41.490  29.712  29.983  1.00  0.00    -0.354 N 
ATOM     44  C   UNL A   1      41.817  24.545  28.028  1.00  0.00     0.074 A 
ATOM     45  C   UNL A   1      40.686  24.599  27.132  1.00  0.00     0.031 C 
ATOM     46  C   UNL A   1      43.576  28.934  30.055  1.00  0.00     0.029 A 
ATOM     47  C   UNL A   1      42.587  29.635  30.850  1.00  0.00     0.049 A 
ATOM     48  H   UNL A   1      40.852  30.458  29.903  1.00  0.00     0.167 HD
ATOM     49  C   UNL A   1      42.972  23.823  28.049  1.00  0.00     0.034 A 
ATOM     50  C   UNL A   1      42.516  29.610  32.215  1.00  0.00     0.034 A 
ATOM     51  C   UNL A   1      43.933  24.366  29.005  1.00  0.00     0.049 A 
ATOM     52  C   UNL A   1      43.219  28.413  32.825  1.00  0.00     0.074 A 
ATOM     53  C   UNL A   1      45.039  25.185  28.842  1.00  0.00     0.029 A 
ATOM     54  N   UNL A   1      43.673  24.319  30.367  1.00  0.00    -0.354 N 
ATOM     55  N   UNL A   1      43.520  27.336  32.155  1.00  0.00    -0.248 NA
ATOM     56  C   UNL A   1      43.618  28.318  34.227  1.00  0.00     0.031 C 
ATOM     57  C   UNL A   1      45.429  25.655  30.119  1.00  0.00     0.029 A 
ATOM     58  C   UNL A   1      44.575  25.105  31.058  1.00  0.00     0.049 A 
ATOM     59  H   UNL A   1      42.948  23.798  30.783  1.00  0.00     0.167 HD
ATOM     60  C   UNL A   1      44.131  26.424  32.979  1.00  0.00     0.074 A 
ATOM     61  C   UNL A   1      44.179  27.095  34.266  1.00  0.00     0.031 C 
ATOM     62  C   UNL A   1      44.532  25.201  32.512  1.00  0.00     0.034 A 
BRANCH  49  63
ATOM     63  C   UNL A   1      43.360  22.843  26.967  1.00  0.00     0.023 A 
ATOM     64  C   UNL A   1      42.822  21.540  26.991  1.00  0.00     0.031 A 
ATOM     65  C   UNL A   1      44.253  23.113  25.914  1.00  0.00     0.131 A 
ATOM     66  C   UNL A   1      43.252  20.550  26.091  1.00  0.00     0.055 A 
ATOM     67  C   UNL A   1      44.721  22.115  25.046  1.00  0.00     0.041 A 
ATOM     68  F   UNL A   1      44.681  24.360  25.663  1.00  0.00    -0.206 F 
ATOM     69  C   UNL A   1      44.231  20.820  25.142  1.00  0.00     0.022 A 
BRANCH  66  70
ATOM     70  S   UNL A   1      42.501  18.902  26.187  1.00  0.00     0.124 S 
ATOM     71  O   UNL A   1      43.321  18.133  25.254  1.00  0.00    -0.237 OA
ATOM     72  O   UNL A   1      42.653  18.574  27.600  1.00  0.00    -0.237 OA
ATOM     73  O   UNL A   1      41.124  19.132  25.752  1.00  0.00    -0.744 OA
ENDBRANCH  66  70
ENDBRANCH  49  63
BRANCH  50  74
ATOM     74  C   UNL A   1      41.314  30.278  32.779  1.00  0.00     0.023 A 
ATOM     75  C   UNL A   1      41.333  31.686  32.810  1.00  0.00     0.031 A 
ATOM     76  C   UNL A   1      40.075  29.630  32.861  1.00  0.00     0.131 A 
ATOM     77  C   UNL A   1      40.138  32.408  32.717  1.00  0.00     0.055 A 
ATOM     78  C   UNL A   1      38.878  30.358  32.846  1.00  0.00     0.041 A 
ATOM     79  F   UNL A   1      39.996  28.293  32.811  1.00  0.00    -0.206 F 
ATOM     80  C   UNL A   1      38.904  31.751  32.722  1.00  0.00     0.022 A 
BRANCH  77  81
ATOM     81  S   UNL A   1      40.255  34.171  32.269  1.00  0.00     0.124 S 
ATOM     82  O   UNL A   1      40.974  34.737  33.406  1.00  0.00    -0.237 OA
ATOM     83  O   UNL A   1      41.003  34.125  31.013  1.00  0.00    -0.237 OA
ATOM     84  O   UNL A   1      38.862  34.577  32.122  1.00  0.00    -0.744 OA
ENDBRANCH  77  81
ENDBRANCH  50  74
BRANCH  62  85
ATOM     85  C   UNL A   1      45.021  24.021  33.333  1.00  0.00     0.023 A 
ATOM     86  C   UNL A   1      46.314  23.922  33.862  1.00  0.00     0.031 A 
ATOM     87  C   UNL A   1      44.147  22.953  33.673  1.00  0.00     0.131 A 
ATOM     88  C   UNL A   1      46.720  22.797  34.606  1.00  0.00     0.055 A 
ATOM     89  C   UNL A   1      44.529  21.871  34.473  1.00  0.00     0.041 A 
ATOM     90  F   UNL A   1      42.874  22.914  33.256  1.00  0.00    -0.206 F 
ATOM     91  C   UNL A   1      45.830  21.779  34.934  1.00  0.00     0.022 A 
BRANCH  88  92
ATOM     92  S   UNL A   1      48.463  22.670  35.081  1.00  0.00     0.124 S 
ATOM     93  O   UNL A   1      49.105  23.545  34.104  1.00  0.00    -0.237 OA
ATOM     94  O   UNL A   1      48.448  23.160  36.455  1.00  0.00    -0.237 OA
ATOM     95  O   UNL A   1      48.761  21.248  34.930  1.00  0.00    -0.744 OA
ENDBRANCH  88  92
ENDBRANCH  62  85
ENDBRANCH  36  37
ENDBRANCH  28  31
ENDBRANCH  26  27
ENDBRANCH  25  26
ENDBRANCH   1  25
TORSDOF 17
ENDMDL
MODEL 2
REMARK VINA RESULT:     -12.7      4.650     10.870
REMARK SMILES Cc1c(CC(=O)NCCCCNC(=O)c2ccc(-c3c4nc(c(-c5cc(S(=O)(=O)[O-])ccc5F)c5ccc([nH]5)c(-c5cc(S(=O)(=O)[O-])ccc5F)c5nc(c(-c6cc(S(=O)(=O)[O-])ccc6F)c6ccc3[nH]6)C=C5)C=C4)cc2)cccc1-c1ccn(C(F)F)c(=O)c1
REMARK SMILES IDX 9 1 8 2 7 3 5 4 6 5 4 7 3 8 1 9 2 10 81 11 78 12 80 13 79 14
REMARK SMILES IDX 82 15 83 16 91 17 84 18 89 19 85 20 90 21 86 22 87 23 88 24
REMARK SMILES IDX 10 25 11 26 12 27 13 28 14 30 15 31 16 32 77 33 17 34 76 35
REMARK SMILES IDX 18 36 19 37 20 38 70 39 21 40 75 41 69 42 71 43 22 44 74 45
REMARK SMILES IDX 68 46 67 47 23 49 55 50 35 51 54 52 36 53 39 54 53 55 72 56
REMARK SMILES IDX 37 57 38 58 52 60 73 61 40 62 24 63 25 64 33 65 26 66 32 67
REMARK SMILES IDX 34 68 31 69 27 70 28 71 29 72 30 73 56 74 57 75 65 76 58 77
REMARK SMILES IDX 64 78 66 79 63 80 59 81 60 82 61 83 62 84 41 85 42 86 50 87
REMARK SMILES IDX 43 88 49 89 51 90 48 91 44 92 45 93 46 94 47 95
REMARK H PARENT 7 6 12 29 71 48 39 59
REMARK Flexibility Score: inf
ROOT
ATOM      1  C   UNL A   1      37.110  21.802  24.290  1.00  0.00     0.023 C 
ENDROOT
BRANCH   1   2
ATOM      2  C   UNL A   1      35.616  21.538  24.538  1.00  0.00     0.116 C 
BRANCH   2   3
ATOM      3  N   UNL A   1      35.210  21.780  25.918  1.00  0.00    -0.356 N 
ATOM      4  C   UNL A   1      34.772  22.931  26.508  1.00  0.00     0.224 C 
ATOM      5  O   UNL A   1      34.485  22.902  27.710  1.00  0.00    -0.275 OA
ATOM      6  H   UNL A   1      35.261  20.997  26.513  1.00  0.00     0.163 HD
BRANCH   4   7
ATOM      7  C   UNL A   1      34.620  24.218  25.702  1.00  0.00     0.135 C 
BRANCH   7   8
ATOM      8  C   UNL A   1      33.176  24.612  25.462  1.00  0.00    -0.035 A 
ATOM      9  C   UNL A   1      33.824  26.800  24.317  1.00  0.00     0.045 C 
ATOM     10  C   UNL A   1      32.793  25.864  24.911  1.00  0.00    -0.040 A 
ATOM     11  C   UNL A   1      31.416  26.209  24.899  1.00  0.00    -0.015 A 
ATOM     12  C   UNL A   1      32.185  23.704  25.890  1.00  0.00     0.004 A 
ATOM     13  C   UNL A   1      30.458  25.287  25.363  1.00  0.00     0.009 A 
ATOM     14  C   UNL A   1      30.838  24.038  25.840  1.00  0.00     0.001 A 
BRANCH  11  15
ATOM     15  C   UNL A   1      30.928  27.541  24.466  1.00  0.00    -0.011 A 
ATOM     16  C   UNL A   1      31.392  28.784  25.053  1.00  0.00     0.027 A 
ATOM     17  C   UNL A   1      29.965  27.590  23.527  1.00  0.00     0.080 A 
ATOM     18  C   UNL A   1      30.778  29.936  24.763  1.00  0.00     0.095 A 
ATOM     19  C   UNL A   1      29.422  28.894  23.050  1.00  0.00     0.255 A 
ATOM     20  N   UNL A   1      29.768  29.993  23.818  1.00  0.00    -0.258 N 
ATOM     21  O   UNL A   1      28.782  28.916  22.003  1.00  0.00    -0.269 OA
BRANCH  20  22
ATOM     22  C   UNL A   1      29.155  31.258  23.508  1.00  0.00     0.451 C 
ATOM     23  F   UNL A   1      27.817  31.186  23.755  1.00  0.00    -0.185 F 
ATOM     24  F   UNL A   1      29.634  32.299  24.224  1.00  0.00    -0.185 F 
ENDBRANCH  20  22
ENDBRANCH  11  15
ENDBRANCH   7   8
ENDBRANCH   4   7
ENDBRANCH   2   3
ENDBRANCH   1   2
BRANCH   1  25
ATOM     25  C   UNL A   1      38.021  21.590  25.500  1.00  0.00     0.023 C 
BRANCH  25  26
ATOM     26  C   UNL A   1      38.576  22.882  26.077  1.00  0.00     0.116 C 
BRANCH  26  27
ATOM     27  N   UNL A   1      39.997  22.891  26.379  1.00  0.00    -0.352 N 
ATOM     28  C   UNL A   1      40.820  23.973  26.678  1.00  0.00     0.251 C 
ATOM     29  H   UNL A   1      40.439  22.011  26.371  1.00  0.00     0.163 HD
ATOM     30  O   UNL A   1      42.026  23.843  26.734  1.00  0.00    -0.269 OA
BRANCH  28  31
ATOM     31  C   UNL A   1      40.197  25.276  27.051  1.00  0.00     0.039 A 
ATOM     32  C   UNL A   1      40.623  26.420  26.362  1.00  0.00     0.014 A 
ATOM     33  C   UNL A   1      39.402  25.407  28.184  1.00  0.00     0.014 A 
ATOM     34  C   UNL A   1      40.467  27.675  26.952  1.00  0.00     0.010 A 
ATOM     35  C   UNL A   1      39.361  26.626  28.830  1.00  0.00     0.010 A 
ATOM     36  C   UNL A   1      39.944  27.749  28.243  1.00  0.00    -0.014 A 
BRANCH  36  37
ATOM     37  C   UNL A   1      40.063  28.925  29.095  1.00  0.00     0.031 A 
ATOM     38  C   UNL A   1      38.978  29.936  29.131  1.00  0.00     0.074 A 
ATOM     39  C   UNL A   1      41.135  29.080  29.908  1.00  0.00     0.049 A 
ATOM     40  N   UNL A   1      39.173  31.195  29.337  1.00  0.00    -0.248 NA
ATOM     41  C   UNL A   1      37.570  29.602  28.919  1.00  0.00     0.031 C 
ATOM     42  C   UNL A   1      41.286  30.086  30.958  1.00  0.00     0.029 A 
ATOM     43  N   UNL A   1      42.389  28.475  29.883  1.00  0.00    -0.354 N 
ATOM     44  C   UNL A   1      37.947  31.764  29.600  1.00  0.00     0.074 A 
ATOM     45  C   UNL A   1      36.977  30.757  29.238  1.00  0.00     0.031 C 
ATOM     46  C   UNL A   1      42.593  30.252  31.210  1.00  0.00     0.029 A 
ATOM     47  C   UNL A   1      43.314  29.468  30.226  1.00  0.00     0.049 A 
ATOM     48  H   UNL A   1      42.585  27.534  29.668  1.00  0.00     0.167 HD
ATOM     49  C   UNL A   1      37.872  32.956  30.253  1.00  0.00     0.034 A 
ATOM     50  C   UNL A   1      44.299  29.949  29.408  1.00  0.00     0.034 A 
ATOM     51  C   UNL A   1      39.193  33.448  30.636  1.00  0.00     0.049 A 
ATOM     52  C   UNL A   1      44.249  31.455  29.238  1.00  0.00     0.074 A 
ATOM     53  C   UNL A   1      39.884  33.405  31.837  1.00  0.00     0.029 A 
ATOM     54  N   UNL A   1      40.107  33.837  29.667  1.00  0.00    -0.354 N 
ATOM     55  N   UNL A   1      43.195  32.175  29.504  1.00  0.00    -0.248 NA
ATOM     56  C   UNL A   1      45.357  32.265  28.741  1.00  0.00     0.031 C 
ATOM     57  C   UNL A   1      41.234  33.746  31.579  1.00  0.00     0.029 A 
ATOM     58  C   UNL A   1      41.357  34.017  30.227  1.00  0.00     0.049 A 
ATOM     59  H   UNL A   1      39.895  33.966  28.714  1.00  0.00     0.167 HD
ATOM     60  C   UNL A   1      43.448  33.497  29.235  1.00  0.00     0.074 A 
ATOM     61  C   UNL A   1      44.824  33.501  28.770  1.00  0.00     0.031 C 
ATOM     62  C   UNL A   1      42.489  34.456  29.421  1.00  0.00     0.034 A 
BRANCH  49  63
ATOM     63  C   UNL A   1      36.594  33.502  30.845  1.00  0.00     0.023 A 
ATOM     64  C   UNL A   1      35.646  34.111  29.996  1.00  0.00     0.031 A 
ATOM     65  C   UNL A   1      36.261  33.477  32.211  1.00  0.00     0.131 A 
ATOM     66  C   UNL A   1      34.507  34.754  30.508  1.00  0.00     0.055 A 
ATOM     67  C   UNL A   1      35.151  34.160  32.730  1.00  0.00     0.041 A 
ATOM     68  F   UNL A   1      36.976  32.762  33.092  1.00  0.00    -0.206 F 
ATOM     69  C   UNL A   1      34.274  34.818  31.878  1.00  0.00     0.022 A 
BRANCH  66  70
ATOM     70  S   UNL A   1      33.334  35.504  29.345  1.00  0.00     0.124 S 
ATOM     71  O   UNL A   1      34.220  36.047  28.319  1.00  0.00    -0.237 OA
ATOM     72  O   UNL A   1      32.515  34.363  28.953  1.00  0.00    -0.237 OA
ATOM     73  O   UNL A   1      32.647  36.506  30.158  1.00  0.00    -0.744 OA
ENDBRANCH  66  70
ENDBRANCH  49  63
BRANCH  50  74
ATOM     74  C   UNL A   1      44.765  28.985  28.377  1.00  0.00     0.023 A 
ATOM     75  C   UNL A   1      45.594  27.938  28.824  1.00  0.00     0.031 A 
ATOM     76  C   UNL A   1      44.100  28.828  27.153  1.00  0.00     0.131 A 
ATOM     77  C   UNL A   1      45.586  26.704  28.164  1.00  0.00     0.055 A 
ATOM     78  C   UNL A   1      44.155  27.617  26.453  1.00  0.00     0.041 A 
ATOM     79  F   UNL A   1      43.279  29.782  26.693  1.00  0.00    -0.206 F 
ATOM     80  C   UNL A   1      44.859  26.530  26.982  1.00  0.00     0.022 A 
BRANCH  77  81
ATOM     81  S   UNL A   1      46.276  25.271  29.055  1.00  0.00     0.124 S 
ATOM     82  O   UNL A   1      45.654  25.390  30.370  1.00  0.00    -0.237 OA
ATOM     83  O   UNL A   1      45.816  24.146  28.242  1.00  0.00    -0.237 OA
ATOM     84  O   UNL A   1      47.715  25.500  29.001  1.00  0.00    -0.744 OA
ENDBRANCH  77  81
ENDBRANCH  50  74
BRANCH  62  85
ATOM     85  C   UNL A   1      42.544  35.907  28.974  1.00  0.00     0.023 A 
ATOM     86  C   UNL A   1      43.286  36.896  29.631  1.00  0.00     0.031 A 
ATOM     87  C   UNL A   1      41.877  36.336  27.794  1.00  0.00     0.131 A 
ATOM     88  C   UNL A   1      43.291  38.231  29.181  1.00  0.00     0.055 A 
ATOM     89  C   UNL A   1      41.941  37.646  27.308  1.00  0.00     0.041 A 
ATOM     90  F   UNL A   1      41.140  35.501  27.049  1.00  0.00    -0.206 F 
ATOM     91  C   UNL A   1      42.640  38.610  28.011  1.00  0.00     0.022 A 
BRANCH  88  92
ATOM     92  S   UNL A   1      44.121  39.474  30.204  1.00  0.00     0.124 S 
ATOM     93  O   UNL A   1      45.525  39.243  29.878  1.00  0.00    -0.237 OA
ATOM     94  O   UNL A   1      43.552  40.721  29.703  1.00  0.00    -0.237 OA
ATOM     95  O   UNL A   1      43.734  39.116  31.567  1.00  0.00    -0.744 OA
ENDBRANCH  88  92
ENDBRANCH  62  85
ENDBRANCH  36  37
ENDBRANCH  28  31
ENDBRANCH  26  27
ENDBRANCH  25  26
ENDBRANCH   1  25
TORSDOF 17
ENDMDL
MODEL 3
REMARK VINA RESULT:     -12.4      1.740      2.136
REMARK SMILES Cc1c(CC(=O)NCCCCNC(=O)c2ccc(-c3c4nc(c(-c5cc(S(=O)(=O)[O-])ccc5F)c5ccc([nH]5)c(-c5cc(S(=O)(=O)[O-])ccc5F)c5nc(c(-c6cc(S(=O)(=O)[O-])ccc6F)c6ccc3[nH]6)C=C5)C=C4)cc2)cccc1-c1ccn(C(F)F)c(=O)c1
REMARK SMILES IDX 9 1 8 2 7 3 5 4 6 5 4 7 3 8 1 9 2 10 81 11 78 12 80 13 79 14
REMARK SMILES IDX 82 15 83 16 91 17 84 18 89 19 85 20 90 21 86 22 87 23 88 24
REMARK SMILES IDX 10 25 11 26 12 27 13 28 14 30 15 31 16 32 77 33 17 34 76 35
REMARK SMILES IDX 18 36 19 37 20 38 70 39 21 40 75 41 69 42 71 43 22 44 74 45
REMARK SMILES IDX 68 46 67 47 23 49 55 50 35 51 54 52 36 53 39 54 53 55 72 56
REMARK SMILES IDX 37 57 38 58 52 60 73 61 40 62 24 63 25 64 33 65 26 66 32 67
REMARK SMILES IDX 34 68 31 69 27 70 28 71 29 72 30 73 56 74 57 75 65 76 58 77
REMARK SMILES IDX 64 78 66 79 63 80 59 81 60 82 61 83 62 84 41 85 42 86 50 87
REMARK SMILES IDX 43 88 49 89 51 90 48 91 44 92 45 93 46 94 47 95
REMARK H PARENT 7 6 12 29 71 48 39 59
REMARK Flexibility Score: inf
ROOT
ATOM      1  C   UNL A   1      32.935  31.765  27.009  1.00  0.00     0.023 C 
ENDROOT
BRANCH   1   2
ATOM      2  C   UNL A   1      31.782  30.895  26.480  1.00  0.00     0.116 C 
BRANCH   2   3
ATOM      3  N   UNL A   1      31.591  29.667  27.244  1.00  0.00    -0.356 N 
ATOM      4  C   UNL A   1      31.463  28.380  26.805  1.00  0.00     0.224 C 
ATOM      5  O   UNL A   1      31.302  27.487  27.645  1.00  0.00    -0.275 OA
ATOM      6  H   UNL A   1      31.547  29.783  28.220  1.00  0.00     0.163 HD
BRANCH   4   7
ATOM      7  C   UNL A   1      31.535  28.045  25.318  1.00  0.00     0.135 C 
BRANCH   7   8
ATOM      8  C   UNL A   1      31.619  26.558  25.038  1.00  0.00    -0.035 A 
ATOM      9  C   UNL A   1      34.019  26.395  25.893  1.00  0.00     0.045 C 
ATOM     10  C   UNL A   1      32.809  25.800  25.204  1.00  0.00    -0.040 A 
ATOM     11  C   UNL A   1      32.832  24.459  24.740  1.00  0.00    -0.015 A 
ATOM     12  C   UNL A   1      30.465  25.939  24.512  1.00  0.00     0.004 A 
ATOM     13  C   UNL A   1      31.668  23.886  24.193  1.00  0.00     0.009 A 
ATOM     14  C   UNL A   1      30.488  24.616  24.093  1.00  0.00     0.001 A 
BRANCH  11  15
ATOM     15  C   UNL A   1      34.061  23.629  24.749  1.00  0.00    -0.011 A 
ATOM     16  C   UNL A   1      34.431  22.774  25.862  1.00  0.00     0.027 A 
ATOM     17  C   UNL A   1      34.900  23.724  23.701  1.00  0.00     0.080 A 
ATOM     18  C   UNL A   1      35.640  22.204  25.900  1.00  0.00     0.095 A 
ATOM     19  C   UNL A   1      36.157  22.924  23.648  1.00  0.00     0.255 A 
ATOM     20  N   UNL A   1      36.521  22.318  24.838  1.00  0.00    -0.258 N 
ATOM     21  O   UNL A   1      36.732  22.804  22.570  1.00  0.00    -0.269 OA
BRANCH  20  22
ATOM     22  C   UNL A   1      37.800  21.661  24.902  1.00  0.00     0.451 C 
ATOM     23  F   UNL A   1      38.265  21.696  26.182  1.00  0.00    -0.185 F 
ATOM     24  F   UNL A   1      37.779  20.363  24.525  1.00  0.00    -0.185 F 
ENDBRANCH  20  22
ENDBRANCH  11  15
ENDBRANCH   7   8
ENDBRANCH   4   7
ENDBRANCH   2   3
ENDBRANCH   1   2
BRANCH   1  25
ATOM     25  C   UNL A   1      34.137  30.994  27.557  1.00  0.00     0.023 C 
BRANCH  25  26
ATOM     26  C   UNL A   1      35.348  31.872  27.831  1.00  0.00     0.116 C 
BRANCH  26  27
ATOM     27  N   UNL A   1      35.655  32.122  29.228  1.00  0.00    -0.352 N 
ATOM     28  C   UNL A   1      36.351  31.320  30.127  1.00  0.00     0.251 C 
ATOM     29  H   UNL A   1      35.325  32.977  29.590  1.00  0.00     0.163 HD
ATOM     30  O   UNL A   1      36.376  31.585  31.312  1.00  0.00    -0.269 OA
BRANCH  28  31
ATOM     31  C   UNL A   1      37.175  30.191  29.604  1.00  0.00     0.039 A 
ATOM     32  C   UNL A   1      37.271  29.037  30.393  1.00  0.00     0.014 A 
ATOM     33  C   UNL A   1      38.005  30.344  28.500  1.00  0.00     0.014 A 
ATOM     34  C   UNL A   1      38.358  28.178  30.225  1.00  0.00     0.010 A 
ATOM     35  C   UNL A   1      39.146  29.574  28.413  1.00  0.00     0.010 A 
ATOM     36  C   UNL A   1      39.353  28.527  29.311  1.00  0.00    -0.014 A 
BRANCH  36  37
ATOM     37  C   UNL A   1      40.682  27.928  29.299  1.00  0.00     0.031 A 
ATOM     38  C   UNL A   1      40.877  26.552  28.780  1.00  0.00     0.074 A 
ATOM     39  C   UNL A   1      41.761  28.640  29.704  1.00  0.00     0.049 A 
ATOM     40  N   UNL A   1      41.779  25.739  29.217  1.00  0.00    -0.248 NA
ATOM     41  C   UNL A   1      40.048  25.973  27.724  1.00  0.00     0.031 C 
ATOM     42  C   UNL A   1      43.161  28.249  29.548  1.00  0.00     0.029 A 
ATOM     43  N   UNL A   1      41.850  29.795  30.475  1.00  0.00    -0.354 N 
ATOM     44  C   UNL A   1      41.863  24.697  28.321  1.00  0.00     0.074 A 
ATOM     45  C   UNL A   1      40.710  24.840  27.464  1.00  0.00     0.031 C 
ATOM     46  C   UNL A   1      43.896  28.915  30.452  1.00  0.00     0.029 A 
ATOM     47  C   UNL A   1      42.966  29.632  31.303  1.00  0.00     0.049 A 
ATOM     48  H   UNL A   1      41.247  30.573  30.443  1.00  0.00     0.167 HD
ATOM     49  C   UNL A   1      42.981  23.920  28.279  1.00  0.00     0.034 A 
ATOM     50  C   UNL A   1      42.936  29.558  32.668  1.00  0.00     0.034 A 
ATOM     51  C   UNL A   1      43.995  24.379  29.223  1.00  0.00     0.049 A 
ATOM     52  C   UNL A   1      43.596  28.305  33.211  1.00  0.00     0.074 A 
ATOM     53  C   UNL A   1      45.136  25.149  29.055  1.00  0.00     0.029 A 
ATOM     54  N   UNL A   1      43.774  24.292  30.591  1.00  0.00    -0.354 N 
ATOM     55  N   UNL A   1      43.823  27.242  32.493  1.00  0.00    -0.248 NA
ATOM     56  C   UNL A   1      44.032  28.137  34.595  1.00  0.00     0.031 C 
ATOM     57  C   UNL A   1      45.586  25.550  30.336  1.00  0.00     0.029 A 
ATOM     58  C   UNL A   1      44.734  25.006  31.281  1.00  0.00     0.049 A 
ATOM     59  H   UNL A   1      43.037  23.791  31.009  1.00  0.00     0.167 HD
ATOM     60  C   UNL A   1      44.414  26.271  33.263  1.00  0.00     0.074 A 
ATOM     61  C   UNL A   1      44.533  26.888  34.571  1.00  0.00     0.031 C 
ATOM     62  C   UNL A   1      44.740  25.049  32.738  1.00  0.00     0.034 A 
BRANCH  49  63
ATOM     63  C   UNL A   1      43.288  22.965  27.149  1.00  0.00     0.023 A 
ATOM     64  C   UNL A   1      42.730  21.670  27.170  1.00  0.00     0.031 A 
ATOM     65  C   UNL A   1      44.122  23.251  26.053  1.00  0.00     0.131 A 
ATOM     66  C   UNL A   1      43.089  20.699  26.220  1.00  0.00     0.055 A 
ATOM     67  C   UNL A   1      44.520  22.270  25.132  1.00  0.00     0.041 A 
ATOM     68  F   UNL A   1      44.556  24.497  25.811  1.00  0.00    -0.206 F 
ATOM     69  C   UNL A   1      44.015  20.980  25.222  1.00  0.00     0.022 A 
BRANCH  66  70
ATOM     70  S   UNL A   1      42.318  19.060  26.316  1.00  0.00     0.124 S 
ATOM     71  O   UNL A   1      43.158  18.269  25.421  1.00  0.00    -0.237 OA
ATOM     72  O   UNL A   1      42.420  18.752  27.738  1.00  0.00    -0.237 OA
ATOM     73  O   UNL A   1      40.958  19.298  25.833  1.00  0.00    -0.744 OA
ENDBRANCH  66  70
ENDBRANCH  49  63
BRANCH  50  74
ATOM     74  C   UNL A   1      41.785  30.261  33.294  1.00  0.00     0.023 A 
ATOM     75  C   UNL A   1      41.852  31.667  33.332  1.00  0.00     0.031 A 
ATOM     76  C   UNL A   1      40.531  29.653  33.435  1.00  0.00     0.131 A 
ATOM     77  C   UNL A   1      40.677  32.428  33.301  1.00  0.00     0.055 A 
ATOM     78  C   UNL A   1      39.359  30.419  33.482  1.00  0.00     0.041 A 
ATOM     79  F   UNL A   1      40.406  28.319  33.382  1.00  0.00    -0.206 F 
ATOM     80  C   UNL A   1      39.425  31.811  33.364  1.00  0.00     0.022 A 
BRANCH  77  81
ATOM     81  S   UNL A   1      40.830  34.189  32.856  1.00  0.00     0.124 S 
ATOM     82  O   UNL A   1      39.438  34.591  32.686  1.00  0.00    -0.237 OA
ATOM     83  O   UNL A   1      41.507  34.749  34.025  1.00  0.00    -0.237 OA
ATOM     84  O   UNL A   1      41.645  34.164  31.647  1.00  0.00    -0.744 OA
ENDBRANCH  77  81
ENDBRANCH  50  74
BRANCH  62  85
ATOM     85  C   UNL A   1      45.194  23.815  33.499  1.00  0.00     0.023 A 
ATOM     86  C   UNL A   1      46.510  23.606  33.929  1.00  0.00     0.031 A 
ATOM     87  C   UNL A   1      44.266  22.809  33.884  1.00  0.00     0.131 A 
ATOM     88  C   UNL A   1      46.880  22.436  34.620  1.00  0.00     0.055 A 
ATOM     89  C   UNL A   1      44.621  21.683  34.633  1.00  0.00     0.041 A 
ATOM     90  F   UNL A   1      42.967  22.877  33.561  1.00  0.00    -0.206 F 
ATOM     91  C   UNL A   1      45.941  21.481  34.995  1.00  0.00     0.022 A 
BRANCH  88  92
ATOM     92  S   UNL A   1      48.638  22.166  34.962  1.00  0.00     0.124 S 
ATOM     93  O   UNL A   1      48.618  21.811  36.378  1.00  0.00    -0.237 OA
ATOM     94  O   UNL A   1      48.972  21.082  34.044  1.00  0.00    -0.237 OA
ATOM     95  O   UNL A   1      49.253  23.455  34.654  1.00  0.00    -0.744 OA
ENDBRANCH  88  92
ENDBRANCH  62  85
ENDBRANCH  36  37
ENDBRANCH  28  31
ENDBRANCH  26  27
ENDBRANCH  25  26
ENDBRANCH   1  25
TORSDOF 17
ENDMDL
