MODEL 1
REMARK VINA RESULT:     -10.7      0.000      0.000
REMARK SMILES CC[C@H]1CC[C@](O)([C@H](F)C(=O)NCCCCNC(=O)c2ccc(-c3c4nc(c(-c5cc(S(=O)(=O)[O-])ccc5F)c5ccc([nH]5)c(-c5cc(S(=O)(=O)[O-])ccc5F)c5nc(c(-c6cc(S(=O)(=O)[O-])ccc6F)c6ccc3[nH]6)C=C5)C=C4)cc2)CC1
REMARK SMILES IDX 15 1 14 2 13 3 12 4 10 5 11 6 8 8 9 9 6 10 3 11 4 12 84 13
REMARK SMILES IDX 5 14 83 15 2 16 1 17 7 18 16 20 17 21 18 22 19 24 20 25
REMARK SMILES IDX 21 26 82 27 22 28 81 29 23 30 24 31 25 32 75 33 26 34 80 35
REMARK SMILES IDX 74 36 76 37 27 38 79 39 73 40 72 41 28 43 60 44 40 45 59 46
REMARK SMILES IDX 41 47 44 48 58 49 77 50 42 51 43 52 57 54 78 55 45 56 29 57
REMARK SMILES IDX 30 58 38 59 31 60 37 61 39 62 36 63 32 64 33 65 34 66 35 67
REMARK SMILES IDX 61 68 62 69 70 70 63 71 69 72 71 73 68 74 64 75 65 76 66 77
REMARK SMILES IDX 67 78 46 79 47 80 55 81 48 82 54 83 56 84 53 85 49 86 50 87
REMARK SMILES IDX 51 88 52 89
REMARK H PARENT 12 7 7 19 17 23 76 42 44 53
REMARK Flexibility Score: inf
ROOT
ATOM      1  C   UNL A   1      41.028  20.267  27.406  1.00  0.00     0.023 C 
ENDROOT
BRANCH   1   2
ATOM      2  C   UNL A   1      41.634  19.614  26.160  1.00  0.00     0.023 C 
BRANCH   2   3
ATOM      3  C   UNL A   1      43.075  19.128  26.305  1.00  0.00     0.116 C 
BRANCH   3   4
ATOM      4  N   UNL A   1      43.673  18.794  25.029  1.00  0.00    -0.353 N 
ATOM      5  C   UNL A   1      44.642  19.465  24.351  1.00  0.00     0.257 C 
ATOM      6  O   UNL A   1      45.043  18.969  23.292  1.00  0.00    -0.272 OA
ATOM      7  H   UNL A   1      43.334  17.977  24.596  1.00  0.00     0.163 HD
BRANCH   5   8
ATOM      8  C   UNL A   1      45.253  20.762  24.880  1.00  0.00     0.286 C 
ATOM      9  F   UNL A   1      46.624  20.721  24.900  1.00  0.00    -0.234 F 
BRANCH   8  10
ATOM     10  C   UNL A   1      44.778  22.084  24.206  1.00  0.00     0.105 C 
ATOM     11  C   UNL A   1      44.868  24.356  26.207  1.00  0.00    -0.011 C 
ATOM     12  C   UNL A   1      46.158  23.779  25.592  1.00  0.00     0.006 C 
ATOM     13  C   UNL A   1      43.780  23.275  26.228  1.00  0.00     0.006 C 
ATOM     14  C   UNL A   1      45.936  23.115  24.223  1.00  0.00     0.039 C 
ATOM     15  C   UNL A   1      43.523  22.712  24.839  1.00  0.00     0.039 C 
BRANCH  11  16
ATOM     16  C   UNL A   1      44.456  25.661  25.490  1.00  0.00    -0.000 C 
ATOM     17  C   UNL A   1      45.605  26.615  25.196  1.00  0.00     0.004 C 
ENDBRANCH  11  16
BRANCH  10  18
ATOM     18  O   UNL A   1      44.461  21.830  22.822  1.00  0.00    -0.386 OA
ATOM     19  H   UNL A   1      43.783  21.138  22.767  1.00  0.00     0.211 HD
ENDBRANCH  10  18
ENDBRANCH   8  10
ENDBRANCH   5   8
ENDBRANCH   3   4
ENDBRANCH   2   3
ENDBRANCH   1   2
BRANCH   1  20
ATOM     20  C   UNL A   1      40.774  21.766  27.300  1.00  0.00     0.116 C 
BRANCH  20  21
ATOM     21  N   UNL A   1      39.613  22.076  26.478  1.00  0.00    -0.352 N 
ATOM     22  C   UNL A   1      38.933  23.265  26.349  1.00  0.00     0.251 C 
ATOM     23  H   UNL A   1      39.267  21.329  25.939  1.00  0.00     0.163 HD
ATOM     24  O   UNL A   1      37.863  23.297  25.747  1.00  0.00    -0.269 OA
BRANCH  22  25
ATOM     25  C   UNL A   1      39.484  24.493  26.960  1.00  0.00     0.039 A 
ATOM     26  C   UNL A   1      40.227  25.377  26.171  1.00  0.00     0.014 A 
ATOM     27  C   UNL A   1      39.247  24.781  28.306  1.00  0.00     0.014 A 
ATOM     28  C   UNL A   1      40.662  26.591  26.714  1.00  0.00     0.010 A 
ATOM     29  C   UNL A   1      39.620  26.018  28.823  1.00  0.00     0.010 A 
ATOM     30  C   UNL A   1      40.327  26.939  28.031  1.00  0.00    -0.014 A 
BRANCH  30  31
ATOM     31  C   UNL A   1      40.712  28.248  28.626  1.00  0.00     0.031 A 
ATOM     32  C   UNL A   1      42.166  28.558  28.853  1.00  0.00     0.074 A 
ATOM     33  C   UNL A   1      39.762  29.103  29.054  1.00  0.00     0.049 A 
ATOM     34  N   UNL A   1      42.713  29.539  29.524  1.00  0.00    -0.248 NA
ATOM     35  C   UNL A   1      43.131  27.609  28.277  1.00  0.00     0.031 C 
ATOM     36  C   UNL A   1      38.318  28.907  28.912  1.00  0.00     0.029 A 
ATOM     37  N   UNL A   1      39.869  30.301  29.716  1.00  0.00    -0.354 N 
ATOM     38  C   UNL A   1      44.084  29.309  29.479  1.00  0.00     0.074 A 
ATOM     39  C   UNL A   1      44.276  28.068  28.758  1.00  0.00     0.031 C 
ATOM     40  C   UNL A   1      37.676  29.950  29.464  1.00  0.00     0.029 A 
ATOM     41  C   UNL A   1      38.656  30.862  30.045  1.00  0.00     0.049 A 
ATOM     42  H   UNL A   1      40.733  30.719  29.937  1.00  0.00     0.167 HD
ATOM     43  C   UNL A   1      45.090  30.071  29.979  1.00  0.00     0.034 A 
ATOM     44  C   UNL A   1      38.367  31.972  30.755  1.00  0.00     0.034 A 
ATOM     45  C   UNL A   1      44.879  31.318  30.673  1.00  0.00     0.049 A 
ATOM     46  C   UNL A   1      39.499  32.798  31.313  1.00  0.00     0.074 A 
ATOM     47  C   UNL A   1      45.824  32.193  31.182  1.00  0.00     0.029 A 
ATOM     48  N   UNL A   1      43.636  31.869  30.959  1.00  0.00    -0.354 N 
ATOM     49  N   UNL A   1      40.793  32.580  31.247  1.00  0.00    -0.248 NA
ATOM     50  C   UNL A   1      39.133  34.026  32.034  1.00  0.00     0.031 C 
ATOM     51  C   UNL A   1      45.153  33.241  31.822  1.00  0.00     0.029 A 
ATOM     52  C   UNL A   1      43.791  33.060  31.651  1.00  0.00     0.049 A 
ATOM     53  H   UNL A   1      42.772  31.471  30.706  1.00  0.00     0.167 HD
ATOM     54  C   UNL A   1      41.393  33.662  31.884  1.00  0.00     0.074 A 
ATOM     55  C   UNL A   1      40.323  34.532  32.325  1.00  0.00     0.031 C 
ATOM     56  C   UNL A   1      42.711  33.919  32.079  1.00  0.00     0.034 A 
BRANCH  43  57
ATOM     57  C   UNL A   1      46.497  29.553  29.812  1.00  0.00     0.023 A 
ATOM     58  C   UNL A   1      47.257  29.833  28.662  1.00  0.00     0.031 A 
ATOM     59  C   UNL A   1      47.076  28.731  30.796  1.00  0.00     0.131 A 
ATOM     60  C   UNL A   1      48.509  29.225  28.483  1.00  0.00     0.055 A 
ATOM     61  C   UNL A   1      48.360  28.202  30.652  1.00  0.00     0.041 A 
ATOM     62  F   UNL A   1      46.394  28.412  31.908  1.00  0.00    -0.206 F 
ATOM     63  C   UNL A   1      49.077  28.433  29.482  1.00  0.00     0.022 A 
BRANCH  60  64
ATOM     64  S   UNL A   1      49.309  29.359  26.862  1.00  0.00     0.124 S 
ATOM     65  O   UNL A   1      49.455  30.806  26.724  1.00  0.00    -0.237 OA
ATOM     66  O   UNL A   1      50.544  28.608  27.057  1.00  0.00    -0.237 OA
ATOM     67  O   UNL A   1      48.344  28.749  25.951  1.00  0.00    -0.744 OA
ENDBRANCH  60  64
ENDBRANCH  43  57
BRANCH  44  68
ATOM     68  C   UNL A   1      36.950  32.365  31.000  1.00  0.00     0.023 A 
ATOM     69  C   UNL A   1      36.170  32.921  29.975  1.00  0.00     0.031 A 
ATOM     70  C   UNL A   1      36.369  32.228  32.274  1.00  0.00     0.131 A 
ATOM     71  C   UNL A   1      34.866  33.365  30.250  1.00  0.00     0.055 A 
ATOM     72  C   UNL A   1      35.055  32.624  32.529  1.00  0.00     0.041 A 
ATOM     73  F   UNL A   1      37.070  31.697  33.287  1.00  0.00    -0.206 F 
ATOM     74  C   UNL A   1      34.300  33.209  31.517  1.00  0.00     0.022 A 
BRANCH  71  75
ATOM     75  S   UNL A   1      33.949  34.224  28.943  1.00  0.00     0.124 S 
ATOM     76  O   UNL A   1      33.651  33.132  28.022  1.00  0.00    -0.237 OA
ATOM     77  O   UNL A   1      32.813  34.771  29.679  1.00  0.00    -0.237 OA
ATOM     78  O   UNL A   1      34.904  35.213  28.451  1.00  0.00    -0.744 OA
ENDBRANCH  71  75
ENDBRANCH  44  68
BRANCH  56  79
ATOM     79  C   UNL A   1      43.068  35.228  32.737  1.00  0.00     0.023 A 
ATOM     80  C   UNL A   1      43.405  36.370  31.991  1.00  0.00     0.031 A 
ATOM     81  C   UNL A   1      43.064  35.328  34.140  1.00  0.00     0.131 A 
ATOM     82  C   UNL A   1      43.768  37.553  32.654  1.00  0.00     0.055 A 
ATOM     83  C   UNL A   1      43.375  36.521  34.792  1.00  0.00     0.041 A 
ATOM     84  F   UNL A   1      42.750  34.266  34.898  1.00  0.00    -0.206 F 
ATOM     85  C   UNL A   1      43.738  37.640  34.049  1.00  0.00     0.022 A 
BRANCH  82  86
ATOM     86  S   UNL A   1      44.345  38.964  31.670  1.00  0.00     0.124 S 
ATOM     87  O   UNL A   1      45.509  39.408  32.430  1.00  0.00    -0.237 OA
ATOM     88  O   UNL A   1      44.625  38.350  30.376  1.00  0.00    -0.237 OA
ATOM     89  O   UNL A   1      43.207  39.882  31.687  1.00  0.00    -0.744 OA
ENDBRANCH  82  86
ENDBRANCH  56  79
ENDBRANCH  30  31
ENDBRANCH  22  25
ENDBRANCH  20  21
ENDBRANCH   1  20
TORSDOF 17
ENDMDL
MODEL 2
REMARK VINA RESULT:     -10.5      4.241     10.071
REMARK SMILES CC[C@H]1CC[C@](O)([C@H](F)C(=O)NCCCCNC(=O)c2ccc(-c3c4nc(c(-c5cc(S(=O)(=O)[O-])ccc5F)c5ccc([nH]5)c(-c5cc(S(=O)(=O)[O-])ccc5F)c5nc(c(-c6cc(S(=O)(=O)[O-])ccc6F)c6ccc3[nH]6)C=C5)C=C4)cc2)CC1
REMARK SMILES IDX 15 1 14 2 13 3 12 4 10 5 11 6 8 8 9 9 6 10 3 11 4 12 84 13
REMARK SMILES IDX 5 14 83 15 2 16 1 17 7 18 16 20 17 21 18 22 19 24 20 25
REMARK SMILES IDX 21 26 82 27 22 28 81 29 23 30 24 31 25 32 75 33 26 34 80 35
REMARK SMILES IDX 74 36 76 37 27 38 79 39 73 40 72 41 28 43 60 44 40 45 59 46
REMARK SMILES IDX 41 47 44 48 58 49 77 50 42 51 43 52 57 54 78 55 45 56 29 57
REMARK SMILES IDX 30 58 38 59 31 60 37 61 39 62 36 63 32 64 33 65 34 66 35 67
REMARK SMILES IDX 61 68 62 69 70 70 63 71 69 72 71 73 68 74 64 75 65 76 66 77
REMARK SMILES IDX 67 78 46 79 47 80 55 81 48 82 54 83 56 84 53 85 49 86 50 87
REMARK SMILES IDX 51 88 52 89
REMARK H PARENT 12 7 7 19 17 23 76 42 44 53
REMARK Flexibility Score: inf
ROOT
ATOM      1  C   UNL A   1      35.164  22.147  24.618  1.00  0.00     0.023 C 
ENDROOT
BRANCH   1   2
ATOM      2  C   UNL A   1      34.131  21.020  24.697  1.00  0.00     0.023 C 
BRANCH   2   3
ATOM      3  C   UNL A   1      32.738  21.363  24.173  1.00  0.00     0.116 C 
BRANCH   3   4
ATOM      4  N   UNL A   1      31.775  21.536  25.241  1.00  0.00    -0.353 N 
ATOM      5  C   UNL A   1      31.030  22.635  25.534  1.00  0.00     0.257 C 
ATOM      6  O   UNL A   1      30.227  22.545  26.469  1.00  0.00    -0.272 OA
ATOM      7  H   UNL A   1      31.645  20.759  25.831  1.00  0.00     0.163 HD
BRANCH   5   8
ATOM      8  C   UNL A   1      31.136  23.928  24.724  1.00  0.00     0.286 C 
ATOM      9  F   UNL A   1      30.271  23.947  23.660  1.00  0.00    -0.234 F 
BRANCH   8  10
ATOM     10  C   UNL A   1      31.018  25.262  25.520  1.00  0.00     0.105 C 
ATOM     11  C   UNL A   1      33.357  27.069  24.861  1.00  0.00    -0.011 C 
ATOM     12  C   UNL A   1      32.209  26.846  23.857  1.00  0.00     0.006 C 
ATOM     13  C   UNL A   1      33.488  25.843  25.772  1.00  0.00     0.006 C 
ATOM     14  C   UNL A   1      30.884  26.444  24.526  1.00  0.00     0.039 C 
ATOM     15  C   UNL A   1      32.182  25.535  26.489  1.00  0.00     0.039 C 
BRANCH  11  16
ATOM     16  C   UNL A   1      33.174  28.406  25.614  1.00  0.00    -0.000 C 
ATOM     17  C   UNL A   1      34.098  28.594  26.809  1.00  0.00     0.004 C 
ENDBRANCH  11  16
BRANCH  10  18
ATOM     18  O   UNL A   1      29.814  25.242  26.314  1.00  0.00    -0.386 OA
ATOM     19  H   UNL A   1      29.326  26.071  26.183  1.00  0.00     0.211 HD
ENDBRANCH  10  18
ENDBRANCH   8  10
ENDBRANCH   5   8
ENDBRANCH   3   4
ENDBRANCH   2   3
ENDBRANCH   1   2
BRANCH   1  20
ATOM     20  C   UNL A   1      36.214  22.150  25.724  1.00  0.00     0.116 C 
BRANCH  20  21
ATOM     21  N   UNL A   1      37.165  21.056  25.590  1.00  0.00    -0.352 N 
ATOM     22  C   UNL A   1      38.531  21.069  25.750  1.00  0.00     0.251 C 
ATOM     23  H   UNL A   1      36.775  20.185  25.352  1.00  0.00     0.163 HD
ATOM     24  O   UNL A   1      39.197  20.092  25.420  1.00  0.00    -0.269 OA
BRANCH  22  25
ATOM     25  C   UNL A   1      39.192  22.274  26.297  1.00  0.00     0.039 A 
ATOM     26  C   UNL A   1      40.300  22.126  27.137  1.00  0.00     0.014 A 
ATOM     27  C   UNL A   1      38.730  23.548  25.960  1.00  0.00     0.014 A 
ATOM     28  C   UNL A   1      40.993  23.260  27.573  1.00  0.00     0.010 A 
ATOM     29  C   UNL A   1      39.462  24.670  26.337  1.00  0.00     0.010 A 
ATOM     30  C   UNL A   1      40.605  24.538  27.144  1.00  0.00    -0.014 A 
BRANCH  30  31
ATOM     31  C   UNL A   1      41.355  25.764  27.529  1.00  0.00     0.031 A 
ATOM     32  C   UNL A   1      40.672  26.820  28.354  1.00  0.00     0.074 A 
ATOM     33  C   UNL A   1      42.599  25.974  27.056  1.00  0.00     0.049 A 
ATOM     34  N   UNL A   1      41.063  28.035  28.639  1.00  0.00    -0.248 NA
ATOM     35  C   UNL A   1      39.352  26.467  28.899  1.00  0.00     0.031 C 
ATOM     36  C   UNL A   1      43.361  25.037  26.227  1.00  0.00     0.029 A 
ATOM     37  N   UNL A   1      43.436  27.056  27.185  1.00  0.00    -0.354 N 
ATOM     38  C   UNL A   1      40.024  28.605  29.367  1.00  0.00     0.074 A 
ATOM     39  C   UNL A   1      38.968  27.616  29.434  1.00  0.00     0.031 C 
ATOM     40  C   UNL A   1      44.552  25.582  25.929  1.00  0.00     0.029 A 
ATOM     41  C   UNL A   1      44.621  26.924  26.498  1.00  0.00     0.049 A 
ATOM     42  H   UNL A   1      43.208  27.852  27.718  1.00  0.00     0.167 HD
ATOM     43  C   UNL A   1      39.963  29.834  29.941  1.00  0.00     0.034 A 
ATOM     44  C   UNL A   1      45.635  27.795  26.325  1.00  0.00     0.034 A 
ATOM     45  C   UNL A   1      41.035  30.797  29.885  1.00  0.00     0.049 A 
ATOM     46  C   UNL A   1      45.543  29.160  26.960  1.00  0.00     0.074 A 
ATOM     47  C   UNL A   1      41.100  32.052  30.466  1.00  0.00     0.029 A 
ATOM     48  N   UNL A   1      42.234  30.614  29.205  1.00  0.00    -0.354 N 
ATOM     49  N   UNL A   1      44.562  29.681  27.663  1.00  0.00    -0.248 NA
ATOM     50  C   UNL A   1      46.697  30.054  26.787  1.00  0.00     0.031 C 
ATOM     51  C   UNL A   1      42.310  32.648  30.093  1.00  0.00     0.029 A 
ATOM     52  C   UNL A   1      43.033  31.738  29.339  1.00  0.00     0.049 A 
ATOM     53  H   UNL A   1      42.479  29.803  28.703  1.00  0.00     0.167 HD
ATOM     54  C   UNL A   1      44.999  30.945  28.046  1.00  0.00     0.074 A 
ATOM     55  C   UNL A   1      46.331  31.109  27.500  1.00  0.00     0.031 C 
ATOM     56  C   UNL A   1      44.362  31.883  28.791  1.00  0.00     0.034 A 
BRANCH  43  57
ATOM     57  C   UNL A   1      38.682  30.203  30.649  1.00  0.00     0.023 A 
ATOM     58  C   UNL A   1      37.638  30.872  29.986  1.00  0.00     0.031 A 
ATOM     59  C   UNL A   1      38.517  29.923  32.018  1.00  0.00     0.131 A 
ATOM     60  C   UNL A   1      36.520  31.317  30.707  1.00  0.00     0.055 A 
ATOM     61  C   UNL A   1      37.361  30.289  32.710  1.00  0.00     0.041 A 
ATOM     62  F   UNL A   1      39.487  29.304  32.711  1.00  0.00    -0.206 F 
ATOM     63  C   UNL A   1      36.362  31.007  32.060  1.00  0.00     0.022 A 
BRANCH  60  64
ATOM     64  S   UNL A   1      35.355  32.440  29.889  1.00  0.00     0.124 S 
ATOM     65  O   UNL A   1      34.887  31.618  28.775  1.00  0.00    -0.237 OA
ATOM     66  O   UNL A   1      34.381  32.706  30.942  1.00  0.00    -0.237 OA
ATOM     67  O   UNL A   1      36.187  33.578  29.506  1.00  0.00    -0.744 OA
ENDBRANCH  60  64
ENDBRANCH  43  57
BRANCH  44  68
ATOM     68  C   UNL A   1      46.822  27.421  25.504  1.00  0.00     0.023 A 
ATOM     69  C   UNL A   1      46.959  27.881  24.185  1.00  0.00     0.031 A 
ATOM     70  C   UNL A   1      47.815  26.565  26.012  1.00  0.00     0.131 A 
ATOM     71  C   UNL A   1      48.040  27.446  23.401  1.00  0.00     0.055 A 
ATOM     72  C   UNL A   1      48.915  26.175  25.244  1.00  0.00     0.041 A 
ATOM     73  F   UNL A   1      47.735  26.101  27.268  1.00  0.00    -0.206 F 
ATOM     74  C   UNL A   1      49.024  26.606  23.926  1.00  0.00     0.022 A 
BRANCH  71  75
ATOM     75  S   UNL A   1      48.095  27.933  21.655  1.00  0.00     0.124 S 
ATOM     76  O   UNL A   1      46.790  28.559  21.480  1.00  0.00    -0.237 OA
ATOM     77  O   UNL A   1      49.247  28.829  21.627  1.00  0.00    -0.237 OA
ATOM     78  O   UNL A   1      48.279  26.664  20.954  1.00  0.00    -0.744 OA
ENDBRANCH  71  75
ENDBRANCH  44  68
BRANCH  56  79
ATOM     79  C   UNL A   1      45.127  33.141  29.117  1.00  0.00     0.023 A 
ATOM     80  C   UNL A   1      45.148  34.247  28.250  1.00  0.00     0.031 A 
ATOM     81  C   UNL A   1      45.845  33.229  30.324  1.00  0.00     0.131 A 
ATOM     82  C   UNL A   1      45.908  35.379  28.583  1.00  0.00     0.055 A 
ATOM     83  C   UNL A   1      46.556  34.377  30.673  1.00  0.00     0.041 A 
ATOM     84  F   UNL A   1      45.859  32.200  31.185  1.00  0.00    -0.206 F 
ATOM     85  C   UNL A   1      46.598  35.457  29.796  1.00  0.00     0.022 A 
BRANCH  82  86
ATOM     86  S   UNL A   1      46.039  36.729  27.378  1.00  0.00     0.124 S 
ATOM     87  O   UNL A   1      46.169  36.001  26.120  1.00  0.00    -0.237 OA
ATOM     88  O   UNL A   1      44.783  37.445  27.573  1.00  0.00    -0.237 OA
ATOM     89  O   UNL A   1      47.237  37.453  27.802  1.00  0.00    -0.744 OA
ENDBRANCH  82  86
ENDBRANCH  56  79
ENDBRANCH  30  31
ENDBRANCH  22  25
ENDBRANCH  20  21
ENDBRANCH   1  20
TORSDOF 17
ENDMDL
MODEL 3
REMARK VINA RESULT:     -10.4      5.629      9.093
REMARK SMILES CC[C@H]1CC[C@](O)([C@H](F)C(=O)NCCCCNC(=O)c2ccc(-c3c4nc(c(-c5cc(S(=O)(=O)[O-])ccc5F)c5ccc([nH]5)c(-c5cc(S(=O)(=O)[O-])ccc5F)c5nc(c(-c6cc(S(=O)(=O)[O-])ccc6F)c6ccc3[nH]6)C=C5)C=C4)cc2)CC1
REMARK SMILES IDX 15 1 14 2 13 3 12 4 10 5 11 6 8 8 9 9 6 10 3 11 4 12 84 13
REMARK SMILES IDX 5 14 83 15 2 16 1 17 7 18 16 20 17 21 18 22 19 24 20 25
REMARK SMILES IDX 21 26 82 27 22 28 81 29 23 30 24 31 25 32 75 33 26 34 80 35
REMARK SMILES IDX 74 36 76 37 27 38 79 39 73 40 72 41 28 43 60 44 40 45 59 46
REMARK SMILES IDX 41 47 44 48 58 49 77 50 42 51 43 52 57 54 78 55 45 56 29 57
REMARK SMILES IDX 30 58 38 59 31 60 37 61 39 62 36 63 32 64 33 65 34 66 35 67
REMARK SMILES IDX 61 68 62 69 70 70 63 71 69 72 71 73 68 74 64 75 65 76 66 77
REMARK SMILES IDX 67 78 46 79 47 80 55 81 48 82 54 83 56 84 53 85 49 86 50 87
REMARK SMILES IDX 51 88 52 89
REMARK H PARENT 12 7 7 19 17 23 76 42 44 53
REMARK Flexibility Score: inf
ROOT
ATOM      1  C   UNL A   1      33.169  27.766  25.791  1.00  0.00     0.023 C 
ENDROOT
BRANCH   1   2
ATOM      2  C   UNL A   1      31.706  27.737  26.243  1.00  0.00     0.023 C 
BRANCH   2   3
ATOM      3  C   UNL A   1      30.774  26.863  25.406  1.00  0.00     0.116 C 
BRANCH   3   4
ATOM      4  N   UNL A   1      30.847  27.175  23.994  1.00  0.00    -0.353 N 
ATOM      5  C   UNL A   1      31.123  26.338  22.958  1.00  0.00     0.257 C 
ATOM      6  O   UNL A   1      31.083  26.812  21.818  1.00  0.00    -0.272 OA
ATOM      7  H   UNL A   1      30.676  28.114  23.753  1.00  0.00     0.163 HD
BRANCH   5   8
ATOM      8  C   UNL A   1      31.433  24.857  23.173  1.00  0.00     0.286 C 
ATOM      9  F   UNL A   1      30.390  24.048  22.799  1.00  0.00    -0.234 F 
BRANCH   8  10
ATOM     10  C   UNL A   1      32.759  24.323  22.551  1.00  0.00     0.105 C 
ATOM     11  C   UNL A   1      34.413  22.937  24.676  1.00  0.00    -0.011 C 
ATOM     12  C   UNL A   1      33.148  22.279  24.089  1.00  0.00     0.006 C 
ATOM     13  C   UNL A   1      34.286  24.463  24.589  1.00  0.00     0.006 C 
ATOM     14  C   UNL A   1      32.801  22.778  22.677  1.00  0.00     0.039 C 
ATOM     15  C   UNL A   1      34.039  24.923  23.160  1.00  0.00     0.039 C 
BRANCH  11  16
ATOM     16  C   UNL A   1      35.685  22.364  24.014  1.00  0.00    -0.000 C 
ATOM     17  C   UNL A   1      36.979  23.056  24.419  1.00  0.00     0.004 C 
ENDBRANCH  11  16
BRANCH  10  18
ATOM     18  O   UNL A   1      32.786  24.631  21.143  1.00  0.00    -0.386 OA
ATOM     19  H   UNL A   1      32.874  25.590  21.023  1.00  0.00     0.211 HD
ENDBRANCH  10  18
ENDBRANCH   8  10
ENDBRANCH   5   8
ENDBRANCH   3   4
ENDBRANCH   2   3
ENDBRANCH   1   2
BRANCH   1  20
ATOM     20  C   UNL A   1      33.651  29.096  25.222  1.00  0.00     0.116 C 
BRANCH  20  21
ATOM     21  N   UNL A   1      32.975  30.235  25.824  1.00  0.00    -0.352 N 
ATOM     22  C   UNL A   1      33.323  30.961  26.939  1.00  0.00     0.251 C 
ATOM     23  H   UNL A   1      32.153  30.527  25.369  1.00  0.00     0.163 HD
ATOM     24  O   UNL A   1      32.537  31.778  27.410  1.00  0.00    -0.269 OA
BRANCH  22  25
ATOM     25  C   UNL A   1      34.637  30.733  27.580  1.00  0.00     0.039 A 
ATOM     26  C   UNL A   1      35.544  31.792  27.680  1.00  0.00     0.014 A 
ATOM     27  C   UNL A   1      34.960  29.478  28.102  1.00  0.00     0.014 A 
ATOM     28  C   UNL A   1      36.744  31.612  28.376  1.00  0.00     0.010 A 
ATOM     29  C   UNL A   1      36.121  29.322  28.853  1.00  0.00     0.010 A 
ATOM     30  C   UNL A   1      37.023  30.389  29.003  1.00  0.00    -0.014 A 
BRANCH  30  31
ATOM     31  C   UNL A   1      38.256  30.176  29.810  1.00  0.00     0.031 A 
ATOM     32  C   UNL A   1      39.301  29.211  29.323  1.00  0.00     0.074 A 
ATOM     33  C   UNL A   1      38.385  30.763  31.016  1.00  0.00     0.049 A 
ATOM     34  N   UNL A   1      40.346  28.732  29.947  1.00  0.00    -0.248 NA
ATOM     35  C   UNL A   1      39.118  28.687  27.961  1.00  0.00     0.031 C 
ATOM     36  C   UNL A   1      37.430  31.701  31.610  1.00  0.00     0.029 A 
ATOM     37  N   UNL A   1      39.364  30.640  31.972  1.00  0.00    -0.354 N 
ATOM     38  C   UNL A   1      40.929  27.826  29.067  1.00  0.00     0.074 A 
ATOM     39  C   UNL A   1      40.087  27.788  27.889  1.00  0.00     0.031 C 
ATOM     40  C   UNL A   1      37.874  32.072  32.822  1.00  0.00     0.029 A 
ATOM     41  C   UNL A   1      39.114  31.361  33.116  1.00  0.00     0.049 A 
ATOM     42  H   UNL A   1      40.169  30.086  31.849  1.00  0.00     0.167 HD
ATOM     43  C   UNL A   1      42.068  27.104  29.221  1.00  0.00     0.034 A 
ATOM     44  C   UNL A   1      39.794  31.423  34.279  1.00  0.00     0.034 A 
ATOM     45  C   UNL A   1      42.906  27.174  30.393  1.00  0.00     0.049 A 
ATOM     46  C   UNL A   1      41.051  30.604  34.436  1.00  0.00     0.074 A 
ATOM     47  C   UNL A   1      44.103  26.523  30.639  1.00  0.00     0.029 A 
ATOM     48  N   UNL A   1      42.635  27.941  31.520  1.00  0.00    -0.354 N 
ATOM     49  N   UNL A   1      41.602  29.764  33.588  1.00  0.00    -0.248 NA
ATOM     50  C   UNL A   1      41.784  30.746  35.702  1.00  0.00     0.031 C 
ATOM     51  C   UNL A   1      44.527  26.853  31.931  1.00  0.00     0.029 A 
ATOM     52  C   UNL A   1      43.633  27.765  32.467  1.00  0.00     0.049 A 
ATOM     53  H   UNL A   1      41.851  28.525  31.628  1.00  0.00     0.167 HD
ATOM     54  C   UNL A   1      42.764  29.310  34.205  1.00  0.00     0.074 A 
ATOM     55  C   UNL A   1      42.837  29.969  35.493  1.00  0.00     0.031 C 
ATOM     56  C   UNL A   1      43.693  28.435  33.745  1.00  0.00     0.034 A 
BRANCH  43  57
ATOM     57  C   UNL A   1      42.446  26.162  28.105  1.00  0.00     0.023 A 
ATOM     58  C   UNL A   1      41.831  24.906  27.957  1.00  0.00     0.031 A 
ATOM     59  C   UNL A   1      43.466  26.503  27.198  1.00  0.00     0.131 A 
ATOM     60  C   UNL A   1      42.299  24.004  26.991  1.00  0.00     0.055 A 
ATOM     61  C   UNL A   1      43.867  25.635  26.180  1.00  0.00     0.041 A 
ATOM     62  F   UNL A   1      44.105  27.679  27.299  1.00  0.00    -0.206 F 
ATOM     63  C   UNL A   1      43.296  24.370  26.084  1.00  0.00     0.022 A 
BRANCH  60  64
ATOM     64  S   UNL A   1      41.698  22.294  27.041  1.00  0.00     0.124 S 
ATOM     65  O   UNL A   1      41.893  21.873  25.655  1.00  0.00    -0.237 OA
ATOM     66  O   UNL A   1      42.580  21.678  28.026  1.00  0.00    -0.237 OA
ATOM     67  O   UNL A   1      40.303  22.432  27.451  1.00  0.00    -0.744 OA
ENDBRANCH  60  64
ENDBRANCH  43  57
BRANCH  44  68
ATOM     68  C   UNL A   1      39.301  32.274  35.400  1.00  0.00     0.023 A 
ATOM     69  C   UNL A   1      39.749  33.594  35.553  1.00  0.00     0.031 A 
ATOM     70  C   UNL A   1      38.404  31.765  36.357  1.00  0.00     0.131 A 
ATOM     71  C   UNL A   1      39.339  34.349  36.664  1.00  0.00     0.055 A 
ATOM     72  C   UNL A   1      37.960  32.537  37.433  1.00  0.00     0.041 A 
ATOM     73  F   UNL A   1      37.940  30.511  36.254  1.00  0.00    -0.206 F 
ATOM     74  C   UNL A   1      38.439  33.833  37.598  1.00  0.00     0.022 A 
BRANCH  71  75
ATOM     75  S   UNL A   1      40.066  35.992  36.912  1.00  0.00     0.124 S 
ATOM     76  O   UNL A   1      41.474  35.667  37.107  1.00  0.00    -0.237 OA
ATOM     77  O   UNL A   1      39.729  36.665  35.662  1.00  0.00    -0.237 OA
ATOM     78  O   UNL A   1      39.371  36.496  38.095  1.00  0.00    -0.744 OA
ENDBRANCH  71  75
ENDBRANCH  44  68
BRANCH  56  79
ATOM     79  C   UNL A   1      44.903  28.196  34.612  1.00  0.00     0.023 A 
ATOM     80  C   UNL A   1      44.950  27.157  35.557  1.00  0.00     0.031 A 
ATOM     81  C   UNL A   1      46.031  29.026  34.480  1.00  0.00     0.131 A 
ATOM     82  C   UNL A   1      46.087  27.002  36.366  1.00  0.00     0.055 A 
ATOM     83  C   UNL A   1      47.178  28.834  35.251  1.00  0.00     0.041 A 
ATOM     84  F   UNL A   1      46.037  30.033  33.593  1.00  0.00    -0.206 F 
ATOM     85  C   UNL A   1      47.206  27.824  36.207  1.00  0.00     0.022 A 
BRANCH  82  86
ATOM     86  S   UNL A   1      46.060  25.752  37.680  1.00  0.00     0.124 S 
ATOM     87  O   UNL A   1      46.864  26.386  38.720  1.00  0.00    -0.237 OA
ATOM     88  O   UNL A   1      44.634  25.626  37.964  1.00  0.00    -0.237 OA
ATOM     89  O   UNL A   1      46.671  24.581  37.052  1.00  0.00    -0.744 OA
ENDBRANCH  82  86
ENDBRANCH  56  79
ENDBRANCH  30  31
ENDBRANCH  22  25
ENDBRANCH  20  21
ENDBRANCH   1  20
TORSDOF 17
ENDMDL
