MODEL 1
REMARK VINA RESULT:     -11.8      0.000      0.000
REMARK SMILES C[C@](NC(=O)Nc1ccccc1Cl)(C(=O)NCCCCNC(=O)c1ccc(-c2c3nc(c(-c4cc(S(=O)(=O)[O-])ccc4F)c4ccc([nH]4)c(-c4cc(S(=O)(=O)[O-])ccc4F)c4nc(c(-c5cc(S(=O)(=O)[O-])ccc5F)c5ccc2[nH]5)C=C4)C=C3)cc1)C(F)(F)F
REMARK SMILES IDX 19 1 18 2 17 3 16 4 14 5 15 6 2 8 1 9 87 10 88 11 89 12
REMARK SMILES IDX 90 13 3 14 4 15 5 17 6 18 7 20 8 21 12 22 9 23 11 24 13 25
REMARK SMILES IDX 10 26 20 27 21 28 22 29 23 31 24 32 25 33 86 34 26 35 85 36
REMARK SMILES IDX 27 37 28 38 29 39 79 40 30 41 84 42 78 43 80 44 31 45 83 46
REMARK SMILES IDX 77 47 76 48 32 50 64 51 44 52 63 53 45 54 48 55 62 56 81 57
REMARK SMILES IDX 46 58 47 59 61 61 82 62 49 63 33 64 34 65 42 66 35 67 41 68
REMARK SMILES IDX 43 69 40 70 36 71 37 72 38 73 39 74 65 75 66 76 74 77 67 78
REMARK SMILES IDX 73 79 75 80 72 81 68 82 69 83 70 84 71 85 50 86 51 87 59 88
REMARK SMILES IDX 52 89 58 90 60 91 57 92 53 93 54 94 55 95 56 96
REMARK H PARENT 16 7 3 16 6 19 21 30 80 49 48 60
REMARK Flexibility Score: inf
ROOT
ATOM      1  C   UNL A   1      31.778  28.369  26.283  1.00  0.00     0.023 C 
ENDROOT
BRANCH   1   2
ATOM      2  C   UNL A   1      31.214  27.450  25.196  1.00  0.00     0.023 C 
BRANCH   2   3
ATOM      3  C   UNL A   1      30.806  26.069  25.700  1.00  0.00     0.116 C 
BRANCH   3   4
ATOM      4  N   UNL A   1      30.353  25.241  24.600  1.00  0.00    -0.354 N 
ATOM      5  C   UNL A   1      30.944  24.206  23.940  1.00  0.00     0.255 C 
ATOM      6  O   UNL A   1      30.278  23.722  23.022  1.00  0.00    -0.272 OA
ATOM      7  H   UNL A   1      29.455  25.467  24.269  1.00  0.00     0.163 HD
BRANCH   5   8
ATOM      8  C   UNL A   1      32.293  23.613  24.409  1.00  0.00     0.213 C 
ATOM      9  C   UNL A   1      32.431  22.290  23.644  1.00  0.00     0.056 C 
BRANCH   8  10
ATOM     10  C   UNL A   1      33.353  24.624  23.907  1.00  0.00     0.420 C 
ATOM     11  F   UNL A   1      34.396  24.005  23.303  1.00  0.00    -0.168 F 
ATOM     12  F   UNL A   1      32.836  25.474  22.990  1.00  0.00    -0.168 F 
ATOM     13  F   UNL A   1      33.835  25.417  24.891  1.00  0.00    -0.168 F 
ENDBRANCH   8  10
BRANCH   8  14
ATOM     14  N   UNL A   1      32.252  23.544  25.921  1.00  0.00    -0.316 N 
ATOM     15  C   UNL A   1      32.777  22.829  26.931  1.00  0.00     0.320 C 
ATOM     16  H   UNL A   1      31.653  24.240  26.276  1.00  0.00     0.166 HD
ATOM     17  O   UNL A   1      32.162  22.837  28.001  1.00  0.00    -0.248 OA
ATOM     18  N   UNL A   1      33.827  21.999  26.802  1.00  0.00    -0.307 N 
ATOM     19  H   UNL A   1      33.785  21.188  27.361  1.00  0.00     0.171 HD
BRANCH  18  20
ATOM     20  C   UNL A   1      34.971  22.102  26.001  1.00  0.00     0.061 A 
ATOM     21  C   UNL A   1      35.712  23.284  26.126  1.00  0.00     0.028 A 
ATOM     22  C   UNL A   1      35.432  21.085  25.156  1.00  0.00     0.064 A 
ATOM     23  C   UNL A   1      37.001  23.353  25.597  1.00  0.00     0.002 A 
ATOM     24  C   UNL A   1      36.722  21.158  24.626  1.00  0.00     0.023 A 
ATOM     25  Cl  UNL A   1      34.403  19.792  24.637  1.00  0.00    -0.082 Cl
ATOM     26  C   UNL A   1      37.523  22.272  24.887  1.00  0.00     0.002 A 
ENDBRANCH  18  20
ENDBRANCH   8  14
ENDBRANCH   5   8
ENDBRANCH   3   4
ENDBRANCH   2   3
ENDBRANCH   1   2
BRANCH   1  27
ATOM     27  C   UNL A   1      32.832  29.355  25.793  1.00  0.00     0.116 C 
BRANCH  27  28
ATOM     28  N   UNL A   1      32.478  30.729  26.107  1.00  0.00    -0.352 N 
ATOM     29  C   UNL A   1      33.066  31.580  27.014  1.00  0.00     0.251 C 
ATOM     30  H   UNL A   1      31.715  31.099  25.606  1.00  0.00     0.163 HD
ATOM     31  O   UNL A   1      32.515  32.628  27.319  1.00  0.00    -0.269 OA
BRANCH  29  32
ATOM     32  C   UNL A   1      34.354  31.191  27.626  1.00  0.00     0.039 A 
ATOM     33  C   UNL A   1      35.325  32.169  27.847  1.00  0.00     0.014 A 
ATOM     34  C   UNL A   1      34.577  29.868  28.018  1.00  0.00     0.014 A 
ATOM     35  C   UNL A   1      36.499  31.830  28.522  1.00  0.00     0.010 A 
ATOM     36  C   UNL A   1      35.709  29.553  28.762  1.00  0.00     0.010 A 
ATOM     37  C   UNL A   1      36.684  30.529  29.019  1.00  0.00    -0.014 A 
BRANCH  37  38
ATOM     38  C   UNL A   1      37.894  30.170  29.806  1.00  0.00     0.031 A 
ATOM     39  C   UNL A   1      38.900  29.206  29.239  1.00  0.00     0.074 A 
ATOM     40  C   UNL A   1      38.055  30.666  31.049  1.00  0.00     0.049 A 
ATOM     41  N   UNL A   1      39.981  28.717  29.791  1.00  0.00    -0.248 NA
ATOM     42  C   UNL A   1      38.640  28.701  27.881  1.00  0.00     0.031 C 
ATOM     43  C   UNL A   1      37.128  31.581  31.721  1.00  0.00     0.029 A 
ATOM     44  N   UNL A   1      39.052  30.472  31.973  1.00  0.00    -0.354 N 
ATOM     45  C   UNL A   1      40.522  27.841  28.856  1.00  0.00     0.074 A 
ATOM     46  C   UNL A   1      39.613  27.817  27.730  1.00  0.00     0.031 C 
ATOM     47  C   UNL A   1      37.617  31.893  32.932  1.00  0.00     0.029 A 
ATOM     48  C   UNL A   1      38.861  31.162  33.149  1.00  0.00     0.049 A 
ATOM     49  H   UNL A   1      39.831  29.892  31.810  1.00  0.00     0.167 HD
ATOM     50  C   UNL A   1      41.681  27.140  28.921  1.00  0.00     0.034 A 
ATOM     51  C   UNL A   1      39.598  31.192  34.277  1.00  0.00     0.034 A 
ATOM     52  C   UNL A   1      42.580  27.186  30.048  1.00  0.00     0.049 A 
ATOM     53  C   UNL A   1      40.864  30.372  34.340  1.00  0.00     0.074 A 
ATOM     54  C   UNL A   1      43.807  26.563  30.195  1.00  0.00     0.029 A 
ATOM     55  N   UNL A   1      42.347  27.884  31.227  1.00  0.00    -0.354 N 
ATOM     56  N   UNL A   1      41.390  29.591  33.424  1.00  0.00    -0.248 NA
ATOM     57  C   UNL A   1      41.639  30.446  35.584  1.00  0.00     0.031 C 
ATOM     58  C   UNL A   1      44.276  26.816  31.489  1.00  0.00     0.029 A 
ATOM     59  C   UNL A   1      43.389  27.674  32.118  1.00  0.00     0.049 A 
ATOM     60  H   UNL A   1      41.558  28.447  31.403  1.00  0.00     0.167 HD
ATOM     61  C   UNL A   1      42.578  29.112  33.972  1.00  0.00     0.074 A 
ATOM     62  C   UNL A   1      42.695  29.703  35.288  1.00  0.00     0.031 C 
ATOM     63  C   UNL A   1      43.491  28.265  33.434  1.00  0.00     0.034 A 
BRANCH  50  64
ATOM     64  C   UNL A   1      42.023  26.243  27.754  1.00  0.00     0.023 A 
ATOM     65  C   UNL A   1      41.608  24.900  27.703  1.00  0.00     0.031 A 
ATOM     66  C   UNL A   1      42.790  26.734  26.683  1.00  0.00     0.131 A 
ATOM     67  C   UNL A   1      42.024  24.078  26.646  1.00  0.00     0.055 A 
ATOM     68  C   UNL A   1      43.126  25.933  25.589  1.00  0.00     0.041 A 
ATOM     69  F   UNL A   1      43.237  28.000  26.684  1.00  0.00    -0.206 F 
ATOM     70  C   UNL A   1      42.757  24.592  25.574  1.00  0.00     0.022 A 
BRANCH  67  71
ATOM     71  S   UNL A   1      41.720  22.293  26.766  1.00  0.00     0.124 S 
ATOM     72  O   UNL A   1      40.302  22.259  27.117  1.00  0.00    -0.237 OA
ATOM     73  O   UNL A   1      42.060  21.824  25.429  1.00  0.00    -0.237 OA
ATOM     74  O   UNL A   1      42.627  21.863  27.829  1.00  0.00    -0.744 OA
ENDBRANCH  67  71
ENDBRANCH  50  64
BRANCH  51  75
ATOM     75  C   UNL A   1      39.166  32.012  35.447  1.00  0.00     0.023 A 
ATOM     76  C   UNL A   1      38.526  31.419  36.547  1.00  0.00     0.031 A 
ATOM     77  C   UNL A   1      39.334  33.408  35.459  1.00  0.00     0.131 A 
ATOM     78  C   UNL A   1      38.027  32.221  37.584  1.00  0.00     0.055 A 
ATOM     79  C   UNL A   1      38.891  34.196  36.523  1.00  0.00     0.041 A 
ATOM     80  F   UNL A   1      39.939  34.029  34.434  1.00  0.00    -0.206 F 
ATOM     81  C   UNL A   1      38.219  33.605  37.588  1.00  0.00     0.022 A 
BRANCH  78  82
ATOM     82  S   UNL A   1      37.028  31.441  38.882  1.00  0.00     0.124 S 
ATOM     83  O   UNL A   1      37.896  31.579  40.046  1.00  0.00    -0.237 OA
ATOM     84  O   UNL A   1      35.826  32.268  38.877  1.00  0.00    -0.237 OA
ATOM     85  O   UNL A   1      36.846  30.075  38.397  1.00  0.00    -0.744 OA
ENDBRANCH  78  82
ENDBRANCH  51  75
BRANCH  63  86
ATOM     86  C   UNL A   1      44.726  27.972  34.252  1.00  0.00     0.023 A 
ATOM     87  C   UNL A   1      44.777  26.903  35.164  1.00  0.00     0.031 A 
ATOM     88  C   UNL A   1      45.868  28.782  34.120  1.00  0.00     0.131 A 
ATOM     89  C   UNL A   1      45.923  26.711  35.951  1.00  0.00     0.055 A 
ATOM     90  C   UNL A   1      47.030  28.543  34.856  1.00  0.00     0.041 A 
ATOM     91  F   UNL A   1      45.876  29.820  33.267  1.00  0.00    -0.206 F 
ATOM     92  C   UNL A   1      47.056  27.512  35.789  1.00  0.00     0.022 A 
BRANCH  89  93
ATOM     93  S   UNL A   1      45.876  25.462  37.266  1.00  0.00     0.124 S 
ATOM     94  O   UNL A   1      46.904  24.523  36.830  1.00  0.00    -0.237 OA
ATOM     95  O   UNL A   1      46.193  26.248  38.455  1.00  0.00    -0.237 OA
ATOM     96  O   UNL A   1      44.506  24.953  37.207  1.00  0.00    -0.744 OA
ENDBRANCH  89  93
ENDBRANCH  63  86
ENDBRANCH  37  38
ENDBRANCH  29  32
ENDBRANCH  27  28
ENDBRANCH   1  27
TORSDOF 17
ENDMDL
MODEL 2
REMARK VINA RESULT:     -11.8      2.769      3.676
REMARK SMILES C[C@](NC(=O)Nc1ccccc1Cl)(C(=O)NCCCCNC(=O)c1ccc(-c2c3nc(c(-c4cc(S(=O)(=O)[O-])ccc4F)c4ccc([nH]4)c(-c4cc(S(=O)(=O)[O-])ccc4F)c4nc(c(-c5cc(S(=O)(=O)[O-])ccc5F)c5ccc2[nH]5)C=C4)C=C3)cc1)C(F)(F)F
REMARK SMILES IDX 19 1 18 2 17 3 16 4 14 5 15 6 2 8 1 9 87 10 88 11 89 12
REMARK SMILES IDX 90 13 3 14 4 15 5 17 6 18 7 20 8 21 12 22 9 23 11 24 13 25
REMARK SMILES IDX 10 26 20 27 21 28 22 29 23 31 24 32 25 33 86 34 26 35 85 36
REMARK SMILES IDX 27 37 28 38 29 39 79 40 30 41 84 42 78 43 80 44 31 45 83 46
REMARK SMILES IDX 77 47 76 48 32 50 64 51 44 52 63 53 45 54 48 55 62 56 81 57
REMARK SMILES IDX 46 58 47 59 61 61 82 62 49 63 33 64 34 65 42 66 35 67 41 68
REMARK SMILES IDX 43 69 40 70 36 71 37 72 38 73 39 74 65 75 66 76 74 77 67 78
REMARK SMILES IDX 73 79 75 80 72 81 68 82 69 83 70 84 71 85 50 86 51 87 59 88
REMARK SMILES IDX 52 89 58 90 60 91 57 92 53 93 54 94 55 95 56 96
REMARK H PARENT 16 7 3 16 6 19 21 30 80 49 48 60
REMARK Flexibility Score: inf
ROOT
ATOM      1  C   UNL A   1      31.756  31.598  26.750  1.00  0.00     0.023 C 
ENDROOT
BRANCH   1   2
ATOM      2  C   UNL A   1      31.922  30.077  26.726  1.00  0.00     0.023 C 
BRANCH   2   3
ATOM      3  C   UNL A   1      32.823  29.567  25.605  1.00  0.00     0.116 C 
BRANCH   3   4
ATOM      4  N   UNL A   1      32.160  29.696  24.322  1.00  0.00    -0.354 N 
ATOM      5  C   UNL A   1      31.859  28.780  23.361  1.00  0.00     0.255 C 
ATOM      6  O   UNL A   1      31.296  29.235  22.363  1.00  0.00    -0.272 OA
ATOM      7  H   UNL A   1      31.878  30.613  24.105  1.00  0.00     0.163 HD
BRANCH   5   8
ATOM      8  C   UNL A   1      32.095  27.268  23.583  1.00  0.00     0.213 C 
ATOM      9  C   UNL A   1      31.307  26.576  22.462  1.00  0.00     0.056 C 
BRANCH   8  10
ATOM     10  C   UNL A   1      33.614  27.077  23.354  1.00  0.00     0.420 C 
ATOM     11  F   UNL A   1      34.209  28.221  22.939  1.00  0.00    -0.168 F 
ATOM     12  F   UNL A   1      34.248  26.714  24.493  1.00  0.00    -0.168 F 
ATOM     13  F   UNL A   1      33.896  26.098  22.465  1.00  0.00    -0.168 F 
ENDBRANCH   8  10
BRANCH   8  14
ATOM     14  N   UNL A   1      31.696  26.955  25.010  1.00  0.00    -0.316 N 
ATOM     15  C   UNL A   1      31.235  25.930  25.747  1.00  0.00     0.320 C 
ATOM     16  H   UNL A   1      31.810  27.754  25.575  1.00  0.00     0.166 HD
ATOM     17  O   UNL A   1      30.652  26.214  26.797  1.00  0.00    -0.248 OA
ATOM     18  N   UNL A   1      31.235  24.648  25.340  1.00  0.00    -0.307 N 
ATOM     19  H   UNL A   1      30.460  24.119  25.640  1.00  0.00     0.171 HD
BRANCH  18  20
ATOM     20  C   UNL A   1      32.159  23.946  24.558  1.00  0.00     0.061 A 
ATOM     21  C   UNL A   1      31.698  23.479  23.320  1.00  0.00     0.028 A 
ATOM     22  C   UNL A   1      33.499  23.748  24.913  1.00  0.00     0.064 A 
ATOM     23  C   UNL A   1      32.610  23.033  22.364  1.00  0.00     0.002 A 
ATOM     24  C   UNL A   1      34.410  23.299  23.955  1.00  0.00     0.023 A 
ATOM     25  Cl  UNL A   1      34.045  23.922  26.547  1.00  0.00    -0.082 Cl
ATOM     26  C   UNL A   1      33.971  22.986  22.666  1.00  0.00     0.002 A 
ENDBRANCH  18  20
ENDBRANCH   8  14
ENDBRANCH   5   8
ENDBRANCH   3   4
ENDBRANCH   2   3
ENDBRANCH   1   2
BRANCH   1  27
ATOM     27  C   UNL A   1      32.964  32.356  27.285  1.00  0.00     0.116 C 
BRANCH  27  28
ATOM     28  N   UNL A   1      32.660  33.755  27.538  1.00  0.00    -0.352 N 
ATOM     29  C   UNL A   1      33.144  34.572  28.532  1.00  0.00     0.251 C 
ATOM     30  H   UNL A   1      32.020  34.172  26.916  1.00  0.00     0.163 HD
ATOM     31  O   UNL A   1      32.625  35.659  28.742  1.00  0.00    -0.269 OA
BRANCH  29  32
ATOM     32  C   UNL A   1      34.281  34.102  29.353  1.00  0.00     0.039 A 
ATOM     33  C   UNL A   1      34.027  33.323  30.483  1.00  0.00     0.014 A 
ATOM     34  C   UNL A   1      35.594  34.398  28.974  1.00  0.00     0.014 A 
ATOM     35  C   UNL A   1      35.098  32.787  31.200  1.00  0.00     0.010 A 
ATOM     36  C   UNL A   1      36.654  33.794  29.641  1.00  0.00     0.010 A 
ATOM     37  C   UNL A   1      36.419  32.985  30.763  1.00  0.00    -0.014 A 
BRANCH  37  38
ATOM     38  C   UNL A   1      37.567  32.358  31.470  1.00  0.00     0.031 A 
ATOM     39  C   UNL A   1      38.340  31.247  30.813  1.00  0.00     0.074 A 
ATOM     40  C   UNL A   1      37.875  32.749  32.724  1.00  0.00     0.049 A 
ATOM     41  N   UNL A   1      39.327  30.531  31.288  1.00  0.00    -0.248 NA
ATOM     42  C   UNL A   1      37.929  30.873  29.450  1.00  0.00     0.031 C 
ATOM     43  C   UNL A   1      37.175  33.791  33.479  1.00  0.00     0.029 A 
ATOM     44  N   UNL A   1      38.852  32.319  33.586  1.00  0.00    -0.354 N 
ATOM     45  C   UNL A   1      39.645  29.615  30.290  1.00  0.00     0.074 A 
ATOM     46  C   UNL A   1      38.702  29.826  29.212  1.00  0.00     0.031 C 
ATOM     47  C   UNL A   1      37.766  33.940  34.676  1.00  0.00     0.029 A 
ATOM     48  C   UNL A   1      38.851  32.972  34.797  1.00  0.00     0.049 A 
ATOM     49  H   UNL A   1      39.495  31.608  33.358  1.00  0.00     0.167 HD
ATOM     50  C   UNL A   1      40.646  28.700  30.266  1.00  0.00     0.034 A 
ATOM     51  C   UNL A   1      39.627  32.801  35.887  1.00  0.00     0.034 A 
ATOM     52  C   UNL A   1      41.584  28.514  31.346  1.00  0.00     0.049 A 
ATOM     53  C   UNL A   1      40.709  31.749  35.850  1.00  0.00     0.074 A 
ATOM     54  C   UNL A   1      42.670  27.658  31.404  1.00  0.00     0.029 A 
ATOM     55  N   UNL A   1      41.542  29.183  32.563  1.00  0.00    -0.354 N 
ATOM     56  N   UNL A   1      41.032  30.929  34.876  1.00  0.00    -0.248 NA
ATOM     57  C   UNL A   1      41.535  31.607  37.055  1.00  0.00     0.031 C 
ATOM     58  C   UNL A   1      43.233  27.749  32.681  1.00  0.00     0.029 A 
ATOM     59  C   UNL A   1      42.559  28.730  33.391  1.00  0.00     0.049 A 
ATOM     60  H   UNL A   1      40.887  29.878  32.803  1.00  0.00     0.167 HD
ATOM     61  C   UNL A   1      42.125  30.201  35.342  1.00  0.00     0.074 A 
ATOM     62  C   UNL A   1      42.411  30.690  36.674  1.00  0.00     0.031 C 
ATOM     63  C   UNL A   1      42.831  29.221  34.722  1.00  0.00     0.034 A 
BRANCH  50  64
ATOM     64  C   UNL A   1      40.756  27.815  29.047  1.00  0.00     0.023 A 
ATOM     65  C   UNL A   1      41.685  28.074  28.023  1.00  0.00     0.031 A 
ATOM     66  C   UNL A   1      39.906  26.705  28.895  1.00  0.00     0.131 A 
ATOM     67  C   UNL A   1      41.692  27.281  26.866  1.00  0.00     0.055 A 
ATOM     68  C   UNL A   1      39.978  25.867  27.781  1.00  0.00     0.041 A 
ATOM     69  F   UNL A   1      38.981  26.420  29.826  1.00  0.00    -0.206 F 
ATOM     70  C   UNL A   1      40.864  26.162  26.750  1.00  0.00     0.022 A 
BRANCH  67  71
ATOM     71  S   UNL A   1      42.693  27.822  25.453  1.00  0.00     0.124 S 
ATOM     72  O   UNL A   1      41.912  28.952  24.954  1.00  0.00    -0.237 OA
ATOM     73  O   UNL A   1      43.968  28.151  26.077  1.00  0.00    -0.237 OA
ATOM     74  O   UNL A   1      42.708  26.651  24.577  1.00  0.00    -0.744 OA
ENDBRANCH  67  71
ENDBRANCH  50  64
BRANCH  51  75
ATOM     75  C   UNL A   1      39.413  33.628  37.111  1.00  0.00     0.023 A 
ATOM     76  C   UNL A   1      40.171  34.788  37.339  1.00  0.00     0.031 A 
ATOM     77  C   UNL A   1      38.490  33.242  38.099  1.00  0.00     0.131 A 
ATOM     78  C   UNL A   1      40.034  35.488  38.547  1.00  0.00     0.055 A 
ATOM     79  C   UNL A   1      38.313  33.976  39.272  1.00  0.00     0.041 A 
ATOM     80  F   UNL A   1      37.739  32.141  37.934  1.00  0.00    -0.206 F 
ATOM     81  C   UNL A   1      39.099  35.099  39.509  1.00  0.00     0.022 A 
BRANCH  78  82
ATOM     82  S   UNL A   1      41.174  36.857  38.892  1.00  0.00     0.124 S 
ATOM     83  O   UNL A   1      40.249  37.966  39.099  1.00  0.00    -0.237 OA
ATOM     84  O   UNL A   1      41.875  36.376  40.077  1.00  0.00    -0.237 OA
ATOM     85  O   UNL A   1      41.985  36.938  37.679  1.00  0.00    -0.744 OA
ENDBRANCH  78  82
ENDBRANCH  51  75
BRANCH  63  86
ATOM     86  C   UNL A   1      44.017  28.653  35.463  1.00  0.00     0.023 A 
ATOM     87  C   UNL A   1      43.896  27.552  36.329  1.00  0.00     0.031 A 
ATOM     88  C   UNL A   1      45.290  29.230  35.304  1.00  0.00     0.131 A 
ATOM     89  C   UNL A   1      45.014  27.101  37.047  1.00  0.00     0.055 A 
ATOM     90  C   UNL A   1      46.413  28.733  35.968  1.00  0.00     0.041 A 
ATOM     91  F   UNL A   1      45.466  30.286  34.492  1.00  0.00    -0.206 F 
ATOM     92  C   UNL A   1      46.276  27.672  36.857  1.00  0.00     0.022 A 
BRANCH  89  93
ATOM     93  S   UNL A   1      44.779  25.824  38.313  1.00  0.00     0.124 S 
ATOM     94  O   UNL A   1      43.846  24.914  37.657  1.00  0.00    -0.237 OA
ATOM     95  O   UNL A   1      46.135  25.318  38.504  1.00  0.00    -0.237 OA
ATOM     96  O   UNL A   1      44.228  26.563  39.449  1.00  0.00    -0.744 OA
ENDBRANCH  89  93
ENDBRANCH  63  86
ENDBRANCH  37  38
ENDBRANCH  29  32
ENDBRANCH  27  28
ENDBRANCH   1  27
TORSDOF 17
ENDMDL
MODEL 3
REMARK VINA RESULT:     -11.7      1.811      2.503
REMARK SMILES C[C@](NC(=O)Nc1ccccc1Cl)(C(=O)NCCCCNC(=O)c1ccc(-c2c3nc(c(-c4cc(S(=O)(=O)[O-])ccc4F)c4ccc([nH]4)c(-c4cc(S(=O)(=O)[O-])ccc4F)c4nc(c(-c5cc(S(=O)(=O)[O-])ccc5F)c5ccc2[nH]5)C=C4)C=C3)cc1)C(F)(F)F
REMARK SMILES IDX 19 1 18 2 17 3 16 4 14 5 15 6 2 8 1 9 87 10 88 11 89 12
REMARK SMILES IDX 90 13 3 14 4 15 5 17 6 18 7 20 8 21 12 22 9 23 11 24 13 25
REMARK SMILES IDX 10 26 20 27 21 28 22 29 23 31 24 32 25 33 86 34 26 35 85 36
REMARK SMILES IDX 27 37 28 38 29 39 79 40 30 41 84 42 78 43 80 44 31 45 83 46
REMARK SMILES IDX 77 47 76 48 32 50 64 51 44 52 63 53 45 54 48 55 62 56 81 57
REMARK SMILES IDX 46 58 47 59 61 61 82 62 49 63 33 64 34 65 42 66 35 67 41 68
REMARK SMILES IDX 43 69 40 70 36 71 37 72 38 73 39 74 65 75 66 76 74 77 67 78
REMARK SMILES IDX 73 79 75 80 72 81 68 82 69 83 70 84 71 85 50 86 51 87 59 88
REMARK SMILES IDX 52 89 58 90 60 91 57 92 53 93 54 94 55 95 56 96
REMARK H PARENT 16 7 3 16 6 19 21 30 80 49 48 60
REMARK Flexibility Score: inf
ROOT
ATOM      1  C   UNL A   1      31.211  31.850  26.857  1.00  0.00     0.023 C 
ENDROOT
BRANCH   1   2
ATOM      2  C   UNL A   1      30.711  31.405  25.480  1.00  0.00     0.023 C 
BRANCH   2   3
ATOM      3  C   UNL A   1      31.266  30.060  25.023  1.00  0.00     0.116 C 
BRANCH   3   4
ATOM      4  N   UNL A   1      30.724  29.700  23.727  1.00  0.00    -0.354 N 
ATOM      5  C   UNL A   1      30.891  28.595  22.949  1.00  0.00     0.255 C 
ATOM      6  O   UNL A   1      30.289  28.617  21.874  1.00  0.00    -0.272 OA
ATOM      7  H   UNL A   1      30.128  30.379  23.338  1.00  0.00     0.163 HD
BRANCH   5   8
ATOM      8  C   UNL A   1      31.676  27.362  23.454  1.00  0.00     0.213 C 
ATOM      9  C   UNL A   1      31.244  26.215  22.532  1.00  0.00     0.056 C 
BRANCH   8  10
ATOM     10  C   UNL A   1      33.160  27.717  23.192  1.00  0.00     0.420 C 
ATOM     11  F   UNL A   1      33.287  28.790  22.375  1.00  0.00    -0.168 F 
ATOM     12  F   UNL A   1      33.805  28.037  24.338  1.00  0.00    -0.168 F 
ATOM     13  F   UNL A   1      33.865  26.690  22.665  1.00  0.00    -0.168 F 
ENDBRANCH   8  10
BRANCH   8  14
ATOM     14  N   UNL A   1      31.383  27.217  24.932  1.00  0.00    -0.316 N 
ATOM     15  C   UNL A   1      31.294  26.261  25.873  1.00  0.00     0.320 C 
ATOM     16  H   UNL A   1      31.199  28.100  25.329  1.00  0.00     0.166 HD
ATOM     17  O   UNL A   1      30.628  26.525  26.877  1.00  0.00    -0.248 OA
ATOM     18  N   UNL A   1      31.750  25.006  25.718  1.00  0.00    -0.307 N 
ATOM     19  H   UNL A   1      31.203  24.311  26.152  1.00  0.00     0.171 HD
BRANCH  18  20
ATOM     20  C   UNL A   1      32.877  24.528  25.039  1.00  0.00     0.061 A 
ATOM     21  C   UNL A   1      34.105  25.095  25.398  1.00  0.00     0.028 A 
ATOM     22  C   UNL A   1      32.844  23.495  24.093  1.00  0.00     0.064 A 
ATOM     23  C   UNL A   1      35.294  24.488  24.994  1.00  0.00     0.002 A 
ATOM     24  C   UNL A   1      34.036  22.890  23.689  1.00  0.00     0.023 A 
ATOM     25  Cl  UNL A   1      31.376  23.025  23.305  1.00  0.00    -0.082 Cl
ATOM     26  C   UNL A   1      35.259  23.358  24.178  1.00  0.00     0.002 A 
ENDBRANCH  18  20
ENDBRANCH   8  14
ENDBRANCH   5   8
ENDBRANCH   3   4
ENDBRANCH   2   3
ENDBRANCH   1   2
BRANCH   1  27
ATOM     27  C   UNL A   1      32.584  32.511  26.847  1.00  0.00     0.116 C 
BRANCH  27  28
ATOM     28  N   UNL A   1      32.538  33.867  27.367  1.00  0.00    -0.352 N 
ATOM     29  C   UNL A   1      33.288  34.425  28.375  1.00  0.00     0.251 C 
ATOM     30  H   UNL A   1      31.882  34.466  26.941  1.00  0.00     0.163 HD
ATOM     31  O   UNL A   1      32.979  35.512  28.842  1.00  0.00    -0.269 OA
BRANCH  29  32
ATOM     32  C   UNL A   1      34.452  33.677  28.898  1.00  0.00     0.039 A 
ATOM     33  C   UNL A   1      35.737  34.167  28.661  1.00  0.00     0.014 A 
ATOM     34  C   UNL A   1      34.262  32.517  29.654  1.00  0.00     0.014 A 
ATOM     35  C   UNL A   1      36.832  33.525  29.242  1.00  0.00     0.010 A 
ATOM     36  C   UNL A   1      35.346  31.930  30.298  1.00  0.00     0.010 A 
ATOM     37  C   UNL A   1      36.643  32.425  30.096  1.00  0.00    -0.014 A 
BRANCH  37  38
ATOM     38  C   UNL A   1      37.792  31.777  30.783  1.00  0.00     0.031 A 
ATOM     39  C   UNL A   1      38.604  30.732  30.067  1.00  0.00     0.074 A 
ATOM     40  C   UNL A   1      38.066  32.087  32.066  1.00  0.00     0.049 A 
ATOM     41  N   UNL A   1      39.597  30.007  30.512  1.00  0.00    -0.248 NA
ATOM     42  C   UNL A   1      38.227  30.444  28.673  1.00  0.00     0.031 C 
ATOM     43  C   UNL A   1      37.327  33.058  32.877  1.00  0.00     0.029 A 
ATOM     44  N   UNL A   1      39.036  31.620  32.917  1.00  0.00    -0.354 N 
ATOM     45  C   UNL A   1      39.956  29.169  29.460  1.00  0.00     0.074 A 
ATOM     46  C   UNL A   1      39.030  29.433  28.380  1.00  0.00     0.031 C 
ATOM     47  C   UNL A   1      37.891  33.137  34.093  1.00  0.00     0.029 A 
ATOM     48  C   UNL A   1      38.996  32.187  34.171  1.00  0.00     0.049 A 
ATOM     49  H   UNL A   1      39.700  30.941  32.655  1.00  0.00     0.167 HD
ATOM     50  C   UNL A   1      40.979  28.281  29.395  1.00  0.00     0.034 A 
ATOM     51  C   UNL A   1      39.754  31.959  35.262  1.00  0.00     0.034 A 
ATOM     52  C   UNL A   1      41.900  28.041  30.479  1.00  0.00     0.049 A 
ATOM     53  C   UNL A   1      40.861  30.936  35.175  1.00  0.00     0.074 A 
ATOM     54  C   UNL A   1      43.004  27.207  30.500  1.00  0.00     0.029 A 
ATOM     55  N   UNL A   1      41.819  28.623  31.738  1.00  0.00    -0.354 N 
ATOM     56  N   UNL A   1      41.222  30.192  34.154  1.00  0.00    -0.248 NA
ATOM     57  C   UNL A   1      41.667  30.729  36.385  1.00  0.00     0.031 C 
ATOM     58  C   UNL A   1      43.540  27.223  31.792  1.00  0.00     0.029 A 
ATOM     59  C   UNL A   1      42.830  28.136  32.553  1.00  0.00     0.049 A 
ATOM     60  H   UNL A   1      41.143  29.285  32.012  1.00  0.00     0.167 HD
ATOM     61  C   UNL A   1      42.323  29.458  34.591  1.00  0.00     0.074 A 
ATOM     62  C   UNL A   1      42.572  29.861  35.960  1.00  0.00     0.031 C 
ATOM     63  C   UNL A   1      43.064  28.540  33.921  1.00  0.00     0.034 A 
BRANCH  50  64
ATOM     64  C   UNL A   1      41.133  27.485  28.120  1.00  0.00     0.023 A 
ATOM     65  C   UNL A   1      40.746  26.136  28.035  1.00  0.00     0.031 A 
ATOM     66  C   UNL A   1      41.693  28.080  26.974  1.00  0.00     0.131 A 
ATOM     67  C   UNL A   1      40.990  25.409  26.861  1.00  0.00     0.055 A 
ATOM     68  C   UNL A   1      41.852  27.374  25.781  1.00  0.00     0.041 A 
ATOM     69  F   UNL A   1      42.105  29.357  26.999  1.00  0.00    -0.206 F 
ATOM     70  C   UNL A   1      41.515  26.025  25.723  1.00  0.00     0.022 A 
BRANCH  67  71
ATOM     71  S   UNL A   1      40.751  23.610  26.891  1.00  0.00     0.124 S 
ATOM     72  O   UNL A   1      41.097  23.291  28.274  1.00  0.00    -0.237 OA
ATOM     73  O   UNL A   1      39.344  23.473  26.536  1.00  0.00    -0.237 OA
ATOM     74  O   UNL A   1      41.699  23.123  25.891  1.00  0.00    -0.744 OA
ENDBRANCH  67  71
ENDBRANCH  50  64
BRANCH  51  75
ATOM     75  C   UNL A   1      39.498  32.694  36.535  1.00  0.00     0.023 A 
ATOM     76  C   UNL A   1      38.579  32.206  37.478  1.00  0.00     0.031 A 
ATOM     77  C   UNL A   1      40.124  33.924  36.803  1.00  0.00     0.131 A 
ATOM     78  C   UNL A   1      38.269  32.969  38.614  1.00  0.00     0.055 A 
ATOM     79  C   UNL A   1      39.859  34.650  37.966  1.00  0.00     0.041 A 
ATOM     80  F   UNL A   1      41.011  34.439  35.938  1.00  0.00    -0.206 F 
ATOM     81  C   UNL A   1      38.914  34.180  38.873  1.00  0.00     0.022 A 
BRANCH  78  82
ATOM     82  S   UNL A   1      36.929  32.405  39.699  1.00  0.00     0.124 S 
ATOM     83  O   UNL A   1      37.101  33.275  40.858  1.00  0.00    -0.237 OA
ATOM     84  O   UNL A   1      35.749  32.655  38.879  1.00  0.00    -0.237 OA
ATOM     85  O   UNL A   1      37.243  30.996  39.925  1.00  0.00    -0.744 OA
ENDBRANCH  78  82
ENDBRANCH  51  75
BRANCH  63  86
ATOM     86  C   UNL A   1      44.249  27.948  34.646  1.00  0.00     0.023 A 
ATOM     87  C   UNL A   1      44.174  26.709  35.306  1.00  0.00     0.031 A 
ATOM     88  C   UNL A   1      45.472  28.641  34.681  1.00  0.00     0.131 A 
ATOM     89  C   UNL A   1      45.282  26.232  36.023  1.00  0.00     0.055 A 
ATOM     90  C   UNL A   1      46.592  28.128  35.337  1.00  0.00     0.041 A 
ATOM     91  F   UNL A   1      45.602  29.831  34.070  1.00  0.00    -0.206 F 
ATOM     92  C   UNL A   1      46.496  26.923  36.026  1.00  0.00     0.022 A 
BRANCH  89  93
ATOM     93  S   UNL A   1      45.085  24.742  37.039  1.00  0.00     0.124 S 
ATOM     94  O   UNL A   1      44.562  25.292  38.286  1.00  0.00    -0.237 OA
ATOM     95  O   UNL A   1      44.149  23.947  36.251  1.00  0.00    -0.237 OA
ATOM     96  O   UNL A   1      46.441  24.201  37.122  1.00  0.00    -0.744 OA
ENDBRANCH  89  93
ENDBRANCH  63  86
ENDBRANCH  37  38
ENDBRANCH  29  32
ENDBRANCH  27  28
ENDBRANCH   1  27
TORSDOF 17
ENDMDL
