MODEL 1
REMARK VINA RESULT:     -13.0      0.000      0.000
REMARK SMILES O=C(NCCCCNC(=O)c1cc(S(=O)(=O)Nc2ccc(F)c(F)c2)cc(Cl)c1Cl)c1ccc(-c2c3nc(c(-c4cc(S(=O)(=O)[O-])ccc4F)c4ccc([nH]4)c(-c4cc(S(=O)(=O)[O-])ccc4F)c4nc(c(-c5cc(S(=O)(=O)[O-])ccc5F)c5ccc2[nH]5)C=C4)C=C3)cc1
REMARK SMILES IDX 5 1 4 2 3 3 1 4 2 5 31 7 32 8 93 9 33 10 92 11 34 12 35 13
REMARK SMILES IDX 36 14 86 15 37 16 91 17 85 18 87 19 38 20 90 21 84 22 83 23
REMARK SMILES IDX 39 25 71 26 51 27 70 28 52 29 55 30 69 31 88 32 53 33 54 34
REMARK SMILES IDX 68 36 89 37 56 38 40 39 41 40 49 41 42 42 48 43 50 44 47 45
REMARK SMILES IDX 43 46 44 47 45 48 46 49 72 50 73 51 81 52 74 53 80 54 82 55
REMARK SMILES IDX 79 56 75 57 76 58 77 59 78 60 57 61 58 62 66 63 59 64 65 65
REMARK SMILES IDX 67 66 64 67 60 68 61 69 62 70 63 71 6 72 7 73 8 74 9 75
REMARK SMILES IDX 10 77 11 78 12 79 29 80 13 81 27 82 30 83 26 84 28 85 14 86
REMARK SMILES IDX 15 87 16 88 17 89 18 91 19 92 25 93 20 94 23 95 21 96 24 97
REMARK SMILES IDX 22 98
REMARK H PARENT 3 6 87 24 55 35 8 76 17 90
REMARK Flexibility Score: inf
ROOT
ATOM      1  C   UNL A   1      31.685  29.119  25.030  1.00  0.00     0.023 C 
ENDROOT
BRANCH   1   2
ATOM      2  C   UNL A   1      32.771  29.703  25.923  1.00  0.00     0.116 C 
BRANCH   2   3
ATOM      3  N   UNL A   1      32.478  31.049  26.395  1.00  0.00    -0.352 N 
ATOM      4  O   UNL A   1      32.748  32.937  27.600  1.00  0.00    -0.269 OA
ATOM      5  C   UNL A   1      33.211  31.860  27.232  1.00  0.00     0.251 C 
ATOM      6  H   UNL A   1      31.633  31.434  26.069  1.00  0.00     0.163 HD
BRANCH   5   7
ATOM      7  C   UNL A   1      34.538  31.418  27.719  1.00  0.00     0.039 A 
ATOM      8  C   UNL A   1      34.781  30.076  28.017  1.00  0.00     0.014 A 
ATOM      9  C   UNL A   1      35.543  32.370  27.913  1.00  0.00     0.014 A 
ATOM     10  C   UNL A   1      35.952  29.719  28.679  1.00  0.00     0.010 A 
ATOM     11  C   UNL A   1      36.757  31.992  28.496  1.00  0.00     0.010 A 
ATOM     12  C   UNL A   1      36.951  30.674  28.936  1.00  0.00    -0.014 A 
BRANCH  12  13
ATOM     13  C   UNL A   1      38.175  30.262  29.676  1.00  0.00     0.031 A 
ATOM     14  C   UNL A   1      38.388  30.674  31.110  1.00  0.00     0.074 A 
ATOM     15  C   UNL A   1      39.071  29.463  29.065  1.00  0.00     0.049 A 
ATOM     16  N   UNL A   1      39.366  30.360  31.924  1.00  0.00    -0.248 NA
ATOM     17  C   UNL A   1      37.380  31.564  31.704  1.00  0.00     0.031 C 
ATOM     18  C   UNL A   1      38.980  29.007  27.676  1.00  0.00     0.029 A 
ATOM     19  N   UNL A   1      40.212  28.867  29.536  1.00  0.00    -0.354 N 
ATOM     20  C   UNL A   1      39.106  31.033  33.115  1.00  0.00     0.074 A 
ATOM     21  C   UNL A   1      37.895  31.797  32.903  1.00  0.00     0.031 C 
ATOM     22  C   UNL A   1      39.988  28.158  27.426  1.00  0.00     0.029 A 
ATOM     23  C   UNL A   1      40.827  28.052  28.614  1.00  0.00     0.049 A 
ATOM     24  H   UNL A   1      40.560  29.009  30.446  1.00  0.00     0.167 HD
ATOM     25  C   UNL A   1      39.809  31.011  34.276  1.00  0.00     0.034 A 
ATOM     26  C   UNL A   1      41.942  27.302  28.712  1.00  0.00     0.034 A 
ATOM     27  C   UNL A   1      41.004  30.226  34.481  1.00  0.00     0.049 A 
ATOM     28  C   UNL A   1      42.695  27.283  30.013  1.00  0.00     0.074 A 
ATOM     29  C   UNL A   1      41.771  30.104  35.627  1.00  0.00     0.029 A 
ATOM     30  N   UNL A   1      41.609  29.431  33.515  1.00  0.00    -0.354 N 
ATOM     31  N   UNL A   1      42.426  27.916  31.131  1.00  0.00    -0.248 NA
ATOM     32  C   UNL A   1      43.897  26.443  30.066  1.00  0.00     0.031 C 
ATOM     33  C   UNL A   1      42.866  29.279  35.340  1.00  0.00     0.029 A 
ATOM     34  C   UNL A   1      42.751  28.835  34.033  1.00  0.00     0.049 A 
ATOM     35  H   UNL A   1      41.277  29.309  32.597  1.00  0.00     0.167 HD
ATOM     36  C   UNL A   1      43.421  27.536  32.026  1.00  0.00     0.074 A 
ATOM     37  C   UNL A   1      44.279  26.604  31.323  1.00  0.00     0.031 C 
ATOM     38  C   UNL A   1      43.607  27.923  33.314  1.00  0.00     0.034 A 
BRANCH  25  39
ATOM     39  C   UNL A   1      39.324  31.898  35.398  1.00  0.00     0.023 A 
ATOM     40  C   UNL A   1      38.656  31.379  36.522  1.00  0.00     0.031 A 
ATOM     41  C   UNL A   1      39.510  33.290  35.329  1.00  0.00     0.131 A 
ATOM     42  C   UNL A   1      38.136  32.251  37.493  1.00  0.00     0.055 A 
ATOM     43  C   UNL A   1      39.056  34.146  36.336  1.00  0.00     0.041 A 
ATOM     44  F   UNL A   1      40.124  33.846  34.272  1.00  0.00    -0.206 F 
ATOM     45  C   UNL A   1      38.351  33.630  37.418  1.00  0.00     0.022 A 
BRANCH  42  46
ATOM     46  S   UNL A   1      37.056  31.570  38.782  1.00  0.00     0.124 S 
ATOM     47  O   UNL A   1      37.905  31.676  39.966  1.00  0.00    -0.237 OA
ATOM     48  O   UNL A   1      35.907  32.466  38.737  1.00  0.00    -0.237 OA
ATOM     49  O   UNL A   1      36.802  30.203  38.330  1.00  0.00    -0.744 OA
ENDBRANCH  42  46
ENDBRANCH  25  39
BRANCH  26  50
ATOM     50  C   UNL A   1      42.417  26.517  27.540  1.00  0.00     0.023 A 
ATOM     51  C   UNL A   1      42.076  25.164  27.387  1.00  0.00     0.031 A 
ATOM     52  C   UNL A   1      43.236  27.109  26.562  1.00  0.00     0.131 A 
ATOM     53  C   UNL A   1      42.580  24.437  26.298  1.00  0.00     0.055 A 
ATOM     54  C   UNL A   1      43.698  26.394  25.457  1.00  0.00     0.041 A 
ATOM     55  F   UNL A   1      43.582  28.403  26.660  1.00  0.00    -0.206 F 
ATOM     56  C   UNL A   1      43.378  25.046  25.326  1.00  0.00     0.022 A 
BRANCH  53  57
ATOM     57  S   UNL A   1      42.225  22.662  26.201  1.00  0.00     0.124 S 
ATOM     58  O   UNL A   1      42.967  22.146  27.346  1.00  0.00    -0.237 OA
ATOM     59  O   UNL A   1      40.771  22.637  26.312  1.00  0.00    -0.237 OA
ATOM     60  O   UNL A   1      42.753  22.281  24.892  1.00  0.00    -0.744 OA
ENDBRANCH  53  57
ENDBRANCH  26  50
BRANCH  38  61
ATOM     61  C   UNL A   1      44.771  27.300  34.042  1.00  0.00     0.023 A 
ATOM     62  C   UNL A   1      44.624  26.122  34.795  1.00  0.00     0.031 A 
ATOM     63  C   UNL A   1      46.033  27.917  34.015  1.00  0.00     0.131 A 
ATOM     64  C   UNL A   1      45.705  25.632  35.540  1.00  0.00     0.055 A 
ATOM     65  C   UNL A   1      47.120  27.395  34.717  1.00  0.00     0.041 A 
ATOM     66  F   UNL A   1      46.227  29.046  33.312  1.00  0.00    -0.206 F 
ATOM     67  C   UNL A   1      46.956  26.254  35.497  1.00  0.00     0.022 A 
BRANCH  64  68
ATOM     68  S   UNL A   1      45.430  24.222  36.651  1.00  0.00     0.124 S 
ATOM     69  O   UNL A   1      44.870  23.226  35.745  1.00  0.00    -0.237 OA
ATOM     70  O   UNL A   1      46.776  23.950  37.147  1.00  0.00    -0.237 OA
ATOM     71  O   UNL A   1      44.498  24.747  37.646  1.00  0.00    -0.744 OA
ENDBRANCH  64  68
ENDBRANCH  38  61
ENDBRANCH  12  13
ENDBRANCH   5   7
ENDBRANCH   2   3
ENDBRANCH   1   2
BRANCH   1  72
ATOM     72  C   UNL A   1      32.023  29.023  23.544  1.00  0.00     0.023 C 
BRANCH  72  73
ATOM     73  C   UNL A   1      33.390  28.444  23.206  1.00  0.00     0.116 C 
BRANCH  73  74
ATOM     74  N   UNL A   1      33.389  27.565  22.046  1.00  0.00    -0.352 N 
ATOM     75  C   UNL A   1      33.249  26.202  21.972  1.00  0.00     0.252 C 
ATOM     76  H   UNL A   1      33.508  28.020  21.181  1.00  0.00     0.163 HD
ATOM     77  O   UNL A   1      33.185  25.639  20.885  1.00  0.00    -0.269 OA
BRANCH  75  78
ATOM     78  C   UNL A   1      33.130  25.404  23.205  1.00  0.00     0.061 A 
ATOM     79  C   UNL A   1      34.273  24.746  23.682  1.00  0.00     0.037 A 
ATOM     80  C   UNL A   1      31.912  25.304  23.896  1.00  0.00     0.072 A 
ATOM     81  C   UNL A   1      34.191  23.932  24.811  1.00  0.00     0.090 A 
ATOM     82  C   UNL A   1      31.875  24.563  25.087  1.00  0.00     0.061 A 
ATOM     83  Cl  UNL A   1      30.459  26.009  23.264  1.00  0.00    -0.082 Cl
ATOM     84  C   UNL A   1      33.015  23.897  25.553  1.00  0.00     0.044 A 
ATOM     85  Cl  UNL A   1      30.427  24.354  26.014  1.00  0.00    -0.083 Cl
BRANCH  81  86
ATOM     86  S   UNL A   1      35.563  22.829  25.086  1.00  0.00     0.261 S 
ATOM     87  O   UNL A   1      36.149  22.587  23.787  1.00  0.00    -0.201 OA
ATOM     88  O   UNL A   1      36.331  23.404  26.169  1.00  0.00    -0.201 OA
BRANCH  86  89
ATOM     89  N   UNL A   1      34.957  21.392  25.683  1.00  0.00    -0.280 N 
ATOM     90  H   UNL A   1      35.013  21.255  26.656  1.00  0.00     0.180 HD
BRANCH  89  91
ATOM     91  C   UNL A   1      34.371  20.349  24.917  1.00  0.00     0.052 A 
ATOM     92  C   UNL A   1      33.126  20.445  24.286  1.00  0.00     0.030 A 
ATOM     93  C   UNL A   1      35.073  19.140  24.877  1.00  0.00     0.069 A 
ATOM     94  C   UNL A   1      32.546  19.311  23.704  1.00  0.00     0.044 A 
ATOM     95  C   UNL A   1      34.492  18.021  24.292  1.00  0.00     0.160 A 
ATOM     96  C   UNL A   1      33.228  18.099  23.725  1.00  0.00     0.158 A 
ATOM     97  F   UNL A   1      35.153  16.856  24.313  1.00  0.00    -0.204 F 
ATOM     98  F   UNL A   1      32.654  17.009  23.201  1.00  0.00    -0.204 F 
ENDBRANCH  89  91
ENDBRANCH  86  89
ENDBRANCH  81  86
ENDBRANCH  75  78
ENDBRANCH  73  74
ENDBRANCH  72  73
ENDBRANCH   1  72
TORSDOF 17
ENDMDL
MODEL 2
REMARK VINA RESULT:     -12.8      5.302     10.583
REMARK SMILES O=C(NCCCCNC(=O)c1cc(S(=O)(=O)Nc2ccc(F)c(F)c2)cc(Cl)c1Cl)c1ccc(-c2c3nc(c(-c4cc(S(=O)(=O)[O-])ccc4F)c4ccc([nH]4)c(-c4cc(S(=O)(=O)[O-])ccc4F)c4nc(c(-c5cc(S(=O)(=O)[O-])ccc5F)c5ccc2[nH]5)C=C4)C=C3)cc1
REMARK SMILES IDX 5 1 4 2 3 3 1 4 2 5 31 7 32 8 93 9 33 10 92 11 34 12 35 13
REMARK SMILES IDX 36 14 86 15 37 16 91 17 85 18 87 19 38 20 90 21 84 22 83 23
REMARK SMILES IDX 39 25 71 26 51 27 70 28 52 29 55 30 69 31 88 32 53 33 54 34
REMARK SMILES IDX 68 36 89 37 56 38 40 39 41 40 49 41 42 42 48 43 50 44 47 45
REMARK SMILES IDX 43 46 44 47 45 48 46 49 72 50 73 51 81 52 74 53 80 54 82 55
REMARK SMILES IDX 79 56 75 57 76 58 77 59 78 60 57 61 58 62 66 63 59 64 65 65
REMARK SMILES IDX 67 66 64 67 60 68 61 69 62 70 63 71 6 72 7 73 8 74 9 75
REMARK SMILES IDX 10 77 11 78 12 79 29 80 13 81 27 82 30 83 26 84 28 85 14 86
REMARK SMILES IDX 15 87 16 88 17 89 18 91 19 92 25 93 20 94 23 95 21 96 24 97
REMARK SMILES IDX 22 98
REMARK H PARENT 3 6 87 24 55 35 8 76 17 90
REMARK Flexibility Score: inf
ROOT
ATOM      1  C   UNL A   1      35.104  21.582  25.573  1.00  0.00     0.023 C 
ENDROOT
BRANCH   1   2
ATOM      2  C   UNL A   1      36.516  22.153  25.594  1.00  0.00     0.116 C 
BRANCH   2   3
ATOM      3  N   UNL A   1      37.557  21.136  25.583  1.00  0.00    -0.352 N 
ATOM      4  O   UNL A   1      39.636  20.284  25.781  1.00  0.00    -0.269 OA
ATOM      5  C   UNL A   1      38.879  21.235  25.956  1.00  0.00     0.251 C 
ATOM      6  H   UNL A   1      37.275  20.249  25.263  1.00  0.00     0.163 HD
BRANCH   5   7
ATOM      7  C   UNL A   1      39.395  22.499  26.531  1.00  0.00     0.039 A 
ATOM      8  C   UNL A   1      38.904  23.734  26.104  1.00  0.00     0.014 A 
ATOM      9  C   UNL A   1      40.411  22.445  27.488  1.00  0.00     0.014 A 
ATOM     10  C   UNL A   1      39.551  24.903  26.489  1.00  0.00     0.010 A 
ATOM     11  C   UNL A   1      41.002  23.628  27.945  1.00  0.00     0.010 A 
ATOM     12  C   UNL A   1      40.615  24.866  27.406  1.00  0.00    -0.014 A 
BRANCH  12  13
ATOM     13  C   UNL A   1      41.306  26.133  27.769  1.00  0.00     0.031 A 
ATOM     14  C   UNL A   1      42.670  26.457  27.217  1.00  0.00     0.074 A 
ATOM     15  C   UNL A   1      40.670  27.022  28.557  1.00  0.00     0.049 A 
ATOM     16  N   UNL A   1      43.393  27.537  27.381  1.00  0.00    -0.248 NA
ATOM     17  C   UNL A   1      43.311  25.431  26.382  1.00  0.00     0.031 C 
ATOM     18  C   UNL A   1      39.352  26.817  29.162  1.00  0.00     0.029 A 
ATOM     19  N   UNL A   1      41.026  28.283  28.959  1.00  0.00    -0.354 N 
ATOM     20  C   UNL A   1      44.583  27.311  26.694  1.00  0.00     0.074 A 
ATOM     21  C   UNL A   1      44.494  25.977  26.139  1.00  0.00     0.031 C 
ATOM     22  C   UNL A   1      38.986  27.934  29.808  1.00  0.00     0.029 A 
ATOM     23  C   UNL A   1      40.063  28.913  29.711  1.00  0.00     0.049 A 
ATOM     24  H   UNL A   1      41.890  28.699  28.732  1.00  0.00     0.167 HD
ATOM     25  C   UNL A   1      45.646  28.141  26.537  1.00  0.00     0.034 A 
ATOM     26  C   UNL A   1      40.046  30.141  30.265  1.00  0.00     0.034 A 
ATOM     27  C   UNL A   1      45.713  29.479  27.078  1.00  0.00     0.049 A 
ATOM     28  C   UNL A   1      41.229  31.046  30.065  1.00  0.00     0.074 A 
ATOM     29  C   UNL A   1      46.726  30.414  26.948  1.00  0.00     0.029 A 
ATOM     30  N   UNL A   1      44.726  30.072  27.856  1.00  0.00    -0.354 N 
ATOM     31  N   UNL A   1      42.339  30.819  29.402  1.00  0.00    -0.248 NA
ATOM     32  C   UNL A   1      41.153  32.375  30.683  1.00  0.00     0.031 C 
ATOM     33  C   UNL A   1      46.376  31.551  27.688  1.00  0.00     0.029 A 
ATOM     34  C   UNL A   1      45.116  31.351  28.230  1.00  0.00     0.049 A 
ATOM     35  H   UNL A   1      43.874  29.648  28.104  1.00  0.00     0.167 HD
ATOM     36  C   UNL A   1      43.088  31.986  29.511  1.00  0.00     0.074 A 
ATOM     37  C   UNL A   1      42.292  32.920  30.284  1.00  0.00     0.031 C 
ATOM     38  C   UNL A   1      44.321  32.262  29.016  1.00  0.00     0.034 A 
BRANCH  25  39
ATOM     39  C   UNL A   1      46.842  27.603  25.787  1.00  0.00     0.023 A 
ATOM     40  C   UNL A   1      47.117  27.977  24.459  1.00  0.00     0.031 A 
ATOM     41  C   UNL A   1      47.705  26.679  26.402  1.00  0.00     0.131 A 
ATOM     42  C   UNL A   1      48.183  27.377  23.769  1.00  0.00     0.055 A 
ATOM     43  C   UNL A   1      48.808  26.142  25.733  1.00  0.00     0.041 A 
ATOM     44  F   UNL A   1      47.483  26.270  27.661  1.00  0.00    -0.206 F 
ATOM     45  C   UNL A   1      49.044  26.479  24.404  1.00  0.00     0.022 A 
BRANCH  42  46
ATOM     46  S   UNL A   1      48.345  27.683  21.988  1.00  0.00     0.124 S 
ATOM     47  O   UNL A   1      49.455  28.632  21.950  1.00  0.00    -0.237 OA
ATOM     48  O   UNL A   1      48.625  26.352  21.464  1.00  0.00    -0.237 OA
ATOM     49  O   UNL A   1      47.047  28.242  21.616  1.00  0.00    -0.744 OA
ENDBRANCH  42  46
ENDBRANCH  25  39
BRANCH  26  50
ATOM     50  C   UNL A   1      38.872  30.580  31.068  1.00  0.00     0.023 A 
ATOM     51  C   UNL A   1      37.921  31.466  30.538  1.00  0.00     0.031 A 
ATOM     52  C   UNL A   1      38.696  30.131  32.389  1.00  0.00     0.131 A 
ATOM     53  C   UNL A   1      36.852  31.901  31.337  1.00  0.00     0.055 A 
ATOM     54  C   UNL A   1      37.607  30.530  33.164  1.00  0.00     0.041 A 
ATOM     55  F   UNL A   1      39.575  29.276  32.937  1.00  0.00    -0.206 F 
ATOM     56  C   UNL A   1      36.682  31.430  32.642  1.00  0.00     0.022 A 
BRANCH  53  57
ATOM     57  S   UNL A   1      35.715  33.142  30.664  1.00  0.00     0.124 S 
ATOM     58  O   UNL A   1      34.475  32.382  30.552  1.00  0.00    -0.237 OA
ATOM     59  O   UNL A   1      35.746  34.172  31.698  1.00  0.00    -0.237 OA
ATOM     60  O   UNL A   1      36.334  33.519  29.395  1.00  0.00    -0.744 OA
ENDBRANCH  53  57
ENDBRANCH  26  50
BRANCH  38  61
ATOM     61  C   UNL A   1      44.857  33.647  29.277  1.00  0.00     0.023 A 
ATOM     62  C   UNL A   1      44.537  34.730  28.440  1.00  0.00     0.031 A 
ATOM     63  C   UNL A   1      45.732  33.876  30.352  1.00  0.00     0.131 A 
ATOM     64  C   UNL A   1      45.136  35.979  28.656  1.00  0.00     0.055 A 
ATOM     65  C   UNL A   1      46.285  35.133  30.594  1.00  0.00     0.041 A 
ATOM     66  F   UNL A   1      46.072  32.874  31.181  1.00  0.00    -0.206 F 
ATOM     67  C   UNL A   1      45.999  36.191  29.734  1.00  0.00     0.022 A 
BRANCH  64  68
ATOM     68  S   UNL A   1      44.851  37.303  27.447  1.00  0.00     0.124 S 
ATOM     69  O   UNL A   1      45.968  37.120  26.527  1.00  0.00    -0.237 OA
ATOM     70  O   UNL A   1      43.531  36.966  26.922  1.00  0.00    -0.237 OA
ATOM     71  O   UNL A   1      44.905  38.521  28.253  1.00  0.00    -0.744 OA
ENDBRANCH  64  68
ENDBRANCH  38  61
ENDBRANCH  12  13
ENDBRANCH   5   7
ENDBRANCH   2   3
ENDBRANCH   1   2
BRANCH   1  72
ATOM     72  C   UNL A   1      34.407  21.476  26.927  1.00  0.00     0.023 C 
BRANCH  72  73
ATOM     73  C   UNL A   1      33.476  22.626  27.290  1.00  0.00     0.116 C 
BRANCH  73  74
ATOM     74  N   UNL A   1      32.063  22.299  27.182  1.00  0.00    -0.352 N 
ATOM     75  C   UNL A   1      31.157  22.615  26.201  1.00  0.00     0.252 C 
ATOM     76  H   UNL A   1      31.701  21.767  27.928  1.00  0.00     0.163 HD
ATOM     77  O   UNL A   1      30.015  22.171  26.238  1.00  0.00    -0.269 OA
BRANCH  75  78
ATOM     78  C   UNL A   1      31.564  23.462  25.064  1.00  0.00     0.061 A 
ATOM     79  C   UNL A   1      31.411  24.851  25.185  1.00  0.00     0.037 A 
ATOM     80  C   UNL A   1      32.099  22.903  23.893  1.00  0.00     0.072 A 
ATOM     81  C   UNL A   1      31.727  25.684  24.113  1.00  0.00     0.090 A 
ATOM     82  C   UNL A   1      32.506  23.767  22.865  1.00  0.00     0.061 A 
ATOM     83  Cl  UNL A   1      32.187  21.186  23.674  1.00  0.00    -0.082 Cl
ATOM     84  C   UNL A   1      32.340  25.152  22.983  1.00  0.00     0.044 A 
ATOM     85  Cl  UNL A   1      33.161  23.194  21.367  1.00  0.00    -0.083 Cl
BRANCH  81  86
ATOM     86  S   UNL A   1      31.115  27.354  24.208  1.00  0.00     0.261 S 
ATOM     87  O   UNL A   1      31.917  28.128  23.287  1.00  0.00    -0.201 OA
ATOM     88  O   UNL A   1      29.677  27.265  24.069  1.00  0.00    -0.201 OA
BRANCH  86  89
ATOM     89  N   UNL A   1      31.379  27.912  25.759  1.00  0.00    -0.280 N 
ATOM     90  H   UNL A   1      30.683  27.719  26.427  1.00  0.00     0.180 HD
BRANCH  89  91
ATOM     91  C   UNL A   1      32.514  28.642  26.203  1.00  0.00     0.052 A 
ATOM     92  C   UNL A   1      33.782  28.081  26.391  1.00  0.00     0.030 A 
ATOM     93  C   UNL A   1      32.296  29.983  26.537  1.00  0.00     0.069 A 
ATOM     94  C   UNL A   1      34.796  28.830  27.001  1.00  0.00     0.044 A 
ATOM     95  C   UNL A   1      33.311  30.721  27.136  1.00  0.00     0.160 A 
ATOM     96  C   UNL A   1      34.548  30.144  27.384  1.00  0.00     0.158 A 
ATOM     97  F   UNL A   1      33.068  31.986  27.503  1.00  0.00    -0.204 F 
ATOM     98  F   UNL A   1      35.508  30.845  28.000  1.00  0.00    -0.204 F 
ENDBRANCH  89  91
ENDBRANCH  86  89
ENDBRANCH  81  86
ENDBRANCH  75  78
ENDBRANCH  73  74
ENDBRANCH  72  73
ENDBRANCH   1  72
TORSDOF 17
ENDMDL
MODEL 3
REMARK VINA RESULT:     -12.7      2.402      7.993
REMARK SMILES O=C(NCCCCNC(=O)c1cc(S(=O)(=O)Nc2ccc(F)c(F)c2)cc(Cl)c1Cl)c1ccc(-c2c3nc(c(-c4cc(S(=O)(=O)[O-])ccc4F)c4ccc([nH]4)c(-c4cc(S(=O)(=O)[O-])ccc4F)c4nc(c(-c5cc(S(=O)(=O)[O-])ccc5F)c5ccc2[nH]5)C=C4)C=C3)cc1
REMARK SMILES IDX 5 1 4 2 3 3 1 4 2 5 31 7 32 8 93 9 33 10 92 11 34 12 35 13
REMARK SMILES IDX 36 14 86 15 37 16 91 17 85 18 87 19 38 20 90 21 84 22 83 23
REMARK SMILES IDX 39 25 71 26 51 27 70 28 52 29 55 30 69 31 88 32 53 33 54 34
REMARK SMILES IDX 68 36 89 37 56 38 40 39 41 40 49 41 42 42 48 43 50 44 47 45
REMARK SMILES IDX 43 46 44 47 45 48 46 49 72 50 73 51 81 52 74 53 80 54 82 55
REMARK SMILES IDX 79 56 75 57 76 58 77 59 78 60 57 61 58 62 66 63 59 64 65 65
REMARK SMILES IDX 67 66 64 67 60 68 61 69 62 70 63 71 6 72 7 73 8 74 9 75
REMARK SMILES IDX 10 77 11 78 12 79 29 80 13 81 27 82 30 83 26 84 28 85 14 86
REMARK SMILES IDX 15 87 16 88 17 89 18 91 19 92 25 93 20 94 23 95 21 96 24 97
REMARK SMILES IDX 22 98
REMARK H PARENT 3 6 87 24 55 35 8 76 17 90
REMARK Flexibility Score: inf
ROOT
ATOM      1  C   UNL A   1      31.869  31.261  26.693  1.00  0.00     0.023 C 
ENDROOT
BRANCH   1   2
ATOM      2  C   UNL A   1      33.051  32.057  27.230  1.00  0.00     0.116 C 
BRANCH   2   3
ATOM      3  N   UNL A   1      32.737  33.450  27.512  1.00  0.00    -0.352 N 
ATOM      4  O   UNL A   1      32.796  35.413  28.621  1.00  0.00    -0.269 OA
ATOM      5  C   UNL A   1      33.263  34.288  28.470  1.00  0.00     0.251 C 
ATOM      6  H   UNL A   1      32.047  33.851  26.935  1.00  0.00     0.163 HD
BRANCH   5   7
ATOM      7  C   UNL A   1      34.365  33.818  29.341  1.00  0.00     0.039 A 
ATOM      8  C   UNL A   1      35.692  34.138  29.054  1.00  0.00     0.014 A 
ATOM      9  C   UNL A   1      34.063  33.015  30.446  1.00  0.00     0.014 A 
ATOM     10  C   UNL A   1      36.719  33.507  29.750  1.00  0.00     0.010 A 
ATOM     11  C   UNL A   1      35.097  32.454  31.202  1.00  0.00     0.010 A 
ATOM     12  C   UNL A   1      36.435  32.650  30.827  1.00  0.00    -0.014 A 
BRANCH  12  13
ATOM     13  C   UNL A   1      37.558  31.966  31.526  1.00  0.00     0.031 A 
ATOM     14  C   UNL A   1      38.359  30.892  30.838  1.00  0.00     0.074 A 
ATOM     15  C   UNL A   1      37.890  32.362  32.770  1.00  0.00     0.049 A 
ATOM     16  N   UNL A   1      39.403  30.232  31.275  1.00  0.00    -0.248 NA
ATOM     17  C   UNL A   1      37.926  30.498  29.489  1.00  0.00     0.031 C 
ATOM     18  C   UNL A   1      37.181  33.384  33.545  1.00  0.00     0.029 A 
ATOM     19  N   UNL A   1      38.920  31.980  33.590  1.00  0.00    -0.354 N 
ATOM     20  C   UNL A   1      39.735  29.328  30.269  1.00  0.00     0.074 A 
ATOM     21  C   UNL A   1      38.760  29.505  29.214  1.00  0.00     0.031 C 
ATOM     22  C   UNL A   1      37.831  33.589  34.700  1.00  0.00     0.029 A 
ATOM     23  C   UNL A   1      38.967  32.676  34.775  1.00  0.00     0.049 A 
ATOM     24  H   UNL A   1      39.564  31.273  33.355  1.00  0.00     0.167 HD
ATOM     25  C   UNL A   1      40.760  28.439  30.228  1.00  0.00     0.034 A 
ATOM     26  C   UNL A   1      39.827  32.592  35.809  1.00  0.00     0.034 A 
ATOM     27  C   UNL A   1      41.740  28.288  31.278  1.00  0.00     0.049 A 
ATOM     28  C   UNL A   1      40.962  31.609  35.733  1.00  0.00     0.074 A 
ATOM     29  C   UNL A   1      42.838  27.444  31.321  1.00  0.00     0.029 A 
ATOM     30  N   UNL A   1      41.741  28.996  32.474  1.00  0.00    -0.354 N 
ATOM     31  N   UNL A   1      41.266  30.773  34.768  1.00  0.00    -0.248 NA
ATOM     32  C   UNL A   1      41.873  31.566  36.883  1.00  0.00     0.031 C 
ATOM     33  C   UNL A   1      43.470  27.604  32.561  1.00  0.00     0.029 A 
ATOM     34  C   UNL A   1      42.805  28.592  33.269  1.00  0.00     0.049 A 
ATOM     35  H   UNL A   1      41.083  29.684  32.721  1.00  0.00     0.167 HD
ATOM     36  C   UNL A   1      42.415  30.113  35.191  1.00  0.00     0.074 A 
ATOM     37  C   UNL A   1      42.760  30.666  36.486  1.00  0.00     0.031 C 
ATOM     38  C   UNL A   1      43.124  29.139  34.565  1.00  0.00     0.034 A 
BRANCH  25  39
ATOM     39  C   UNL A   1      40.843  27.530  29.024  1.00  0.00     0.023 A 
ATOM     40  C   UNL A   1      41.786  27.733  28.001  1.00  0.00     0.031 A 
ATOM     41  C   UNL A   1      39.944  26.458  28.886  1.00  0.00     0.131 A 
ATOM     42  C   UNL A   1      41.762  26.922  26.855  1.00  0.00     0.055 A 
ATOM     43  C   UNL A   1      39.973  25.608  27.777  1.00  0.00     0.041 A 
ATOM     44  F   UNL A   1      39.009  26.225  29.821  1.00  0.00    -0.206 F 
ATOM     45  C   UNL A   1      40.877  25.847  26.746  1.00  0.00     0.022 A 
BRANCH  42  46
ATOM     46  S   UNL A   1      42.812  27.378  25.447  1.00  0.00     0.124 S 
ATOM     47  O   UNL A   1      42.062  28.489  24.865  1.00  0.00    -0.237 OA
ATOM     48  O   UNL A   1      44.072  27.725  26.092  1.00  0.00    -0.237 OA
ATOM     49  O   UNL A   1      42.839  26.164  24.632  1.00  0.00    -0.744 OA
ENDBRANCH  42  46
ENDBRANCH  25  39
BRANCH  26  50
ATOM     50  C   UNL A   1      39.640  33.457  37.006  1.00  0.00     0.023 A 
ATOM     51  C   UNL A   1      38.901  33.011  38.113  1.00  0.00     0.031 A 
ATOM     52  C   UNL A   1      40.187  34.751  37.051  1.00  0.00     0.131 A 
ATOM     53  C   UNL A   1      38.699  33.867  39.206  1.00  0.00     0.055 A 
ATOM     54  C   UNL A   1      40.022  35.583  38.159  1.00  0.00     0.041 A 
ATOM     55  F   UNL A   1      40.909  35.219  36.020  1.00  0.00    -0.206 F 
ATOM     56  C   UNL A   1      39.265  35.145  39.242  1.00  0.00     0.022 A 
BRANCH  53  57
ATOM     57  S   UNL A   1      37.633  33.308  40.562  1.00  0.00     0.124 S 
ATOM     58  O   UNL A   1      36.415  32.937  39.850  1.00  0.00    -0.237 OA
ATOM     59  O   UNL A   1      38.411  32.209  41.124  1.00  0.00    -0.237 OA
ATOM     60  O   UNL A   1      37.522  34.489  41.416  1.00  0.00    -0.744 OA
ENDBRANCH  53  57
ENDBRANCH  26  50
BRANCH  38  61
ATOM     61  C   UNL A   1      44.359  28.644  35.273  1.00  0.00     0.023 A 
ATOM     62  C   UNL A   1      44.290  27.655  36.270  1.00  0.00     0.031 A 
ATOM     63  C   UNL A   1      45.615  29.198  34.974  1.00  0.00     0.131 A 
ATOM     64  C   UNL A   1      45.447  27.294  36.975  1.00  0.00     0.055 A 
ATOM     65  C   UNL A   1      46.772  28.798  35.643  1.00  0.00     0.041 A 
ATOM     66  F   UNL A   1      45.736  30.148  34.031  1.00  0.00    -0.206 F 
ATOM     67  C   UNL A   1      46.689  27.851  36.661  1.00  0.00     0.022 A 
BRANCH  64  68
ATOM     68  S   UNL A   1      45.290  26.158  38.382  1.00  0.00     0.124 S 
ATOM     69  O   UNL A   1      44.857  24.927  37.732  1.00  0.00    -0.237 OA
ATOM     70  O   UNL A   1      46.645  26.150  38.927  1.00  0.00    -0.237 OA
ATOM     71  O   UNL A   1      44.286  26.799  39.230  1.00  0.00    -0.744 OA
ENDBRANCH  64  68
ENDBRANCH  38  61
ENDBRANCH  12  13
ENDBRANCH   5   7
ENDBRANCH   2   3
ENDBRANCH   1   2
BRANCH   1  72
ATOM     72  C   UNL A   1      31.977  29.742  26.813  1.00  0.00     0.023 C 
BRANCH  72  73
ATOM     73  C   UNL A   1      33.297  29.130  26.366  1.00  0.00     0.116 C 
BRANCH  73  74
ATOM     74  N   UNL A   1      33.673  29.467  25.001  1.00  0.00    -0.352 N 
ATOM     75  C   UNL A   1      33.334  28.862  23.818  1.00  0.00     0.252 C 
ATOM     76  H   UNL A   1      34.261  30.253  24.914  1.00  0.00     0.163 HD
ATOM     77  O   UNL A   1      33.679  29.347  22.746  1.00  0.00    -0.269 OA
BRANCH  75  78
ATOM     78  C   UNL A   1      32.511  27.639  23.823  1.00  0.00     0.061 A 
ATOM     79  C   UNL A   1      33.166  26.399  23.808  1.00  0.00     0.037 A 
ATOM     80  C   UNL A   1      31.109  27.703  23.850  1.00  0.00     0.072 A 
ATOM     81  C   UNL A   1      32.427  25.218  23.751  1.00  0.00     0.090 A 
ATOM     82  C   UNL A   1      30.384  26.502  23.896  1.00  0.00     0.061 A 
ATOM     83  Cl  UNL A   1      30.275  29.219  23.749  1.00  0.00    -0.082 Cl
ATOM     84  C   UNL A   1      31.041  25.266  23.868  1.00  0.00     0.044 A 
ATOM     85  Cl  UNL A   1      28.653  26.455  23.913  1.00  0.00    -0.083 Cl
BRANCH  81  86
ATOM     86  S   UNL A   1      33.329  23.746  23.318  1.00  0.00     0.261 S 
ATOM     87  O   UNL A   1      32.383  22.878  22.652  1.00  0.00    -0.201 OA
ATOM     88  O   UNL A   1      34.539  24.192  22.663  1.00  0.00    -0.201 OA
BRANCH  86  89
ATOM     89  N   UNL A   1      33.831  23.014  24.733  1.00  0.00    -0.280 N 
ATOM     90  H   UNL A   1      33.128  22.702  25.347  1.00  0.00     0.180 HD
BRANCH  89  91
ATOM     91  C   UNL A   1      35.178  22.803  25.133  1.00  0.00     0.052 A 
ATOM     92  C   UNL A   1      35.996  23.794  25.686  1.00  0.00     0.030 A 
ATOM     93  C   UNL A   1      35.709  21.535  24.872  1.00  0.00     0.069 A 
ATOM     94  C   UNL A   1      37.359  23.547  25.884  1.00  0.00     0.044 A 
ATOM     95  C   UNL A   1      37.063  21.297  25.078  1.00  0.00     0.160 A 
ATOM     96  C   UNL A   1      37.889  22.301  25.564  1.00  0.00     0.158 A 
ATOM     97  F   UNL A   1      37.569  20.095  24.769  1.00  0.00    -0.204 F 
ATOM     98  F   UNL A   1      39.200  22.080  25.719  1.00  0.00    -0.204 F 
ENDBRANCH  89  91
ENDBRANCH  86  89
ENDBRANCH  81  86
ENDBRANCH  75  78
ENDBRANCH  73  74
ENDBRANCH  72  73
ENDBRANCH   1  72
TORSDOF 17
ENDMDL
