MODEL 1
REMARK VINA RESULT:     -11.4      0.000      0.000
REMARK SMILES CC1=C[C@@H](CNS(=O)(=O)c2cccs2)[C@H](C(C)C)C[C@H]1CC(=O)NCCCCNC(=O)c1ccc(-c2c3nc(c(-c4cc(S(=O)(=O)[O-])ccc4F)c4ccc([nH]4)c(-c4cc(S(=O)(=O)[O-])ccc4F)c4nc(c(-c5cc(S(=O)(=O)[O-])ccc5F)c5ccc2[nH]5)C=C4)C=C3)cc1
REMARK SMILES IDX 25 1 24 2 22 3 23 4 21 6 20 7 1 8 2 9 3 10 4 11 19 12 15 13
REMARK SMILES IDX 5 14 6 15 7 17 8 18 9 19 10 20 11 21 14 22 12 23 13 24 16 25
REMARK SMILES IDX 17 26 18 27 26 28 27 29 28 30 29 31 30 32 31 34 32 35 33 36
REMARK SMILES IDX 94 37 34 38 93 39 35 40 36 41 37 42 87 43 38 44 92 45 86 46
REMARK SMILES IDX 88 47 39 48 91 49 85 50 84 51 40 53 72 54 52 55 71 56 53 57
REMARK SMILES IDX 56 58 70 59 89 60 54 61 55 62 69 64 90 65 57 66 41 67 42 68
REMARK SMILES IDX 50 69 43 70 49 71 51 72 48 73 44 74 45 75 46 76 47 77 73 78
REMARK SMILES IDX 74 79 82 80 75 81 81 82 83 83 80 84 76 85 77 86 78 87 79 88
REMARK SMILES IDX 58 89 59 90 67 91 60 92 66 93 68 94 65 95 61 96 62 97 63 98
REMARK SMILES IDX 64 99
REMARK H PARENT 24 5 6 16 29 33 88 52 56 63
REMARK Flexibility Score: inf
ROOT
ATOM      1  C   UNL A   1      29.793  31.410  24.802  1.00  0.00     0.116 C 
ENDROOT
BRANCH   1   2
ATOM      2  N   UNL A   1      29.604  31.025  23.411  1.00  0.00    -0.356 N 
ATOM      3  C   UNL A   1      29.792  29.830  22.780  1.00  0.00     0.220 C 
ATOM      4  O   UNL A   1      29.575  29.757  21.569  1.00  0.00    -0.275 OA
ATOM      5  H   UNL A   1      29.287  31.751  22.825  1.00  0.00     0.163 HD
BRANCH   3   6
ATOM      6  C   UNL A   1      30.256  28.610  23.550  1.00  0.00     0.108 C 
BRANCH   6   7
ATOM      7  C   UNL A   1      31.338  27.762  22.836  1.00  0.00     0.024 C 
ATOM      8  C   UNL A   1      33.640  28.854  23.187  1.00  0.00     0.039 C 
ATOM      9  C   UNL A   1      32.662  27.770  23.579  1.00  0.00    -0.073 C 
ATOM     10  C   UNL A   1      33.002  26.784  24.438  1.00  0.00    -0.023 C 
ATOM     11  C   UNL A   1      32.246  25.480  24.491  1.00  0.00     0.030 C 
ATOM     12  C   UNL A   1      30.804  26.317  22.599  1.00  0.00     0.013 C 
ATOM     13  C   UNL A   1      31.792  25.192  23.019  1.00  0.00     0.000 C 
BRANCH  11  14
ATOM     14  C   UNL A   1      31.050  25.431  25.467  1.00  0.00     0.107 C 
BRANCH  14  15
ATOM     15  N   UNL A   1      30.250  24.192  25.374  1.00  0.00    -0.210 NA
ATOM     16  H   UNL A   1      30.352  23.821  24.429  1.00  0.00     0.141 HD
BRANCH  15  17
ATOM     17  S   UNL A   1      30.682  22.960  26.474  1.00  0.00     0.250 S 
ATOM     18  O   UNL A   1      31.300  23.617  27.613  1.00  0.00    -0.206 OA
ATOM     19  O   UNL A   1      29.527  22.120  26.627  1.00  0.00    -0.206 OA
BRANCH  17  20
ATOM     20  C   UNL A   1      32.001  21.991  25.755  1.00  0.00     0.134 A 
ATOM     21  C   UNL A   1      32.113  21.352  24.531  1.00  0.00     0.033 A 
ATOM     22  S   UNL A   1      33.440  21.826  26.667  1.00  0.00    -0.131 S 
ATOM     23  C   UNL A   1      33.367  20.698  24.362  1.00  0.00     0.013 A 
ATOM     24  C   UNL A   1      34.191  20.889  25.447  1.00  0.00     0.066 A 
ENDBRANCH  17  20
ENDBRANCH  15  17
ENDBRANCH  14  15
ENDBRANCH  11  14
BRANCH  13  25
ATOM     25  C   UNL A   1      33.007  25.043  22.028  1.00  0.00    -0.014 C 
ATOM     26  C   UNL A   1      33.557  23.611  21.991  1.00  0.00     0.007 C 
ATOM     27  C   UNL A   1      32.664  25.487  20.604  1.00  0.00     0.007 C 
ENDBRANCH  13  25
ENDBRANCH   6   7
ENDBRANCH   3   6
ENDBRANCH   1   2
BRANCH   1  28
ATOM     28  C   UNL A   1      31.167  31.034  25.353  1.00  0.00     0.023 C 
BRANCH  28  29
ATOM     29  C   UNL A   1      31.431  31.398  26.805  1.00  0.00     0.023 C 
BRANCH  29  30
ATOM     30  C   UNL A   1      32.750  32.114  27.011  1.00  0.00     0.116 C 
BRANCH  30  31
ATOM     31  N   UNL A   1      32.560  33.524  27.325  1.00  0.00    -0.352 N 
ATOM     32  C   UNL A   1      33.149  34.283  28.307  1.00  0.00     0.251 C 
ATOM     33  H   UNL A   1      31.918  34.001  26.752  1.00  0.00     0.163 HD
ATOM     34  O   UNL A   1      32.704  35.395  28.572  1.00  0.00    -0.269 OA
BRANCH  32  35
ATOM     35  C   UNL A   1      34.304  33.736  29.044  1.00  0.00     0.039 A 
ATOM     36  C   UNL A   1      34.095  32.761  30.021  1.00  0.00     0.014 A 
ATOM     37  C   UNL A   1      35.595  34.179  28.751  1.00  0.00     0.014 A 
ATOM     38  C   UNL A   1      35.193  32.188  30.662  1.00  0.00     0.010 A 
ATOM     39  C   UNL A   1      36.687  33.532  29.304  1.00  0.00     0.010 A 
ATOM     40  C   UNL A   1      36.497  32.549  30.285  1.00  0.00    -0.014 A 
BRANCH  40  41
ATOM     41  C   UNL A   1      37.692  31.964  30.938  1.00  0.00     0.031 A 
ATOM     42  C   UNL A   1      38.506  30.944  30.190  1.00  0.00     0.074 A 
ATOM     43  C   UNL A   1      37.979  32.281  32.215  1.00  0.00     0.049 A 
ATOM     44  N   UNL A   1      39.494  30.199  30.611  1.00  0.00    -0.248 NA
ATOM     45  C   UNL A   1      38.119  30.691  28.791  1.00  0.00     0.031 C 
ATOM     46  C   UNL A   1      37.220  33.215  33.050  1.00  0.00     0.029 A 
ATOM     47  N   UNL A   1      38.981  31.839  33.041  1.00  0.00    -0.354 N 
ATOM     48  C   UNL A   1      39.817  29.367  29.544  1.00  0.00     0.074 A 
ATOM     49  C   UNL A   1      38.876  29.652  28.484  1.00  0.00     0.031 C 
ATOM     50  C   UNL A   1      37.800  33.296  34.258  1.00  0.00     0.029 A 
ATOM     51  C   UNL A   1      38.941  32.390  34.300  1.00  0.00     0.049 A 
ATOM     52  H   UNL A   1      39.664  31.189  32.758  1.00  0.00     0.167 HD
ATOM     53  C   UNL A   1      40.829  28.468  29.448  1.00  0.00     0.034 A 
ATOM     54  C   UNL A   1      39.737  32.177  35.367  1.00  0.00     0.034 A 
ATOM     55  C   UNL A   1      41.781  28.240  30.504  1.00  0.00     0.049 A 
ATOM     56  C   UNL A   1      40.878  31.203  35.225  1.00  0.00     0.074 A 
ATOM     57  C   UNL A   1      42.888  27.410  30.506  1.00  0.00     0.029 A 
ATOM     58  N   UNL A   1      41.742  28.854  31.750  1.00  0.00    -0.354 N 
ATOM     59  N   UNL A   1      41.203  30.455  34.194  1.00  0.00    -0.248 NA
ATOM     60  C   UNL A   1      41.767  31.053  36.383  1.00  0.00     0.031 C 
ATOM     61  C   UNL A   1      43.489  27.486  31.768  1.00  0.00     0.029 A 
ATOM     62  C   UNL A   1      42.795  28.410  32.534  1.00  0.00     0.049 A 
ATOM     63  H   UNL A   1      41.064  29.509  32.035  1.00  0.00     0.167 HD
ATOM     64  C   UNL A   1      42.352  29.768  34.572  1.00  0.00     0.074 A 
ATOM     65  C   UNL A   1      42.671  30.204  35.917  1.00  0.00     0.031 C 
ATOM     66  C   UNL A   1      43.083  28.862  33.874  1.00  0.00     0.034 A 
BRANCH  53  67
ATOM     67  C   UNL A   1      40.933  27.672  28.169  1.00  0.00     0.023 A 
ATOM     68  C   UNL A   1      40.499  26.336  28.093  1.00  0.00     0.031 A 
ATOM     69  C   UNL A   1      41.514  28.239  27.022  1.00  0.00     0.131 A 
ATOM     70  C   UNL A   1      40.734  25.587  26.931  1.00  0.00     0.055 A 
ATOM     71  C   UNL A   1      41.666  27.514  25.838  1.00  0.00     0.041 A 
ATOM     72  F   UNL A   1      41.967  29.503  27.037  1.00  0.00    -0.206 F 
ATOM     73  C   UNL A   1      41.290  26.174  25.793  1.00  0.00     0.022 A 
BRANCH  70  74
ATOM     74  S   UNL A   1      40.438  23.799  26.979  1.00  0.00     0.124 S 
ATOM     75  O   UNL A   1      40.826  23.475  28.350  1.00  0.00    -0.237 OA
ATOM     76  O   UNL A   1      39.014  23.705  26.680  1.00  0.00    -0.237 OA
ATOM     77  O   UNL A   1      41.329  23.276  25.945  1.00  0.00    -0.744 OA
ENDBRANCH  70  74
ENDBRANCH  53  67
BRANCH  54  78
ATOM     78  C   UNL A   1      39.496  32.898  36.648  1.00  0.00     0.023 A 
ATOM     79  C   UNL A   1      38.613  32.380  37.609  1.00  0.00     0.031 A 
ATOM     80  C   UNL A   1      40.118  34.128  36.919  1.00  0.00     0.131 A 
ATOM     81  C   UNL A   1      38.339  33.112  38.774  1.00  0.00     0.055 A 
ATOM     82  C   UNL A   1      39.879  34.830  38.102  1.00  0.00     0.041 A 
ATOM     83  F   UNL A   1      40.980  34.662  36.039  1.00  0.00    -0.206 F 
ATOM     84  C   UNL A   1      38.974  34.329  39.033  1.00  0.00     0.022 A 
BRANCH  81  85
ATOM     85  S   UNL A   1      37.072  32.487  39.914  1.00  0.00     0.124 S 
ATOM     86  O   UNL A   1      37.569  31.148  40.207  1.00  0.00    -0.237 OA
ATOM     87  O   UNL A   1      37.147  33.453  41.006  1.00  0.00    -0.237 OA
ATOM     88  O   UNL A   1      35.846  32.540  39.121  1.00  0.00    -0.744 OA
ENDBRANCH  81  85
ENDBRANCH  54  78
BRANCH  66  89
ATOM     89  C   UNL A   1      44.319  28.325  34.547  1.00  0.00     0.023 A 
ATOM     90  C   UNL A   1      44.285  27.155  35.324  1.00  0.00     0.031 A 
ATOM     91  C   UNL A   1      45.544  29.002  34.414  1.00  0.00     0.131 A 
ATOM     92  C   UNL A   1      45.444  26.725  35.985  1.00  0.00     0.055 A 
ATOM     93  C   UNL A   1      46.707  28.537  35.028  1.00  0.00     0.041 A 
ATOM     94  F   UNL A   1      45.629  30.124  33.682  1.00  0.00    -0.206 F 
ATOM     95  C   UNL A   1      46.659  27.400  35.829  1.00  0.00     0.022 A 
BRANCH  92  96
ATOM     96  S   UNL A   1      45.325  25.318  37.121  1.00  0.00     0.124 S 
ATOM     97  O   UNL A   1      45.542  24.186  36.226  1.00  0.00    -0.237 OA
ATOM     98  O   UNL A   1      46.397  25.593  38.073  1.00  0.00    -0.237 OA
ATOM     99  O   UNL A   1      43.972  25.429  37.664  1.00  0.00    -0.744 OA
ENDBRANCH  92  96
ENDBRANCH  66  89
ENDBRANCH  40  41
ENDBRANCH  32  35
ENDBRANCH  30  31
ENDBRANCH  29  30
ENDBRANCH  28  29
ENDBRANCH   1  28
TORSDOF 20
ENDMDL
MODEL 2
REMARK VINA RESULT:     -11.2      2.202      2.844
REMARK SMILES CC1=C[C@@H](CNS(=O)(=O)c2cccs2)[C@H](C(C)C)C[C@H]1CC(=O)NCCCCNC(=O)c1ccc(-c2c3nc(c(-c4cc(S(=O)(=O)[O-])ccc4F)c4ccc([nH]4)c(-c4cc(S(=O)(=O)[O-])ccc4F)c4nc(c(-c5cc(S(=O)(=O)[O-])ccc5F)c5ccc2[nH]5)C=C4)C=C3)cc1
REMARK SMILES IDX 25 1 24 2 22 3 23 4 21 6 20 7 1 8 2 9 3 10 4 11 19 12 15 13
REMARK SMILES IDX 5 14 6 15 7 17 8 18 9 19 10 20 11 21 14 22 12 23 13 24 16 25
REMARK SMILES IDX 17 26 18 27 26 28 27 29 28 30 29 31 30 32 31 34 32 35 33 36
REMARK SMILES IDX 94 37 34 38 93 39 35 40 36 41 37 42 87 43 38 44 92 45 86 46
REMARK SMILES IDX 88 47 39 48 91 49 85 50 84 51 40 53 72 54 52 55 71 56 53 57
REMARK SMILES IDX 56 58 70 59 89 60 54 61 55 62 69 64 90 65 57 66 41 67 42 68
REMARK SMILES IDX 50 69 43 70 49 71 51 72 48 73 44 74 45 75 46 76 47 77 73 78
REMARK SMILES IDX 74 79 82 80 75 81 81 82 83 83 80 84 76 85 77 86 78 87 79 88
REMARK SMILES IDX 58 89 59 90 67 91 60 92 66 93 68 94 65 95 61 96 62 97 63 98
REMARK SMILES IDX 64 99
REMARK H PARENT 24 5 6 16 29 33 88 52 56 63
REMARK Flexibility Score: inf
ROOT
ATOM      1  C   UNL A   1      32.009  29.579  27.292  1.00  0.00     0.116 C 
ENDROOT
BRANCH   1   2
ATOM      2  N   UNL A   1      33.406  29.279  27.573  1.00  0.00    -0.356 N 
ATOM      3  C   UNL A   1      34.366  28.688  26.803  1.00  0.00     0.220 C 
ATOM      4  O   UNL A   1      35.491  28.527  27.278  1.00  0.00    -0.275 OA
ATOM      5  H   UNL A   1      33.710  29.547  28.471  1.00  0.00     0.163 HD
BRANCH   3   6
ATOM      6  C   UNL A   1      34.059  28.239  25.388  1.00  0.00     0.108 C 
BRANCH   6   7
ATOM      7  C   UNL A   1      32.814  27.328  25.249  1.00  0.00     0.024 C 
ATOM      8  C   UNL A   1      31.223  28.329  23.494  1.00  0.00     0.039 C 
ATOM      9  C   UNL A   1      32.276  27.298  23.831  1.00  0.00    -0.073 C 
ATOM     10  C   UNL A   1      32.614  26.319  22.962  1.00  0.00    -0.023 C 
ATOM     11  C   UNL A   1      33.290  25.051  23.418  1.00  0.00     0.030 C 
ATOM     12  C   UNL A   1      33.141  25.902  25.787  1.00  0.00     0.013 C 
ATOM     13  C   UNL A   1      32.707  24.746  24.840  1.00  0.00     0.000 C 
BRANCH  11  14
ATOM     14  C   UNL A   1      34.834  25.076  23.437  1.00  0.00     0.107 C 
BRANCH  14  15
ATOM     15  N   UNL A   1      35.460  23.778  23.109  1.00  0.00    -0.210 NA
ATOM     16  H   UNL A   1      36.224  23.953  22.457  1.00  0.00     0.141 HD
BRANCH  15  17
ATOM     17  S   UNL A   1      36.089  22.915  24.440  1.00  0.00     0.250 S 
ATOM     18  O   UNL A   1      37.026  21.944  23.902  1.00  0.00    -0.206 OA
ATOM     19  O   UNL A   1      36.495  23.892  25.412  1.00  0.00    -0.206 OA
BRANCH  17  20
ATOM     20  C   UNL A   1      34.780  21.921  25.145  1.00  0.00     0.134 A 
ATOM     21  C   UNL A   1      33.871  21.051  24.567  1.00  0.00     0.033 A 
ATOM     22  S   UNL A   1      34.595  21.961  26.846  1.00  0.00    -0.131 S 
ATOM     23  C   UNL A   1      33.001  20.448  25.520  1.00  0.00     0.013 A 
ATOM     24  C   UNL A   1      33.297  20.847  26.803  1.00  0.00     0.066 A 
ENDBRANCH  17  20
ENDBRANCH  15  17
ENDBRANCH  14  15
ENDBRANCH  11  14
BRANCH  13  25
ATOM     25  C   UNL A   1      31.149  24.521  24.823  1.00  0.00    -0.014 C 
ATOM     26  C   UNL A   1      30.737  23.369  23.897  1.00  0.00     0.007 C 
ATOM     27  C   UNL A   1      30.573  24.277  26.219  1.00  0.00     0.007 C 
ENDBRANCH  13  25
ENDBRANCH   6   7
ENDBRANCH   3   6
ENDBRANCH   1   2
BRANCH   1  28
ATOM     28  C   UNL A   1      31.823  30.728  26.304  1.00  0.00     0.023 C 
BRANCH  28  29
ATOM     29  C   UNL A   1      31.554  32.097  26.908  1.00  0.00     0.023 C 
BRANCH  29  30
ATOM     30  C   UNL A   1      32.808  32.790  27.402  1.00  0.00     0.116 C 
BRANCH  30  31
ATOM     31  N   UNL A   1      32.564  34.190  27.724  1.00  0.00    -0.352 N 
ATOM     32  C   UNL A   1      33.097  34.955  28.731  1.00  0.00     0.251 C 
ATOM     33  H   UNL A   1      31.926  34.653  27.135  1.00  0.00     0.163 HD
ATOM     34  O   UNL A   1      32.610  36.050  28.994  1.00  0.00    -0.269 OA
BRANCH  32  35
ATOM     35  C   UNL A   1      34.244  34.435  29.500  1.00  0.00     0.039 A 
ATOM     36  C   UNL A   1      34.016  33.741  30.689  1.00  0.00     0.014 A 
ATOM     37  C   UNL A   1      35.546  34.623  29.028  1.00  0.00     0.014 A 
ATOM     38  C   UNL A   1      35.095  33.182  31.374  1.00  0.00     0.010 A 
ATOM     39  C   UNL A   1      36.601  33.974  29.646  1.00  0.00     0.010 A 
ATOM     40  C   UNL A   1      36.390  33.269  30.840  1.00  0.00    -0.014 A 
BRANCH  40  41
ATOM     41  C   UNL A   1      37.564  32.689  31.533  1.00  0.00     0.031 A 
ATOM     42  C   UNL A   1      38.311  31.557  30.880  1.00  0.00     0.074 A 
ATOM     43  C   UNL A   1      37.891  33.115  32.768  1.00  0.00     0.049 A 
ATOM     44  N   UNL A   1      39.265  30.805  31.361  1.00  0.00    -0.248 NA
ATOM     45  C   UNL A   1      37.884  31.187  29.520  1.00  0.00     0.031 C 
ATOM     46  C   UNL A   1      37.197  34.168  33.514  1.00  0.00     0.029 A 
ATOM     47  N   UNL A   1      38.883  32.705  33.621  1.00  0.00    -0.354 N 
ATOM     48  C   UNL A   1      39.525  29.854  30.379  1.00  0.00     0.074 A 
ATOM     49  C   UNL A   1      38.580  30.083  29.308  1.00  0.00     0.031 C 
ATOM     50  C   UNL A   1      37.803  34.337  34.701  1.00  0.00     0.029 A 
ATOM     51  C   UNL A   1      38.896  33.379  34.818  1.00  0.00     0.049 A 
ATOM     52  H   UNL A   1      39.526  31.994  33.396  1.00  0.00     0.167 HD
ATOM     53  C   UNL A   1      40.486  28.897  30.361  1.00  0.00     0.034 A 
ATOM     54  C   UNL A   1      39.699  33.231  35.891  1.00  0.00     0.034 A 
ATOM     55  C   UNL A   1      41.444  28.724  31.423  1.00  0.00     0.049 A 
ATOM     56  C   UNL A   1      40.784  32.187  35.833  1.00  0.00     0.074 A 
ATOM     57  C   UNL A   1      42.506  27.840  31.494  1.00  0.00     0.029 A 
ATOM     58  N   UNL A   1      41.460  29.461  32.601  1.00  0.00    -0.354 N 
ATOM     59  N   UNL A   1      41.050  31.324  34.878  1.00  0.00    -0.248 NA
ATOM     60  C   UNL A   1      41.685  32.105  36.989  1.00  0.00     0.031 C 
ATOM     61  C   UNL A   1      43.132  28.008  32.734  1.00  0.00     0.029 A 
ATOM     62  C   UNL A   1      42.502  29.041  33.412  1.00  0.00     0.049 A 
ATOM     63  H   UNL A   1      40.822  30.177  32.827  1.00  0.00     0.167 HD
ATOM     64  C   UNL A   1      42.169  30.617  35.308  1.00  0.00     0.074 A 
ATOM     65  C   UNL A   1      42.535  31.167  36.599  1.00  0.00     0.031 C 
ATOM     66  C   UNL A   1      42.838  29.607  34.696  1.00  0.00     0.034 A 
BRANCH  53  67
ATOM     67  C   UNL A   1      40.524  27.973  29.168  1.00  0.00     0.023 A 
ATOM     68  C   UNL A   1      41.473  28.129  28.142  1.00  0.00     0.031 A 
ATOM     69  C   UNL A   1      39.572  26.949  29.029  1.00  0.00     0.131 A 
ATOM     70  C   UNL A   1      41.395  27.339  26.986  1.00  0.00     0.055 A 
ATOM     71  C   UNL A   1      39.553  26.106  27.915  1.00  0.00     0.041 A 
ATOM     72  F   UNL A   1      38.626  26.761  29.964  1.00  0.00    -0.206 F 
ATOM     73  C   UNL A   1      40.458  26.310  26.877  1.00  0.00     0.022 A 
BRANCH  70  74
ATOM     74  S   UNL A   1      42.439  27.772  25.568  1.00  0.00     0.124 S 
ATOM     75  O   UNL A   1      41.753  28.954  25.051  1.00  0.00    -0.237 OA
ATOM     76  O   UNL A   1      43.736  28.009  26.190  1.00  0.00    -0.237 OA
ATOM     77  O   UNL A   1      42.363  26.590  24.712  1.00  0.00    -0.744 OA
ENDBRANCH  70  74
ENDBRANCH  53  67
BRANCH  54  78
ATOM     78  C   UNL A   1      39.519  34.088  37.096  1.00  0.00     0.023 A 
ATOM     79  C   UNL A   1      38.929  33.575  38.262  1.00  0.00     0.031 A 
ATOM     80  C   UNL A   1      39.904  35.440  37.092  1.00  0.00     0.131 A 
ATOM     81  C   UNL A   1      38.697  34.418  39.359  1.00  0.00     0.055 A 
ATOM     82  C   UNL A   1      39.715  36.263  38.204  1.00  0.00     0.041 A 
ATOM     83  F   UNL A   1      40.483  35.978  36.007  1.00  0.00    -0.206 F 
ATOM     84  C   UNL A   1      39.095  35.756  39.343  1.00  0.00     0.022 A 
BRANCH  81  85
ATOM     85  S   UNL A   1      37.788  33.758  40.784  1.00  0.00     0.124 S 
ATOM     86  O   UNL A   1      38.800  32.925  41.424  1.00  0.00    -0.237 OA
ATOM     87  O   UNL A   1      37.417  34.977  41.495  1.00  0.00    -0.237 OA
ATOM     88  O   UNL A   1      36.677  33.033  40.172  1.00  0.00    -0.744 OA
ENDBRANCH  81  85
ENDBRANCH  54  78
BRANCH  66  89
ATOM     89  C   UNL A   1      44.057  29.074  35.403  1.00  0.00     0.023 A 
ATOM     90  C   UNL A   1      43.967  28.023  36.330  1.00  0.00     0.031 A 
ATOM     91  C   UNL A   1      45.320  29.636  35.150  1.00  0.00     0.131 A 
ATOM     92  C   UNL A   1      45.116  27.599  37.013  1.00  0.00     0.055 A 
ATOM     93  C   UNL A   1      46.469  29.171  35.791  1.00  0.00     0.041 A 
ATOM     94  F   UNL A   1      45.457  30.642  34.273  1.00  0.00    -0.206 F 
ATOM     95  C   UNL A   1      46.369  28.156  36.738  1.00  0.00     0.022 A 
BRANCH  92  96
ATOM     96  S   UNL A   1      44.939  26.366  38.330  1.00  0.00     0.124 S 
ATOM     97  O   UNL A   1      45.952  26.796  39.288  1.00  0.00    -0.237 OA
ATOM     98  O   UNL A   1      43.551  26.549  38.745  1.00  0.00    -0.237 OA
ATOM     99  O   UNL A   1      45.220  25.100  37.655  1.00  0.00    -0.744 OA
ENDBRANCH  92  96
ENDBRANCH  66  89
ENDBRANCH  40  41
ENDBRANCH  32  35
ENDBRANCH  30  31
ENDBRANCH  29  30
ENDBRANCH  28  29
ENDBRANCH   1  28
TORSDOF 20
ENDMDL
MODEL 3
REMARK VINA RESULT:     -11.1      2.062      7.713
REMARK SMILES CC1=C[C@@H](CNS(=O)(=O)c2cccs2)[C@H](C(C)C)C[C@H]1CC(=O)NCCCCNC(=O)c1ccc(-c2c3nc(c(-c4cc(S(=O)(=O)[O-])ccc4F)c4ccc([nH]4)c(-c4cc(S(=O)(=O)[O-])ccc4F)c4nc(c(-c5cc(S(=O)(=O)[O-])ccc5F)c5ccc2[nH]5)C=C4)C=C3)cc1
REMARK SMILES IDX 25 1 24 2 22 3 23 4 21 6 20 7 1 8 2 9 3 10 4 11 19 12 15 13
REMARK SMILES IDX 5 14 6 15 7 17 8 18 9 19 10 20 11 21 14 22 12 23 13 24 16 25
REMARK SMILES IDX 17 26 18 27 26 28 27 29 28 30 29 31 30 32 31 34 32 35 33 36
REMARK SMILES IDX 94 37 34 38 93 39 35 40 36 41 37 42 87 43 38 44 92 45 86 46
REMARK SMILES IDX 88 47 39 48 91 49 85 50 84 51 40 53 72 54 52 55 71 56 53 57
REMARK SMILES IDX 56 58 70 59 89 60 54 61 55 62 69 64 90 65 57 66 41 67 42 68
REMARK SMILES IDX 50 69 43 70 49 71 51 72 48 73 44 74 45 75 46 76 47 77 73 78
REMARK SMILES IDX 74 79 82 80 75 81 81 82 83 83 80 84 76 85 77 86 78 87 79 88
REMARK SMILES IDX 58 89 59 90 67 91 60 92 66 93 68 94 65 95 61 96 62 97 63 98
REMARK SMILES IDX 64 99
REMARK H PARENT 24 5 6 16 29 33 88 52 56 63
REMARK Flexibility Score: inf
ROOT
ATOM      1  C   UNL A   1      30.692  30.447  25.000  1.00  0.00     0.116 C 
ENDROOT
BRANCH   1   2
ATOM      2  N   UNL A   1      30.353  30.154  23.615  1.00  0.00    -0.356 N 
ATOM      3  C   UNL A   1      30.305  28.970  22.938  1.00  0.00     0.220 C 
ATOM      4  O   UNL A   1      30.001  28.982  21.744  1.00  0.00    -0.275 OA
ATOM      5  H   UNL A   1      30.120  30.944  23.074  1.00  0.00     0.163 HD
BRANCH   3   6
ATOM      6  C   UNL A   1      30.617  27.663  23.637  1.00  0.00     0.108 C 
BRANCH   6   7
ATOM      7  C   UNL A   1      31.753  26.832  22.989  1.00  0.00     0.024 C 
ATOM      8  C   UNL A   1      33.854  28.298  22.764  1.00  0.00     0.039 C 
ATOM      9  C   UNL A   1      33.122  27.213  23.520  1.00  0.00    -0.073 C 
ATOM     10  C   UNL A   1      33.713  26.525  24.523  1.00  0.00    -0.023 C 
ATOM     11  C   UNL A   1      33.203  25.178  24.970  1.00  0.00     0.030 C 
ATOM     12  C   UNL A   1      31.456  25.311  23.157  1.00  0.00     0.013 C 
ATOM     13  C   UNL A   1      32.662  24.478  23.678  1.00  0.00     0.000 C 
BRANCH  11  14
ATOM     14  C   UNL A   1      32.138  25.196  26.088  1.00  0.00     0.107 C 
BRANCH  14  15
ATOM     15  N   UNL A   1      31.001  24.283  25.848  1.00  0.00    -0.210 NA
ATOM     16  H   UNL A   1      30.945  24.106  24.845  1.00  0.00     0.141 HD
BRANCH  15  17
ATOM     17  S   UNL A   1      31.094  22.776  26.646  1.00  0.00     0.250 S 
ATOM     18  O   UNL A   1      31.765  23.016  27.912  1.00  0.00    -0.206 OA
ATOM     19  O   UNL A   1      29.780  22.198  26.589  1.00  0.00    -0.206 OA
BRANCH  17  20
ATOM     20  C   UNL A   1      32.220  21.722  25.743  1.00  0.00     0.134 A 
ATOM     21  C   UNL A   1      32.090  21.054  24.535  1.00  0.00     0.033 A 
ATOM     22  S   UNL A   1      33.782  21.494  26.404  1.00  0.00    -0.131 S 
ATOM     23  C   UNL A   1      33.262  20.329  24.177  1.00  0.00     0.013 A 
ATOM     24  C   UNL A   1      34.267  20.494  25.102  1.00  0.00     0.066 A 
ENDBRANCH  17  20
ENDBRANCH  15  17
ENDBRANCH  14  15
ENDBRANCH  11  14
BRANCH  13  25
ATOM     25  C   UNL A   1      33.778  24.269  22.587  1.00  0.00    -0.014 C 
ATOM     26  C   UNL A   1      34.991  23.503  23.133  1.00  0.00     0.007 C 
ATOM     27  C   UNL A   1      33.255  23.560  21.336  1.00  0.00     0.007 C 
ENDBRANCH  13  25
ENDBRANCH   6   7
ENDBRANCH   3   6
ENDBRANCH   1   2
BRANCH   1  28
ATOM     28  C   UNL A   1      32.119  30.051  25.372  1.00  0.00     0.023 C 
BRANCH  28  29
ATOM     29  C   UNL A   1      32.407  29.892  26.856  1.00  0.00     0.023 C 
BRANCH  29  30
ATOM     30  C   UNL A   1      33.801  30.336  27.246  1.00  0.00     0.116 C 
BRANCH  30  31
ATOM     31  N   UNL A   1      33.857  31.764  27.530  1.00  0.00    -0.352 N 
ATOM     32  C   UNL A   1      34.690  32.449  28.380  1.00  0.00     0.251 C 
ATOM     33  H   UNL A   1      33.205  32.317  27.043  1.00  0.00     0.163 HD
ATOM     34  O   UNL A   1      34.449  33.617  28.666  1.00  0.00    -0.269 OA
BRANCH  32  35
ATOM     35  C   UNL A   1      35.860  31.758  28.954  1.00  0.00     0.039 A 
ATOM     36  C   UNL A   1      35.671  30.599  29.708  1.00  0.00     0.014 A 
ATOM     37  C   UNL A   1      37.147  32.252  28.725  1.00  0.00     0.014 A 
ATOM     38  C   UNL A   1      36.782  29.902  30.184  1.00  0.00     0.010 A 
ATOM     39  C   UNL A   1      38.248  31.501  29.100  1.00  0.00     0.010 A 
ATOM     40  C   UNL A   1      38.077  30.333  29.856  1.00  0.00    -0.014 A 
BRANCH  40  41
ATOM     41  C   UNL A   1      39.285  29.622  30.339  1.00  0.00     0.031 A 
ATOM     42  C   UNL A   1      39.968  30.111  31.587  1.00  0.00     0.074 A 
ATOM     43  C   UNL A   1      39.805  28.616  29.611  1.00  0.00     0.049 A 
ATOM     44  N   UNL A   1      41.108  29.743  32.108  1.00  0.00    -0.248 NA
ATOM     45  C   UNL A   1      39.300  31.202  32.318  1.00  0.00     0.031 C 
ATOM     46  C   UNL A   1      39.254  28.102  28.355  1.00  0.00     0.029 A 
ATOM     47  N   UNL A   1      40.926  27.852  29.817  1.00  0.00    -0.354 N 
ATOM     48  C   UNL A   1      41.309  30.580  33.201  1.00  0.00     0.074 A 
ATOM     49  C   UNL A   1      40.209  31.517  33.224  1.00  0.00     0.031 C 
ATOM     50  C   UNL A   1      40.022  27.091  27.918  1.00  0.00     0.029 A 
ATOM     51  C   UNL A   1      41.142  26.915  28.835  1.00  0.00     0.049 A 
ATOM     52  H   UNL A   1      41.519  27.965  30.594  1.00  0.00     0.167 HD
ATOM     53  C   UNL A   1      42.307  30.548  34.120  1.00  0.00     0.034 A 
ATOM     54  C   UNL A   1      42.140  26.019  28.693  1.00  0.00     0.034 A 
ATOM     55  C   UNL A   1      43.365  29.570  34.098  1.00  0.00     0.049 A 
ATOM     56  C   UNL A   1      43.217  25.976  29.747  1.00  0.00     0.074 A 
ATOM     57  C   UNL A   1      44.393  29.388  35.006  1.00  0.00     0.029 A 
ATOM     58  N   UNL A   1      43.525  28.600  33.116  1.00  0.00    -0.354 N 
ATOM     59  N   UNL A   1      43.371  26.743  30.802  1.00  0.00    -0.248 NA
ATOM     60  C   UNL A   1      44.246  24.939  29.597  1.00  0.00     0.031 C 
ATOM     61  C   UNL A   1      45.201  28.342  34.547  1.00  0.00     0.029 A 
ATOM     62  C   UNL A   1      44.643  27.828  33.386  1.00  0.00     0.049 A 
ATOM     63  H   UNL A   1      42.931  28.480  32.340  1.00  0.00     0.167 HD
ATOM     64  C   UNL A   1      44.499  26.260  31.459  1.00  0.00     0.074 A 
ATOM     65  C   UNL A   1      44.974  25.128  30.689  1.00  0.00     0.031 C 
ATOM     66  C   UNL A   1      45.091  26.707  32.595  1.00  0.00     0.034 A 
BRANCH  53  67
ATOM     67  C   UNL A   1      42.294  31.604  35.198  1.00  0.00     0.023 A 
ATOM     68  C   UNL A   1      41.309  31.625  36.201  1.00  0.00     0.031 A 
ATOM     69  C   UNL A   1      43.251  32.633  35.198  1.00  0.00     0.131 A 
ATOM     70  C   UNL A   1      41.249  32.695  37.105  1.00  0.00     0.055 A 
ATOM     71  C   UNL A   1      43.239  33.651  36.155  1.00  0.00     0.041 A 
ATOM     72  F   UNL A   1      44.205  32.682  34.255  1.00  0.00    -0.206 F 
ATOM     73  C   UNL A   1      42.223  33.695  37.107  1.00  0.00     0.022 A 
BRANCH  70  74
ATOM     74  S   UNL A   1      39.796  32.840  38.181  1.00  0.00     0.124 S 
ATOM     75  O   UNL A   1      38.871  31.901  37.551  1.00  0.00    -0.237 OA
ATOM     76  O   UNL A   1      40.324  32.440  39.481  1.00  0.00    -0.237 OA
ATOM     77  O   UNL A   1      39.422  34.247  38.065  1.00  0.00    -0.744 OA
ENDBRANCH  70  74
ENDBRANCH  53  67
BRANCH  54  78
ATOM     78  C   UNL A   1      42.166  25.092  27.527  1.00  0.00     0.023 A 
ATOM     79  C   UNL A   1      41.476  23.870  27.564  1.00  0.00     0.031 A 
ATOM     80  C   UNL A   1      42.907  25.397  26.372  1.00  0.00     0.131 A 
ATOM     81  C   UNL A   1      41.578  22.976  26.487  1.00  0.00     0.055 A 
ATOM     82  C   UNL A   1      42.966  24.526  25.283  1.00  0.00     0.041 A 
ATOM     83  F   UNL A   1      43.576  26.558  26.281  1.00  0.00    -0.206 F 
ATOM     84  C   UNL A   1      42.310  23.299  25.342  1.00  0.00     0.022 A 
BRANCH  81  85
ATOM     85  S   UNL A   1      40.805  21.342  26.640  1.00  0.00     0.124 S 
ATOM     86  O   UNL A   1      40.816  21.141  28.084  1.00  0.00    -0.237 OA
ATOM     87  O   UNL A   1      39.497  21.570  26.034  1.00  0.00    -0.237 OA
ATOM     88  O   UNL A   1      41.698  20.470  25.880  1.00  0.00    -0.744 OA
ENDBRANCH  81  85
ENDBRANCH  54  78
BRANCH  66  89
ATOM     89  C   UNL A   1      46.286  25.932  33.087  1.00  0.00     0.023 A 
ATOM     90  C   UNL A   1      46.142  24.790  33.891  1.00  0.00     0.031 A 
ATOM     91  C   UNL A   1      47.585  26.353  32.753  1.00  0.00     0.131 A 
ATOM     92  C   UNL A   1      47.281  24.135  34.380  1.00  0.00     0.055 A 
ATOM     93  C   UNL A   1      48.714  25.664  33.195  1.00  0.00     0.041 A 
ATOM     94  F   UNL A   1      47.776  27.439  31.987  1.00  0.00    -0.206 F 
ATOM     95  C   UNL A   1      48.566  24.555  34.025  1.00  0.00     0.022 A 
BRANCH  92  96
ATOM     96  S   UNL A   1      47.063  22.775  35.558  1.00  0.00     0.124 S 
ATOM     97  O   UNL A   1      46.008  23.289  36.424  1.00  0.00    -0.237 OA
ATOM     98  O   UNL A   1      46.688  21.665  34.687  1.00  0.00    -0.237 OA
ATOM     99  O   UNL A   1      48.376  22.651  36.187  1.00  0.00    -0.744 OA
ENDBRANCH  92  96
ENDBRANCH  66  89
ENDBRANCH  40  41
ENDBRANCH  32  35
ENDBRANCH  30  31
ENDBRANCH  29  30
ENDBRANCH  28  29
ENDBRANCH   1  28
TORSDOF 20
ENDMDL
