MODEL 1
REMARK VINA RESULT:     -10.7      0.000      0.000
REMARK SMILES C=CCN(CC(=O)NCCCCNC(=O)c1ccc(-c2c3nc(c(-c4cc(S(=O)(=O)[O-])ccc4F)c4ccc([nH]4)c(-c4cc(S(=O)(=O)[O-])ccc4F)c4nc(c(-c5cc(S(=O)(=O)[O-])ccc5F)c5ccc2[nH]5)C=C4)C=C3)cc1)c1nccn(C)c1=O
REMARK SMILES IDX 10 1 9 2 8 3 6 4 7 5 5 7 4 8 3 9 2 10 1 11 79 12 80 13 85 14
REMARK SMILES IDX 81 15 83 16 86 17 82 18 84 19 11 20 12 21 13 22 14 23 15 25
REMARK SMILES IDX 16 26 17 27 78 28 18 29 77 30 19 31 20 32 21 33 71 34 22 35
REMARK SMILES IDX 76 36 70 37 72 38 23 39 75 40 69 41 68 42 24 44 56 45 36 46
REMARK SMILES IDX 55 47 37 48 40 49 54 50 73 51 38 52 39 53 53 55 74 56 41 57
REMARK SMILES IDX 25 58 26 59 34 60 27 61 33 62 35 63 32 64 28 65 29 66 30 67
REMARK SMILES IDX 31 68 57 69 58 70 66 71 59 72 65 73 67 74 64 75 60 76 61 77
REMARK SMILES IDX 62 78 63 79 42 80 43 81 51 82 44 83 50 84 52 85 49 86 45 87
REMARK SMILES IDX 46 88 47 89 48 90
REMARK H PARENT 8 6 13 24 72 43 40 54
REMARK Flexibility Score: inf
ROOT
ATOM      1  C   UNL A   1      32.135  27.501  26.754  1.00  0.00     0.023 C 
ENDROOT
BRANCH   1   2
ATOM      2  C   UNL A   1      31.207  26.487  26.088  1.00  0.00     0.116 C 
BRANCH   2   3
ATOM      3  N   UNL A   1      31.025  25.278  26.855  1.00  0.00    -0.355 N 
ATOM      4  C   UNL A   1      30.941  23.980  26.442  1.00  0.00     0.239 C 
ATOM      5  O   UNL A   1      30.931  23.102  27.312  1.00  0.00    -0.273 OA
ATOM      6  H   UNL A   1      30.948  25.411  27.828  1.00  0.00     0.163 HD
BRANCH   4   7
ATOM      7  C   UNL A   1      31.002  23.589  24.962  1.00  0.00     0.218 C 
BRANCH   7   8
ATOM      8  N   UNL A   1      32.263  23.017  24.459  1.00  0.00    -0.339 N 
BRANCH   8   9
ATOM      9  C   UNL A   1      33.322  23.967  24.121  1.00  0.00     0.146 C 
BRANCH   9  10
ATOM     10  C   UNL A   1      34.157  24.364  25.299  1.00  0.00    -0.014 C 
ATOM     11  C   UNL A   1      35.373  23.853  25.541  1.00  0.00     0.006 C 
ENDBRANCH   9  10
ENDBRANCH   8   9
BRANCH   8  12
ATOM     12  C   UNL A   1      32.530  21.640  24.543  1.00  0.00     0.196 A 
ATOM     13  N   UNL A   1      33.040  21.142  25.644  1.00  0.00    -0.233 NA
ATOM     14  C   UNL A   1      32.258  20.694  23.319  1.00  0.00     0.293 A 
ATOM     15  C   UNL A   1      33.261  19.796  25.720  1.00  0.00     0.131 A 
ATOM     16  N   UNL A   1      32.504  19.343  23.543  1.00  0.00    -0.314 N 
ATOM     17  O   UNL A   1      31.910  21.147  22.236  1.00  0.00    -0.265 OA
ATOM     18  C   UNL A   1      33.007  18.919  24.746  1.00  0.00     0.109 A 
ATOM     19  C   UNL A   1      32.276  18.411  22.458  1.00  0.00     0.153 C 
ENDBRANCH   8  12
ENDBRANCH   7   8
ENDBRANCH   4   7
ENDBRANCH   2   3
ENDBRANCH   1   2
BRANCH   1  20
ATOM     20  C   UNL A   1      31.706  28.963  26.637  1.00  0.00     0.023 C 
BRANCH  20  21
ATOM     21  C   UNL A   1      32.738  29.904  26.026  1.00  0.00     0.116 C 
BRANCH  21  22
ATOM     22  N   UNL A   1      32.561  31.292  26.425  1.00  0.00    -0.352 N 
ATOM     23  C   UNL A   1      33.315  32.048  27.292  1.00  0.00     0.251 C 
ATOM     24  H   UNL A   1      31.793  31.755  26.019  1.00  0.00     0.163 HD
ATOM     25  O   UNL A   1      32.946  33.182  27.583  1.00  0.00    -0.269 OA
BRANCH  23  26
ATOM     26  C   UNL A   1      34.536  31.477  27.900  1.00  0.00     0.039 A 
ATOM     27  C   UNL A   1      35.666  32.290  28.024  1.00  0.00     0.014 A 
ATOM     28  C   UNL A   1      34.568  30.159  28.363  1.00  0.00     0.014 A 
ATOM     29  C   UNL A   1      36.801  31.806  28.679  1.00  0.00     0.010 A 
ATOM     30  C   UNL A   1      35.675  29.700  29.073  1.00  0.00     0.010 A 
ATOM     31  C   UNL A   1      36.800  30.521  29.244  1.00  0.00    -0.014 A 
BRANCH  31  32
ATOM     32  C   UNL A   1      37.962  30.019  30.022  1.00  0.00     0.031 A 
ATOM     33  C   UNL A   1      38.225  30.542  31.407  1.00  0.00     0.074 A 
ATOM     34  C   UNL A   1      38.821  29.150  29.451  1.00  0.00     0.049 A 
ATOM     35  N   UNL A   1      39.232  30.302  32.206  1.00  0.00    -0.248 NA
ATOM     36  C   UNL A   1      37.235  31.484  31.950  1.00  0.00     0.031 C 
ATOM     37  C   UNL A   1      38.695  28.604  28.098  1.00  0.00     0.029 A 
ATOM     38  N   UNL A   1      39.975  28.585  29.930  1.00  0.00    -0.354 N 
ATOM     39  C   UNL A   1      39.007  31.074  33.342  1.00  0.00     0.074 A 
ATOM     40  C   UNL A   1      37.797  31.830  33.099  1.00  0.00     0.031 C 
ATOM     41  C   UNL A   1      39.721  27.770  27.863  1.00  0.00     0.029 A 
ATOM     42  C   UNL A   1      40.599  27.755  29.029  1.00  0.00     0.049 A 
ATOM     43  H   UNL A   1      40.325  28.757  30.834  1.00  0.00     0.167 HD
ATOM     44  C   UNL A   1      39.732  31.128  34.487  1.00  0.00     0.034 A 
ATOM     45  C   UNL A   1      41.756  27.068  29.124  1.00  0.00     0.034 A 
ATOM     46  C   UNL A   1      40.930  30.358  34.718  1.00  0.00     0.049 A 
ATOM     47  C   UNL A   1      42.553  27.158  30.401  1.00  0.00     0.074 A 
ATOM     48  C   UNL A   1      41.711  30.296  35.859  1.00  0.00     0.029 A 
ATOM     49  N   UNL A   1      41.528  29.520  33.786  1.00  0.00    -0.354 N 
ATOM     50  N   UNL A   1      42.303  27.857  31.484  1.00  0.00    -0.248 NA
ATOM     51  C   UNL A   1      43.783  26.358  30.469  1.00  0.00     0.031 C 
ATOM     52  C   UNL A   1      42.808  29.468  35.598  1.00  0.00     0.029 A 
ATOM     53  C   UNL A   1      42.679  28.957  34.316  1.00  0.00     0.049 A 
ATOM     54  H   UNL A   1      41.184  29.348  32.879  1.00  0.00     0.167 HD
ATOM     55  C   UNL A   1      43.330  27.556  32.373  1.00  0.00     0.074 A 
ATOM     56  C   UNL A   1      44.194  26.605  31.705  1.00  0.00     0.031 C 
ATOM     57  C   UNL A   1      43.538  28.020  33.632  1.00  0.00     0.034 A 
BRANCH  44  58
ATOM     58  C   UNL A   1      39.255  32.076  35.562  1.00  0.00     0.023 A 
ATOM     59  C   UNL A   1      39.727  33.398  35.641  1.00  0.00     0.031 A 
ATOM     60  C   UNL A   1      38.346  31.644  36.544  1.00  0.00     0.131 A 
ATOM     61  C   UNL A   1      39.352  34.214  36.719  1.00  0.00     0.055 A 
ATOM     62  C   UNL A   1      37.912  32.487  37.568  1.00  0.00     0.041 A 
ATOM     63  F   UNL A   1      37.875  30.387  36.532  1.00  0.00    -0.206 F 
ATOM     64  C   UNL A   1      38.428  33.775  37.671  1.00  0.00     0.022 A 
BRANCH  61  65
ATOM     65  S   UNL A   1      40.204  35.800  36.941  1.00  0.00     0.124 S 
ATOM     66  O   UNL A   1      41.603  35.405  36.797  1.00  0.00    -0.237 OA
ATOM     67  O   UNL A   1      39.652  36.608  35.861  1.00  0.00    -0.237 OA
ATOM     68  O   UNL A   1      39.816  36.211  38.289  1.00  0.00    -0.744 OA
ENDBRANCH  61  65
ENDBRANCH  44  58
BRANCH  45  69
ATOM     69  C   UNL A   1      42.240  26.243  27.983  1.00  0.00     0.023 A 
ATOM     70  C   UNL A   1      41.755  24.943  27.775  1.00  0.00     0.031 A 
ATOM     71  C   UNL A   1      43.226  26.728  27.106  1.00  0.00     0.131 A 
ATOM     72  C   UNL A   1      42.285  24.155  26.742  1.00  0.00     0.055 A 
ATOM     73  C   UNL A   1      43.717  25.958  26.051  1.00  0.00     0.041 A 
ATOM     74  F   UNL A   1      43.719  27.968  27.258  1.00  0.00    -0.206 F 
ATOM     75  C   UNL A   1      43.256  24.658  25.872  1.00  0.00     0.022 A 
BRANCH  72  76
ATOM     76  S   UNL A   1      41.742  22.431  26.599  1.00  0.00     0.124 S 
ATOM     77  O   UNL A   1      42.236  21.858  27.846  1.00  0.00    -0.237 OA
ATOM     78  O   UNL A   1      40.294  22.578  26.490  1.00  0.00    -0.237 OA
ATOM     79  O   UNL A   1      42.412  21.963  25.387  1.00  0.00    -0.744 OA
ENDBRANCH  72  76
ENDBRANCH  45  69
BRANCH  57  80
ATOM     80  C   UNL A   1      44.726  27.462  34.376  1.00  0.00     0.023 A 
ATOM     81  C   UNL A   1      44.626  26.304  35.167  1.00  0.00     0.031 A 
ATOM     82  C   UNL A   1      45.971  28.109  34.302  1.00  0.00     0.131 A 
ATOM     83  C   UNL A   1      45.738  25.859  35.898  1.00  0.00     0.055 A 
ATOM     84  C   UNL A   1      47.089  27.630  34.988  1.00  0.00     0.041 A 
ATOM     85  F   UNL A   1      46.122  29.220  33.563  1.00  0.00    -0.206 F 
ATOM     86  C   UNL A   1      46.973  26.507  35.801  1.00  0.00     0.022 A 
BRANCH  83  87
ATOM     87  S   UNL A   1      45.530  24.470  37.046  1.00  0.00     0.124 S 
ATOM     88  O   UNL A   1      44.390  24.906  37.846  1.00  0.00    -0.237 OA
ATOM     89  O   UNL A   1      45.284  23.352  36.141  1.00  0.00    -0.237 OA
ATOM     90  O   UNL A   1      46.806  24.420  37.758  1.00  0.00    -0.744 OA
ENDBRANCH  83  87
ENDBRANCH  57  80
ENDBRANCH  31  32
ENDBRANCH  23  26
ENDBRANCH  21  22
ENDBRANCH  20  21
ENDBRANCH   1  20
TORSDOF 18
ENDMDL
MODEL 2
REMARK VINA RESULT:     -10.6      1.887      2.533
REMARK SMILES C=CCN(CC(=O)NCCCCNC(=O)c1ccc(-c2c3nc(c(-c4cc(S(=O)(=O)[O-])ccc4F)c4ccc([nH]4)c(-c4cc(S(=O)(=O)[O-])ccc4F)c4nc(c(-c5cc(S(=O)(=O)[O-])ccc5F)c5ccc2[nH]5)C=C4)C=C3)cc1)c1nccn(C)c1=O
REMARK SMILES IDX 10 1 9 2 8 3 6 4 7 5 5 7 4 8 3 9 2 10 1 11 79 12 80 13 85 14
REMARK SMILES IDX 81 15 83 16 86 17 82 18 84 19 11 20 12 21 13 22 14 23 15 25
REMARK SMILES IDX 16 26 17 27 78 28 18 29 77 30 19 31 20 32 21 33 71 34 22 35
REMARK SMILES IDX 76 36 70 37 72 38 23 39 75 40 69 41 68 42 24 44 56 45 36 46
REMARK SMILES IDX 55 47 37 48 40 49 54 50 73 51 38 52 39 53 53 55 74 56 41 57
REMARK SMILES IDX 25 58 26 59 34 60 27 61 33 62 35 63 32 64 28 65 29 66 30 67
REMARK SMILES IDX 31 68 57 69 58 70 66 71 59 72 65 73 67 74 64 75 60 76 61 77
REMARK SMILES IDX 62 78 63 79 42 80 43 81 51 82 44 83 50 84 52 85 49 86 45 87
REMARK SMILES IDX 46 88 47 89 48 90
REMARK H PARENT 8 6 13 24 72 43 40 54
REMARK Flexibility Score: inf
ROOT
ATOM      1  C   UNL A   1      32.026  27.606  26.684  1.00  0.00     0.023 C 
ENDROOT
BRANCH   1   2
ATOM      2  C   UNL A   1      31.271  26.527  25.910  1.00  0.00     0.116 C 
BRANCH   2   3
ATOM      3  N   UNL A   1      30.901  25.389  26.718  1.00  0.00    -0.355 N 
ATOM      4  C   UNL A   1      30.763  24.076  26.373  1.00  0.00     0.239 C 
ATOM      5  O   UNL A   1      30.578  23.261  27.285  1.00  0.00    -0.273 OA
ATOM      6  H   UNL A   1      30.718  25.592  27.664  1.00  0.00     0.163 HD
BRANCH   4   7
ATOM      7  C   UNL A   1      30.971  23.582  24.938  1.00  0.00     0.218 C 
BRANCH   7   8
ATOM      8  N   UNL A   1      32.286  23.010  24.597  1.00  0.00    -0.339 N 
BRANCH   8   9
ATOM      9  C   UNL A   1      33.380  23.959  24.399  1.00  0.00     0.146 C 
BRANCH   9  10
ATOM     10  C   UNL A   1      33.189  24.840  23.203  1.00  0.00    -0.014 C 
ATOM     11  C   UNL A   1      33.729  26.063  23.098  1.00  0.00     0.006 C 
ENDBRANCH   9  10
ENDBRANCH   8   9
BRANCH   8  12
ATOM     12  C   UNL A   1      32.539  21.633  24.709  1.00  0.00     0.196 A 
ATOM     13  N   UNL A   1      33.000  21.145  25.835  1.00  0.00    -0.233 NA
ATOM     14  C   UNL A   1      32.308  20.673  23.487  1.00  0.00     0.293 A 
ATOM     15  C   UNL A   1      33.207  19.799  25.938  1.00  0.00     0.131 A 
ATOM     16  N   UNL A   1      32.534  19.323  23.739  1.00  0.00    -0.314 N 
ATOM     17  O   UNL A   1      32.007  21.114  22.385  1.00  0.00    -0.265 OA
ATOM     18  C   UNL A   1      32.986  18.911  24.966  1.00  0.00     0.109 A 
ATOM     19  C   UNL A   1      32.343  18.378  22.657  1.00  0.00     0.153 C 
ENDBRANCH   8  12
ENDBRANCH   7   8
ENDBRANCH   4   7
ENDBRANCH   2   3
ENDBRANCH   1   2
BRANCH   1  20
ATOM     20  C   UNL A   1      33.550  27.548  26.577  1.00  0.00     0.023 C 
BRANCH  20  21
ATOM     21  C   UNL A   1      34.208  28.744  25.899  1.00  0.00     0.116 C 
BRANCH  21  22
ATOM     22  N   UNL A   1      33.756  30.024  26.423  1.00  0.00    -0.352 N 
ATOM     23  C   UNL A   1      34.310  30.799  27.414  1.00  0.00     0.251 C 
ATOM     24  H   UNL A   1      32.939  30.387  26.010  1.00  0.00     0.163 HD
ATOM     25  O   UNL A   1      33.723  31.809  27.791  1.00  0.00    -0.269 OA
BRANCH  23  26
ATOM     26  C   UNL A   1      35.581  30.389  28.050  1.00  0.00     0.039 A 
ATOM     27  C   UNL A   1      35.534  29.748  29.291  1.00  0.00     0.014 A 
ATOM     28  C   UNL A   1      36.810  30.617  27.426  1.00  0.00     0.014 A 
ATOM     29  C   UNL A   1      36.711  29.268  29.869  1.00  0.00     0.010 A 
ATOM     30  C   UNL A   1      37.974  30.081  27.971  1.00  0.00     0.010 A 
ATOM     31  C   UNL A   1      37.936  29.395  29.195  1.00  0.00    -0.014 A 
BRANCH  31  32
ATOM     32  C   UNL A   1      39.186  28.813  29.748  1.00  0.00     0.031 A 
ATOM     33  C   UNL A   1      39.843  29.439  30.948  1.00  0.00     0.074 A 
ATOM     34  C   UNL A   1      39.769  27.770  29.125  1.00  0.00     0.049 A 
ATOM     35  N   UNL A   1      40.980  29.141  31.520  1.00  0.00    -0.248 NA
ATOM     36  C   UNL A   1      39.136  30.571  31.565  1.00  0.00     0.031 C 
ATOM     37  C   UNL A   1      39.249  27.104  27.928  1.00  0.00     0.029 A 
ATOM     38  N   UNL A   1      40.931  27.095  29.401  1.00  0.00    -0.354 N 
ATOM     39  C   UNL A   1      41.135  30.056  32.556  1.00  0.00     0.074 A 
ATOM     40  C   UNL A   1      40.001  30.953  32.493  1.00  0.00     0.031 C 
ATOM     41  C   UNL A   1      40.080  26.106  27.584  1.00  0.00     0.029 A 
ATOM     42  C   UNL A   1      41.211  26.087  28.507  1.00  0.00     0.049 A 
ATOM     43  H   UNL A   1      41.510  27.310  30.167  1.00  0.00     0.167 HD
ATOM     44  C   UNL A   1      42.121  30.127  33.485  1.00  0.00     0.034 A 
ATOM     45  C   UNL A   1      42.265  25.251  28.431  1.00  0.00     0.034 A 
ATOM     46  C   UNL A   1      43.239  29.217  33.541  1.00  0.00     0.049 A 
ATOM     47  C   UNL A   1      43.358  25.360  29.464  1.00  0.00     0.074 A 
ATOM     48  C   UNL A   1      44.265  29.164  34.470  1.00  0.00     0.029 A 
ATOM     49  N   UNL A   1      43.486  28.202  32.625  1.00  0.00    -0.354 N 
ATOM     50  N   UNL A   1      43.466  26.202  30.466  1.00  0.00    -0.248 NA
ATOM     51  C   UNL A   1      44.463  24.398  29.361  1.00  0.00     0.031 C 
ATOM     52  C   UNL A   1      45.158  28.159  34.084  1.00  0.00     0.029 A 
ATOM     53  C   UNL A   1      44.657  27.536  32.951  1.00  0.00     0.049 A 
ATOM     54  H   UNL A   1      42.911  27.986  31.855  1.00  0.00     0.167 HD
ATOM     55  C   UNL A   1      44.639  25.850  31.129  1.00  0.00     0.074 A 
ATOM     56  C   UNL A   1      45.192  24.714  30.422  1.00  0.00     0.031 C 
ATOM     57  C   UNL A   1      45.204  26.413  32.228  1.00  0.00     0.034 A 
BRANCH  44  58
ATOM     58  C   UNL A   1      42.039  31.247  34.496  1.00  0.00     0.023 A 
ATOM     59  C   UNL A   1      42.671  32.484  34.278  1.00  0.00     0.031 A 
ATOM     60  C   UNL A   1      41.353  31.065  35.710  1.00  0.00     0.131 A 
ATOM     61  C   UNL A   1      42.673  33.458  35.287  1.00  0.00     0.055 A 
ATOM     62  C   UNL A   1      41.289  32.070  36.676  1.00  0.00     0.041 A 
ATOM     63  F   UNL A   1      40.747  29.899  35.983  1.00  0.00    -0.206 F 
ATOM     64  C   UNL A   1      41.965  33.269  36.476  1.00  0.00     0.022 A 
BRANCH  61  65
ATOM     65  S   UNL A   1      43.737  34.913  35.082  1.00  0.00     0.124 S 
ATOM     66  O   UNL A   1      43.639  35.150  33.644  1.00  0.00    -0.237 OA
ATOM     67  O   UNL A   1      43.090  35.899  35.939  1.00  0.00    -0.237 OA
ATOM     68  O   UNL A   1      45.044  34.449  35.542  1.00  0.00    -0.744 OA
ENDBRANCH  61  65
ENDBRANCH  44  58
BRANCH  45  69
ATOM     69  C   UNL A   1      42.352  24.244  27.337  1.00  0.00     0.023 A 
ATOM     70  C   UNL A   1      41.717  22.998  27.452  1.00  0.00     0.031 A 
ATOM     71  C   UNL A   1      43.105  24.497  26.177  1.00  0.00     0.131 A 
ATOM     72  C   UNL A   1      41.881  22.034  26.445  1.00  0.00     0.055 A 
ATOM     73  C   UNL A   1      43.227  23.554  25.157  1.00  0.00     0.041 A 
ATOM     74  F   UNL A   1      43.727  25.676  26.016  1.00  0.00    -0.206 F 
ATOM     75  C   UNL A   1      42.622  22.308  25.293  1.00  0.00     0.022 A 
BRANCH  72  76
ATOM     76  S   UNL A   1      41.171  20.384  26.698  1.00  0.00     0.124 S 
ATOM     77  O   UNL A   1      40.024  20.413  25.797  1.00  0.00    -0.237 OA
ATOM     78  O   UNL A   1      42.275  19.516  26.305  1.00  0.00    -0.237 OA
ATOM     79  O   UNL A   1      40.845  20.370  28.123  1.00  0.00    -0.744 OA
ENDBRANCH  72  76
ENDBRANCH  45  69
BRANCH  57  80
ATOM     80  C   UNL A   1      46.464  25.769  32.751  1.00  0.00     0.023 A 
ATOM     81  C   UNL A   1      46.425  24.711  33.676  1.00  0.00     0.031 A 
ATOM     82  C   UNL A   1      47.721  26.233  32.327  1.00  0.00     0.131 A 
ATOM     83  C   UNL A   1      47.622  24.187  34.189  1.00  0.00     0.055 A 
ATOM     84  C   UNL A   1      48.909  25.671  32.799  1.00  0.00     0.041 A 
ATOM     85  F   UNL A   1      47.815  27.242  31.447  1.00  0.00    -0.206 F 
ATOM     86  C   UNL A   1      48.863  24.651  33.745  1.00  0.00     0.022 A 
BRANCH  83  87
ATOM     87  S   UNL A   1      47.536  22.947  35.510  1.00  0.00     0.124 S 
ATOM     88  O   UNL A   1      46.112  22.942  35.831  1.00  0.00    -0.237 OA
ATOM     89  O   UNL A   1      48.045  21.751  34.848  1.00  0.00    -0.237 OA
ATOM     90  O   UNL A   1      48.404  23.495  36.551  1.00  0.00    -0.744 OA
ENDBRANCH  83  87
ENDBRANCH  57  80
ENDBRANCH  31  32
ENDBRANCH  23  26
ENDBRANCH  21  22
ENDBRANCH  20  21
ENDBRANCH   1  20
TORSDOF 18
ENDMDL
MODEL 3
REMARK VINA RESULT:     -10.6      2.806      8.324
REMARK SMILES C=CCN(CC(=O)NCCCCNC(=O)c1ccc(-c2c3nc(c(-c4cc(S(=O)(=O)[O-])ccc4F)c4ccc([nH]4)c(-c4cc(S(=O)(=O)[O-])ccc4F)c4nc(c(-c5cc(S(=O)(=O)[O-])ccc5F)c5ccc2[nH]5)C=C4)C=C3)cc1)c1nccn(C)c1=O
REMARK SMILES IDX 10 1 9 2 8 3 6 4 7 5 5 7 4 8 3 9 2 10 1 11 79 12 80 13 85 14
REMARK SMILES IDX 81 15 83 16 86 17 82 18 84 19 11 20 12 21 13 22 14 23 15 25
REMARK SMILES IDX 16 26 17 27 78 28 18 29 77 30 19 31 20 32 21 33 71 34 22 35
REMARK SMILES IDX 76 36 70 37 72 38 23 39 75 40 69 41 68 42 24 44 56 45 36 46
REMARK SMILES IDX 55 47 37 48 40 49 54 50 73 51 38 52 39 53 53 55 74 56 41 57
REMARK SMILES IDX 25 58 26 59 34 60 27 61 33 62 35 63 32 64 28 65 29 66 30 67
REMARK SMILES IDX 31 68 57 69 58 70 66 71 59 72 65 73 67 74 64 75 60 76 61 77
REMARK SMILES IDX 62 78 63 79 42 80 43 81 51 82 44 83 50 84 52 85 49 86 45 87
REMARK SMILES IDX 46 88 47 89 48 90
REMARK H PARENT 8 6 13 24 72 43 40 54
REMARK Flexibility Score: inf
ROOT
ATOM      1  C   UNL A   1      31.537  31.047  26.232  1.00  0.00     0.023 C 
ENDROOT
BRANCH   1   2
ATOM      2  C   UNL A   1      32.903  30.397  26.438  1.00  0.00     0.116 C 
BRANCH   2   3
ATOM      3  N   UNL A   1      33.363  29.644  25.295  1.00  0.00    -0.355 N 
ATOM      4  C   UNL A   1      32.744  28.651  24.592  1.00  0.00     0.239 C 
ATOM      5  O   UNL A   1      33.290  28.261  23.552  1.00  0.00    -0.273 OA
ATOM      6  H   UNL A   1      34.263  29.883  24.974  1.00  0.00     0.163 HD
BRANCH   4   7
ATOM      7  C   UNL A   1      31.356  28.124  24.971  1.00  0.00     0.218 C 
BRANCH   7   8
ATOM      8  N   UNL A   1      30.705  27.186  24.039  1.00  0.00    -0.339 N 
BRANCH   8   9
ATOM      9  C   UNL A   1      30.109  27.767  22.837  1.00  0.00     0.146 C 
BRANCH   9  10
ATOM     10  C   UNL A   1      29.239  28.953  23.124  1.00  0.00    -0.014 C 
ATOM     11  C   UNL A   1      27.940  29.005  22.796  1.00  0.00     0.006 C 
ENDBRANCH   9  10
ENDBRANCH   8   9
BRANCH   8  12
ATOM     12  C   UNL A   1      30.870  25.796  24.161  1.00  0.00     0.196 A 
ATOM     13  N   UNL A   1      31.296  25.098  23.136  1.00  0.00    -0.233 NA
ATOM     14  C   UNL A   1      30.517  25.062  25.504  1.00  0.00     0.293 A 
ATOM     15  C   UNL A   1      31.483  23.754  23.283  1.00  0.00     0.131 A 
ATOM     16  N   UNL A   1      30.781  23.695  25.523  1.00  0.00    -0.314 N 
ATOM     17  O   UNL A   1      29.993  25.662  26.433  1.00  0.00    -0.265 OA
ATOM     18  C   UNL A   1      31.258  23.064  24.403  1.00  0.00     0.109 A 
ATOM     19  C   UNL A   1      30.479  22.951  26.729  1.00  0.00     0.153 C 
ENDBRANCH   8  12
ENDBRANCH   7   8
ENDBRANCH   4   7
ENDBRANCH   2   3
ENDBRANCH   1   2
BRANCH   1  20
ATOM     20  C   UNL A   1      31.412  32.488  26.730  1.00  0.00     0.023 C 
BRANCH  20  21
ATOM     21  C   UNL A   1      32.712  33.140  27.189  1.00  0.00     0.116 C 
BRANCH  21  22
ATOM     22  N   UNL A   1      32.511  34.410  27.868  1.00  0.00    -0.352 N 
ATOM     23  C   UNL A   1      33.187  34.933  28.946  1.00  0.00     0.251 C 
ATOM     24  H   UNL A   1      31.789  34.975  27.507  1.00  0.00     0.163 HD
ATOM     25  O   UNL A   1      32.803  35.986  29.447  1.00  0.00    -0.269 OA
BRANCH  23  26
ATOM     26  C   UNL A   1      34.339  34.205  29.520  1.00  0.00     0.039 A 
ATOM     27  C   UNL A   1      35.626  34.542  29.092  1.00  0.00     0.014 A 
ATOM     28  C   UNL A   1      34.161  33.211  30.485  1.00  0.00     0.014 A 
ATOM     29  C   UNL A   1      36.736  33.936  29.685  1.00  0.00     0.010 A 
ATOM     30  C   UNL A   1      35.268  32.655  31.121  1.00  0.00     0.010 A 
ATOM     31  C   UNL A   1      36.567  33.017  30.733  1.00  0.00    -0.014 A 
BRANCH  31  32
ATOM     32  C   UNL A   1      37.734  32.428  31.439  1.00  0.00     0.031 A 
ATOM     33  C   UNL A   1      38.492  31.286  30.820  1.00  0.00     0.074 A 
ATOM     34  C   UNL A   1      38.062  32.871  32.669  1.00  0.00     0.049 A 
ATOM     35  N   UNL A   1      39.473  30.576  31.316  1.00  0.00    -0.248 NA
ATOM     36  C   UNL A   1      38.066  30.869  29.475  1.00  0.00     0.031 C 
ATOM     37  C   UNL A   1      37.376  33.945  33.390  1.00  0.00     0.029 A 
ATOM     38  N   UNL A   1      39.047  32.467  33.535  1.00  0.00    -0.354 N 
ATOM     39  C   UNL A   1      39.773  29.619  30.352  1.00  0.00     0.074 A 
ATOM     40  C   UNL A   1      38.830  29.807  29.269  1.00  0.00     0.031 C 
ATOM     41  C   UNL A   1      37.971  34.125  34.581  1.00  0.00     0.029 A 
ATOM     42  C   UNL A   1      39.051  33.154  34.726  1.00  0.00     0.049 A 
ATOM     43  H   UNL A   1      39.689  31.752  33.324  1.00  0.00     0.167 HD
ATOM     44  C   UNL A   1      40.758  28.686  30.361  1.00  0.00     0.034 A 
ATOM     45  C   UNL A   1      39.828  33.010  35.819  1.00  0.00     0.034 A 
ATOM     46  C   UNL A   1      41.697  28.520  31.443  1.00  0.00     0.049 A 
ATOM     47  C   UNL A   1      40.904  31.954  35.813  1.00  0.00     0.074 A 
ATOM     48  C   UNL A   1      42.766  27.645  31.533  1.00  0.00     0.029 A 
ATOM     49  N   UNL A   1      41.678  29.240  32.631  1.00  0.00    -0.354 N 
ATOM     50  N   UNL A   1      41.206  31.087  34.874  1.00  0.00    -0.248 NA
ATOM     51  C   UNL A   1      41.750  31.867  37.010  1.00  0.00     0.031 C 
ATOM     52  C   UNL A   1      43.354  27.795  32.794  1.00  0.00     0.029 A 
ATOM     53  C   UNL A   1      42.697  28.812  33.468  1.00  0.00     0.049 A 
ATOM     54  H   UNL A   1      41.034  29.953  32.848  1.00  0.00     0.167 HD
ATOM     55  C   UNL A   1      42.296  30.371  35.358  1.00  0.00     0.074 A 
ATOM     56  C   UNL A   1      42.606  30.916  36.664  1.00  0.00     0.031 C 
ATOM     57  C   UNL A   1      42.985  29.357  34.773  1.00  0.00     0.034 A 
BRANCH  44  58
ATOM     58  C   UNL A   1      40.843  27.760  29.171  1.00  0.00     0.023 A 
ATOM     59  C   UNL A   1      41.769  27.974  28.135  1.00  0.00     0.031 A 
ATOM     60  C   UNL A   1      39.962  26.670  29.050  1.00  0.00     0.131 A 
ATOM     61  C   UNL A   1      41.742  27.163  26.991  1.00  0.00     0.055 A 
ATOM     62  C   UNL A   1      39.995  25.816  27.946  1.00  0.00     0.041 A 
ATOM     63  F   UNL A   1      39.044  26.426  29.998  1.00  0.00    -0.206 F 
ATOM     64  C   UNL A   1      40.877  26.070  26.899  1.00  0.00     0.022 A 
BRANCH  61  65
ATOM     65  S   UNL A   1      42.748  27.649  25.562  1.00  0.00     0.124 S 
ATOM     66  O   UNL A   1      44.037  27.926  26.191  1.00  0.00    -0.237 OA
ATOM     67  O   UNL A   1      42.690  26.462  24.718  1.00  0.00    -0.237 OA
ATOM     68  O   UNL A   1      42.054  28.823  25.037  1.00  0.00    -0.744 OA
ENDBRANCH  61  65
ENDBRANCH  44  58
BRANCH  45  69
ATOM     69  C   UNL A   1      39.617  33.874  37.013  1.00  0.00     0.023 A 
ATOM     70  C   UNL A   1      38.969  33.380  38.156  1.00  0.00     0.031 A 
ATOM     71  C   UNL A   1      40.024  35.219  37.015  1.00  0.00     0.131 A 
ATOM     72  C   UNL A   1      38.708  34.235  39.238  1.00  0.00     0.055 A 
ATOM     73  C   UNL A   1      39.805  36.054  38.111  1.00  0.00     0.041 A 
ATOM     74  F   UNL A   1      40.654  35.739  35.949  1.00  0.00    -0.206 F 
ATOM     75  C   UNL A   1      39.133  35.567  39.227  1.00  0.00     0.022 A 
BRANCH  72  76
ATOM     76  S   UNL A   1      37.737  33.601  40.632  1.00  0.00     0.124 S 
ATOM     77  O   UNL A   1      37.363  34.832  41.318  1.00  0.00    -0.237 OA
ATOM     78  O   UNL A   1      36.659  32.892  39.952  1.00  0.00    -0.237 OA
ATOM     79  O   UNL A   1      38.687  32.750  41.348  1.00  0.00    -0.744 OA
ENDBRANCH  72  76
ENDBRANCH  45  69
BRANCH  57  80
ATOM     80  C   UNL A   1      44.168  28.810  35.533  1.00  0.00     0.023 A 
ATOM     81  C   UNL A   1      44.038  27.739  36.434  1.00  0.00     0.031 A 
ATOM     82  C   UNL A   1      45.441  29.381  35.360  1.00  0.00     0.131 A 
ATOM     83  C   UNL A   1      45.152  27.308  37.172  1.00  0.00     0.055 A 
ATOM     84  C   UNL A   1      46.557  28.911  36.055  1.00  0.00     0.041 A 
ATOM     85  F   UNL A   1      45.621  30.407  34.513  1.00  0.00    -0.206 F 
ATOM     86  C   UNL A   1      46.413  27.877  36.976  1.00  0.00     0.022 A 
BRANCH  83  87
ATOM     87  S   UNL A   1      44.914  26.046  38.453  1.00  0.00     0.124 S 
ATOM     88  O   UNL A   1      44.132  25.037  37.745  1.00  0.00    -0.237 OA
ATOM     89  O   UNL A   1      46.286  25.674  38.783  1.00  0.00    -0.237 OA
ATOM     90  O   UNL A   1      44.196  26.760  39.508  1.00  0.00    -0.744 OA
ENDBRANCH  83  87
ENDBRANCH  57  80
ENDBRANCH  31  32
ENDBRANCH  23  26
ENDBRANCH  21  22
ENDBRANCH  20  21
ENDBRANCH   1  20
TORSDOF 18
ENDMDL
