MODEL 1
REMARK VINA RESULT:     -11.1      0.000      0.000
REMARK SMILES CC[C@](C)(NC(=O)[C@](C)([NH3+])c1ccccc1)C(=O)NCCCCNC(=O)c1ccc(-c2c3nc(c(-c4cc(S(=O)(=O)[O-])ccc4F)c4ccc([nH]4)c(-c4cc(S(=O)(=O)[O-])ccc4F)c4nc(c(-c5cc(S(=O)(=O)[O-])ccc5F)c5ccc2[nH]5)C=C4)C=C3)cc1
REMARK SMILES IDX 21 1 20 2 19 3 17 4 18 5 3 7 4 8 2 9 1 10 5 11 6 12 7 14
REMARK SMILES IDX 8 15 9 16 10 17 11 21 12 22 16 23 13 24 15 25 14 26 22 27
REMARK SMILES IDX 23 28 24 29 25 30 26 32 27 33 28 34 89 35 29 36 88 37 30 38
REMARK SMILES IDX 31 39 32 40 82 41 33 42 87 43 81 44 83 45 34 46 86 47 80 48
REMARK SMILES IDX 79 49 35 51 67 52 47 53 66 54 48 55 51 56 65 57 84 58 49 59
REMARK SMILES IDX 50 60 64 62 85 63 52 64 36 65 37 66 45 67 38 68 44 69 46 70
REMARK SMILES IDX 43 71 39 72 40 73 41 74 42 75 68 76 69 77 77 78 70 79 76 80
REMARK SMILES IDX 78 81 75 82 71 83 72 84 73 85 74 86 53 87 54 88 62 89 55 90
REMARK SMILES IDX 61 91 63 92 60 93 56 94 57 95 58 96 59 97
REMARK H PARENT 19 6 5 13 10 18 10 19 10 20 24 31 83 50 51 61
REMARK Flexibility Score: inf
ROOT
ATOM      1  C   UNL A   1      32.927  29.071  24.457  1.00  0.00     0.023 C 
ENDROOT
BRANCH   1   2
ATOM      2  C   UNL A   1      31.998  27.951  23.990  1.00  0.00     0.116 C 
BRANCH   2   3
ATOM      3  N   UNL A   1      31.020  27.446  24.951  1.00  0.00    -0.354 N 
ATOM      4  C   UNL A   1      30.978  26.291  25.705  1.00  0.00     0.245 C 
ATOM      5  O   UNL A   1      30.320  26.322  26.748  1.00  0.00    -0.272 OA
ATOM      6  H   UNL A   1      30.246  28.040  25.085  1.00  0.00     0.163 HD
BRANCH   4   7
ATOM      7  C   UNL A   1      31.891  25.100  25.378  1.00  0.00     0.116 C 
ATOM      8  C   UNL A   1      33.348  25.393  24.969  1.00  0.00     0.045 C 
BRANCH   7   9
ATOM      9  C   UNL A   1      31.186  24.433  24.129  1.00  0.00     0.035 C 
ATOM     10  C   UNL A   1      32.129  24.212  22.931  1.00  0.00     0.007 C 
ENDBRANCH   7   9
BRANCH   7  11
ATOM     11  N   UNL A   1      31.928  24.228  26.568  1.00  0.00    -0.336 N 
ATOM     12  C   UNL A   1      32.376  22.981  26.858  1.00  0.00     0.286 C 
ATOM     13  H   UNL A   1      31.526  24.663  27.354  1.00  0.00     0.164 HD
ATOM     14  O   UNL A   1      31.933  22.636  27.980  1.00  0.00    -0.267 OA
BRANCH  12  15
ATOM     15  C   UNL A   1      33.418  21.960  26.159  1.00  0.00     0.196 C 
ATOM     16  C   UNL A   1      32.550  21.168  25.139  1.00  0.00     0.096 C 
BRANCH  15  17
ATOM     17  N   UNL A   1      33.707  20.934  27.210  1.00  0.00    -0.341 N 
ATOM     18  H   UNL A   1      34.465  21.264  27.808  1.00  0.00     0.345 HD
ATOM     19  H   UNL A   1      33.982  20.059  26.764  1.00  0.00     0.345 HD
ATOM     20  H   UNL A   1      32.871  20.781  27.774  1.00  0.00     0.345 HD
ENDBRANCH  15  17
BRANCH  15  21
ATOM     21  C   UNL A   1      34.768  22.357  25.508  1.00  0.00     0.022 A 
ATOM     22  C   UNL A   1      35.012  22.227  24.134  1.00  0.00     0.011 A 
ATOM     23  C   UNL A   1      35.753  23.104  26.196  1.00  0.00     0.011 A 
ATOM     24  C   UNL A   1      36.237  22.582  23.536  1.00  0.00     0.001 A 
ATOM     25  C   UNL A   1      36.945  23.542  25.593  1.00  0.00     0.001 A 
ATOM     26  C   UNL A   1      37.217  23.224  24.274  1.00  0.00     0.000 A 
ENDBRANCH  15  21
ENDBRANCH  12  15
ENDBRANCH   7  11
ENDBRANCH   4   7
ENDBRANCH   2   3
ENDBRANCH   1   2
BRANCH   1  27
ATOM     27  C   UNL A   1      33.820  28.786  25.658  1.00  0.00     0.023 C 
BRANCH  27  28
ATOM     28  C   UNL A   1      33.289  29.247  27.001  1.00  0.00     0.116 C 
BRANCH  28  29
ATOM     29  N   UNL A   1      33.411  30.679  27.181  1.00  0.00    -0.352 N 
ATOM     30  C   UNL A   1      34.364  31.419  27.839  1.00  0.00     0.251 C 
ATOM     31  H   UNL A   1      32.695  31.209  26.763  1.00  0.00     0.163 HD
ATOM     32  O   UNL A   1      34.134  32.610  28.044  1.00  0.00    -0.269 OA
BRANCH  30  33
ATOM     33  C   UNL A   1      35.635  30.818  28.319  1.00  0.00     0.039 A 
ATOM     34  C   UNL A   1      35.582  29.912  29.384  1.00  0.00     0.014 A 
ATOM     35  C   UNL A   1      36.879  31.178  27.796  1.00  0.00     0.014 A 
ATOM     36  C   UNL A   1      36.758  29.346  29.888  1.00  0.00     0.010 A 
ATOM     37  C   UNL A   1      38.040  30.536  28.228  1.00  0.00     0.010 A 
ATOM     38  C   UNL A   1      37.999  29.631  29.298  1.00  0.00    -0.014 A 
BRANCH  38  39
ATOM     39  C   UNL A   1      39.262  29.038  29.820  1.00  0.00     0.031 A 
ATOM     40  C   UNL A   1      39.933  29.638  31.032  1.00  0.00     0.074 A 
ATOM     41  C   UNL A   1      39.829  27.992  29.188  1.00  0.00     0.049 A 
ATOM     42  N   UNL A   1      41.070  29.316  31.596  1.00  0.00    -0.248 NA
ATOM     43  C   UNL A   1      39.245  30.767  31.676  1.00  0.00     0.031 C 
ATOM     44  C   UNL A   1      39.299  27.343  27.987  1.00  0.00     0.029 A 
ATOM     45  N   UNL A   1      40.979  27.292  29.461  1.00  0.00    -0.354 N 
ATOM     46  C   UNL A   1      41.240  30.212  32.648  1.00  0.00     0.074 A 
ATOM     47  C   UNL A   1      40.123  31.130  32.598  1.00  0.00     0.031 C 
ATOM     48  C   UNL A   1      40.107  26.327  27.643  1.00  0.00     0.029 A 
ATOM     49  C   UNL A   1      41.238  26.280  28.564  1.00  0.00     0.049 A 
ATOM     50  H   UNL A   1      41.563  27.494  30.227  1.00  0.00     0.167 HD
ATOM     51  C   UNL A   1      42.219  30.249  33.586  1.00  0.00     0.034 A 
ATOM     52  C   UNL A   1      42.276  25.423  28.482  1.00  0.00     0.034 A 
ATOM     53  C   UNL A   1      43.321  29.317  33.633  1.00  0.00     0.049 A 
ATOM     54  C   UNL A   1      43.369  25.500  29.518  1.00  0.00     0.074 A 
ATOM     55  C   UNL A   1      44.343  29.236  34.562  1.00  0.00     0.029 A 
ATOM     56  N   UNL A   1      43.547  28.306  32.707  1.00  0.00    -0.354 N 
ATOM     57  N   UNL A   1      43.491  26.327  30.531  1.00  0.00    -0.248 NA
ATOM     58  C   UNL A   1      44.457  24.519  29.408  1.00  0.00     0.031 C 
ATOM     59  C   UNL A   1      45.222  28.224  34.163  1.00  0.00     0.029 A 
ATOM     60  C   UNL A   1      44.707  27.617  33.028  1.00  0.00     0.049 A 
ATOM     61  H   UNL A   1      42.969  28.108  31.935  1.00  0.00     0.167 HD
ATOM     62  C   UNL A   1      44.656  25.945  31.194  1.00  0.00     0.074 A 
ATOM     63  C   UNL A   1      45.185  24.804  30.477  1.00  0.00     0.031 C 
ATOM     64  C   UNL A   1      45.231  26.486  32.298  1.00  0.00     0.034 A 
BRANCH  51  65
ATOM     65  C   UNL A   1      42.151  31.349  34.621  1.00  0.00     0.023 A 
ATOM     66  C   UNL A   1      41.144  31.379  35.603  1.00  0.00     0.031 A 
ATOM     67  C   UNL A   1      43.088  32.398  34.614  1.00  0.00     0.131 A 
ATOM     68  C   UNL A   1      41.047  32.471  36.478  1.00  0.00     0.055 A 
ATOM     69  C   UNL A   1      43.039  33.438  35.544  1.00  0.00     0.041 A 
ATOM     70  F   UNL A   1      44.061  32.438  33.691  1.00  0.00    -0.206 F 
ATOM     71  C   UNL A   1      42.004  33.489  36.474  1.00  0.00     0.022 A 
BRANCH  68  72
ATOM     72  S   UNL A   1      39.570  32.626  37.520  1.00  0.00     0.124 S 
ATOM     73  O   UNL A   1      39.006  33.889  37.041  1.00  0.00    -0.237 OA
ATOM     74  O   UNL A   1      38.813  31.422  37.170  1.00  0.00    -0.237 OA
ATOM     75  O   UNL A   1      40.099  32.659  38.872  1.00  0.00    -0.744 OA
ENDBRANCH  68  72
ENDBRANCH  51  65
BRANCH  52  76
ATOM     76  C   UNL A   1      42.347  24.428  27.372  1.00  0.00     0.023 A 
ATOM     77  C   UNL A   1      41.574  23.255  27.396  1.00  0.00     0.031 A 
ATOM     78  C   UNL A   1      43.224  24.616  26.288  1.00  0.00     0.131 A 
ATOM     79  C   UNL A   1      41.729  22.294  26.384  1.00  0.00     0.055 A 
ATOM     80  C   UNL A   1      43.332  23.683  25.254  1.00  0.00     0.041 A 
ATOM     81  F   UNL A   1      43.984  25.719  26.213  1.00  0.00    -0.206 F 
ATOM     82  C   UNL A   1      42.591  22.507  25.306  1.00  0.00     0.022 A 
BRANCH  79  83
ATOM     83  S   UNL A   1      40.851  20.714  26.546  1.00  0.00     0.124 S 
ATOM     84  O   UNL A   1      41.687  19.827  25.746  1.00  0.00    -0.237 OA
ATOM     85  O   UNL A   1      40.880  20.497  27.988  1.00  0.00    -0.237 OA
ATOM     86  O   UNL A   1      39.531  21.000  25.987  1.00  0.00    -0.744 OA
ENDBRANCH  79  83
ENDBRANCH  52  76
BRANCH  64  87
ATOM     87  C   UNL A   1      46.477  25.813  32.824  1.00  0.00     0.023 A 
ATOM     88  C   UNL A   1      47.749  26.088  32.292  1.00  0.00     0.031 A 
ATOM     89  C   UNL A   1      46.385  24.874  33.866  1.00  0.00     0.131 A 
ATOM     90  C   UNL A   1      48.871  25.390  32.766  1.00  0.00     0.055 A 
ATOM     91  C   UNL A   1      47.512  24.228  34.377  1.00  0.00     0.041 A 
ATOM     92  F   UNL A   1      45.195  24.569  34.409  1.00  0.00    -0.206 F 
ATOM     93  C   UNL A   1      48.762  24.476  33.817  1.00  0.00     0.022 A 
BRANCH  90  94
ATOM     94  S   UNL A   1      50.461  25.622  31.926  1.00  0.00     0.124 S 
ATOM     95  O   UNL A   1      50.259  26.892  31.238  1.00  0.00    -0.237 OA
ATOM     96  O   UNL A   1      51.402  25.644  33.041  1.00  0.00    -0.237 OA
ATOM     97  O   UNL A   1      50.563  24.452  31.054  1.00  0.00    -0.744 OA
ENDBRANCH  90  94
ENDBRANCH  64  87
ENDBRANCH  38  39
ENDBRANCH  30  33
ENDBRANCH  28  29
ENDBRANCH  27  28
ENDBRANCH   1  27
TORSDOF 19
ENDMDL
MODEL 2
REMARK VINA RESULT:     -10.9      4.709      7.595
REMARK SMILES CC[C@](C)(NC(=O)[C@](C)([NH3+])c1ccccc1)C(=O)NCCCCNC(=O)c1ccc(-c2c3nc(c(-c4cc(S(=O)(=O)[O-])ccc4F)c4ccc([nH]4)c(-c4cc(S(=O)(=O)[O-])ccc4F)c4nc(c(-c5cc(S(=O)(=O)[O-])ccc5F)c5ccc2[nH]5)C=C4)C=C3)cc1
REMARK SMILES IDX 21 1 20 2 19 3 17 4 18 5 3 7 4 8 2 9 1 10 5 11 6 12 7 14
REMARK SMILES IDX 8 15 9 16 10 17 11 21 12 22 16 23 13 24 15 25 14 26 22 27
REMARK SMILES IDX 23 28 24 29 25 30 26 32 27 33 28 34 89 35 29 36 88 37 30 38
REMARK SMILES IDX 31 39 32 40 82 41 33 42 87 43 81 44 83 45 34 46 86 47 80 48
REMARK SMILES IDX 79 49 35 51 67 52 47 53 66 54 48 55 51 56 65 57 84 58 49 59
REMARK SMILES IDX 50 60 64 62 85 63 52 64 36 65 37 66 45 67 38 68 44 69 46 70
REMARK SMILES IDX 43 71 39 72 40 73 41 74 42 75 68 76 69 77 77 78 70 79 76 80
REMARK SMILES IDX 78 81 75 82 71 83 72 84 73 85 74 86 53 87 54 88 62 89 55 90
REMARK SMILES IDX 61 91 63 92 60 93 56 94 57 95 58 96 59 97
REMARK H PARENT 19 6 5 13 10 18 10 19 10 20 24 31 83 50 51 61
REMARK Flexibility Score: inf
ROOT
ATOM      1  C   UNL A   1      34.823  23.790  24.382  1.00  0.00     0.023 C 
ENDROOT
BRANCH   1   2
ATOM      2  C   UNL A   1      34.758  24.902  25.429  1.00  0.00     0.116 C 
BRANCH   2   3
ATOM      3  N   UNL A   1      33.487  25.099  26.121  1.00  0.00    -0.354 N 
ATOM      4  C   UNL A   1      32.599  26.155  26.136  1.00  0.00     0.245 C 
ATOM      5  O   UNL A   1      31.421  25.899  26.403  1.00  0.00    -0.272 OA
ATOM      6  H   UNL A   1      33.213  24.338  26.682  1.00  0.00     0.163 HD
BRANCH   4   7
ATOM      7  C   UNL A   1      33.011  27.543  25.623  1.00  0.00     0.116 C 
ATOM      8  C   UNL A   1      34.089  28.316  26.408  1.00  0.00     0.045 C 
BRANCH   7   9
ATOM      9  C   UNL A   1      31.674  28.381  25.725  1.00  0.00     0.035 C 
ATOM     10  C   UNL A   1      31.888  29.903  25.607  1.00  0.00     0.007 C 
ENDBRANCH   7   9
BRANCH   7  11
ATOM     11  N   UNL A   1      33.499  27.378  24.239  1.00  0.00    -0.336 N 
ATOM     12  C   UNL A   1      33.014  26.863  23.083  1.00  0.00     0.286 C 
ATOM     13  H   UNL A   1      34.410  27.734  24.127  1.00  0.00     0.164 HD
ATOM     14  O   UNL A   1      33.950  26.761  22.254  1.00  0.00    -0.267 OA
BRANCH  12  15
ATOM     15  C   UNL A   1      31.535  26.505  22.534  1.00  0.00     0.196 C 
ATOM     16  C   UNL A   1      31.255  25.080  23.094  1.00  0.00     0.096 C 
BRANCH  15  17
ATOM     17  N   UNL A   1      31.725  26.250  21.071  1.00  0.00    -0.341 N 
ATOM     18  H   UNL A   1      31.619  27.124  20.557  1.00  0.00     0.345 HD
ATOM     19  H   UNL A   1      31.026  25.580  20.750  1.00  0.00     0.345 HD
ATOM     20  H   UNL A   1      32.658  25.871  20.910  1.00  0.00     0.345 HD
ENDBRANCH  15  17
BRANCH  15  21
ATOM     21  C   UNL A   1      30.275  27.393  22.695  1.00  0.00     0.022 A 
ATOM     22  C   UNL A   1      29.142  26.977  23.408  1.00  0.00     0.011 A 
ATOM     23  C   UNL A   1      30.265  28.767  22.358  1.00  0.00     0.011 A 
ATOM     24  C   UNL A   1      27.993  27.777  23.557  1.00  0.00     0.001 A 
ATOM     25  C   UNL A   1      29.157  29.604  22.576  1.00  0.00     0.001 A 
ATOM     26  C   UNL A   1      27.992  29.090  23.119  1.00  0.00     0.000 A 
ENDBRANCH  15  21
ENDBRANCH  12  15
ENDBRANCH   7  11
ENDBRANCH   4   7
ENDBRANCH   2   3
ENDBRANCH   1   2
BRANCH   1  27
ATOM     27  C   UNL A   1      34.825  22.352  24.886  1.00  0.00     0.023 C 
BRANCH  27  28
ATOM     28  C   UNL A   1      35.703  22.076  26.093  1.00  0.00     0.116 C 
BRANCH  28  29
ATOM     29  N   UNL A   1      36.669  21.026  25.844  1.00  0.00    -0.352 N 
ATOM     30  C   UNL A   1      38.040  21.073  25.765  1.00  0.00     0.251 C 
ATOM     31  H   UNL A   1      36.280  20.132  25.709  1.00  0.00     0.163 HD
ATOM     32  O   UNL A   1      38.630  20.089  25.323  1.00  0.00    -0.269 OA
BRANCH  30  33
ATOM     33  C   UNL A   1      38.811  22.275  26.175  1.00  0.00     0.039 A 
ATOM     34  C   UNL A   1      38.340  23.534  25.783  1.00  0.00     0.014 A 
ATOM     35  C   UNL A   1      40.020  22.189  26.870  1.00  0.00     0.014 A 
ATOM     36  C   UNL A   1      39.052  24.689  26.122  1.00  0.00     0.010 A 
ATOM     37  C   UNL A   1      40.674  23.346  27.296  1.00  0.00     0.010 A 
ATOM     38  C   UNL A   1      40.214  24.611  26.905  1.00  0.00    -0.014 A 
BRANCH  38  39
ATOM     39  C   UNL A   1      40.986  25.831  27.275  1.00  0.00     0.031 A 
ATOM     40  C   UNL A   1      40.335  26.915  28.098  1.00  0.00     0.074 A 
ATOM     41  C   UNL A   1      42.252  25.986  26.840  1.00  0.00     0.049 A 
ATOM     42  N   UNL A   1      40.809  28.080  28.460  1.00  0.00    -0.248 NA
ATOM     43  C   UNL A   1      38.957  26.666  28.546  1.00  0.00     0.031 C 
ATOM     44  C   UNL A   1      42.984  25.027  26.010  1.00  0.00     0.029 A 
ATOM     45  N   UNL A   1      43.149  27.009  27.030  1.00  0.00    -0.354 N 
ATOM     46  C   UNL A   1      39.784  28.706  29.165  1.00  0.00     0.074 A 
ATOM     47  C   UNL A   1      38.643  27.819  29.117  1.00  0.00     0.031 C 
ATOM     48  C   UNL A   1      44.222  25.495  25.783  1.00  0.00     0.029 A 
ATOM     49  C   UNL A   1      44.360  26.807  26.408  1.00  0.00     0.049 A 
ATOM     50  H   UNL A   1      42.945  27.811  27.563  1.00  0.00     0.167 HD
ATOM     51  C   UNL A   1      39.801  29.897  29.815  1.00  0.00     0.034 A 
ATOM     52  C   UNL A   1      45.451  27.596  26.333  1.00  0.00     0.034 A 
ATOM     53  C   UNL A   1      40.952  30.766  29.867  1.00  0.00     0.049 A 
ATOM     54  C   UNL A   1      45.439  28.928  27.039  1.00  0.00     0.074 A 
ATOM     55  C   UNL A   1      41.093  31.972  30.532  1.00  0.00     0.029 A 
ATOM     56  N   UNL A   1      42.160  30.526  29.224  1.00  0.00    -0.354 N 
ATOM     57  N   UNL A   1      44.474  29.485  27.736  1.00  0.00    -0.248 NA
ATOM     58  C   UNL A   1      46.665  29.732  26.961  1.00  0.00     0.031 C 
ATOM     59  C   UNL A   1      42.357  32.492  30.237  1.00  0.00     0.029 A 
ATOM     60  C   UNL A   1      43.039  31.574  29.454  1.00  0.00     0.049 A 
ATOM     61  H   UNL A   1      42.363  29.729  28.683  1.00  0.00     0.167 HD
ATOM     62  C   UNL A   1      44.992  30.692  28.202  1.00  0.00     0.074 A 
ATOM     63  C   UNL A   1      46.356  30.770  27.723  1.00  0.00     0.031 C 
ATOM     64  C   UNL A   1      44.395  31.646  28.961  1.00  0.00     0.034 A 
BRANCH  51  65
ATOM     65  C   UNL A   1      38.526  30.333  30.501  1.00  0.00     0.023 A 
ATOM     66  C   UNL A   1      37.586  31.159  29.860  1.00  0.00     0.031 A 
ATOM     67  C   UNL A   1      38.256  29.940  31.825  1.00  0.00     0.131 A 
ATOM     68  C   UNL A   1      36.468  31.631  30.564  1.00  0.00     0.055 A 
ATOM     69  C   UNL A   1      37.097  30.343  32.492  1.00  0.00     0.041 A 
ATOM     70  F   UNL A   1      39.123  29.169  32.499  1.00  0.00    -0.206 F 
ATOM     71  C   UNL A   1      36.203  31.207  31.868  1.00  0.00     0.022 A 
BRANCH  68  72
ATOM     72  S   UNL A   1      35.447  32.928  29.811  1.00  0.00     0.124 S 
ATOM     73  O   UNL A   1      34.796  33.507  30.987  1.00  0.00    -0.237 OA
ATOM     74  O   UNL A   1      36.448  33.776  29.160  1.00  0.00    -0.237 OA
ATOM     75  O   UNL A   1      34.567  32.201  28.913  1.00  0.00    -0.744 OA
ENDBRANCH  68  72
ENDBRANCH  51  65
BRANCH  52  76
ATOM     76  C   UNL A   1      46.644  27.161  25.548  1.00  0.00     0.023 A 
ATOM     77  C   UNL A   1      46.931  27.720  24.292  1.00  0.00     0.031 A 
ATOM     78  C   UNL A   1      47.494  26.147  26.026  1.00  0.00     0.131 A 
ATOM     79  C   UNL A   1      48.007  27.228  23.536  1.00  0.00     0.055 A 
ATOM     80  C   UNL A   1      48.597  25.701  25.296  1.00  0.00     0.041 A 
ATOM     81  F   UNL A   1      47.268  25.579  27.222  1.00  0.00    -0.206 F 
ATOM     82  C   UNL A   1      48.851  26.233  24.036  1.00  0.00     0.022 A 
BRANCH  79  83
ATOM     83  S   UNL A   1      48.235  27.846  21.846  1.00  0.00     0.124 S 
ATOM     84  O   UNL A   1      49.493  28.575  21.963  1.00  0.00    -0.237 OA
ATOM     85  O   UNL A   1      48.279  26.609  21.074  1.00  0.00    -0.237 OA
ATOM     86  O   UNL A   1      47.052  28.675  21.624  1.00  0.00    -0.744 OA
ENDBRANCH  79  83
ENDBRANCH  52  76
BRANCH  64  87
ATOM     87  C   UNL A   1      45.237  32.835  29.359  1.00  0.00     0.023 A 
ATOM     88  C   UNL A   1      45.238  34.026  28.613  1.00  0.00     0.031 A 
ATOM     89  C   UNL A   1      46.058  32.768  30.499  1.00  0.00     0.131 A 
ATOM     90  C   UNL A   1      46.086  35.081  28.981  1.00  0.00     0.055 A 
ATOM     91  C   UNL A   1      46.853  33.844  30.897  1.00  0.00     0.041 A 
ATOM     92  F   UNL A   1      46.099  31.654  31.247  1.00  0.00    -0.206 F 
ATOM     93  C   UNL A   1      46.880  35.004  30.129  1.00  0.00     0.022 A 
BRANCH  90  94
ATOM     94  S   UNL A   1      46.213  36.523  27.888  1.00  0.00     0.124 S 
ATOM     95  O   UNL A   1      47.570  36.392  27.369  1.00  0.00    -0.237 OA
ATOM     96  O   UNL A   1      45.139  36.282  26.930  1.00  0.00    -0.237 OA
ATOM     97  O   UNL A   1      45.998  37.656  28.787  1.00  0.00    -0.744 OA
ENDBRANCH  90  94
ENDBRANCH  64  87
ENDBRANCH  38  39
ENDBRANCH  30  33
ENDBRANCH  28  29
ENDBRANCH  27  28
ENDBRANCH   1  27
TORSDOF 19
ENDMDL
MODEL 3
REMARK VINA RESULT:     -10.9      1.360      1.686
REMARK SMILES CC[C@](C)(NC(=O)[C@](C)([NH3+])c1ccccc1)C(=O)NCCCCNC(=O)c1ccc(-c2c3nc(c(-c4cc(S(=O)(=O)[O-])ccc4F)c4ccc([nH]4)c(-c4cc(S(=O)(=O)[O-])ccc4F)c4nc(c(-c5cc(S(=O)(=O)[O-])ccc5F)c5ccc2[nH]5)C=C4)C=C3)cc1
REMARK SMILES IDX 21 1 20 2 19 3 17 4 18 5 3 7 4 8 2 9 1 10 5 11 6 12 7 14
REMARK SMILES IDX 8 15 9 16 10 17 11 21 12 22 16 23 13 24 15 25 14 26 22 27
REMARK SMILES IDX 23 28 24 29 25 30 26 32 27 33 28 34 89 35 29 36 88 37 30 38
REMARK SMILES IDX 31 39 32 40 82 41 33 42 87 43 81 44 83 45 34 46 86 47 80 48
REMARK SMILES IDX 79 49 35 51 67 52 47 53 66 54 48 55 51 56 65 57 84 58 49 59
REMARK SMILES IDX 50 60 64 62 85 63 52 64 36 65 37 66 45 67 38 68 44 69 46 70
REMARK SMILES IDX 43 71 39 72 40 73 41 74 42 75 68 76 69 77 77 78 70 79 76 80
REMARK SMILES IDX 78 81 75 82 71 83 72 84 73 85 74 86 53 87 54 88 62 89 55 90
REMARK SMILES IDX 61 91 63 92 60 93 56 94 57 95 58 96 59 97
REMARK H PARENT 19 6 5 13 10 18 10 19 10 20 24 31 83 50 51 61
REMARK Flexibility Score: inf
ROOT
ATOM      1  C   UNL A   1      32.858  29.229  24.306  1.00  0.00     0.023 C 
ENDROOT
BRANCH   1   2
ATOM      2  C   UNL A   1      32.174  28.035  23.639  1.00  0.00     0.116 C 
BRANCH   2   3
ATOM      3  N   UNL A   1      31.069  27.407  24.359  1.00  0.00    -0.354 N 
ATOM      4  C   UNL A   1      31.014  26.303  25.184  1.00  0.00     0.245 C 
ATOM      5  O   UNL A   1      30.101  26.263  26.013  1.00  0.00    -0.272 OA
ATOM      6  H   UNL A   1      30.201  27.854  24.230  1.00  0.00     0.163 HD
BRANCH   4   7
ATOM      7  C   UNL A   1      32.164  25.285  25.220  1.00  0.00     0.116 C 
ATOM      8  C   UNL A   1      33.602  25.820  25.364  1.00  0.00     0.045 C 
BRANCH   7   9
ATOM      9  C   UNL A   1      32.071  24.581  23.807  1.00  0.00     0.035 C 
ATOM     10  C   UNL A   1      30.708  23.915  23.536  1.00  0.00     0.007 C 
ENDBRANCH   7   9
BRANCH   7  11
ATOM     11  N   UNL A   1      31.913  24.371  26.352  1.00  0.00    -0.336 N 
ATOM     12  C   UNL A   1      32.233  23.092  26.670  1.00  0.00     0.286 C 
ATOM     13  H   UNL A   1      31.377  24.799  27.057  1.00  0.00     0.164 HD
ATOM     14  O   UNL A   1      31.552  22.732  27.660  1.00  0.00    -0.267 OA
BRANCH  12  15
ATOM     15  C   UNL A   1      33.349  22.041  26.154  1.00  0.00     0.196 C 
ATOM     16  C   UNL A   1      32.564  21.080  25.215  1.00  0.00     0.096 C 
BRANCH  15  17
ATOM     17  N   UNL A   1      33.634  21.176  27.342  1.00  0.00    -0.341 N 
ATOM     18  H   UNL A   1      32.890  21.289  28.031  1.00  0.00     0.345 HD
ATOM     19  H   UNL A   1      34.525  21.450  27.756  1.00  0.00     0.345 HD
ATOM     20  H   UNL A   1      33.681  20.200  27.049  1.00  0.00     0.345 HD
ENDBRANCH  15  17
BRANCH  15  21
ATOM     21  C   UNL A   1      34.708  22.415  25.510  1.00  0.00     0.022 A 
ATOM     22  C   UNL A   1      34.937  22.342  24.129  1.00  0.00     0.011 A 
ATOM     23  C   UNL A   1      35.728  23.089  26.223  1.00  0.00     0.011 A 
ATOM     24  C   UNL A   1      36.170  22.678  23.537  1.00  0.00     0.001 A 
ATOM     25  C   UNL A   1      36.932  23.507  25.632  1.00  0.00     0.001 A 
ATOM     26  C   UNL A   1      37.181  23.243  24.296  1.00  0.00     0.000 A 
ENDBRANCH  15  21
ENDBRANCH  12  15
ENDBRANCH   7  11
ENDBRANCH   4   7
ENDBRANCH   2   3
ENDBRANCH   1   2
BRANCH   1  27
ATOM     27  C   UNL A   1      32.564  29.470  25.782  1.00  0.00     0.023 C 
BRANCH  27  28
ATOM     28  C   UNL A   1      33.768  29.764  26.656  1.00  0.00     0.116 C 
BRANCH  28  29
ATOM     29  N   UNL A   1      33.739  31.104  27.204  1.00  0.00    -0.352 N 
ATOM     30  C   UNL A   1      34.518  31.692  28.171  1.00  0.00     0.251 C 
ATOM     31  H   UNL A   1      33.048  31.690  26.820  1.00  0.00     0.163 HD
ATOM     32  O   UNL A   1      34.158  32.777  28.626  1.00  0.00    -0.269 OA
BRANCH  30  33
ATOM     33  C   UNL A   1      35.753  31.047  28.687  1.00  0.00     0.039 A 
ATOM     34  C   UNL A   1      36.988  31.616  28.359  1.00  0.00     0.014 A 
ATOM     35  C   UNL A   1      35.726  29.860  29.423  1.00  0.00     0.014 A 
ATOM     36  C   UNL A   1      38.176  31.023  28.799  1.00  0.00     0.010 A 
ATOM     37  C   UNL A   1      36.903  29.327  29.948  1.00  0.00     0.010 A 
ATOM     38  C   UNL A   1      38.147  29.886  29.621  1.00  0.00    -0.014 A 
BRANCH  38  39
ATOM     39  C   UNL A   1      39.402  29.240  30.099  1.00  0.00     0.031 A 
ATOM     40  C   UNL A   1      40.110  29.776  31.320  1.00  0.00     0.074 A 
ATOM     41  C   UNL A   1      39.929  28.203  29.419  1.00  0.00     0.049 A 
ATOM     42  N   UNL A   1      41.247  29.404  31.851  1.00  0.00    -0.248 NA
ATOM     43  C   UNL A   1      39.465  30.899  32.016  1.00  0.00     0.031 C 
ATOM     44  C   UNL A   1      39.360  27.612  28.206  1.00  0.00     0.029 A 
ATOM     45  N   UNL A   1      41.063  27.462  29.646  1.00  0.00    -0.354 N 
ATOM     46  C   UNL A   1      41.459  30.255  32.932  1.00  0.00     0.074 A 
ATOM     47  C   UNL A   1      40.368  31.204  32.935  1.00  0.00     0.031 C 
ATOM     48  C   UNL A   1      40.134  26.589  27.810  1.00  0.00     0.029 A 
ATOM     49  C   UNL A   1      41.279  26.477  28.709  1.00  0.00     0.049 A 
ATOM     50  H   UNL A   1      41.666  27.620  30.408  1.00  0.00     0.167 HD
ATOM     51  C   UNL A   1      42.455  30.232  33.852  1.00  0.00     0.034 A 
ATOM     52  C   UNL A   1      42.291  25.596  28.577  1.00  0.00     0.034 A 
ATOM     53  C   UNL A   1      43.531  29.269  33.845  1.00  0.00     0.049 A 
ATOM     54  C   UNL A   1      43.404  25.605  29.595  1.00  0.00     0.074 A 
ATOM     55  C   UNL A   1      44.566  29.126  34.753  1.00  0.00     0.029 A 
ATOM     56  N   UNL A   1      43.714  28.287  32.879  1.00  0.00    -0.354 N 
ATOM     57  N   UNL A   1      43.566  26.391  30.635  1.00  0.00    -0.248 NA
ATOM     58  C   UNL A   1      44.462  24.600  29.430  1.00  0.00     0.031 C 
ATOM     59  C   UNL A   1      45.410  28.106  34.301  1.00  0.00     0.029 A 
ATOM     60  C   UNL A   1      44.860  27.555  33.154  1.00  0.00     0.049 A 
ATOM     61  H   UNL A   1      43.117  28.133  32.111  1.00  0.00     0.167 HD
ATOM     62  C   UNL A   1      44.730  25.953  31.262  1.00  0.00     0.074 A 
ATOM     63  C   UNL A   1      45.215  24.825  30.495  1.00  0.00     0.031 C 
ATOM     64  C   UNL A   1      45.340  26.438  32.375  1.00  0.00     0.034 A 
BRANCH  51  65
ATOM     65  C   UNL A   1      42.435  31.294  34.928  1.00  0.00     0.023 A 
ATOM     66  C   UNL A   1      42.930  32.590  34.697  1.00  0.00     0.031 A 
ATOM     67  C   UNL A   1      41.937  31.003  36.211  1.00  0.00     0.131 A 
ATOM     68  C   UNL A   1      42.994  33.516  35.749  1.00  0.00     0.055 A 
ATOM     69  C   UNL A   1      41.923  31.957  37.231  1.00  0.00     0.041 A 
ATOM     70  F   UNL A   1      41.468  29.780  36.501  1.00  0.00    -0.206 F 
ATOM     71  C   UNL A   1      42.469  33.218  37.009  1.00  0.00     0.022 A 
BRANCH  68  72
ATOM     72  S   UNL A   1      43.912  35.060  35.497  1.00  0.00     0.124 S 
ATOM     73  O   UNL A   1      43.672  35.754  36.763  1.00  0.00    -0.237 OA
ATOM     74  O   UNL A   1      45.280  34.580  35.287  1.00  0.00    -0.237 OA
ATOM     75  O   UNL A   1      43.276  35.658  34.335  1.00  0.00    -0.744 OA
ENDBRANCH  68  72
ENDBRANCH  51  65
BRANCH  52  76
ATOM     76  C   UNL A   1      42.316  24.640  27.431  1.00  0.00     0.023 A 
ATOM     77  C   UNL A   1      41.572  23.450  27.460  1.00  0.00     0.031 A 
ATOM     78  C   UNL A   1      43.120  24.886  26.302  1.00  0.00     0.131 A 
ATOM     79  C   UNL A   1      41.685  22.527  26.408  1.00  0.00     0.055 A 
ATOM     80  C   UNL A   1      43.185  23.992  25.232  1.00  0.00     0.041 A 
ATOM     81  F   UNL A   1      43.850  26.009  26.220  1.00  0.00    -0.206 F 
ATOM     82  C   UNL A   1      42.474  22.797  25.287  1.00  0.00     0.022 A 
BRANCH  79  83
ATOM     83  S   UNL A   1      40.853  20.922  26.567  1.00  0.00     0.124 S 
ATOM     84  O   UNL A   1      41.719  20.059  25.772  1.00  0.00    -0.237 OA
ATOM     85  O   UNL A   1      40.881  20.708  28.009  1.00  0.00    -0.237 OA
ATOM     86  O   UNL A   1      39.528  21.169  26.001  1.00  0.00    -0.744 OA
ENDBRANCH  79  83
ENDBRANCH  52  76
BRANCH  64  87
ATOM     87  C   UNL A   1      46.575  25.712  32.853  1.00  0.00     0.023 A 
ATOM     88  C   UNL A   1      47.843  25.967  32.303  1.00  0.00     0.031 A 
ATOM     89  C   UNL A   1      46.476  24.745  33.868  1.00  0.00     0.131 A 
ATOM     90  C   UNL A   1      48.953  25.222  32.732  1.00  0.00     0.055 A 
ATOM     91  C   UNL A   1      47.594  24.051  34.335  1.00  0.00     0.041 A 
ATOM     92  F   UNL A   1      45.289  24.459  34.427  1.00  0.00    -0.206 F 
ATOM     93  C   UNL A   1      48.839  24.279  33.756  1.00  0.00     0.022 A 
BRANCH  90  94
ATOM     94  S   UNL A   1      50.533  25.432  31.866  1.00  0.00     0.124 S 
ATOM     95  O   UNL A   1      50.875  24.057  31.519  1.00  0.00    -0.237 OA
ATOM     96  O   UNL A   1      50.164  26.297  30.750  1.00  0.00    -0.237 OA
ATOM     97  O   UNL A   1      51.396  26.052  32.871  1.00  0.00    -0.744 OA
ENDBRANCH  90  94
ENDBRANCH  64  87
ENDBRANCH  38  39
ENDBRANCH  30  33
ENDBRANCH  28  29
ENDBRANCH  27  28
ENDBRANCH   1  27
TORSDOF 19
ENDMDL
