MODEL 1
REMARK VINA RESULT:     -10.1      0.000      0.000
REMARK SMILES COc1ccc([C@@H]2CC(c3ccc(Cl)cc3)=NN2C2=[NH+]C(=O)[C@@H](CC(=O)NCCCCNC(=O)c3ccc(-c4c5nc(c(-c6cc(S(=O)(=O)[O-])ccc6F)c6ccc([nH]6)c(-c6cc(S(=O)(=O)[O-])ccc6F)c6nc(c(-c7cc(S(=O)(=O)[O-])ccc7F)c7ccc4[nH]7)C=C6)C=C5)cc3)S2)cc1OC
REMARK SMILES IDX 29 1 28 2 27 3 25 4 26 5 24 7 23 8 19 9 20 10 98 11 21 12
REMARK SMILES IDX 22 14 18 15 7 16 8 17 9 18 17 19 6 20 3 21 4 22 100 23 5 24
REMARK SMILES IDX 99 25 2 26 1 27 101 28 102 29 10 30 11 31 16 32 12 33 15 34
REMARK SMILES IDX 13 35 14 36 30 37 31 38 32 39 33 40 34 42 35 43 36 44 97 45
REMARK SMILES IDX 37 46 96 47 38 48 39 49 40 50 90 51 41 52 95 53 89 54 91 55
REMARK SMILES IDX 42 56 94 57 88 58 87 59 43 61 75 62 55 63 74 64 56 65 59 66
REMARK SMILES IDX 73 67 92 68 57 69 58 70 72 72 93 73 60 74 44 75 45 76 53 77
REMARK SMILES IDX 46 78 52 79 54 80 51 81 47 82 48 83 49 84 50 85 76 86 77 87
REMARK SMILES IDX 85 88 78 89 84 90 86 91 83 92 79 93 80 94 81 95 82 96 61 97
REMARK SMILES IDX 62 98 70 99 63 100 69 101 71 102 68 103 64 104 65 105 66 106
REMARK SMILES IDX 67 107
REMARK H PARENT 27 6 20 13 32 41 91 60 59 71
REMARK Flexibility Score: inf
ROOT
ATOM      1  C   UNL A   1      33.634  28.163  26.025  1.00  0.00     0.023 C 
ENDROOT
BRANCH   1   2
ATOM      2  C   UNL A   1      32.956  26.849  26.430  1.00  0.00     0.116 C 
BRANCH   2   3
ATOM      3  N   UNL A   1      32.702  26.028  25.250  1.00  0.00    -0.356 N 
ATOM      4  C   UNL A   1      33.567  25.377  24.419  1.00  0.00     0.221 C 
ATOM      5  O   UNL A   1      33.153  24.989  23.324  1.00  0.00    -0.275 OA
ATOM      6  H   UNL A   1      31.751  25.926  25.016  1.00  0.00     0.163 HD
BRANCH   4   7
ATOM      7  C   UNL A   1      34.981  25.060  24.855  1.00  0.00     0.127 C 
BRANCH   7   8
ATOM      8  C   UNL A   1      35.308  23.570  24.895  1.00  0.00     0.183 C 
ATOM      9  C   UNL A   1      37.469  22.874  26.051  1.00  0.00     0.340 C 
ATOM     10  N   UNL A   1      36.512  22.892  26.915  1.00  0.00    -0.202 N 
ATOM     11  S   UNL A   1      37.007  23.177  24.381  1.00  0.00    -0.020 SA
ATOM     12  C   UNL A   1      35.271  23.110  26.351  1.00  0.00     0.322 C 
ATOM     13  H   UNL A   1      36.652  22.763  27.881  1.00  0.00     0.316 HD
ATOM     14  O   UNL A   1      34.232  23.018  26.978  1.00  0.00    -0.246 OA
BRANCH   9  15
ATOM     15  N   UNL A   1      38.801  22.690  26.334  1.00  0.00    -0.120 N 
ATOM     16  C   UNL A   1      39.432  23.259  27.514  1.00  0.00     0.243 C 
ATOM     17  C   UNL A   1      40.675  22.425  27.736  1.00  0.00     0.118 C 
ATOM     18  C   UNL A   1      40.726  21.760  26.398  1.00  0.00     0.096 C 
ATOM     19  N   UNL A   1      39.664  21.867  25.654  1.00  0.00    -0.086 NA
BRANCH  16  20
ATOM     20  C   UNL A   1      39.850  24.676  27.254  1.00  0.00     0.003 A 
ATOM     21  C   UNL A   1      40.468  27.329  26.763  1.00  0.00     0.160 A 
ATOM     22  C   UNL A   1      40.917  26.369  25.876  1.00  0.00     0.051 A 
ATOM     23  C   UNL A   1      39.720  26.941  27.926  1.00  0.00     0.161 A 
ATOM     24  C   UNL A   1      40.578  25.051  26.104  1.00  0.00     0.012 A 
ATOM     25  C   UNL A   1      39.464  25.619  28.188  1.00  0.00     0.058 A 
BRANCH  21  26
ATOM     26  O   UNL A   1      40.753  28.637  26.518  1.00  0.00    -0.493 OA
ATOM     27  C   UNL A   1      41.963  29.022  25.861  1.00  0.00     0.278 C 
ENDBRANCH  21  26
BRANCH  23  28
ATOM     28  O   UNL A   1      38.825  27.789  28.541  1.00  0.00    -0.493 OA
ATOM     29  C   UNL A   1      38.719  27.818  29.968  1.00  0.00     0.278 C 
ENDBRANCH  23  28
ENDBRANCH  16  20
BRANCH  18  30
ATOM     30  C   UNL A   1      41.930  21.043  25.990  1.00  0.00     0.000 A 
ATOM     31  C   UNL A   1      41.932  19.648  26.022  1.00  0.00     0.011 A 
ATOM     32  C   UNL A   1      43.059  21.763  25.595  1.00  0.00     0.011 A 
ATOM     33  C   UNL A   1      43.100  18.964  25.693  1.00  0.00     0.021 A 
ATOM     34  C   UNL A   1      44.228  21.074  25.286  1.00  0.00     0.021 A 
ATOM     35  C   UNL A   1      44.248  19.679  25.348  1.00  0.00     0.041 A 
ATOM     36  Cl  UNL A   1      45.711  18.839  25.020  1.00  0.00    -0.084 Cl
ENDBRANCH  18  30
ENDBRANCH   9  15
ENDBRANCH   7   8
ENDBRANCH   4   7
ENDBRANCH   2   3
ENDBRANCH   1   2
BRANCH   1  37
ATOM     37  C   UNL A   1      33.717  29.320  27.049  1.00  0.00     0.023 C 
BRANCH  37  38
ATOM     38  C   UNL A   1      34.966  30.223  27.279  1.00  0.00     0.116 C 
BRANCH  38  39
ATOM     39  N   UNL A   1      34.768  31.652  27.476  1.00  0.00    -0.352 N 
ATOM     40  C   UNL A   1      35.299  32.753  28.100  1.00  0.00     0.251 C 
ATOM     41  H   UNL A   1      33.961  31.928  26.984  1.00  0.00     0.163 HD
ATOM     42  O   UNL A   1      34.893  33.899  27.918  1.00  0.00    -0.269 OA
BRANCH  40  43
ATOM     43  C   UNL A   1      36.313  32.544  29.091  1.00  0.00     0.039 A 
ATOM     44  C   UNL A   1      36.304  31.398  29.905  1.00  0.00     0.014 A 
ATOM     45  C   UNL A   1      37.318  33.485  29.077  1.00  0.00     0.014 A 
ATOM     46  C   UNL A   1      37.405  31.164  30.702  1.00  0.00     0.010 A 
ATOM     47  C   UNL A   1      38.452  33.184  29.759  1.00  0.00     0.010 A 
ATOM     48  C   UNL A   1      38.476  32.056  30.602  1.00  0.00    -0.014 A 
BRANCH  48  49
ATOM     49  C   UNL A   1      39.653  31.998  31.459  1.00  0.00     0.031 A 
ATOM     50  C   UNL A   1      40.797  31.198  30.922  1.00  0.00     0.074 A 
ATOM     51  C   UNL A   1      39.528  32.392  32.732  1.00  0.00     0.049 A 
ATOM     52  N   UNL A   1      41.736  30.577  31.571  1.00  0.00    -0.248 NA
ATOM     53  C   UNL A   1      40.776  30.932  29.468  1.00  0.00     0.031 C 
ATOM     54  C   UNL A   1      38.381  33.104  33.302  1.00  0.00     0.029 A 
ATOM     55  N   UNL A   1      40.364  32.196  33.787  1.00  0.00    -0.354 N 
ATOM     56  C   UNL A   1      42.377  29.802  30.613  1.00  0.00     0.074 A 
ATOM     57  C   UNL A   1      41.637  29.934  29.380  1.00  0.00     0.031 C 
ATOM     58  C   UNL A   1      38.604  33.307  34.611  1.00  0.00     0.029 A 
ATOM     59  C   UNL A   1      39.874  32.689  34.968  1.00  0.00     0.049 A 
ATOM     60  H   UNL A   1      41.236  31.744  33.709  1.00  0.00     0.167 HD
ATOM     61  C   UNL A   1      43.513  29.085  30.761  1.00  0.00     0.034 A 
ATOM     62  C   UNL A   1      40.417  32.620  36.194  1.00  0.00     0.034 A 
ATOM     63  C   UNL A   1      44.226  29.063  32.009  1.00  0.00     0.049 A 
ATOM     64  C   UNL A   1      41.732  31.892  36.320  1.00  0.00     0.074 A 
ATOM     65  C   UNL A   1      45.444  28.487  32.303  1.00  0.00     0.029 A 
ATOM     66  N   UNL A   1      43.777  29.680  33.175  1.00  0.00    -0.354 N 
ATOM     67  N   UNL A   1      42.394  31.215  35.406  1.00  0.00    -0.248 NA
ATOM     68  C   UNL A   1      42.380  31.931  37.632  1.00  0.00     0.031 C 
ATOM     69  C   UNL A   1      45.706  28.712  33.658  1.00  0.00     0.029 A 
ATOM     70  C   UNL A   1      44.689  29.492  34.194  1.00  0.00     0.049 A 
ATOM     71  H   UNL A   1      42.932  30.178  33.260  1.00  0.00     0.167 HD
ATOM     72  C   UNL A   1      43.560  30.780  36.023  1.00  0.00     0.074 A 
ATOM     73  C   UNL A   1      43.511  31.289  37.382  1.00  0.00     0.031 C 
ATOM     74  C   UNL A   1      44.581  30.030  35.531  1.00  0.00     0.034 A 
BRANCH  61  75
ATOM     75  C   UNL A   1      44.019  28.323  29.562  1.00  0.00     0.023 A 
ATOM     76  C   UNL A   1      44.953  28.888  28.672  1.00  0.00     0.031 A 
ATOM     77  C   UNL A   1      43.518  27.048  29.257  1.00  0.00     0.131 A 
ATOM     78  C   UNL A   1      45.271  28.233  27.474  1.00  0.00     0.055 A 
ATOM     79  C   UNL A   1      43.920  26.354  28.112  1.00  0.00     0.041 A 
ATOM     80  F   UNL A   1      42.603  26.464  30.046  1.00  0.00    -0.206 F 
ATOM     81  C   UNL A   1      44.786  26.955  27.202  1.00  0.00     0.022 A 
BRANCH  78  82
ATOM     82  S   UNL A   1      46.184  29.155  26.206  1.00  0.00     0.124 S 
ATOM     83  O   UNL A   1      45.433  30.406  26.154  1.00  0.00    -0.237 OA
ATOM     84  O   UNL A   1      47.523  29.239  26.778  1.00  0.00    -0.237 OA
ATOM     85  O   UNL A   1      46.064  28.313  25.018  1.00  0.00    -0.744 OA
ENDBRANCH  78  82
ENDBRANCH  61  75
BRANCH  62  86
ATOM     86  C   UNL A   1      39.771  33.298  37.347  1.00  0.00     0.023 A 
ATOM     87  C   UNL A   1      38.914  32.578  38.193  1.00  0.00     0.031 A 
ATOM     88  C   UNL A   1      39.984  34.657  37.628  1.00  0.00     0.131 A 
ATOM     89  C   UNL A   1      38.251  33.230  39.241  1.00  0.00     0.055 A 
ATOM     90  C   UNL A   1      39.365  35.291  38.708  1.00  0.00     0.041 A 
ATOM     91  F   UNL A   1      40.816  35.387  36.866  1.00  0.00    -0.206 F 
ATOM     92  C   UNL A   1      38.479  34.580  39.512  1.00  0.00     0.022 A 
BRANCH  89  93
ATOM     93  S   UNL A   1      37.012  32.302  40.182  1.00  0.00     0.124 S 
ATOM     94  O   UNL A   1      36.821  33.158  41.346  1.00  0.00    -0.237 OA
ATOM     95  O   UNL A   1      35.899  32.242  39.239  1.00  0.00    -0.237 OA
ATOM     96  O   UNL A   1      37.672  31.026  40.446  1.00  0.00    -0.744 OA
ENDBRANCH  89  93
ENDBRANCH  62  86
BRANCH  74  97
ATOM     97  C   UNL A   1      45.731  29.769  36.464  1.00  0.00     0.023 A 
ATOM     98  C   UNL A   1      45.719  28.682  37.352  1.00  0.00     0.031 A 
ATOM     99  C   UNL A   1      46.855  30.613  36.453  1.00  0.00     0.131 A 
ATOM    100  C   UNL A   1      46.786  28.504  38.240  1.00  0.00     0.055 A 
ATOM    101  C   UNL A   1      47.948  30.385  37.286  1.00  0.00     0.041 A 
ATOM    102  F   UNL A   1      46.912  31.666  35.619  1.00  0.00    -0.206 F 
ATOM    103  C   UNL A   1      47.911  29.333  38.197  1.00  0.00     0.022 A 
BRANCH 100 104
ATOM    104  S   UNL A   1      46.635  27.233  39.521  1.00  0.00     0.124 S 
ATOM    105  O   UNL A   1      46.897  27.998  40.737  1.00  0.00    -0.237 OA
ATOM    106  O   UNL A   1      45.262  26.772  39.343  1.00  0.00    -0.237 OA
ATOM    107  O   UNL A   1      47.667  26.262  39.163  1.00  0.00    -0.744 OA
ENDBRANCH 100 104
ENDBRANCH  74  97
ENDBRANCH  48  49
ENDBRANCH  40  43
ENDBRANCH  38  39
ENDBRANCH  37  38
ENDBRANCH   1  37
TORSDOF 20
ENDMDL
MODEL 2
REMARK VINA RESULT:      -9.8      4.369      9.371
REMARK SMILES COc1ccc([C@@H]2CC(c3ccc(Cl)cc3)=NN2C2=[NH+]C(=O)[C@@H](CC(=O)NCCCCNC(=O)c3ccc(-c4c5nc(c(-c6cc(S(=O)(=O)[O-])ccc6F)c6ccc([nH]6)c(-c6cc(S(=O)(=O)[O-])ccc6F)c6nc(c(-c7cc(S(=O)(=O)[O-])ccc7F)c7ccc4[nH]7)C=C6)C=C5)cc3)S2)cc1OC
REMARK SMILES IDX 29 1 28 2 27 3 25 4 26 5 24 7 23 8 19 9 20 10 98 11 21 12
REMARK SMILES IDX 22 14 18 15 7 16 8 17 9 18 17 19 6 20 3 21 4 22 100 23 5 24
REMARK SMILES IDX 99 25 2 26 1 27 101 28 102 29 10 30 11 31 16 32 12 33 15 34
REMARK SMILES IDX 13 35 14 36 30 37 31 38 32 39 33 40 34 42 35 43 36 44 97 45
REMARK SMILES IDX 37 46 96 47 38 48 39 49 40 50 90 51 41 52 95 53 89 54 91 55
REMARK SMILES IDX 42 56 94 57 88 58 87 59 43 61 75 62 55 63 74 64 56 65 59 66
REMARK SMILES IDX 73 67 92 68 57 69 58 70 72 72 93 73 60 74 44 75 45 76 53 77
REMARK SMILES IDX 46 78 52 79 54 80 51 81 47 82 48 83 49 84 50 85 76 86 77 87
REMARK SMILES IDX 85 88 78 89 84 90 86 91 83 92 79 93 80 94 81 95 82 96 61 97
REMARK SMILES IDX 62 98 70 99 63 100 69 101 71 102 68 103 64 104 65 105 66 106
REMARK SMILES IDX 67 107
REMARK H PARENT 27 6 20 13 32 41 91 60 59 71
REMARK Flexibility Score: inf
ROOT
ATOM      1  C   UNL A   1      45.153  31.480  26.529  1.00  0.00     0.023 C 
ENDROOT
BRANCH   1   2
ATOM      2  C   UNL A   1      44.893  30.118  27.181  1.00  0.00     0.116 C 
BRANCH   2   3
ATOM      3  N   UNL A   1      45.090  29.046  26.209  1.00  0.00    -0.356 N 
ATOM      4  C   UNL A   1      44.303  27.977  25.895  1.00  0.00     0.221 C 
ATOM      5  O   UNL A   1      44.800  27.046  25.258  1.00  0.00    -0.275 OA
ATOM      6  H   UNL A   1      45.929  29.105  25.697  1.00  0.00     0.163 HD
BRANCH   4   7
ATOM      7  C   UNL A   1      42.831  27.961  26.245  1.00  0.00     0.127 C 
BRANCH   7   8
ATOM      8  C   UNL A   1      42.427  26.861  27.222  1.00  0.00     0.183 C 
ATOM      9  C   UNL A   1      40.948  27.522  29.187  1.00  0.00     0.340 C 
ATOM     10  N   UNL A   1      40.203  27.186  28.190  1.00  0.00    -0.202 N 
ATOM     11  S   UNL A   1      42.678  27.302  28.968  1.00  0.00    -0.020 SA
ATOM     12  C   UNL A   1      40.916  26.666  27.127  1.00  0.00     0.322 C 
ATOM     13  H   UNL A   1      39.224  27.289  28.185  1.00  0.00     0.316 HD
ATOM     14  O   UNL A   1      40.385  26.159  26.157  1.00  0.00    -0.246 OA
BRANCH   9  15
ATOM     15  N   UNL A   1      40.507  28.076  30.366  1.00  0.00    -0.120 N 
ATOM     16  C   UNL A   1      39.105  28.069  30.752  1.00  0.00     0.243 C 
ATOM     17  C   UNL A   1      39.110  28.260  32.253  1.00  0.00     0.118 C 
ATOM     18  C   UNL A   1      40.523  28.726  32.403  1.00  0.00     0.096 C 
ATOM     19  N   UNL A   1      41.300  28.569  31.372  1.00  0.00    -0.086 NA
BRANCH  16  20
ATOM     20  C   UNL A   1      38.383  29.226  30.128  1.00  0.00     0.003 A 
ATOM     21  C   UNL A   1      37.044  31.278  28.842  1.00  0.00     0.160 A 
ATOM     22  C   UNL A   1      38.312  31.522  29.335  1.00  0.00     0.051 A 
ATOM     23  C   UNL A   1      36.435  29.991  29.024  1.00  0.00     0.161 A 
ATOM     24  C   UNL A   1      38.991  30.487  29.944  1.00  0.00     0.012 A 
ATOM     25  C   UNL A   1      37.086  28.997  29.709  1.00  0.00     0.058 A 
BRANCH  21  26
ATOM     26  O   UNL A   1      36.387  32.278  28.192  1.00  0.00    -0.493 OA
ATOM     27  C   UNL A   1      36.481  33.635  28.631  1.00  0.00     0.278 C 
ENDBRANCH  21  26
BRANCH  23  28
ATOM     28  O   UNL A   1      35.473  29.505  28.167  1.00  0.00    -0.493 OA
ATOM     29  C   UNL A   1      34.483  30.381  27.618  1.00  0.00     0.278 C 
ENDBRANCH  23  28
ENDBRANCH  16  20
BRANCH  18  30
ATOM     30  C   UNL A   1      40.959  29.326  33.660  1.00  0.00     0.000 A 
ATOM     31  C   UNL A   1      40.897  30.712  33.807  1.00  0.00     0.011 A 
ATOM     32  C   UNL A   1      41.444  28.507  34.681  1.00  0.00     0.011 A 
ATOM     33  C   UNL A   1      41.370  31.291  34.982  1.00  0.00     0.021 A 
ATOM     34  C   UNL A   1      41.934  29.093  35.844  1.00  0.00     0.021 A 
ATOM     35  C   UNL A   1      41.906  30.482  35.986  1.00  0.00     0.041 A 
ATOM     36  Cl  UNL A   1      42.564  31.202  37.402  1.00  0.00    -0.084 Cl
ENDBRANCH  18  30
ENDBRANCH   9  15
ENDBRANCH   7   8
ENDBRANCH   4   7
ENDBRANCH   2   3
ENDBRANCH   1   2
BRANCH   1  37
ATOM     37  C   UNL A   1      43.953  32.367  26.118  1.00  0.00     0.023 C 
BRANCH  37  38
ATOM     38  C   UNL A   1      44.030  33.894  25.823  1.00  0.00     0.116 C 
BRANCH  38  39
ATOM     39  N   UNL A   1      45.125  34.663  26.397  1.00  0.00    -0.352 N 
ATOM     40  C   UNL A   1      45.651  35.093  27.590  1.00  0.00     0.251 C 
ATOM     41  H   UNL A   1      45.694  34.994  25.665  1.00  0.00     0.163 HD
ATOM     42  O   UNL A   1      46.737  35.660  27.689  1.00  0.00    -0.269 OA
BRANCH  40  43
ATOM     43  C   UNL A   1      44.845  34.965  28.768  1.00  0.00     0.039 A 
ATOM     44  C   UNL A   1      44.830  33.771  29.509  1.00  0.00     0.014 A 
ATOM     45  C   UNL A   1      44.206  36.126  29.143  1.00  0.00     0.014 A 
ATOM     46  C   UNL A   1      44.185  33.777  30.728  1.00  0.00     0.010 A 
ATOM     47  C   UNL A   1      43.690  36.166  30.397  1.00  0.00     0.010 A 
ATOM     48  C   UNL A   1      43.639  34.986  31.165  1.00  0.00    -0.014 A 
BRANCH  48  49
ATOM     49  C   UNL A   1      42.837  35.115  32.375  1.00  0.00     0.031 A 
ATOM     50  C   UNL A   1      43.611  35.331  33.636  1.00  0.00     0.074 A 
ATOM     51  C   UNL A   1      41.550  34.753  32.321  1.00  0.00     0.049 A 
ATOM     52  N   UNL A   1      43.286  35.026  34.857  1.00  0.00    -0.248 NA
ATOM     53  C   UNL A   1      45.002  35.802  33.470  1.00  0.00     0.031 C 
ATOM     54  C   UNL A   1      40.790  34.456  31.103  1.00  0.00     0.029 A 
ATOM     55  N   UNL A   1      40.671  34.522  33.334  1.00  0.00    -0.354 N 
ATOM     56  C   UNL A   1      44.451  35.212  35.591  1.00  0.00     0.074 A 
ATOM     57  C   UNL A   1      45.507  35.524  34.658  1.00  0.00     0.031 C 
ATOM     58  C   UNL A   1      39.540  34.104  31.447  1.00  0.00     0.029 A 
ATOM     59  C   UNL A   1      39.442  34.097  32.901  1.00  0.00     0.049 A 
ATOM     60  H   UNL A   1      40.896  34.649  34.285  1.00  0.00     0.167 HD
ATOM     61  C   UNL A   1      44.592  35.164  36.934  1.00  0.00     0.034 A 
ATOM     62  C   UNL A   1      38.374  33.739  33.632  1.00  0.00     0.034 A 
ATOM     63  C   UNL A   1      43.469  34.913  37.795  1.00  0.00     0.049 A 
ATOM     64  C   UNL A   1      38.526  33.781  35.132  1.00  0.00     0.074 A 
ATOM     65  C   UNL A   1      43.408  34.942  39.173  1.00  0.00     0.029 A 
ATOM     66  N   UNL A   1      42.188  34.607  37.339  1.00  0.00    -0.354 N 
ATOM     67  N   UNL A   1      39.602  34.029  35.847  1.00  0.00    -0.248 NA
ATOM     68  C   UNL A   1      37.323  33.514  35.920  1.00  0.00     0.031 C 
ATOM     69  C   UNL A   1      42.104  34.604  39.549  1.00  0.00     0.029 A 
ATOM     70  C   UNL A   1      41.331  34.436  38.407  1.00  0.00     0.049 A 
ATOM     71  H   UNL A   1      41.933  34.525  36.392  1.00  0.00     0.167 HD
ATOM     72  C   UNL A   1      39.196  33.987  37.175  1.00  0.00     0.074 A 
ATOM     73  C   UNL A   1      37.771  33.705  37.152  1.00  0.00     0.031 C 
ATOM     74  C   UNL A   1      39.916  34.158  38.315  1.00  0.00     0.034 A 
BRANCH  61  75
ATOM     75  C   UNL A   1      45.968  35.406  37.500  1.00  0.00     0.023 A 
ATOM     76  C   UNL A   1      46.909  34.364  37.618  1.00  0.00     0.031 A 
ATOM     77  C   UNL A   1      46.331  36.670  37.994  1.00  0.00     0.131 A 
ATOM     78  C   UNL A   1      48.111  34.574  38.309  1.00  0.00     0.055 A 
ATOM     79  C   UNL A   1      47.575  36.898  38.588  1.00  0.00     0.041 A 
ATOM     80  F   UNL A   1      45.472  37.699  37.939  1.00  0.00    -0.206 F 
ATOM     81  C   UNL A   1      48.465  35.842  38.767  1.00  0.00     0.022 A 
BRANCH  78  82
ATOM     82  S   UNL A   1      49.114  33.128  38.749  1.00  0.00     0.124 S 
ATOM     83  O   UNL A   1      48.094  32.197  39.226  1.00  0.00    -0.237 OA
ATOM     84  O   UNL A   1      49.747  32.784  37.480  1.00  0.00    -0.237 OA
ATOM     85  O   UNL A   1      50.015  33.637  39.779  1.00  0.00    -0.744 OA
ENDBRANCH  78  82
ENDBRANCH  61  75
BRANCH  62  86
ATOM     86  C   UNL A   1      37.089  33.389  32.973  1.00  0.00     0.023 A 
ATOM     87  C   UNL A   1      36.177  34.400  32.637  1.00  0.00     0.031 A 
ATOM     88  C   UNL A   1      36.745  32.062  32.669  1.00  0.00     0.131 A 
ATOM     89  C   UNL A   1      34.937  34.067  32.076  1.00  0.00     0.055 A 
ATOM     90  C   UNL A   1      35.531  31.738  32.059  1.00  0.00     0.041 A 
ATOM     91  F   UNL A   1      37.594  31.058  32.945  1.00  0.00    -0.206 F 
ATOM     92  C   UNL A   1      34.611  32.744  31.774  1.00  0.00     0.022 A 
BRANCH  89  93
ATOM     93  S   UNL A   1      33.719  35.389  31.839  1.00  0.00     0.124 S 
ATOM     94  O   UNL A   1      33.680  35.499  30.386  1.00  0.00    -0.237 OA
ATOM     95  O   UNL A   1      32.532  34.823  32.473  1.00  0.00    -0.237 OA
ATOM     96  O   UNL A   1      34.314  36.526  32.537  1.00  0.00    -0.744 OA
ENDBRANCH  89  93
ENDBRANCH  62  86
BRANCH  74  97
ATOM     97  C   UNL A   1      39.151  34.090  39.608  1.00  0.00     0.023 A 
ATOM     98  C   UNL A   1      38.723  32.862  40.139  1.00  0.00     0.031 A 
ATOM     99  C   UNL A   1      38.858  35.266  40.318  1.00  0.00     0.131 A 
ATOM    100  C   UNL A   1      37.970  32.846  41.319  1.00  0.00     0.055 A 
ATOM    101  C   UNL A   1      38.174  35.236  41.531  1.00  0.00     0.041 A 
ATOM    102  F   UNL A   1      39.248  36.463  39.850  1.00  0.00    -0.206 F 
ATOM    103  C   UNL A   1      37.712  34.021  42.031  1.00  0.00     0.022 A 
BRANCH 100 104
ATOM    104  S   UNL A   1      37.243  31.274  41.851  1.00  0.00     0.124 S 
ATOM    105  O   UNL A   1      36.058  31.188  41.003  1.00  0.00    -0.237 OA
ATOM    106  O   UNL A   1      38.308  30.322  41.556  1.00  0.00    -0.237 OA
ATOM    107  O   UNL A   1      36.976  31.487  43.273  1.00  0.00    -0.744 OA
ENDBRANCH 100 104
ENDBRANCH  74  97
ENDBRANCH  48  49
ENDBRANCH  40  43
ENDBRANCH  38  39
ENDBRANCH  37  38
ENDBRANCH   1  37
TORSDOF 20
ENDMDL
MODEL 3
REMARK VINA RESULT:      -9.7      1.944      2.309
REMARK SMILES COc1ccc([C@@H]2CC(c3ccc(Cl)cc3)=NN2C2=[NH+]C(=O)[C@@H](CC(=O)NCCCCNC(=O)c3ccc(-c4c5nc(c(-c6cc(S(=O)(=O)[O-])ccc6F)c6ccc([nH]6)c(-c6cc(S(=O)(=O)[O-])ccc6F)c6nc(c(-c7cc(S(=O)(=O)[O-])ccc7F)c7ccc4[nH]7)C=C6)C=C5)cc3)S2)cc1OC
REMARK SMILES IDX 29 1 28 2 27 3 25 4 26 5 24 7 23 8 19 9 20 10 98 11 21 12
REMARK SMILES IDX 22 14 18 15 7 16 8 17 9 18 17 19 6 20 3 21 4 22 100 23 5 24
REMARK SMILES IDX 99 25 2 26 1 27 101 28 102 29 10 30 11 31 16 32 12 33 15 34
REMARK SMILES IDX 13 35 14 36 30 37 31 38 32 39 33 40 34 42 35 43 36 44 97 45
REMARK SMILES IDX 37 46 96 47 38 48 39 49 40 50 90 51 41 52 95 53 89 54 91 55
REMARK SMILES IDX 42 56 94 57 88 58 87 59 43 61 75 62 55 63 74 64 56 65 59 66
REMARK SMILES IDX 73 67 92 68 57 69 58 70 72 72 93 73 60 74 44 75 45 76 53 77
REMARK SMILES IDX 46 78 52 79 54 80 51 81 47 82 48 83 49 84 50 85 76 86 77 87
REMARK SMILES IDX 85 88 78 89 84 90 86 91 83 92 79 93 80 94 81 95 82 96 61 97
REMARK SMILES IDX 62 98 70 99 63 100 69 101 71 102 68 103 64 104 65 105 66 106
REMARK SMILES IDX 67 107
REMARK H PARENT 27 6 20 13 32 41 91 60 59 71
REMARK Flexibility Score: inf
ROOT
ATOM      1  C   UNL A   1      33.999  28.296  26.389  1.00  0.00     0.023 C 
ENDROOT
BRANCH   1   2
ATOM      2  C   UNL A   1      32.966  27.166  26.312  1.00  0.00     0.116 C 
BRANCH   2   3
ATOM      3  N   UNL A   1      33.031  26.509  25.011  1.00  0.00    -0.356 N 
ATOM      4  C   UNL A   1      33.982  25.688  24.478  1.00  0.00     0.221 C 
ATOM      5  O   UNL A   1      33.973  25.487  23.261  1.00  0.00    -0.275 OA
ATOM      6  H   UNL A   1      32.264  26.687  24.420  1.00  0.00     0.163 HD
BRANCH   4   7
ATOM      7  C   UNL A   1      34.978  24.969  25.362  1.00  0.00     0.127 C 
BRANCH   7   8
ATOM      8  C   UNL A   1      35.495  23.653  24.788  1.00  0.00     0.183 C 
ATOM      9  C   UNL A   1      37.589  22.655  25.840  1.00  0.00     0.340 C 
ATOM     10  N   UNL A   1      36.549  22.209  26.458  1.00  0.00    -0.202 N 
ATOM     11  S   UNL A   1      37.277  23.657  24.429  1.00  0.00    -0.020 SA
ATOM     12  C   UNL A   1      35.360  22.576  25.861  1.00  0.00     0.322 C 
ATOM     13  H   UNL A   1      36.598  21.662  27.276  1.00  0.00     0.316 HD
ATOM     14  O   UNL A   1      34.280  22.135  26.209  1.00  0.00    -0.246 OA
BRANCH   9  15
ATOM     15  N   UNL A   1      38.895  22.454  26.219  1.00  0.00    -0.120 N 
ATOM     16  C   UNL A   1      39.430  22.969  27.469  1.00  0.00     0.243 C 
ATOM     17  C   UNL A   1      40.651  22.122  27.752  1.00  0.00     0.118 C 
ATOM     18  C   UNL A   1      40.808  21.515  26.394  1.00  0.00     0.096 C 
ATOM     19  N   UNL A   1      39.808  21.658  25.575  1.00  0.00    -0.086 NA
BRANCH  16  20
ATOM     20  C   UNL A   1      39.868  24.394  27.305  1.00  0.00     0.003 A 
ATOM     21  C   UNL A   1      40.524  27.067  27.016  1.00  0.00     0.160 A 
ATOM     22  C   UNL A   1      40.819  26.197  25.982  1.00  0.00     0.051 A 
ATOM     23  C   UNL A   1      39.915  26.577  28.220  1.00  0.00     0.161 A 
ATOM     24  C   UNL A   1      40.459  24.872  26.115  1.00  0.00     0.012 A 
ATOM     25  C   UNL A   1      39.642  25.241  28.374  1.00  0.00     0.058 A 
BRANCH  21  26
ATOM     26  O   UNL A   1      40.828  28.387  26.872  1.00  0.00    -0.493 OA
ATOM     27  C   UNL A   1      41.648  28.846  25.794  1.00  0.00     0.278 C 
ENDBRANCH  21  26
BRANCH  23  28
ATOM     28  O   UNL A   1      39.140  27.376  29.030  1.00  0.00    -0.493 OA
ATOM     29  C   UNL A   1      38.116  28.202  28.466  1.00  0.00     0.278 C 
ENDBRANCH  23  28
ENDBRANCH  16  20
BRANCH  18  30
ATOM     30  C   UNL A   1      42.040  20.812  26.052  1.00  0.00     0.000 A 
ATOM     31  C   UNL A   1      43.179  21.555  25.738  1.00  0.00     0.011 A 
ATOM     32  C   UNL A   1      42.053  19.416  26.029  1.00  0.00     0.011 A 
ATOM     33  C   UNL A   1      44.339  20.888  25.351  1.00  0.00     0.021 A 
ATOM     34  C   UNL A   1      43.209  18.757  25.622  1.00  0.00     0.021 A 
ATOM     35  C   UNL A   1      44.343  19.494  25.274  1.00  0.00     0.041 A 
ATOM     36  Cl  UNL A   1      45.748  18.673  24.720  1.00  0.00    -0.084 Cl
ENDBRANCH  18  30
ENDBRANCH   9  15
ENDBRANCH   7   8
ENDBRANCH   4   7
ENDBRANCH   2   3
ENDBRANCH   1   2
BRANCH   1  37
ATOM     37  C   UNL A   1      33.730  29.509  27.312  1.00  0.00     0.023 C 
BRANCH  37  38
ATOM     38  C   UNL A   1      34.754  30.639  27.624  1.00  0.00     0.116 C 
BRANCH  38  39
ATOM     39  N   UNL A   1      34.257  31.916  28.119  1.00  0.00    -0.352 N 
ATOM     40  C   UNL A   1      34.545  32.938  28.989  1.00  0.00     0.251 C 
ATOM     41  H   UNL A   1      33.406  32.118  27.667  1.00  0.00     0.163 HD
ATOM     42  O   UNL A   1      33.902  33.984  29.045  1.00  0.00    -0.269 OA
BRANCH  40  43
ATOM     43  C   UNL A   1      35.587  32.732  29.950  1.00  0.00     0.039 A 
ATOM     44  C   UNL A   1      35.627  31.568  30.736  1.00  0.00     0.014 A 
ATOM     45  C   UNL A   1      36.567  33.700  29.937  1.00  0.00     0.014 A 
ATOM     46  C   UNL A   1      36.753  31.344  31.502  1.00  0.00     0.010 A 
ATOM     47  C   UNL A   1      37.724  33.413  30.584  1.00  0.00     0.010 A 
ATOM     48  C   UNL A   1      37.798  32.266  31.398  1.00  0.00    -0.014 A 
BRANCH  48  49
ATOM     49  C   UNL A   1      38.996  32.219  32.227  1.00  0.00     0.031 A 
ATOM     50  C   UNL A   1      40.116  31.388  31.685  1.00  0.00     0.074 A 
ATOM     51  C   UNL A   1      38.909  32.654  33.489  1.00  0.00     0.049 A 
ATOM     52  N   UNL A   1      41.064  30.775  32.328  1.00  0.00    -0.248 NA
ATOM     53  C   UNL A   1      40.054  31.079  30.241  1.00  0.00     0.031 C 
ATOM     54  C   UNL A   1      37.786  33.398  34.066  1.00  0.00     0.029 A 
ATOM     55  N   UNL A   1      39.770  32.479  34.528  1.00  0.00    -0.354 N 
ATOM     56  C   UNL A   1      41.670  29.963  31.378  1.00  0.00     0.074 A 
ATOM     57  C   UNL A   1      40.900  30.067  30.162  1.00  0.00     0.031 C 
ATOM     58  C   UNL A   1      38.046  33.638  35.362  1.00  0.00     0.029 A 
ATOM     59  C   UNL A   1      39.317  33.014  35.706  1.00  0.00     0.049 A 
ATOM     60  H   UNL A   1      40.635  32.014  34.441  1.00  0.00     0.167 HD
ATOM     61  C   UNL A   1      42.800  29.236  31.519  1.00  0.00     0.034 A 
ATOM     62  C   UNL A   1      39.891  32.976  36.919  1.00  0.00     0.034 A 
ATOM     63  C   UNL A   1      43.546  29.244  32.748  1.00  0.00     0.049 A 
ATOM     64  C   UNL A   1      41.200  32.235  37.033  1.00  0.00     0.074 A 
ATOM     65  C   UNL A   1      44.764  28.661  33.029  1.00  0.00     0.029 A 
ATOM     66  N   UNL A   1      43.136  29.901  33.906  1.00  0.00    -0.354 N 
ATOM     67  N   UNL A   1      41.830  31.522  36.123  1.00  0.00    -0.248 NA
ATOM     68  C   UNL A   1      41.883  32.306  38.325  1.00  0.00     0.031 C 
ATOM     69  C   UNL A   1      45.065  28.924  34.369  1.00  0.00     0.029 A 
ATOM     70  C   UNL A   1      44.071  29.733  34.907  1.00  0.00     0.049 A 
ATOM     71  H   UNL A   1      42.298  30.413  33.997  1.00  0.00     0.167 HD
ATOM     72  C   UNL A   1      43.006  31.091  36.723  1.00  0.00     0.074 A 
ATOM     73  C   UNL A   1      42.999  31.642  38.067  1.00  0.00     0.031 C 
ATOM     74  C   UNL A   1      44.005  30.313  36.229  1.00  0.00     0.034 A 
BRANCH  61  75
ATOM     75  C   UNL A   1      43.265  28.432  30.332  1.00  0.00     0.023 A 
ATOM     76  C   UNL A   1      43.232  27.024  30.339  1.00  0.00     0.031 A 
ATOM     77  C   UNL A   1      43.815  29.065  29.205  1.00  0.00     0.131 A 
ATOM     78  C   UNL A   1      43.833  26.299  29.300  1.00  0.00     0.055 A 
ATOM     79  C   UNL A   1      44.318  28.335  28.125  1.00  0.00     0.041 A 
ATOM     80  F   UNL A   1      43.905  30.402  29.146  1.00  0.00    -0.206 F 
ATOM     81  C   UNL A   1      44.347  26.944  28.177  1.00  0.00     0.022 A 
BRANCH  78  82
ATOM     82  S   UNL A   1      44.086  24.517  29.529  1.00  0.00     0.124 S 
ATOM     83  O   UNL A   1      45.222  24.265  28.646  1.00  0.00    -0.237 OA
ATOM     84  O   UNL A   1      44.356  24.416  30.959  1.00  0.00    -0.237 OA
ATOM     85  O   UNL A   1      42.821  23.933  29.089  1.00  0.00    -0.744 OA
ENDBRANCH  78  82
ENDBRANCH  61  75
BRANCH  62  86
ATOM     86  C   UNL A   1      39.284  33.698  38.066  1.00  0.00     0.023 A 
ATOM     87  C   UNL A   1      39.619  35.038  38.306  1.00  0.00     0.031 A 
ATOM     88  C   UNL A   1      38.373  33.079  38.937  1.00  0.00     0.131 A 
ATOM     89  C   UNL A   1      39.099  35.702  39.425  1.00  0.00     0.055 A 
ATOM     90  C   UNL A   1      37.812  33.761  40.020  1.00  0.00     0.041 A 
ATOM     91  F   UNL A   1      37.996  31.806  38.737  1.00  0.00    -0.206 F 
ATOM     92  C   UNL A   1      38.189  35.077  40.279  1.00  0.00     0.022 A 
BRANCH  89  93
ATOM     93  S   UNL A   1      39.711  37.366  39.798  1.00  0.00     0.124 S 
ATOM     94  O   UNL A   1      40.848  37.474  38.890  1.00  0.00    -0.237 OA
ATOM     95  O   UNL A   1      38.552  38.193  39.478  1.00  0.00    -0.237 OA
ATOM     96  O   UNL A   1      40.050  37.292  41.217  1.00  0.00    -0.744 OA
ENDBRANCH  89  93
ENDBRANCH  62  86
BRANCH  74  97
ATOM     97  C   UNL A   1      45.176  30.066  37.139  1.00  0.00     0.023 A 
ATOM     98  C   UNL A   1      45.173  29.008  38.062  1.00  0.00     0.031 A 
ATOM     99  C   UNL A   1      46.310  30.893  37.071  1.00  0.00     0.131 A 
ATOM    100  C   UNL A   1      46.261  28.843  38.927  1.00  0.00     0.055 A 
ATOM    101  C   UNL A   1      47.421  30.677  37.882  1.00  0.00     0.041 A 
ATOM    102  F   UNL A   1      46.359  31.917  36.203  1.00  0.00    -0.206 F 
ATOM    103  C   UNL A   1      47.395  29.655  38.828  1.00  0.00     0.022 A 
BRANCH 100 104
ATOM    104  S   UNL A   1      46.127  27.616  40.253  1.00  0.00     0.124 S 
ATOM    105  O   UNL A   1      46.057  26.367  39.500  1.00  0.00    -0.237 OA
ATOM    106  O   UNL A   1      47.355  27.837  41.008  1.00  0.00    -0.237 OA
ATOM    107  O   UNL A   1      44.896  27.995  40.944  1.00  0.00    -0.744 OA
ENDBRANCH 100 104
ENDBRANCH  74  97
ENDBRANCH  48  49
ENDBRANCH  40  43
ENDBRANCH  38  39
ENDBRANCH  37  38
ENDBRANCH   1  37
TORSDOF 20
ENDMDL
