MODEL 1
REMARK VINA RESULT:     -11.8      0.000      0.000
REMARK SMILES NNS(=O)(=O)c1ccc(O)c(C(=O)NCCCCNC(=O)c2ccc(-c3c4nc(c(-c5cc(S(=O)(=O)[O-])ccc5F)c5ccc([nH]5)c(-c5cc(S(=O)(=O)[O-])ccc5F)c5nc(c(-c6cc(S(=O)(=O)[O-])ccc6F)c6ccc3[nH]6)C=C5)C=C4)cc2)c1
REMARK SMILES IDX 16 1 15 2 14 3 12 4 13 5 11 7 6 8 7 9 85 10 8 11 9 12 3 13
REMARK SMILES IDX 4 14 5 15 2 16 1 18 10 21 17 23 18 24 19 25 20 26 21 28
REMARK SMILES IDX 22 29 23 30 84 31 24 32 83 33 25 34 26 35 27 36 77 37 28 38
REMARK SMILES IDX 82 39 76 40 78 41 29 42 81 43 75 44 74 45 30 47 62 48 42 49
REMARK SMILES IDX 61 50 43 51 46 52 60 53 79 54 44 55 45 56 59 58 80 59 47 60
REMARK SMILES IDX 31 61 32 62 40 63 33 64 39 65 41 66 38 67 34 68 35 69 36 70
REMARK SMILES IDX 37 71 63 72 64 73 72 74 65 75 71 76 73 77 70 78 66 79 67 80
REMARK SMILES IDX 68 81 69 82 48 83 49 84 57 85 50 86 56 87 58 88 55 89 51 90
REMARK SMILES IDX 52 91 53 92 54 93
REMARK H PARENT 14 6 2 17 1 19 1 20 10 22 19 27 78 46 46 57
REMARK Flexibility Score: inf
ROOT
ATOM      1  C   UNL A   1      34.308  21.107  25.428  1.00  0.00     0.023 C 
ENDROOT
BRANCH   1   2
ATOM      2  C   UNL A   1      33.536  22.183  26.201  1.00  0.00     0.116 C 
BRANCH   2   3
ATOM      3  N   UNL A   1      32.124  21.884  26.177  1.00  0.00    -0.352 N 
ATOM      4  C   UNL A   1      31.028  22.646  25.879  1.00  0.00     0.255 C 
ATOM      5  O   UNL A   1      29.932  22.123  26.100  1.00  0.00    -0.269 OA
ATOM      6  H   UNL A   1      31.909  20.955  26.422  1.00  0.00     0.163 HD
BRANCH   4   7
ATOM      7  C   UNL A   1      31.040  24.005  25.249  1.00  0.00     0.082 A 
ATOM      8  C   UNL A   1      31.954  25.266  23.363  1.00  0.00     0.084 A 
ATOM      9  C   UNL A   1      31.270  26.412  23.752  1.00  0.00     0.025 A 
ATOM     10  C   UNL A   1      31.880  24.093  24.121  1.00  0.00     0.039 A 
ATOM     11  C   UNL A   1      30.437  26.348  24.862  1.00  0.00     0.048 A 
ATOM     12  C   UNL A   1      30.289  25.146  25.576  1.00  0.00     0.128 A 
BRANCH   8  13
ATOM     13  S   UNL A   1      32.832  25.254  21.823  1.00  0.00     0.253 S 
ATOM     14  O   UNL A   1      33.081  23.883  21.428  1.00  0.00    -0.206 OA
ATOM     15  O   UNL A   1      33.904  26.220  21.919  1.00  0.00    -0.206 OA
BRANCH  13  16
ATOM     16  N   UNL A   1      31.631  25.956  20.782  1.00  0.00    -0.150 NA
ATOM     17  H   UNL A   1      30.710  25.640  21.086  1.00  0.00     0.160 HD
BRANCH  16  18
ATOM     18  N   UNL A   1      31.808  25.598  19.428  1.00  0.00    -0.257 NA
ATOM     19  H   UNL A   1      31.659  26.415  18.837  1.00  0.00     0.138 HD
ATOM     20  H   UNL A   1      31.138  24.871  19.178  1.00  0.00     0.138 HD
ENDBRANCH  16  18
ENDBRANCH  13  16
ENDBRANCH   8  13
BRANCH  12  21
ATOM     21  O   UNL A   1      29.318  25.140  26.530  1.00  0.00    -0.507 OA
ATOM     22  H   UNL A   1      29.461  24.694  27.342  1.00  0.00     0.293 HD
ENDBRANCH  12  21
ENDBRANCH   4   7
ENDBRANCH   2   3
ENDBRANCH   1   2
BRANCH   1  23
ATOM     23  C   UNL A   1      35.473  21.646  24.604  1.00  0.00     0.023 C 
BRANCH  23  24
ATOM     24  C   UNL A   1      36.742  21.880  25.408  1.00  0.00     0.116 C 
BRANCH  24  25
ATOM     25  N   UNL A   1      37.649  20.739  25.400  1.00  0.00    -0.352 N 
ATOM     26  C   UNL A   1      38.949  20.707  25.850  1.00  0.00     0.251 C 
ATOM     27  H   UNL A   1      37.292  19.899  25.032  1.00  0.00     0.163 HD
ATOM     28  O   UNL A   1      39.648  19.714  25.691  1.00  0.00    -0.269 OA
BRANCH  26  29
ATOM     29  C   UNL A   1      39.481  21.929  26.484  1.00  0.00     0.039 A 
ATOM     30  C   UNL A   1      40.479  21.815  27.452  1.00  0.00     0.014 A 
ATOM     31  C   UNL A   1      39.084  23.178  26.003  1.00  0.00     0.014 A 
ATOM     32  C   UNL A   1      41.139  22.966  27.887  1.00  0.00     0.010 A 
ATOM     33  C   UNL A   1      39.800  24.306  26.373  1.00  0.00     0.010 A 
ATOM     34  C   UNL A   1      40.836  24.213  27.319  1.00  0.00    -0.014 A 
BRANCH  34  35
ATOM     35  C   UNL A   1      41.555  25.454  27.705  1.00  0.00     0.031 A 
ATOM     36  C   UNL A   1      40.813  26.520  28.464  1.00  0.00     0.074 A 
ATOM     37  C   UNL A   1      42.824  25.664  27.301  1.00  0.00     0.049 A 
ATOM     38  N   UNL A   1      41.178  27.743  28.749  1.00  0.00    -0.248 NA
ATOM     39  C   UNL A   1      39.461  26.172  28.926  1.00  0.00     0.031 C 
ATOM     40  C   UNL A   1      43.642  24.711  26.547  1.00  0.00     0.029 A 
ATOM     41  N   UNL A   1      43.643  26.755  27.452  1.00  0.00    -0.354 N 
ATOM     42  C   UNL A   1      40.093  28.316  29.401  1.00  0.00     0.074 A 
ATOM     43  C   UNL A   1      39.036  27.328  29.409  1.00  0.00     0.031 C 
ATOM     44  C   UNL A   1      44.849  25.255  26.317  1.00  0.00     0.029 A 
ATOM     45  C   UNL A   1      44.873  26.614  26.849  1.00  0.00     0.049 A 
ATOM     46  H   UNL A   1      43.376  27.564  27.946  1.00  0.00     0.167 HD
ATOM     47  C   UNL A   1      39.995  29.546  29.962  1.00  0.00     0.034 A 
ATOM     48  C   UNL A   1      45.891  27.489  26.717  1.00  0.00     0.034 A 
ATOM     49  C   UNL A   1      41.065  30.511  29.953  1.00  0.00     0.049 A 
ATOM     50  C   UNL A   1      45.743  28.874  27.305  1.00  0.00     0.074 A 
ATOM     51  C   UNL A   1      41.092  31.771  30.525  1.00  0.00     0.029 A 
ATOM     52  N   UNL A   1      42.297  30.329  29.336  1.00  0.00    -0.354 N 
ATOM     53  N   UNL A   1      44.719  29.395  27.941  1.00  0.00    -0.248 NA
ATOM     54  C   UNL A   1      46.887  29.783  27.164  1.00  0.00     0.031 C 
ATOM     55  C   UNL A   1      42.303  32.380  30.187  1.00  0.00     0.029 A 
ATOM     56  C   UNL A   1      43.076  31.465  29.489  1.00  0.00     0.049 A 
ATOM     57  H   UNL A   1      42.575  29.513  28.861  1.00  0.00     0.167 HD
ATOM     58  C   UNL A   1      45.118  30.676  28.318  1.00  0.00     0.074 A 
ATOM     59  C   UNL A   1      46.472  30.847  27.836  1.00  0.00     0.031 C 
ATOM     60  C   UNL A   1      44.431  31.618  29.013  1.00  0.00     0.034 A 
BRANCH  47  61
ATOM     61  C   UNL A   1      38.677  29.919  30.597  1.00  0.00     0.023 A 
ATOM     62  C   UNL A   1      37.676  30.597  29.879  1.00  0.00     0.031 A 
ATOM     63  C   UNL A   1      38.429  29.622  31.948  1.00  0.00     0.131 A 
ATOM     64  C   UNL A   1      36.514  31.028  30.534  1.00  0.00     0.055 A 
ATOM     65  C   UNL A   1      37.228  29.971  32.570  1.00  0.00     0.041 A 
ATOM     66  F   UNL A   1      39.355  29.000  32.694  1.00  0.00    -0.206 F 
ATOM     67  C   UNL A   1      36.269  30.694  31.867  1.00  0.00     0.022 A 
BRANCH  64  68
ATOM     68  S   UNL A   1      35.404  32.170  29.664  1.00  0.00     0.124 S 
ATOM     69  O   UNL A   1      36.323  33.241  29.288  1.00  0.00    -0.237 OA
ATOM     70  O   UNL A   1      34.900  31.347  28.570  1.00  0.00    -0.237 OA
ATOM     71  O   UNL A   1      34.420  32.532  30.681  1.00  0.00    -0.744 OA
ENDBRANCH  64  68
ENDBRANCH  47  61
BRANCH  48  72
ATOM     72  C   UNL A   1      47.133  27.106  25.983  1.00  0.00     0.023 A 
ATOM     73  C   UNL A   1      48.179  26.432  26.635  1.00  0.00     0.031 A 
ATOM     74  C   UNL A   1      47.318  27.452  24.632  1.00  0.00     0.131 A 
ATOM     75  C   UNL A   1      49.380  26.176  25.955  1.00  0.00     0.055 A 
ATOM     76  C   UNL A   1      48.491  27.139  23.942  1.00  0.00     0.041 A 
ATOM     77  F   UNL A   1      46.352  28.097  23.958  1.00  0.00    -0.206 F 
ATOM     78  C   UNL A   1      49.537  26.510  24.608  1.00  0.00     0.022 A 
BRANCH  75  79
ATOM     79  S   UNL A   1      50.777  25.492  26.889  1.00  0.00     0.124 S 
ATOM     80  O   UNL A   1      50.142  24.392  27.605  1.00  0.00    -0.237 OA
ATOM     81  O   UNL A   1      51.700  25.119  25.823  1.00  0.00    -0.237 OA
ATOM     82  O   UNL A   1      51.210  26.613  27.723  1.00  0.00    -0.744 OA
ENDBRANCH  75  79
ENDBRANCH  48  72
BRANCH  60  83
ATOM     83  C   UNL A   1      45.160  32.890  29.376  1.00  0.00     0.023 A 
ATOM     84  C   UNL A   1      45.107  34.044  28.577  1.00  0.00     0.031 A 
ATOM     85  C   UNL A   1      45.898  32.948  30.574  1.00  0.00     0.131 A 
ATOM     86  C   UNL A   1      45.811  35.194  28.966  1.00  0.00     0.055 A 
ATOM     87  C   UNL A   1      46.543  34.113  30.986  1.00  0.00     0.041 A 
ATOM     88  F   UNL A   1      45.987  31.873  31.374  1.00  0.00    -0.206 F 
ATOM     89  C   UNL A   1      46.510  35.243  30.175  1.00  0.00     0.022 A 
BRANCH  86  90
ATOM     90  S   UNL A   1      45.868  36.611  27.834  1.00  0.00     0.124 S 
ATOM     91  O   UNL A   1      44.805  37.462  28.358  1.00  0.00    -0.237 OA
ATOM     92  O   UNL A   1      47.229  37.104  28.019  1.00  0.00    -0.237 OA
ATOM     93  O   UNL A   1      45.599  36.016  26.526  1.00  0.00    -0.744 OA
ENDBRANCH  86  90
ENDBRANCH  60  83
ENDBRANCH  34  35
ENDBRANCH  26  29
ENDBRANCH  24  25
ENDBRANCH  23  24
ENDBRANCH   1  23
TORSDOF 18
ENDMDL
MODEL 2
REMARK VINA RESULT:     -11.7      6.131     10.746
REMARK SMILES NNS(=O)(=O)c1ccc(O)c(C(=O)NCCCCNC(=O)c2ccc(-c3c4nc(c(-c5cc(S(=O)(=O)[O-])ccc5F)c5ccc([nH]5)c(-c5cc(S(=O)(=O)[O-])ccc5F)c5nc(c(-c6cc(S(=O)(=O)[O-])ccc6F)c6ccc3[nH]6)C=C5)C=C4)cc2)c1
REMARK SMILES IDX 16 1 15 2 14 3 12 4 13 5 11 7 6 8 7 9 85 10 8 11 9 12 3 13
REMARK SMILES IDX 4 14 5 15 2 16 1 18 10 21 17 23 18 24 19 25 20 26 21 28
REMARK SMILES IDX 22 29 23 30 84 31 24 32 83 33 25 34 26 35 27 36 77 37 28 38
REMARK SMILES IDX 82 39 76 40 78 41 29 42 81 43 75 44 74 45 30 47 62 48 42 49
REMARK SMILES IDX 61 50 43 51 46 52 60 53 79 54 44 55 45 56 59 58 80 59 47 60
REMARK SMILES IDX 31 61 32 62 40 63 33 64 39 65 41 66 38 67 34 68 35 69 36 70
REMARK SMILES IDX 37 71 63 72 64 73 72 74 65 75 71 76 73 77 70 78 66 79 67 80
REMARK SMILES IDX 68 81 69 82 48 83 49 84 57 85 50 86 56 87 58 88 55 89 51 90
REMARK SMILES IDX 52 91 53 92 54 93
REMARK H PARENT 14 6 2 17 1 19 1 20 10 22 19 27 78 46 46 57
REMARK Flexibility Score: inf
ROOT
ATOM      1  C   UNL A   1      33.693  29.741  27.493  1.00  0.00     0.023 C 
ENDROOT
BRANCH   1   2
ATOM      2  C   UNL A   1      33.340  28.617  26.512  1.00  0.00     0.116 C 
BRANCH   2   3
ATOM      3  N   UNL A   1      33.657  29.028  25.165  1.00  0.00    -0.352 N 
ATOM      4  C   UNL A   1      32.984  28.896  23.982  1.00  0.00     0.255 C 
ATOM      5  O   UNL A   1      33.605  29.229  22.968  1.00  0.00    -0.269 OA
ATOM      6  H   UNL A   1      34.522  29.490  25.082  1.00  0.00     0.163 HD
BRANCH   4   7
ATOM      7  C   UNL A   1      31.559  28.462  23.818  1.00  0.00     0.082 A 
ATOM      8  C   UNL A   1      29.352  29.260  23.128  1.00  0.00     0.084 A 
ATOM      9  C   UNL A   1      28.794  28.003  23.338  1.00  0.00     0.025 A 
ATOM     10  C   UNL A   1      30.700  29.502  23.406  1.00  0.00     0.039 A 
ATOM     11  C   UNL A   1      29.622  26.964  23.743  1.00  0.00     0.048 A 
ATOM     12  C   UNL A   1      30.997  27.180  23.938  1.00  0.00     0.128 A 
BRANCH   8  13
ATOM     13  S   UNL A   1      28.371  30.537  22.386  1.00  0.00     0.253 S 
ATOM     14  O   UNL A   1      27.292  30.890  23.285  1.00  0.00    -0.206 OA
ATOM     15  O   UNL A   1      28.119  30.157  21.014  1.00  0.00    -0.206 OA
BRANCH  13  16
ATOM     16  N   UNL A   1      29.537  31.824  22.333  1.00  0.00    -0.150 NA
ATOM     17  H   UNL A   1      30.195  31.701  23.103  1.00  0.00     0.160 HD
BRANCH  16  18
ATOM     18  N   UNL A   1      28.943  33.100  22.446  1.00  0.00    -0.257 NA
ATOM     19  H   UNL A   1      29.284  33.701  21.696  1.00  0.00     0.138 HD
ATOM     20  H   UNL A   1      29.186  33.510  23.347  1.00  0.00     0.138 HD
ENDBRANCH  16  18
ENDBRANCH  13  16
ENDBRANCH   8  13
BRANCH  12  21
ATOM     21  O   UNL A   1      31.747  26.066  24.158  1.00  0.00    -0.507 OA
ATOM     22  H   UNL A   1      32.473  26.098  24.750  1.00  0.00     0.293 HD
ENDBRANCH  12  21
ENDBRANCH   4   7
ENDBRANCH   2   3
ENDBRANCH   1   2
BRANCH   1  23
ATOM     23  C   UNL A   1      32.920  31.037  27.260  1.00  0.00     0.023 C 
BRANCH  23  24
ATOM     24  C   UNL A   1      33.798  32.277  27.202  1.00  0.00     0.116 C 
BRANCH  24  25
ATOM     25  N   UNL A   1      33.087  33.503  27.544  1.00  0.00    -0.352 N 
ATOM     26  C   UNL A   1      33.307  34.315  28.633  1.00  0.00     0.251 C 
ATOM     27  H   UNL A   1      32.371  33.781  26.927  1.00  0.00     0.163 HD
ATOM     28  O   UNL A   1      32.571  35.265  28.871  1.00  0.00    -0.269 OA
BRANCH  26  29
ATOM     29  C   UNL A   1      34.430  33.969  29.526  1.00  0.00     0.039 A 
ATOM     30  C   UNL A   1      34.219  33.066  30.567  1.00  0.00     0.014 A 
ATOM     31  C   UNL A   1      35.712  34.435  29.225  1.00  0.00     0.014 A 
ATOM     32  C   UNL A   1      35.318  32.566  31.268  1.00  0.00     0.010 A 
ATOM     33  C   UNL A   1      36.805  33.871  29.864  1.00  0.00     0.010 A 
ATOM     34  C   UNL A   1      36.621  32.930  30.892  1.00  0.00    -0.014 A 
BRANCH  34  35
ATOM     35  C   UNL A   1      37.822  32.376  31.568  1.00  0.00     0.031 A 
ATOM     36  C   UNL A   1      38.574  31.250  30.911  1.00  0.00     0.074 A 
ATOM     37  C   UNL A   1      38.179  32.808  32.794  1.00  0.00     0.049 A 
ATOM     38  N   UNL A   1      39.532  30.500  31.390  1.00  0.00    -0.248 NA
ATOM     39  C   UNL A   1      38.160  30.899  29.544  1.00  0.00     0.031 C 
ATOM     40  C   UNL A   1      37.518  33.882  33.540  1.00  0.00     0.029 A 
ATOM     41  N   UNL A   1      39.174  32.384  33.639  1.00  0.00    -0.354 N 
ATOM     42  C   UNL A   1      39.817  29.574  30.393  1.00  0.00     0.074 A 
ATOM     43  C   UNL A   1      38.885  29.817  29.313  1.00  0.00     0.031 C 
ATOM     44  C   UNL A   1      38.137  34.041  34.721  1.00  0.00     0.029 A 
ATOM     45  C   UNL A   1      39.196  33.043  34.847  1.00  0.00     0.049 A 
ATOM     46  H   UNL A   1      39.814  31.673  33.403  1.00  0.00     0.167 HD
ATOM     47  C   UNL A   1      40.782  28.623  30.373  1.00  0.00     0.034 A 
ATOM     48  C   UNL A   1      39.962  32.848  35.940  1.00  0.00     0.034 A 
ATOM     49  C   UNL A   1      41.708  28.406  31.456  1.00  0.00     0.049 A 
ATOM     50  C   UNL A   1      40.998  31.748  35.917  1.00  0.00     0.074 A 
ATOM     51  C   UNL A   1      42.752  27.499  31.527  1.00  0.00     0.029 A 
ATOM     52  N   UNL A   1      41.700  29.098  32.661  1.00  0.00    -0.354 N 
ATOM     53  N   UNL A   1      41.274  30.894  34.958  1.00  0.00    -0.248 NA
ATOM     54  C   UNL A   1      41.831  31.592  37.116  1.00  0.00     0.031 C 
ATOM     55  C   UNL A   1      43.321  27.587  32.800  1.00  0.00     0.029 A 
ATOM     56  C   UNL A   1      42.701  28.616  33.490  1.00  0.00     0.049 A 
ATOM     57  H   UNL A   1      41.076  29.824  32.892  1.00  0.00     0.167 HD
ATOM     58  C   UNL A   1      42.344  30.133  35.423  1.00  0.00     0.074 A 
ATOM     59  C   UNL A   1      42.661  30.627  36.746  1.00  0.00     0.031 C 
ATOM     60  C   UNL A   1      43.014  29.127  34.805  1.00  0.00     0.034 A 
BRANCH  47  61
ATOM     61  C   UNL A   1      40.856  27.731  29.157  1.00  0.00     0.023 A 
ATOM     62  C   UNL A   1      41.790  27.955  28.131  1.00  0.00     0.031 A 
ATOM     63  C   UNL A   1      39.956  26.661  29.004  1.00  0.00     0.131 A 
ATOM     64  C   UNL A   1      41.751  27.176  26.965  1.00  0.00     0.055 A 
ATOM     65  C   UNL A   1      39.984  25.830  27.882  1.00  0.00     0.041 A 
ATOM     66  F   UNL A   1      39.023  26.412  29.936  1.00  0.00    -0.206 F 
ATOM     67  C   UNL A   1      40.874  26.096  26.846  1.00  0.00     0.022 A 
BRANCH  64  68
ATOM     68  S   UNL A   1      42.749  27.699  25.543  1.00  0.00     0.124 S 
ATOM     69  O   UNL A   1      44.036  27.978  26.175  1.00  0.00    -0.237 OA
ATOM     70  O   UNL A   1      42.704  26.526  24.678  1.00  0.00    -0.237 OA
ATOM     71  O   UNL A   1      42.042  28.875  25.042  1.00  0.00    -0.744 OA
ENDBRANCH  64  68
ENDBRANCH  47  61
BRANCH  48  72
ATOM     72  C   UNL A   1      39.775  33.688  37.160  1.00  0.00     0.023 A 
ATOM     73  C   UNL A   1      40.574  34.820  37.389  1.00  0.00     0.031 A 
ATOM     74  C   UNL A   1      38.829  33.344  38.144  1.00  0.00     0.131 A 
ATOM     75  C   UNL A   1      40.454  35.532  38.592  1.00  0.00     0.055 A 
ATOM     76  C   UNL A   1      38.670  34.094  39.311  1.00  0.00     0.041 A 
ATOM     77  F   UNL A   1      38.037  32.272  37.979  1.00  0.00    -0.206 F 
ATOM     78  C   UNL A   1      39.496  35.187  39.547  1.00  0.00     0.022 A 
BRANCH  75  79
ATOM     79  S   UNL A   1      41.643  36.859  38.937  1.00  0.00     0.124 S 
ATOM     80  O   UNL A   1      42.410  36.287  40.037  1.00  0.00    -0.237 OA
ATOM     81  O   UNL A   1      42.340  36.981  37.662  1.00  0.00    -0.237 OA
ATOM     82  O   UNL A   1      40.792  37.994  39.292  1.00  0.00    -0.744 OA
ENDBRANCH  75  79
ENDBRANCH  48  72
BRANCH  60  83
ATOM     83  C   UNL A   1      44.216  28.548  35.512  1.00  0.00     0.023 A 
ATOM     84  C   UNL A   1      44.107  27.526  36.470  1.00  0.00     0.031 A 
ATOM     85  C   UNL A   1      45.503  29.016  35.186  1.00  0.00     0.131 A 
ATOM     86  C   UNL A   1      45.263  27.033  37.096  1.00  0.00     0.055 A 
ATOM     87  C   UNL A   1      46.651  28.478  35.766  1.00  0.00     0.041 A 
ATOM     88  F   UNL A   1      45.666  29.995  34.281  1.00  0.00    -0.206 F 
ATOM     89  C   UNL A   1      46.534  27.487  36.735  1.00  0.00     0.022 A 
BRANCH  86  90
ATOM     90  S   UNL A   1      45.082  25.839  38.450  1.00  0.00     0.124 S 
ATOM     91  O   UNL A   1      46.437  25.784  38.990  1.00  0.00    -0.237 OA
ATOM     92  O   UNL A   1      44.083  26.480  39.301  1.00  0.00    -0.237 OA
ATOM     93  O   UNL A   1      44.632  24.622  37.777  1.00  0.00    -0.744 OA
ENDBRANCH  86  90
ENDBRANCH  60  83
ENDBRANCH  34  35
ENDBRANCH  26  29
ENDBRANCH  24  25
ENDBRANCH  23  24
ENDBRANCH   1  23
TORSDOF 18
ENDMDL
MODEL 3
REMARK VINA RESULT:     -11.6      2.651      3.756
REMARK SMILES NNS(=O)(=O)c1ccc(O)c(C(=O)NCCCCNC(=O)c2ccc(-c3c4nc(c(-c5cc(S(=O)(=O)[O-])ccc5F)c5ccc([nH]5)c(-c5cc(S(=O)(=O)[O-])ccc5F)c5nc(c(-c6cc(S(=O)(=O)[O-])ccc6F)c6ccc3[nH]6)C=C5)C=C4)cc2)c1
REMARK SMILES IDX 16 1 15 2 14 3 12 4 13 5 11 7 6 8 7 9 85 10 8 11 9 12 3 13
REMARK SMILES IDX 4 14 5 15 2 16 1 18 10 21 17 23 18 24 19 25 20 26 21 28
REMARK SMILES IDX 22 29 23 30 84 31 24 32 83 33 25 34 26 35 27 36 77 37 28 38
REMARK SMILES IDX 82 39 76 40 78 41 29 42 81 43 75 44 74 45 30 47 62 48 42 49
REMARK SMILES IDX 61 50 43 51 46 52 60 53 79 54 44 55 45 56 59 58 80 59 47 60
REMARK SMILES IDX 31 61 32 62 40 63 33 64 39 65 41 66 38 67 34 68 35 69 36 70
REMARK SMILES IDX 37 71 63 72 64 73 72 74 65 75 71 76 73 77 70 78 66 79 67 80
REMARK SMILES IDX 68 81 69 82 48 83 49 84 57 85 50 86 56 87 58 88 55 89 51 90
REMARK SMILES IDX 52 91 53 92 54 93
REMARK H PARENT 14 6 2 17 1 19 1 20 10 22 19 27 78 46 46 57
REMARK Flexibility Score: inf
ROOT
ATOM      1  C   UNL A   1      35.283  22.799  23.476  1.00  0.00     0.023 C 
ENDROOT
BRANCH   1   2
ATOM      2  C   UNL A   1      33.851  23.139  23.049  1.00  0.00     0.116 C 
BRANCH   2   3
ATOM      3  N   UNL A   1      32.928  22.761  24.093  1.00  0.00    -0.352 N 
ATOM      4  C   UNL A   1      32.240  21.605  24.337  1.00  0.00     0.255 C 
ATOM      5  O   UNL A   1      31.404  21.656  25.245  1.00  0.00    -0.269 OA
ATOM      6  H   UNL A   1      32.762  23.472  24.754  1.00  0.00     0.163 HD
BRANCH   4   7
ATOM      7  C   UNL A   1      32.459  20.285  23.662  1.00  0.00     0.082 A 
ATOM      8  C   UNL A   1      33.169  17.983  24.081  1.00  0.00     0.084 A 
ATOM      9  C   UNL A   1      32.943  17.635  22.753  1.00  0.00     0.025 A 
ATOM     10  C   UNL A   1      32.976  19.295  24.521  1.00  0.00     0.039 A 
ATOM     11  C   UNL A   1      32.434  18.596  21.889  1.00  0.00     0.048 A 
ATOM     12  C   UNL A   1      32.153  19.894  22.348  1.00  0.00     0.128 A 
BRANCH   8  13
ATOM     13  S   UNL A   1      33.589  16.722  25.254  1.00  0.00     0.253 S 
ATOM     14  O   UNL A   1      32.902  16.985  26.501  1.00  0.00    -0.206 OA
ATOM     15  O   UNL A   1      35.022  16.535  25.205  1.00  0.00    -0.206 OA
BRANCH  13  16
ATOM     16  N   UNL A   1      32.887  15.336  24.476  1.00  0.00    -0.150 NA
ATOM     17  H   UNL A   1      32.005  15.615  24.045  1.00  0.00     0.160 HD
BRANCH  16  18
ATOM     18  N   UNL A   1      32.634  14.278  25.376  1.00  0.00    -0.257 NA
ATOM     19  H   UNL A   1      32.465  14.656  26.308  1.00  0.00     0.138 HD
ATOM     20  H   UNL A   1      33.440  13.654  25.403  1.00  0.00     0.138 HD
ENDBRANCH  16  18
ENDBRANCH  13  16
ENDBRANCH   8  13
BRANCH  12  21
ATOM     21  O   UNL A   1      31.492  20.701  21.474  1.00  0.00    -0.507 OA
ATOM     22  H   UNL A   1      31.974  21.271  20.906  1.00  0.00     0.293 HD
ENDBRANCH  12  21
ENDBRANCH   4   7
ENDBRANCH   2   3
ENDBRANCH   1   2
BRANCH   1  23
ATOM     23  C   UNL A   1      35.754  23.539  24.726  1.00  0.00     0.023 C 
BRANCH  23  24
ATOM     24  C   UNL A   1      36.019  22.632  25.916  1.00  0.00     0.116 C 
BRANCH  24  25
ATOM     25  N   UNL A   1      36.896  21.510  25.602  1.00  0.00    -0.352 N 
ATOM     26  C   UNL A   1      38.260  21.448  25.773  1.00  0.00     0.251 C 
ATOM     27  H   UNL A   1      36.465  20.709  25.227  1.00  0.00     0.163 HD
ATOM     28  O   UNL A   1      38.905  20.488  25.370  1.00  0.00    -0.269 OA
BRANCH  26  29
ATOM     29  C   UNL A   1      38.920  22.603  26.414  1.00  0.00     0.039 A 
ATOM     30  C   UNL A   1      40.055  22.392  27.196  1.00  0.00     0.014 A 
ATOM     31  C   UNL A   1      38.487  23.895  26.107  1.00  0.00     0.014 A 
ATOM     32  C   UNL A   1      40.808  23.490  27.615  1.00  0.00     0.010 A 
ATOM     33  C   UNL A   1      39.284  24.976  26.449  1.00  0.00     0.010 A 
ATOM     34  C   UNL A   1      40.454  24.787  27.207  1.00  0.00    -0.014 A 
BRANCH  34  35
ATOM     35  C   UNL A   1      41.260  25.978  27.575  1.00  0.00     0.031 A 
ATOM     36  C   UNL A   1      40.625  27.058  28.408  1.00  0.00     0.074 A 
ATOM     37  C   UNL A   1      42.509  26.136  27.092  1.00  0.00     0.049 A 
ATOM     38  N   UNL A   1      41.071  28.253  28.698  1.00  0.00    -0.248 NA
ATOM     39  C   UNL A   1      39.291  26.764  28.952  1.00  0.00     0.031 C 
ATOM     40  C   UNL A   1      43.225  25.166  26.261  1.00  0.00     0.029 A 
ATOM     41  N   UNL A   1      43.391  27.181  27.215  1.00  0.00    -0.354 N 
ATOM     42  C   UNL A   1      40.062  28.860  29.437  1.00  0.00     0.074 A 
ATOM     43  C   UNL A   1      38.958  27.926  29.491  1.00  0.00     0.031 C 
ATOM     44  C   UNL A   1      44.441  25.655  25.964  1.00  0.00     0.029 A 
ATOM     45  C   UNL A   1      44.569  26.996  26.527  1.00  0.00     0.049 A 
ATOM     46  H   UNL A   1      43.199  27.988  27.745  1.00  0.00     0.167 HD
ATOM     47  C   UNL A   1      40.065  30.078  30.033  1.00  0.00     0.034 A 
ATOM     48  C   UNL A   1      45.620  27.823  26.348  1.00  0.00     0.034 A 
ATOM     49  C   UNL A   1      41.180  30.988  29.976  1.00  0.00     0.049 A 
ATOM     50  C   UNL A   1      45.582  29.196  26.979  1.00  0.00     0.074 A 
ATOM     51  C   UNL A   1      41.309  32.229  30.577  1.00  0.00     0.029 A 
ATOM     52  N   UNL A   1      42.358  30.763  29.273  1.00  0.00    -0.354 N 
ATOM     53  N   UNL A   1      44.631  29.750  27.696  1.00  0.00    -0.248 NA
ATOM     54  C   UNL A   1      46.761  30.051  26.785  1.00  0.00     0.031 C 
ATOM     55  C   UNL A   1      42.525  32.785  30.173  1.00  0.00     0.029 A 
ATOM     56  C   UNL A   1      43.203  31.853  29.402  1.00  0.00     0.049 A 
ATOM     57  H   UNL A   1      42.562  29.948  28.760  1.00  0.00     0.167 HD
ATOM     58  C   UNL A   1      45.119  30.998  28.077  1.00  0.00     0.074 A 
ATOM     59  C   UNL A   1      46.446  31.115  27.510  1.00  0.00     0.031 C 
ATOM     60  C   UNL A   1      44.529  31.952  28.840  1.00  0.00     0.034 A 
BRANCH  47  61
ATOM     61  C   UNL A   1      38.812  30.498  30.764  1.00  0.00     0.023 A 
ATOM     62  C   UNL A   1      37.730  31.095  30.094  1.00  0.00     0.031 A 
ATOM     63  C   UNL A   1      38.711  30.329  32.156  1.00  0.00     0.131 A 
ATOM     64  C   UNL A   1      36.633  31.576  30.824  1.00  0.00     0.055 A 
ATOM     65  C   UNL A   1      37.574  30.725  32.865  1.00  0.00     0.041 A 
ATOM     66  F   UNL A   1      39.721  29.790  32.857  1.00  0.00    -0.206 F 
ATOM     67  C   UNL A   1      36.534  31.368  32.201  1.00  0.00     0.022 A 
BRANCH  64  68
ATOM     68  S   UNL A   1      35.419  32.619  29.971  1.00  0.00     0.124 S 
ATOM     69  O   UNL A   1      36.229  33.781  29.615  1.00  0.00    -0.237 OA
ATOM     70  O   UNL A   1      34.998  31.770  28.862  1.00  0.00    -0.237 OA
ATOM     71  O   UNL A   1      34.403  32.865  30.991  1.00  0.00    -0.744 OA
ENDBRANCH  64  68
ENDBRANCH  47  61
BRANCH  48  72
ATOM     72  C   UNL A   1      46.790  27.399  25.524  1.00  0.00     0.023 A 
ATOM     73  C   UNL A   1      46.967  27.880  24.217  1.00  0.00     0.031 A 
ATOM     74  C   UNL A   1      47.724  26.465  26.010  1.00  0.00     0.131 A 
ATOM     75  C   UNL A   1      48.013  27.387  23.423  1.00  0.00     0.055 A 
ATOM     76  C   UNL A   1      48.801  26.025  25.238  1.00  0.00     0.041 A 
ATOM     77  F   UNL A   1      47.605  25.971  27.253  1.00  0.00    -0.206 F 
ATOM     78  C   UNL A   1      48.942  26.475  23.930  1.00  0.00     0.022 A 
BRANCH  75  79
ATOM     79  S   UNL A   1      48.084  27.877  21.677  1.00  0.00     0.124 S 
ATOM     80  O   UNL A   1      48.278  26.591  21.018  1.00  0.00    -0.237 OA
ATOM     81  O   UNL A   1      46.783  28.508  21.487  1.00  0.00    -0.237 OA
ATOM     82  O   UNL A   1      49.229  28.785  21.625  1.00  0.00    -0.744 OA
ENDBRANCH  75  79
ENDBRANCH  48  72
BRANCH  60  83
ATOM     83  C   UNL A   1      45.345  33.176  29.185  1.00  0.00     0.023 A 
ATOM     84  C   UNL A   1      45.315  34.346  28.408  1.00  0.00     0.031 A 
ATOM     85  C   UNL A   1      46.145  33.171  30.343  1.00  0.00     0.131 A 
ATOM     86  C   UNL A   1      46.101  35.448  28.778  1.00  0.00     0.055 A 
ATOM     87  C   UNL A   1      46.874  34.291  30.739  1.00  0.00     0.041 A 
ATOM     88  F   UNL A   1      46.216  32.078  31.120  1.00  0.00    -0.206 F 
ATOM     89  C   UNL A   1      46.862  35.436  29.950  1.00  0.00     0.022 A 
BRANCH  86  90
ATOM     90  S   UNL A   1      46.178  36.881  27.667  1.00  0.00     0.124 S 
ATOM     91  O   UNL A   1      44.809  36.951  27.166  1.00  0.00    -0.237 OA
ATOM     92  O   UNL A   1      46.582  37.955  28.569  1.00  0.00    -0.237 OA
ATOM     93  O   UNL A   1      47.181  36.494  26.677  1.00  0.00    -0.744 OA
ENDBRANCH  86  90
ENDBRANCH  60  83
ENDBRANCH  34  35
ENDBRANCH  26  29
ENDBRANCH  24  25
ENDBRANCH  23  24
ENDBRANCH   1  23
TORSDOF 18
ENDMDL
