MODEL 1
REMARK VINA RESULT:      -9.9      0.000      0.000
REMARK SMILES O=C(NCCCCNC(=O)[C@@H]1CCCC[C@@H]1C(=O)N1CCN(C(=O)c2sc3cc([N+](=O)[O-])ccc3c2Cl)CC1)c1ccc(-c2c3nc(c(-c4cc(S(=O)(=O)[O-])ccc4F)c4ccc([nH]4)c(-c4cc(S(=O)(=O)[O-])ccc4F)c4nc(c(-c5cc(S(=O)(=O)[O-])ccc5F)c5ccc2[nH]5)C=C4)C=C3)cc1
REMARK SMILES IDX 5 1 4 2 3 3 1 4 2 5 40 7 41 8 102 9 42 10 101 11 43 12 44 13
REMARK SMILES IDX 45 14 95 15 46 16 100 17 94 18 96 19 47 20 99 21 93 22 92 23
REMARK SMILES IDX 48 25 80 26 60 27 79 28 61 29 64 30 78 31 97 32 62 33 63 34
REMARK SMILES IDX 77 36 98 37 65 38 49 39 50 40 58 41 51 42 57 43 59 44 56 45
REMARK SMILES IDX 52 46 53 47 54 48 55 49 81 50 82 51 90 52 83 53 89 54 91 55
REMARK SMILES IDX 88 56 84 57 85 58 86 59 87 60 66 61 67 62 75 63 68 64 74 65
REMARK SMILES IDX 76 66 73 67 69 68 70 69 71 70 72 71 6 72 7 73 8 74 9 75
REMARK SMILES IDX 10 77 11 78 12 79 16 80 13 81 15 82 14 83 17 84 18 85 19 86
REMARK SMILES IDX 20 87 39 88 21 89 38 90 22 91 23 92 24 93 25 94 26 95 36 96
REMARK SMILES IDX 27 97 35 98 37 99 28 100 34 101 29 102 33 103 30 104 31 105
REMARK SMILES IDX 32 106
REMARK H PARENT 3 6 96 24 64 35 8 76
REMARK Flexibility Score: inf
ROOT
ATOM      1  C   UNL A   1      39.288  25.277  27.815  1.00  0.00     0.023 C 
ENDROOT
BRANCH   1   2
ATOM      2  C   UNL A   1      39.462  24.620  26.455  1.00  0.00     0.116 C 
BRANCH   2   3
ATOM      3  N   UNL A   1      39.860  23.200  26.507  1.00  0.00    -0.352 N 
ATOM      4  O   UNL A   1      41.299  21.498  25.972  1.00  0.00    -0.269 OA
ATOM      5  C   UNL A   1      41.128  22.664  26.257  1.00  0.00     0.251 C 
ATOM      6  H   UNL A   1      39.154  22.557  26.745  1.00  0.00     0.163 HD
BRANCH   5   7
ATOM      7  C   UNL A   1      42.267  23.587  26.423  1.00  0.00     0.039 A 
ATOM      8  C   UNL A   1      42.679  24.511  25.462  1.00  0.00     0.014 A 
ATOM      9  C   UNL A   1      42.753  23.626  27.716  1.00  0.00     0.014 A 
ATOM     10  C   UNL A   1      43.513  25.554  25.876  1.00  0.00     0.010 A 
ATOM     11  C   UNL A   1      43.236  24.820  28.152  1.00  0.00     0.010 A 
ATOM     12  C   UNL A   1      43.756  25.724  27.249  1.00  0.00    -0.014 A 
BRANCH  12  13
ATOM     13  C   UNL A   1      44.507  26.838  27.817  1.00  0.00     0.031 A 
ATOM     14  C   UNL A   1      45.941  26.561  28.083  1.00  0.00     0.074 A 
ATOM     15  C   UNL A   1      43.990  28.083  27.959  1.00  0.00     0.049 A 
ATOM     16  N   UNL A   1      46.470  26.285  29.227  1.00  0.00    -0.248 NA
ATOM     17  C   UNL A   1      46.855  26.386  26.946  1.00  0.00     0.031 C 
ATOM     18  C   UNL A   1      42.713  28.646  27.482  1.00  0.00     0.029 A 
ATOM     19  N   UNL A   1      44.568  29.165  28.537  1.00  0.00    -0.354 N 
ATOM     20  C   UNL A   1      47.832  26.127  28.995  1.00  0.00     0.074 A 
ATOM     21  C   UNL A   1      47.974  25.999  27.565  1.00  0.00     0.031 C 
ATOM     22  C   UNL A   1      42.736  29.993  27.564  1.00  0.00     0.029 A 
ATOM     23  C   UNL A   1      43.915  30.369  28.311  1.00  0.00     0.049 A 
ATOM     24  H   UNL A   1      45.388  29.101  29.077  1.00  0.00     0.167 HD
ATOM     25  C   UNL A   1      48.744  26.339  29.988  1.00  0.00     0.034 A 
ATOM     26  C   UNL A   1      44.297  31.601  28.727  1.00  0.00     0.034 A 
ATOM     27  C   UNL A   1      48.086  26.456  31.268  1.00  0.00     0.049 A 
ATOM     28  C   UNL A   1      45.243  31.398  29.853  1.00  0.00     0.074 A 
ATOM     29  C   UNL A   1      47.318  25.606  32.037  1.00  0.00     0.029 A 
ATOM     30  N   UNL A   1      47.817  27.726  31.726  1.00  0.00    -0.354 N 
ATOM     31  N   UNL A   1      44.886  30.913  31.011  1.00  0.00    -0.248 NA
ATOM     32  C   UNL A   1      46.651  31.251  29.517  1.00  0.00     0.031 C 
ATOM     33  C   UNL A   1      46.278  26.428  32.560  1.00  0.00     0.029 A 
ATOM     34  C   UNL A   1      46.517  27.747  32.164  1.00  0.00     0.049 A 
ATOM     35  H   UNL A   1      48.446  28.483  31.737  1.00  0.00     0.167 HD
ATOM     36  C   UNL A   1      45.892  30.014  31.337  1.00  0.00     0.074 A 
ATOM     37  C   UNL A   1      46.989  30.324  30.418  1.00  0.00     0.031 C 
ATOM     38  C   UNL A   1      45.649  28.911  32.107  1.00  0.00     0.034 A 
BRANCH  25  39
ATOM     39  C   UNL A   1      50.170  26.781  29.770  1.00  0.00     0.023 A 
ATOM     40  C   UNL A   1      50.514  28.044  29.257  1.00  0.00     0.031 A 
ATOM     41  C   UNL A   1      51.238  26.013  30.278  1.00  0.00     0.131 A 
ATOM     42  C   UNL A   1      51.838  28.502  29.254  1.00  0.00     0.055 A 
ATOM     43  C   UNL A   1      52.552  26.496  30.337  1.00  0.00     0.041 A 
ATOM     44  F   UNL A   1      51.030  24.789  30.787  1.00  0.00    -0.206 F 
ATOM     45  C   UNL A   1      52.858  27.749  29.825  1.00  0.00     0.022 A 
BRANCH  42  46
ATOM     46  S   UNL A   1      52.251  30.107  28.515  1.00  0.00     0.124 S 
ATOM     47  O   UNL A   1      52.125  29.821  27.090  1.00  0.00    -0.237 OA
ATOM     48  O   UNL A   1      51.215  30.967  29.083  1.00  0.00    -0.237 OA
ATOM     49  O   UNL A   1      53.603  30.367  28.999  1.00  0.00    -0.744 OA
ENDBRANCH  42  46
ENDBRANCH  25  39
BRANCH  26  50
ATOM     50  C   UNL A   1      44.354  32.796  27.853  1.00  0.00     0.023 A 
ATOM     51  C   UNL A   1      43.705  33.981  28.249  1.00  0.00     0.031 A 
ATOM     52  C   UNL A   1      44.753  32.697  26.510  1.00  0.00     0.131 A 
ATOM     53  C   UNL A   1      43.412  34.980  27.313  1.00  0.00     0.055 A 
ATOM     54  C   UNL A   1      44.482  33.709  25.581  1.00  0.00     0.041 A 
ATOM     55  F   UNL A   1      45.350  31.582  26.061  1.00  0.00    -0.206 F 
ATOM     56  C   UNL A   1      43.790  34.850  25.977  1.00  0.00     0.022 A 
BRANCH  53  57
ATOM     57  S   UNL A   1      42.429  36.424  27.801  1.00  0.00     0.124 S 
ATOM     58  O   UNL A   1      43.298  37.064  28.785  1.00  0.00    -0.237 OA
ATOM     59  O   UNL A   1      42.290  37.128  26.531  1.00  0.00    -0.237 OA
ATOM     60  O   UNL A   1      41.208  35.832  28.339  1.00  0.00    -0.744 OA
ENDBRANCH  53  57
ENDBRANCH  26  50
BRANCH  38  61
ATOM     61  C   UNL A   1      44.297  28.759  32.780  1.00  0.00     0.023 A 
ATOM     62  C   UNL A   1      44.186  29.238  34.096  1.00  0.00     0.031 A 
ATOM     63  C   UNL A   1      43.239  27.967  32.293  1.00  0.00     0.131 A 
ATOM     64  C   UNL A   1      43.095  28.878  34.896  1.00  0.00     0.055 A 
ATOM     65  C   UNL A   1      42.115  27.666  33.073  1.00  0.00     0.041 A 
ATOM     66  F   UNL A   1      43.292  27.388  31.088  1.00  0.00    -0.206 F 
ATOM     67  C   UNL A   1      42.048  28.105  34.389  1.00  0.00     0.022 A 
BRANCH  64  68
ATOM     68  S   UNL A   1      43.096  29.271  36.663  1.00  0.00     0.124 S 
ATOM     69  O   UNL A   1      41.858  30.031  36.810  1.00  0.00    -0.237 OA
ATOM     70  O   UNL A   1      43.093  27.945  37.276  1.00  0.00    -0.237 OA
ATOM     71  O   UNL A   1      44.324  30.037  36.854  1.00  0.00    -0.744 OA
ENDBRANCH  64  68
ENDBRANCH  38  61
ENDBRANCH  12  13
ENDBRANCH   5   7
ENDBRANCH   2   3
ENDBRANCH   1   2
BRANCH   1  72
ATOM     72  C   UNL A   1      40.077  26.580  27.993  1.00  0.00     0.023 C 
BRANCH  72  73
ATOM     73  C   UNL A   1      39.323  27.839  28.408  1.00  0.00     0.116 C 
BRANCH  73  74
ATOM     74  N   UNL A   1      38.935  27.808  29.804  1.00  0.00    -0.356 N 
ATOM     75  C   UNL A   1      39.168  28.601  30.875  1.00  0.00     0.223 C 
ATOM     76  H   UNL A   1      38.372  27.030  30.024  1.00  0.00     0.163 HD
ATOM     77  O   UNL A   1      38.780  28.170  31.968  1.00  0.00    -0.275 OA
BRANCH  75  78
ATOM     78  C   UNL A   1      39.825  29.986  30.853  1.00  0.00     0.091 C 
ATOM     79  C   UNL A   1      40.376  30.625  32.118  1.00  0.00     0.014 C 
ATOM     80  C   UNL A   1      39.018  31.006  30.003  1.00  0.00     0.091 C 
ATOM     81  C   UNL A   1      41.312  31.788  31.784  1.00  0.00     0.001 C 
ATOM     82  C   UNL A   1      39.913  32.202  29.656  1.00  0.00     0.014 C 
ATOM     83  C   UNL A   1      40.737  32.798  30.800  1.00  0.00     0.001 C 
BRANCH  80  84
ATOM     84  C   UNL A   1      37.570  31.172  30.534  1.00  0.00     0.226 C 
ATOM     85  O   UNL A   1      37.398  31.874  31.538  1.00  0.00    -0.275 OA
ATOM     86  N   UNL A   1      36.454  30.732  29.859  1.00  0.00    -0.339 N 
ATOM     87  C   UNL A   1      35.195  31.479  29.998  1.00  0.00     0.141 C 
ATOM     88  C   UNL A   1      36.251  29.473  29.159  1.00  0.00     0.141 C 
ATOM     89  C   UNL A   1      34.678  31.831  28.593  1.00  0.00     0.141 C 
ATOM     90  C   UNL A   1      35.672  29.724  27.755  1.00  0.00     0.141 C 
ATOM     91  N   UNL A   1      34.504  30.625  27.783  1.00  0.00    -0.334 N 
ATOM     92  C   UNL A   1      33.431  30.572  26.897  1.00  0.00     0.265 C 
ATOM     93  O   UNL A   1      32.720  31.553  26.689  1.00  0.00    -0.268 OA
BRANCH  92  94
ATOM     94  C   UNL A   1      33.178  29.299  26.263  1.00  0.00     0.112 A 
ATOM     95  S   UNL A   1      33.918  28.950  24.770  1.00  0.00    -0.128 S 
ATOM     96  C   UNL A   1      32.352  28.280  26.679  1.00  0.00     0.072 A 
ATOM     97  C   UNL A   1      33.218  27.379  24.707  1.00  0.00     0.043 A 
ATOM     98  C   UNL A   1      32.422  27.127  25.828  1.00  0.00     0.012 A 
ATOM     99  Cl  UNL A   1      31.339  28.327  28.070  1.00  0.00    -0.082 Cl
ATOM    100  C   UNL A   1      33.383  26.427  23.681  1.00  0.00     0.105 A 
ATOM    101  C   UNL A   1      31.815  25.851  25.946  1.00  0.00     0.018 A 
ATOM    102  C   UNL A   1      32.735  25.191  23.816  1.00  0.00     0.270 A 
ATOM    103  C   UNL A   1      31.976  24.891  24.946  1.00  0.00     0.086 A 
BRANCH 102 104
ATOM    104  N   UNL A   1      32.842  24.200  22.738  1.00  0.00     0.062 N 
ATOM    105  O   UNL A   1      32.401  23.063  22.952  1.00  0.00    -0.258 OA
ATOM    106  O   UNL A   1      33.378  24.558  21.679  1.00  0.00    -0.258 OA
ENDBRANCH 102 104
ENDBRANCH  92  94
ENDBRANCH  80  84
ENDBRANCH  75  78
ENDBRANCH  73  74
ENDBRANCH  72  73
ENDBRANCH   1  72
TORSDOF 17
ENDMDL
MODEL 2
REMARK VINA RESULT:      -9.8      4.133     11.854
REMARK SMILES O=C(NCCCCNC(=O)[C@@H]1CCCC[C@@H]1C(=O)N1CCN(C(=O)c2sc3cc([N+](=O)[O-])ccc3c2Cl)CC1)c1ccc(-c2c3nc(c(-c4cc(S(=O)(=O)[O-])ccc4F)c4ccc([nH]4)c(-c4cc(S(=O)(=O)[O-])ccc4F)c4nc(c(-c5cc(S(=O)(=O)[O-])ccc5F)c5ccc2[nH]5)C=C4)C=C3)cc1
REMARK SMILES IDX 5 1 4 2 3 3 1 4 2 5 40 7 41 8 102 9 42 10 101 11 43 12 44 13
REMARK SMILES IDX 45 14 95 15 46 16 100 17 94 18 96 19 47 20 99 21 93 22 92 23
REMARK SMILES IDX 48 25 80 26 60 27 79 28 61 29 64 30 78 31 97 32 62 33 63 34
REMARK SMILES IDX 77 36 98 37 65 38 49 39 50 40 58 41 51 42 57 43 59 44 56 45
REMARK SMILES IDX 52 46 53 47 54 48 55 49 81 50 82 51 90 52 83 53 89 54 91 55
REMARK SMILES IDX 88 56 84 57 85 58 86 59 87 60 66 61 67 62 75 63 68 64 74 65
REMARK SMILES IDX 76 66 73 67 69 68 70 69 71 70 72 71 6 72 7 73 8 74 9 75
REMARK SMILES IDX 10 77 11 78 12 79 16 80 13 81 15 82 14 83 17 84 18 85 19 86
REMARK SMILES IDX 20 87 39 88 21 89 38 90 22 91 23 92 24 93 25 94 26 95 36 96
REMARK SMILES IDX 27 97 35 98 37 99 28 100 34 101 29 102 33 103 30 104 31 105
REMARK SMILES IDX 32 106
REMARK H PARENT 3 6 96 24 64 35 8 76
REMARK Flexibility Score: inf
ROOT
ATOM      1  C   UNL A   1      43.244  25.074  24.903  1.00  0.00     0.023 C 
ENDROOT
BRANCH   1   2
ATOM      2  C   UNL A   1      43.387  23.702  25.544  1.00  0.00     0.116 C 
BRANCH   2   3
ATOM      3  N   UNL A   1      42.192  22.844  25.430  1.00  0.00    -0.352 N 
ATOM      4  O   UNL A   1      40.446  21.701  26.376  1.00  0.00    -0.269 OA
ATOM      5  C   UNL A   1      41.184  22.662  26.384  1.00  0.00     0.251 C 
ATOM      6  H   UNL A   1      42.093  22.344  24.589  1.00  0.00     0.163 HD
BRANCH   5   7
ATOM      7  C   UNL A   1      41.023  23.745  27.372  1.00  0.00     0.039 A 
ATOM      8  C   UNL A   1      41.956  24.052  28.364  1.00  0.00     0.014 A 
ATOM      9  C   UNL A   1      39.970  24.592  27.086  1.00  0.00     0.014 A 
ATOM     10  C   UNL A   1      41.862  25.302  28.983  1.00  0.00     0.010 A 
ATOM     11  C   UNL A   1      40.127  25.900  27.424  1.00  0.00     0.010 A 
ATOM     12  C   UNL A   1      40.956  26.246  28.471  1.00  0.00    -0.014 A 
BRANCH  12  13
ATOM     13  C   UNL A   1      40.846  27.620  28.949  1.00  0.00     0.031 A 
ATOM     14  C   UNL A   1      41.756  28.590  28.292  1.00  0.00     0.074 A 
ATOM     15  C   UNL A   1      39.889  28.026  29.819  1.00  0.00     0.049 A 
ATOM     16  N   UNL A   1      42.863  29.050  28.770  1.00  0.00    -0.248 NA
ATOM     17  C   UNL A   1      41.520  28.948  26.886  1.00  0.00     0.031 C 
ATOM     18  C   UNL A   1      38.713  27.309  30.349  1.00  0.00     0.029 A 
ATOM     19  N   UNL A   1      39.740  29.251  30.383  1.00  0.00    -0.354 N 
ATOM     20  C   UNL A   1      43.354  29.940  27.821  1.00  0.00     0.074 A 
ATOM     21  C   UNL A   1      42.604  29.682  26.616  1.00  0.00     0.031 C 
ATOM     22  C   UNL A   1      37.860  28.178  30.931  1.00  0.00     0.029 A 
ATOM     23  C   UNL A   1      38.529  29.455  31.028  1.00  0.00     0.049 A 
ATOM     24  H   UNL A   1      40.439  29.942  30.336  1.00  0.00     0.167 HD
ATOM     25  C   UNL A   1      44.184  30.963  28.179  1.00  0.00     0.034 A 
ATOM     26  C   UNL A   1      38.101  30.592  31.631  1.00  0.00     0.034 A 
ATOM     27  C   UNL A   1      44.647  30.793  29.536  1.00  0.00     0.049 A 
ATOM     28  C   UNL A   1      39.308  31.410  31.907  1.00  0.00     0.074 A 
ATOM     29  C   UNL A   1      45.405  29.837  30.181  1.00  0.00     0.029 A 
ATOM     30  N   UNL A   1      43.967  31.467  30.525  1.00  0.00    -0.354 N 
ATOM     31  N   UNL A   1      40.221  31.070  32.777  1.00  0.00    -0.248 NA
ATOM     32  C   UNL A   1      39.745  32.321  30.860  1.00  0.00     0.031 C 
ATOM     33  C   UNL A   1      44.770  29.661  31.445  1.00  0.00     0.029 A 
ATOM     34  C   UNL A   1      43.721  30.580  31.543  1.00  0.00     0.049 A 
ATOM     35  H   UNL A   1      43.705  32.415  30.505  1.00  0.00     0.167 HD
ATOM     36  C   UNL A   1      41.425  31.344  32.142  1.00  0.00     0.074 A 
ATOM     37  C   UNL A   1      41.068  32.184  30.997  1.00  0.00     0.031 C 
ATOM     38  C   UNL A   1      42.559  30.631  32.414  1.00  0.00     0.034 A 
BRANCH  25  39
ATOM     39  C   UNL A   1      44.302  32.275  27.444  1.00  0.00     0.023 A 
ATOM     40  C   UNL A   1      43.632  33.445  27.846  1.00  0.00     0.031 A 
ATOM     41  C   UNL A   1      45.271  32.440  26.433  1.00  0.00     0.131 A 
ATOM     42  C   UNL A   1      43.915  34.690  27.270  1.00  0.00     0.055 A 
ATOM     43  C   UNL A   1      45.602  33.693  25.903  1.00  0.00     0.041 A 
ATOM     44  F   UNL A   1      45.968  31.392  25.966  1.00  0.00    -0.206 F 
ATOM     45  C   UNL A   1      44.923  34.829  26.323  1.00  0.00     0.022 A 
BRANCH  42  46
ATOM     46  S   UNL A   1      42.975  36.162  27.762  1.00  0.00     0.124 S 
ATOM     47  O   UNL A   1      41.665  35.595  28.062  1.00  0.00    -0.237 OA
ATOM     48  O   UNL A   1      43.743  36.628  28.915  1.00  0.00    -0.237 OA
ATOM     49  O   UNL A   1      43.047  37.021  26.584  1.00  0.00    -0.744 OA
ENDBRANCH  42  46
ENDBRANCH  25  39
BRANCH  26  50
ATOM     50  C   UNL A   1      36.767  31.199  31.414  1.00  0.00     0.023 A 
ATOM     51  C   UNL A   1      36.286  31.376  30.102  1.00  0.00     0.031 A 
ATOM     52  C   UNL A   1      36.107  31.891  32.442  1.00  0.00     0.131 A 
ATOM     53  C   UNL A   1      35.238  32.267  29.842  1.00  0.00     0.055 A 
ATOM     54  C   UNL A   1      35.042  32.763  32.182  1.00  0.00     0.041 A 
ATOM     55  F   UNL A   1      36.533  31.789  33.711  1.00  0.00    -0.206 F 
ATOM     56  C   UNL A   1      34.615  32.969  30.873  1.00  0.00     0.022 A 
BRANCH  53  57
ATOM     57  S   UNL A   1      34.741  32.612  28.132  1.00  0.00     0.124 S 
ATOM     58  O   UNL A   1      33.553  33.441  28.323  1.00  0.00    -0.237 OA
ATOM     59  O   UNL A   1      35.917  33.306  27.619  1.00  0.00    -0.237 OA
ATOM     60  O   UNL A   1      34.491  31.284  27.581  1.00  0.00    -0.744 OA
ENDBRANCH  53  57
ENDBRANCH  26  50
BRANCH  38  61
ATOM     61  C   UNL A   1      42.557  29.645  33.568  1.00  0.00     0.023 A 
ATOM     62  C   UNL A   1      43.067  30.103  34.794  1.00  0.00     0.031 A 
ATOM     63  C   UNL A   1      42.322  28.261  33.446  1.00  0.00     0.131 A 
ATOM     64  C   UNL A   1      43.386  29.200  35.815  1.00  0.00     0.055 A 
ATOM     65  C   UNL A   1      42.577  27.368  34.494  1.00  0.00     0.041 A 
ATOM     66  F   UNL A   1      41.926  27.716  32.291  1.00  0.00    -0.206 F 
ATOM     67  C   UNL A   1      43.131  27.833  35.681  1.00  0.00     0.022 A 
BRANCH  64  68
ATOM     68  S   UNL A   1      44.292  29.765  37.278  1.00  0.00     0.124 S 
ATOM     69  O   UNL A   1      45.525  30.285  36.694  1.00  0.00    -0.237 OA
ATOM     70  O   UNL A   1      43.388  30.771  37.832  1.00  0.00    -0.237 OA
ATOM     71  O   UNL A   1      44.444  28.559  38.087  1.00  0.00    -0.744 OA
ENDBRANCH  64  68
ENDBRANCH  38  61
ENDBRANCH  12  13
ENDBRANCH   5   7
ENDBRANCH   2   3
ENDBRANCH   1   2
BRANCH   1  72
ATOM     72  C   UNL A   1      43.675  26.240  25.799  1.00  0.00     0.023 C 
BRANCH  72  73
ATOM     73  C   UNL A   1      45.154  26.603  25.865  1.00  0.00     0.116 C 
BRANCH  73  74
ATOM     74  N   UNL A   1      45.994  25.438  26.065  1.00  0.00    -0.356 N 
ATOM     75  C   UNL A   1      46.625  24.891  27.130  1.00  0.00     0.223 C 
ATOM     76  H   UNL A   1      46.137  24.927  25.236  1.00  0.00     0.163 HD
ATOM     77  O   UNL A   1      47.388  23.948  26.886  1.00  0.00    -0.275 OA
BRANCH  75  78
ATOM     78  C   UNL A   1      46.456  25.303  28.597  1.00  0.00     0.091 C 
ATOM     79  C   UNL A   1      45.286  26.161  29.053  1.00  0.00     0.014 C 
ATOM     80  C   UNL A   1      47.792  25.777  29.232  1.00  0.00     0.091 C 
ATOM     81  C   UNL A   1      45.120  26.102  30.572  1.00  0.00     0.001 C 
ATOM     82  C   UNL A   1      47.670  25.749  30.760  1.00  0.00     0.014 C 
ATOM     83  C   UNL A   1      46.399  26.361  31.357  1.00  0.00     0.001 C 
BRANCH  80  84
ATOM     84  C   UNL A   1      48.395  26.982  28.463  1.00  0.00     0.226 C 
ATOM     85  O   UNL A   1      47.667  27.961  28.260  1.00  0.00    -0.275 OA
ATOM     86  N   UNL A   1      49.730  27.097  28.148  1.00  0.00    -0.339 N 
ATOM     87  C   UNL A   1      50.337  28.436  28.093  1.00  0.00     0.141 C 
ATOM     88  C   UNL A   1      50.637  26.080  27.637  1.00  0.00     0.141 C 
ATOM     89  C   UNL A   1      51.576  28.448  29.003  1.00  0.00     0.141 C 
ATOM     90  C   UNL A   1      51.941  26.061  28.452  1.00  0.00     0.141 C 
ATOM     91  N   UNL A   1      52.526  27.407  28.606  1.00  0.00    -0.334 N 
ATOM     92  C   UNL A   1      53.888  27.681  28.704  1.00  0.00     0.265 C 
ATOM     93  O   UNL A   1      54.299  28.711  29.234  1.00  0.00    -0.268 OA
BRANCH  92  94
ATOM     94  C   UNL A   1      54.786  26.710  28.123  1.00  0.00     0.112 A 
ATOM     95  S   UNL A   1      55.023  26.698  26.437  1.00  0.00    -0.128 S 
ATOM     96  C   UNL A   1      55.489  25.706  28.749  1.00  0.00     0.072 A 
ATOM     97  C   UNL A   1      56.155  25.406  26.531  1.00  0.00     0.043 A 
ATOM     98  C   UNL A   1      56.348  24.989  27.851  1.00  0.00     0.012 A 
ATOM     99  Cl  UNL A   1      55.397  25.324  30.425  1.00  0.00    -0.082 Cl
ATOM    100  C   UNL A   1      56.828  24.799  25.452  1.00  0.00     0.105 A 
ATOM    101  C   UNL A   1      57.293  23.961  28.098  1.00  0.00     0.018 A 
ATOM    102  C   UNL A   1      57.726  23.759  25.733  1.00  0.00     0.270 A 
ATOM    103  C   UNL A   1      57.979  23.356  27.043  1.00  0.00     0.086 A 
BRANCH 102 104
ATOM    104  N   UNL A   1      58.400  23.071  24.625  1.00  0.00     0.062 N 
ATOM    105  O   UNL A   1      58.184  23.479  23.476  1.00  0.00    -0.258 OA
ATOM    106  O   UNL A   1      59.138  22.116  24.905  1.00  0.00    -0.258 OA
ENDBRANCH 102 104
ENDBRANCH  92  94
ENDBRANCH  80  84
ENDBRANCH  75  78
ENDBRANCH  73  74
ENDBRANCH  72  73
ENDBRANCH   1  72
TORSDOF 17
ENDMDL
MODEL 3
REMARK VINA RESULT:      -9.8      4.750     10.800
REMARK SMILES O=C(NCCCCNC(=O)[C@@H]1CCCC[C@@H]1C(=O)N1CCN(C(=O)c2sc3cc([N+](=O)[O-])ccc3c2Cl)CC1)c1ccc(-c2c3nc(c(-c4cc(S(=O)(=O)[O-])ccc4F)c4ccc([nH]4)c(-c4cc(S(=O)(=O)[O-])ccc4F)c4nc(c(-c5cc(S(=O)(=O)[O-])ccc5F)c5ccc2[nH]5)C=C4)C=C3)cc1
REMARK SMILES IDX 5 1 4 2 3 3 1 4 2 5 40 7 41 8 102 9 42 10 101 11 43 12 44 13
REMARK SMILES IDX 45 14 95 15 46 16 100 17 94 18 96 19 47 20 99 21 93 22 92 23
REMARK SMILES IDX 48 25 80 26 60 27 79 28 61 29 64 30 78 31 97 32 62 33 63 34
REMARK SMILES IDX 77 36 98 37 65 38 49 39 50 40 58 41 51 42 57 43 59 44 56 45
REMARK SMILES IDX 52 46 53 47 54 48 55 49 81 50 82 51 90 52 83 53 89 54 91 55
REMARK SMILES IDX 88 56 84 57 85 58 86 59 87 60 66 61 67 62 75 63 68 64 74 65
REMARK SMILES IDX 76 66 73 67 69 68 70 69 71 70 72 71 6 72 7 73 8 74 9 75
REMARK SMILES IDX 10 77 11 78 12 79 16 80 13 81 15 82 14 83 17 84 18 85 19 86
REMARK SMILES IDX 20 87 39 88 21 89 38 90 22 91 23 92 24 93 25 94 26 95 36 96
REMARK SMILES IDX 27 97 35 98 37 99 28 100 34 101 29 102 33 103 30 104 31 105
REMARK SMILES IDX 32 106
REMARK H PARENT 3 6 96 24 64 35 8 76
REMARK Flexibility Score: inf
ROOT
ATOM      1  C   UNL A   1      47.058  32.806  27.179  1.00  0.00     0.023 C 
ENDROOT
BRANCH   1   2
ATOM      2  C   UNL A   1      46.287  34.108  27.022  1.00  0.00     0.116 C 
BRANCH   2   3
ATOM      3  N   UNL A   1      46.647  35.155  27.997  1.00  0.00    -0.352 N 
ATOM      4  O   UNL A   1      46.062  36.773  29.511  1.00  0.00    -0.269 OA
ATOM      5  C   UNL A   1      45.833  35.700  28.996  1.00  0.00     0.251 C 
ATOM      6  H   UNL A   1      47.563  35.509  27.939  1.00  0.00     0.163 HD
BRANCH   5   7
ATOM      7  C   UNL A   1      44.703  34.862  29.442  1.00  0.00     0.039 A 
ATOM      8  C   UNL A   1      44.820  33.787  30.325  1.00  0.00     0.014 A 
ATOM      9  C   UNL A   1      43.470  35.379  29.095  1.00  0.00     0.014 A 
ATOM     10  C   UNL A   1      43.655  33.321  30.942  1.00  0.00     0.010 A 
ATOM     11  C   UNL A   1      42.447  35.162  29.964  1.00  0.00     0.010 A 
ATOM     12  C   UNL A   1      42.464  34.051  30.782  1.00  0.00    -0.014 A 
BRANCH  12  13
ATOM     13  C   UNL A   1      41.214  33.739  31.466  1.00  0.00     0.031 A 
ATOM     14  C   UNL A   1      41.283  33.767  32.948  1.00  0.00     0.074 A 
ATOM     15  C   UNL A   1      40.035  33.581  30.816  1.00  0.00     0.049 A 
ATOM     16  N   UNL A   1      41.374  32.746  33.732  1.00  0.00    -0.248 NA
ATOM     17  C   UNL A   1      41.457  35.058  33.629  1.00  0.00     0.031 C 
ATOM     18  C   UNL A   1      39.686  33.813  29.402  1.00  0.00     0.029 A 
ATOM     19  N   UNL A   1      38.836  33.219  31.338  1.00  0.00    -0.354 N 
ATOM     20  C   UNL A   1      41.384  33.252  35.027  1.00  0.00     0.074 A 
ATOM     21  C   UNL A   1      41.637  34.666  34.893  1.00  0.00     0.031 C 
ATOM     22  C   UNL A   1      38.344  33.836  29.249  1.00  0.00     0.029 A 
ATOM     23  C   UNL A   1      37.752  33.388  30.489  1.00  0.00     0.049 A 
ATOM     24  H   UNL A   1      38.744  32.865  32.252  1.00  0.00     0.167 HD
ATOM     25  C   UNL A   1      40.962  32.495  36.081  1.00  0.00     0.034 A 
ATOM     26  C   UNL A   1      36.447  33.154  30.768  1.00  0.00     0.034 A 
ATOM     27  C   UNL A   1      40.799  31.116  35.686  1.00  0.00     0.049 A 
ATOM     28  C   UNL A   1      36.416  32.245  31.941  1.00  0.00     0.074 A 
ATOM     29  C   UNL A   1      41.656  30.141  35.218  1.00  0.00     0.029 A 
ATOM     30  N   UNL A   1      39.532  30.704  35.337  1.00  0.00    -0.354 N 
ATOM     31  N   UNL A   1      36.822  31.005  31.898  1.00  0.00    -0.248 NA
ATOM     32  C   UNL A   1      36.420  32.863  33.258  1.00  0.00     0.031 C 
ATOM     33  C   UNL A   1      40.921  29.468  34.199  1.00  0.00     0.029 A 
ATOM     34  C   UNL A   1      39.629  30.001  34.162  1.00  0.00     0.049 A 
ATOM     35  H   UNL A   1      38.706  30.883  35.841  1.00  0.00     0.167 HD
ATOM     36  C   UNL A   1      37.552  30.837  33.067  1.00  0.00     0.074 A 
ATOM     37  C   UNL A   1      37.203  31.990  33.900  1.00  0.00     0.031 C 
ATOM     38  C   UNL A   1      38.593  29.955  33.145  1.00  0.00     0.034 A 
BRANCH  25  39
ATOM     39  C   UNL A   1      40.371  33.045  37.355  1.00  0.00     0.023 A 
ATOM     40  C   UNL A   1      39.114  32.656  37.851  1.00  0.00     0.031 A 
ATOM     41  C   UNL A   1      41.160  33.824  38.227  1.00  0.00     0.131 A 
ATOM     42  C   UNL A   1      38.680  33.026  39.131  1.00  0.00     0.055 A 
ATOM     43  C   UNL A   1      40.756  34.140  39.530  1.00  0.00     0.041 A 
ATOM     44  F   UNL A   1      42.375  34.258  37.858  1.00  0.00    -0.206 F 
ATOM     45  C   UNL A   1      39.509  33.738  39.990  1.00  0.00     0.022 A 
BRANCH  42  46
ATOM     46  S   UNL A   1      37.021  32.568  39.704  1.00  0.00     0.124 S 
ATOM     47  O   UNL A   1      37.223  31.189  40.135  1.00  0.00    -0.237 OA
ATOM     48  O   UNL A   1      36.800  33.541  40.772  1.00  0.00    -0.237 OA
ATOM     49  O   UNL A   1      36.189  32.752  38.519  1.00  0.00    -0.744 OA
ENDBRANCH  42  46
ENDBRANCH  25  39
BRANCH  26  50
ATOM     50  C   UNL A   1      35.348  34.105  30.475  1.00  0.00     0.023 A 
ATOM     51  C   UNL A   1      34.963  35.046  31.449  1.00  0.00     0.031 A 
ATOM     52  C   UNL A   1      34.472  33.894  29.398  1.00  0.00     0.131 A 
ATOM     53  C   UNL A   1      33.719  35.684  31.370  1.00  0.00     0.055 A 
ATOM     54  C   UNL A   1      33.239  34.553  29.308  1.00  0.00     0.041 A 
ATOM     55  F   UNL A   1      34.766  32.989  28.452  1.00  0.00    -0.206 F 
ATOM     56  C   UNL A   1      32.849  35.440  30.308  1.00  0.00     0.022 A 
BRANCH  53  57
ATOM     57  S   UNL A   1      33.164  36.766  32.716  1.00  0.00     0.124 S 
ATOM     58  O   UNL A   1      34.087  36.409  33.791  1.00  0.00    -0.237 OA
ATOM     59  O   UNL A   1      33.359  38.087  32.130  1.00  0.00    -0.237 OA
ATOM     60  O   UNL A   1      31.778  36.358  32.924  1.00  0.00    -0.744 OA
ENDBRANCH  53  57
ENDBRANCH  26  50
BRANCH  38  61
ATOM     61  C   UNL A   1      38.843  28.999  31.992  1.00  0.00     0.023 A 
ATOM     62  C   UNL A   1      39.166  29.573  30.751  1.00  0.00     0.031 A 
ATOM     63  C   UNL A   1      38.537  27.624  32.005  1.00  0.00     0.131 A 
ATOM     64  C   UNL A   1      39.115  28.809  29.579  1.00  0.00     0.055 A 
ATOM     65  C   UNL A   1      38.555  26.847  30.840  1.00  0.00     0.041 A 
ATOM     66  F   UNL A   1      38.128  27.006  33.119  1.00  0.00    -0.206 F 
ATOM     67  C   UNL A   1      38.825  27.443  29.614  1.00  0.00     0.022 A 
BRANCH  64  68
ATOM     68  S   UNL A   1      39.264  29.615  27.963  1.00  0.00     0.124 S 
ATOM     69  O   UNL A   1      37.913  30.125  27.748  1.00  0.00    -0.237 OA
ATOM     70  O   UNL A   1      40.285  30.629  28.216  1.00  0.00    -0.237 OA
ATOM     71  O   UNL A   1      39.674  28.537  27.068  1.00  0.00    -0.744 OA
ENDBRANCH  64  68
ENDBRANCH  38  61
ENDBRANCH  12  13
ENDBRANCH   5   7
ENDBRANCH   2   3
ENDBRANCH   1   2
BRANCH   1  72
ATOM     72  C   UNL A   1      46.244  31.546  26.864  1.00  0.00     0.023 C 
BRANCH  72  73
ATOM     73  C   UNL A   1      46.180  30.438  27.908  1.00  0.00     0.116 C 
BRANCH  73  74
ATOM     74  N   UNL A   1      46.513  30.918  29.234  1.00  0.00    -0.356 N 
ATOM     75  C   UNL A   1      46.683  30.335  30.444  1.00  0.00     0.223 C 
ATOM     76  H   UNL A   1      46.648  31.893  29.262  1.00  0.00     0.163 HD
ATOM     77  O   UNL A   1      46.828  31.102  31.404  1.00  0.00    -0.275 OA
BRANCH  75  78
ATOM     78  C   UNL A   1      46.749  28.829  30.725  1.00  0.00     0.091 C 
ATOM     79  C   UNL A   1      47.094  27.830  29.633  1.00  0.00     0.014 C 
ATOM     80  C   UNL A   1      45.554  28.340  31.589  1.00  0.00     0.091 C 
ATOM     81  C   UNL A   1      47.480  26.475  30.228  1.00  0.00     0.001 C 
ATOM     82  C   UNL A   1      45.889  26.973  32.197  1.00  0.00     0.014 C 
ATOM     83  C   UNL A   1      46.493  25.932  31.252  1.00  0.00     0.001 C 
BRANCH  80  84
ATOM     84  C   UNL A   1      44.194  28.640  30.904  1.00  0.00     0.226 C 
ATOM     85  O   UNL A   1      43.651  29.726  31.146  1.00  0.00    -0.275 OA
ATOM     86  N   UNL A   1      43.645  27.852  29.918  1.00  0.00    -0.339 N 
ATOM     87  C   UNL A   1      42.822  28.484  28.876  1.00  0.00     0.141 C 
ATOM     88  C   UNL A   1      43.570  26.401  29.848  1.00  0.00     0.141 C 
ATOM     89  C   UNL A   1      43.379  28.078  27.501  1.00  0.00     0.141 C 
ATOM     90  C   UNL A   1      44.052  25.902  28.474  1.00  0.00     0.141 C 
ATOM     91  N   UNL A   1      43.407  26.621  27.358  1.00  0.00    -0.334 N 
ATOM     92  C   UNL A   1      43.123  26.073  26.110  1.00  0.00     0.265 C 
ATOM     93  O   UNL A   1      42.984  26.780  25.114  1.00  0.00    -0.268 OA
BRANCH  92  94
ATOM     94  C   UNL A   1      42.968  24.638  26.055  1.00  0.00     0.112 A 
ATOM     95  S   UNL A   1      44.217  23.689  25.394  1.00  0.00    -0.128 S 
ATOM     96  C   UNL A   1      41.888  23.874  26.436  1.00  0.00     0.072 A 
ATOM     97  C   UNL A   1      43.369  22.224  25.702  1.00  0.00     0.043 A 
ATOM     98  C   UNL A   1      42.133  22.466  26.310  1.00  0.00     0.012 A 
ATOM     99  Cl  UNL A   1      40.392  24.491  27.023  1.00  0.00    -0.082 Cl
ATOM    100  C   UNL A   1      43.806  20.920  25.399  1.00  0.00     0.105 A 
ATOM    101  C   UNL A   1      41.335  21.351  26.673  1.00  0.00     0.018 A 
ATOM    102  C   UNL A   1      42.971  19.846  25.738  1.00  0.00     0.270 A 
ATOM    103  C   UNL A   1      41.757  20.051  26.391  1.00  0.00     0.086 A 
BRANCH 102 104
ATOM    104  N   UNL A   1      43.376  18.480  25.384  1.00  0.00     0.062 N 
ATOM    105  O   UNL A   1      42.649  17.548  25.755  1.00  0.00    -0.258 OA
ATOM    106  O   UNL A   1      44.426  18.339  24.741  1.00  0.00    -0.258 OA
ENDBRANCH 102 104
ENDBRANCH  92  94
ENDBRANCH  80  84
ENDBRANCH  75  78
ENDBRANCH  73  74
ENDBRANCH  72  73
ENDBRANCH   1  72
TORSDOF 17
ENDMDL
