MODEL 1
REMARK VINA RESULT:     -11.6      0.000      0.000
REMARK SMILES Cc1cc(N(C)[C@H](C)C(=O)NCCCCNC(=O)c2ccc(-c3c4nc(c(-c5cc(S(=O)(=O)[O-])ccc5F)c5ccc([nH]5)c(-c5cc(S(=O)(=O)[O-])ccc5F)c5nc(c(-c6cc(S(=O)(=O)[O-])ccc6F)c6ccc3[nH]6)C=C5)C=C4)cc2)ncc1[N+](=O)[O-]
REMARK SMILES IDX 13 1 12 2 11 3 9 4 10 5 7 7 8 8 5 9 6 10 4 11 1 12 2 13 3 14
REMARK SMILES IDX 84 15 83 16 82 17 85 18 86 19 87 20 14 21 15 22 16 23 17 24
REMARK SMILES IDX 18 26 19 27 20 28 81 29 21 30 80 31 22 32 23 33 24 34 74 35
REMARK SMILES IDX 25 36 79 37 73 38 75 39 26 40 78 41 72 42 71 43 27 45 59 46
REMARK SMILES IDX 39 47 58 48 40 49 43 50 57 51 76 52 41 53 42 54 56 56 77 57
REMARK SMILES IDX 44 58 28 59 29 60 37 61 30 62 36 63 38 64 35 65 31 66 32 67
REMARK SMILES IDX 33 68 34 69 60 70 61 71 69 72 62 73 68 74 70 75 67 76 63 77
REMARK SMILES IDX 64 78 65 79 66 80 45 81 46 82 54 83 47 84 53 85 55 86 52 87
REMARK SMILES IDX 48 88 49 89 50 90 51 91
REMARK H PARENT 11 6 16 25 75 44 43 55
REMARK Flexibility Score: inf
ROOT
ATOM      1  C   UNL A   1      35.812  23.393  23.909  1.00  0.00     0.023 C 
ENDROOT
BRANCH   1   2
ATOM      2  C   UNL A   1      35.599  24.163  25.206  1.00  0.00     0.116 C 
BRANCH   2   3
ATOM      3  N   UNL A   1      34.537  25.145  25.103  1.00  0.00    -0.354 N 
ATOM      4  C   UNL A   1      33.198  25.048  25.351  1.00  0.00     0.242 C 
ATOM      5  O   UNL A   1      32.581  26.120  25.393  1.00  0.00    -0.273 OA
ATOM      6  H   UNL A   1      34.832  26.035  24.804  1.00  0.00     0.163 HD
BRANCH   4   7
ATOM      7  C   UNL A   1      32.452  23.708  25.561  1.00  0.00     0.169 C 
ATOM      8  C   UNL A   1      31.148  23.885  26.341  1.00  0.00     0.042 C 
BRANCH   7   9
ATOM      9  N   UNL A   1      32.279  22.857  24.348  1.00  0.00    -0.348 N 
ATOM     10  C   UNL A   1      32.156  23.431  23.019  1.00  0.00     0.146 C 
BRANCH   9  11
ATOM     11  C   UNL A   1      32.525  21.493  24.482  1.00  0.00     0.129 A 
ATOM     12  C   UNL A   1      32.336  18.363  22.339  1.00  0.00     0.052 C 
ATOM     13  C   UNL A   1      32.621  19.224  23.535  1.00  0.00     0.032 A 
ATOM     14  C   UNL A   1      32.236  20.579  23.461  1.00  0.00     0.057 A 
ATOM     15  C   UNL A   1      33.232  18.806  24.717  1.00  0.00     0.290 A 
ATOM     16  C   UNL A   1      33.444  19.736  25.721  1.00  0.00     0.199 A 
ATOM     17  N   UNL A   1      33.097  21.044  25.620  1.00  0.00    -0.232 NA
BRANCH  15  18
ATOM     18  N   UNL A   1      33.658  17.439  24.972  1.00  0.00     0.064 N 
ATOM     19  O   UNL A   1      32.816  16.657  25.434  1.00  0.00    -0.258 OA
ATOM     20  O   UNL A   1      34.821  17.128  24.682  1.00  0.00    -0.258 OA
ENDBRANCH  15  18
ENDBRANCH   9  11
ENDBRANCH   7   9
ENDBRANCH   4   7
ENDBRANCH   2   3
ENDBRANCH   1   2
BRANCH   1  21
ATOM     21  C   UNL A   1      36.512  22.040  24.068  1.00  0.00     0.023 C 
BRANCH  21  22
ATOM     22  C   UNL A   1      36.940  21.675  25.489  1.00  0.00     0.116 C 
BRANCH  22  23
ATOM     23  N   UNL A   1      38.015  20.692  25.531  1.00  0.00    -0.352 N 
ATOM     24  C   UNL A   1      39.304  20.827  26.000  1.00  0.00     0.251 C 
ATOM     25  H   UNL A   1      37.787  19.804  25.174  1.00  0.00     0.163 HD
ATOM     26  O   UNL A   1      40.106  19.915  25.860  1.00  0.00    -0.269 OA
BRANCH  24  27
ATOM     27  C   UNL A   1      39.710  22.102  26.629  1.00  0.00     0.039 A 
ATOM     28  C   UNL A   1      40.672  22.078  27.641  1.00  0.00     0.014 A 
ATOM     29  C   UNL A   1      39.199  23.315  26.163  1.00  0.00     0.014 A 
ATOM     30  C   UNL A   1      41.208  23.280  28.108  1.00  0.00     0.010 A 
ATOM     31  C   UNL A   1      39.782  24.507  26.580  1.00  0.00     0.010 A 
ATOM     32  C   UNL A   1      40.811  24.500  27.536  1.00  0.00    -0.014 A 
BRANCH  32  33
ATOM     33  C   UNL A   1      41.489  25.778  27.879  1.00  0.00     0.031 A 
ATOM     34  C   UNL A   1      40.741  26.855  28.610  1.00  0.00     0.074 A 
ATOM     35  C   UNL A   1      42.744  26.002  27.441  1.00  0.00     0.049 A 
ATOM     36  N   UNL A   1      41.104  28.084  28.874  1.00  0.00    -0.248 NA
ATOM     37  C   UNL A   1      39.392  26.508  29.079  1.00  0.00     0.031 C 
ATOM     38  C   UNL A   1      43.564  25.046  26.692  1.00  0.00     0.029 A 
ATOM     39  N   UNL A   1      43.546  27.112  27.544  1.00  0.00    -0.354 N 
ATOM     40  C   UNL A   1      40.024  28.663  29.530  1.00  0.00     0.074 A 
ATOM     41  C   UNL A   1      38.974  27.667  29.566  1.00  0.00     0.031 C 
ATOM     42  C   UNL A   1      44.755  25.603  26.423  1.00  0.00     0.029 A 
ATOM     43  C   UNL A   1      44.768  26.971  26.928  1.00  0.00     0.049 A 
ATOM     44  H   UNL A   1      43.271  27.932  28.016  1.00  0.00     0.167 HD
ATOM     45  C   UNL A   1      39.927  29.904  30.072  1.00  0.00     0.034 A 
ATOM     46  C   UNL A   1      45.775  27.853  26.767  1.00  0.00     0.034 A 
ATOM     47  C   UNL A   1      40.986  30.884  30.029  1.00  0.00     0.049 A 
ATOM     48  C   UNL A   1      45.622  29.245  27.320  1.00  0.00     0.074 A 
ATOM     49  C   UNL A   1      41.015  32.149  30.589  1.00  0.00     0.029 A 
ATOM     50  N   UNL A   1      42.202  30.713  29.377  1.00  0.00    -0.354 N 
ATOM     51  N   UNL A   1      44.608  29.768  27.971  1.00  0.00    -0.248 NA
ATOM     52  C   UNL A   1      46.747  30.167  27.117  1.00  0.00     0.031 C 
ATOM     53  C   UNL A   1      42.218  32.765  30.222  1.00  0.00     0.029 A 
ATOM     54  C   UNL A   1      42.971  31.860  29.492  1.00  0.00     0.049 A 
ATOM     55  H   UNL A   1      42.476  29.895  28.903  1.00  0.00     0.167 HD
ATOM     56  C   UNL A   1      44.987  31.072  28.277  1.00  0.00     0.074 A 
ATOM     57  C   UNL A   1      46.323  31.252  27.747  1.00  0.00     0.031 C 
ATOM     58  C   UNL A   1      44.295  32.032  28.942  1.00  0.00     0.034 A 
BRANCH  45  59
ATOM     59  C   UNL A   1      38.618  30.266  30.730  1.00  0.00     0.023 A 
ATOM     60  C   UNL A   1      37.585  30.897  30.012  1.00  0.00     0.031 A 
ATOM     61  C   UNL A   1      38.414  30.026  32.099  1.00  0.00     0.131 A 
ATOM     62  C   UNL A   1      36.440  31.347  30.682  1.00  0.00     0.055 A 
ATOM     63  C   UNL A   1      37.232  30.399  32.744  1.00  0.00     0.041 A 
ATOM     64  F   UNL A   1      39.370  29.447  32.842  1.00  0.00    -0.206 F 
ATOM     65  C   UNL A   1      36.244  31.081  32.039  1.00  0.00     0.022 A 
BRANCH  62  66
ATOM     66  S   UNL A   1      35.289  32.429  29.791  1.00  0.00     0.124 S 
ATOM     67  O   UNL A   1      34.314  32.745  30.835  1.00  0.00    -0.237 OA
ATOM     68  O   UNL A   1      36.150  33.526  29.368  1.00  0.00    -0.237 OA
ATOM     69  O   UNL A   1      34.782  31.579  28.715  1.00  0.00    -0.744 OA
ENDBRANCH  62  66
ENDBRANCH  45  59
BRANCH  46  70
ATOM     70  C   UNL A   1      47.011  27.460  26.035  1.00  0.00     0.023 A 
ATOM     71  C   UNL A   1      47.177  27.783  24.679  1.00  0.00     0.031 A 
ATOM     72  C   UNL A   1      48.030  26.726  26.668  1.00  0.00     0.131 A 
ATOM     73  C   UNL A   1      48.316  27.342  23.989  1.00  0.00     0.055 A 
ATOM     74  C   UNL A   1      49.184  26.329  25.989  1.00  0.00     0.041 A 
ATOM     75  F   UNL A   1      47.924  26.397  27.966  1.00  0.00    -0.206 F 
ATOM     76  C   UNL A   1      49.326  26.628  24.637  1.00  0.00     0.022 A 
BRANCH  73  77
ATOM     77  S   UNL A   1      48.428  27.661  22.206  1.00  0.00     0.124 S 
ATOM     78  O   UNL A   1      48.532  26.308  21.669  1.00  0.00    -0.237 OA
ATOM     79  O   UNL A   1      47.176  28.362  21.945  1.00  0.00    -0.237 OA
ATOM     80  O   UNL A   1      49.634  28.476  22.082  1.00  0.00    -0.744 OA
ENDBRANCH  73  77
ENDBRANCH  46  70
BRANCH  58  81
ATOM     81  C   UNL A   1      44.995  33.348  29.165  1.00  0.00     0.023 A 
ATOM     82  C   UNL A   1      44.807  34.440  28.301  1.00  0.00     0.031 A 
ATOM     83  C   UNL A   1      45.866  33.508  30.257  1.00  0.00     0.131 A 
ATOM     84  C   UNL A   1      45.515  35.632  28.518  1.00  0.00     0.055 A 
ATOM     85  C   UNL A   1      46.527  34.712  30.498  1.00  0.00     0.041 A 
ATOM     86  F   UNL A   1      46.082  32.495  31.112  1.00  0.00    -0.206 F 
ATOM     87  C   UNL A   1      46.362  35.780  29.621  1.00  0.00     0.022 A 
BRANCH  84  88
ATOM     88  S   UNL A   1      45.368  36.971  27.303  1.00  0.00     0.124 S 
ATOM     89  O   UNL A   1      46.402  36.617  26.336  1.00  0.00    -0.237 OA
ATOM     90  O   UNL A   1      43.990  36.827  26.844  1.00  0.00    -0.237 OA
ATOM     91  O   UNL A   1      45.636  38.176  28.085  1.00  0.00    -0.744 OA
ENDBRANCH  84  88
ENDBRANCH  58  81
ENDBRANCH  32  33
ENDBRANCH  24  27
ENDBRANCH  22  23
ENDBRANCH  21  22
ENDBRANCH   1  21
TORSDOF 17
ENDMDL
MODEL 2
REMARK VINA RESULT:     -11.1      5.135      9.830
REMARK SMILES Cc1cc(N(C)[C@H](C)C(=O)NCCCCNC(=O)c2ccc(-c3c4nc(c(-c5cc(S(=O)(=O)[O-])ccc5F)c5ccc([nH]5)c(-c5cc(S(=O)(=O)[O-])ccc5F)c5nc(c(-c6cc(S(=O)(=O)[O-])ccc6F)c6ccc3[nH]6)C=C5)C=C4)cc2)ncc1[N+](=O)[O-]
REMARK SMILES IDX 13 1 12 2 11 3 9 4 10 5 7 7 8 8 5 9 6 10 4 11 1 12 2 13 3 14
REMARK SMILES IDX 84 15 83 16 82 17 85 18 86 19 87 20 14 21 15 22 16 23 17 24
REMARK SMILES IDX 18 26 19 27 20 28 81 29 21 30 80 31 22 32 23 33 24 34 74 35
REMARK SMILES IDX 25 36 79 37 73 38 75 39 26 40 78 41 72 42 71 43 27 45 59 46
REMARK SMILES IDX 39 47 58 48 40 49 43 50 57 51 76 52 41 53 42 54 56 56 77 57
REMARK SMILES IDX 44 58 28 59 29 60 37 61 30 62 36 63 38 64 35 65 31 66 32 67
REMARK SMILES IDX 33 68 34 69 60 70 61 71 69 72 62 73 68 74 70 75 67 76 63 77
REMARK SMILES IDX 64 78 65 79 66 80 45 81 46 82 54 83 47 84 53 85 55 86 52 87
REMARK SMILES IDX 48 88 49 89 50 90 51 91
REMARK H PARENT 11 6 16 25 75 44 43 55
REMARK Flexibility Score: inf
ROOT
ATOM      1  C   UNL A   1      31.342  27.528  26.655  1.00  0.00     0.023 C 
ENDROOT
BRANCH   1   2
ATOM      2  C   UNL A   1      32.181  26.269  26.475  1.00  0.00     0.116 C 
BRANCH   2   3
ATOM      3  N   UNL A   1      31.417  25.055  26.691  1.00  0.00    -0.354 N 
ATOM      4  C   UNL A   1      31.818  23.779  26.962  1.00  0.00     0.242 C 
ATOM      5  O   UNL A   1      30.925  23.001  27.322  1.00  0.00    -0.273 OA
ATOM      6  H   UNL A   1      30.442  25.173  26.634  1.00  0.00     0.163 HD
BRANCH   4   7
ATOM      7  C   UNL A   1      33.279  23.285  26.832  1.00  0.00     0.169 C 
ATOM      8  C   UNL A   1      33.602  22.159  27.816  1.00  0.00     0.042 C 
BRANCH   7   9
ATOM      9  N   UNL A   1      33.746  22.983  25.447  1.00  0.00    -0.348 N 
ATOM     10  C   UNL A   1      34.553  23.922  24.687  1.00  0.00     0.146 C 
BRANCH   9  11
ATOM     11  C   UNL A   1      33.635  21.666  25.007  1.00  0.00     0.129 A 
ATOM     12  C   UNL A   1      35.844  18.591  24.707  1.00  0.00     0.052 C 
ATOM     13  C   UNL A   1      34.602  19.433  24.649  1.00  0.00     0.032 A 
ATOM     14  C   UNL A   1      34.737  20.804  24.950  1.00  0.00     0.057 A 
ATOM     15  C   UNL A   1      33.324  18.981  24.322  1.00  0.00     0.290 A 
ATOM     16  C   UNL A   1      32.276  19.887  24.337  1.00  0.00     0.199 A 
ATOM     17  N   UNL A   1      32.418  21.196  24.661  1.00  0.00    -0.232 NA
BRANCH  15  18
ATOM     18  N   UNL A   1      33.016  17.609  23.953  1.00  0.00     0.064 N 
ATOM     19  O   UNL A   1      32.669  16.839  24.860  1.00  0.00    -0.258 OA
ATOM     20  O   UNL A   1      33.084  17.299  22.756  1.00  0.00    -0.258 OA
ENDBRANCH  15  18
ENDBRANCH   9  11
ENDBRANCH   7   9
ENDBRANCH   4   7
ENDBRANCH   2   3
ENDBRANCH   1   2
BRANCH   1  21
ATOM     21  C   UNL A   1      31.644  28.652  25.660  1.00  0.00     0.023 C 
BRANCH  21  22
ATOM     22  C   UNL A   1      32.870  29.509  25.974  1.00  0.00     0.116 C 
BRANCH  22  23
ATOM     23  N   UNL A   1      32.534  30.845  26.447  1.00  0.00    -0.352 N 
ATOM     24  C   UNL A   1      33.258  31.694  27.255  1.00  0.00     0.251 C 
ATOM     25  H   UNL A   1      31.663  31.191  26.146  1.00  0.00     0.163 HD
ATOM     26  O   UNL A   1      32.767  32.747  27.636  1.00  0.00    -0.269 OA
BRANCH  24  27
ATOM     27  C   UNL A   1      34.612  31.290  27.689  1.00  0.00     0.039 A 
ATOM     28  C   UNL A   1      35.605  32.268  27.796  1.00  0.00     0.014 A 
ATOM     29  C   UNL A   1      34.873  29.970  28.063  1.00  0.00     0.014 A 
ATOM     30  C   UNL A   1      36.828  31.942  28.387  1.00  0.00     0.010 A 
ATOM     31  C   UNL A   1      36.064  29.666  28.713  1.00  0.00     0.010 A 
ATOM     32  C   UNL A   1      37.043  30.655  28.907  1.00  0.00    -0.014 A 
BRANCH  32  33
ATOM     33  C   UNL A   1      38.255  30.327  29.701  1.00  0.00     0.031 A 
ATOM     34  C   UNL A   1      39.263  29.349  29.169  1.00  0.00     0.074 A 
ATOM     35  C   UNL A   1      38.392  30.834  30.942  1.00  0.00     0.049 A 
ATOM     36  N   UNL A   1      40.304  28.827  29.763  1.00  0.00    -0.248 NA
ATOM     37  C   UNL A   1      39.049  28.876  27.794  1.00  0.00     0.031 C 
ATOM     38  C   UNL A   1      37.465  31.770  31.584  1.00  0.00     0.029 A 
ATOM     39  N   UNL A   1      39.356  30.621  31.897  1.00  0.00    -0.354 N 
ATOM     40  C   UNL A   1      40.865  27.952  28.840  1.00  0.00     0.074 A 
ATOM     41  C   UNL A   1      40.010  27.973  27.671  1.00  0.00     0.031 C 
ATOM     42  C   UNL A   1      37.915  32.063  32.814  1.00  0.00     0.029 A 
ATOM     43  C   UNL A   1      39.130  31.299  33.073  1.00  0.00     0.049 A 
ATOM     44  H   UNL A   1      40.137  30.039  31.752  1.00  0.00     0.167 HD
ATOM     45  C   UNL A   1      42.001  27.217  28.949  1.00  0.00     0.034 A 
ATOM     46  C   UNL A   1      39.810  31.287  34.237  1.00  0.00     0.034 A 
ATOM     47  C   UNL A   1      42.844  27.211  30.121  1.00  0.00     0.049 A 
ATOM     48  C   UNL A   1      41.033  30.416  34.358  1.00  0.00     0.074 A 
ATOM     49  C   UNL A   1      44.041  26.546  30.320  1.00  0.00     0.029 A 
ATOM     50  N   UNL A   1      42.570  27.893  31.301  1.00  0.00    -0.354 N 
ATOM     51  N   UNL A   1      41.573  29.621  33.463  1.00  0.00    -0.248 NA
ATOM     52  C   UNL A   1      41.737  30.439  35.647  1.00  0.00     0.031 C 
ATOM     53  C   UNL A   1      44.458  26.774  31.637  1.00  0.00     0.029 A 
ATOM     54  C   UNL A   1      43.557  27.638  32.240  1.00  0.00     0.049 A 
ATOM     55  H   UNL A   1      41.789  28.473  31.447  1.00  0.00     0.167 HD
ATOM     56  C   UNL A   1      42.696  29.071  34.074  1.00  0.00     0.074 A 
ATOM     57  C   UNL A   1      42.759  29.631  35.409  1.00  0.00     0.031 C 
ATOM     58  C   UNL A   1      43.597  28.188  33.574  1.00  0.00     0.034 A 
BRANCH  45  59
ATOM     59  C   UNL A   1      42.372  26.345  27.773  1.00  0.00     0.023 A 
ATOM     60  C   UNL A   1      41.999  24.990  27.720  1.00  0.00     0.031 A 
ATOM     61  C   UNL A   1      43.146  26.856  26.719  1.00  0.00     0.131 A 
ATOM     62  C   UNL A   1      42.478  24.172  26.686  1.00  0.00     0.055 A 
ATOM     63  C   UNL A   1      43.546  26.057  25.645  1.00  0.00     0.041 A 
ATOM     64  F   UNL A   1      43.549  28.137  26.723  1.00  0.00    -0.206 F 
ATOM     65  C   UNL A   1      43.228  24.702  25.634  1.00  0.00     0.022 A 
BRANCH  62  66
ATOM     66  S   UNL A   1      42.243  22.380  26.826  1.00  0.00     0.124 S 
ATOM     67  O   UNL A   1      43.410  21.873  26.106  1.00  0.00    -0.237 OA
ATOM     68  O   UNL A   1      42.243  22.172  28.269  1.00  0.00    -0.237 OA
ATOM     69  O   UNL A   1      40.962  22.148  26.160  1.00  0.00    -0.744 OA
ENDBRANCH  62  66
ENDBRANCH  45  59
BRANCH  46  70
ATOM     70  C   UNL A   1      39.347  32.109  35.390  1.00  0.00     0.023 A 
ATOM     71  C   UNL A   1      39.787  33.432  35.552  1.00  0.00     0.031 A 
ATOM     72  C   UNL A   1      38.484  31.575  36.363  1.00  0.00     0.131 A 
ATOM     73  C   UNL A   1      39.395  34.166  36.681  1.00  0.00     0.055 A 
ATOM     74  C   UNL A   1      38.060  32.325  37.462  1.00  0.00     0.041 A 
ATOM     75  F   UNL A   1      38.029  30.317  36.252  1.00  0.00    -0.206 F 
ATOM     76  C   UNL A   1      38.525  33.626  37.631  1.00  0.00     0.022 A 
BRANCH  73  77
ATOM     77  S   UNL A   1      40.095  35.822  36.926  1.00  0.00     0.124 S 
ATOM     78  O   UNL A   1      41.526  35.540  36.938  1.00  0.00    -0.237 OA
ATOM     79  O   UNL A   1      39.590  36.538  35.760  1.00  0.00    -0.237 OA
ATOM     80  O   UNL A   1      39.530  36.243  38.206  1.00  0.00    -0.744 OA
ENDBRANCH  73  77
ENDBRANCH  46  70
BRANCH  58  81
ATOM     81  C   UNL A   1      44.749  27.808  34.469  1.00  0.00     0.023 A 
ATOM     82  C   UNL A   1      44.696  26.678  35.301  1.00  0.00     0.031 A 
ATOM     83  C   UNL A   1      45.916  28.593  34.489  1.00  0.00     0.131 A 
ATOM     84  C   UNL A   1      45.773  26.387  36.154  1.00  0.00     0.055 A 
ATOM     85  C   UNL A   1      47.004  28.270  35.299  1.00  0.00     0.041 A 
ATOM     86  F   UNL A   1      46.017  29.686  33.714  1.00  0.00    -0.206 F 
ATOM     87  C   UNL A   1      46.933  27.167  36.146  1.00  0.00     0.022 A 
BRANCH  84  88
ATOM     88  S   UNL A   1      45.615  25.010  37.324  1.00  0.00     0.124 S 
ATOM     89  O   UNL A   1      44.404  24.347  36.849  1.00  0.00    -0.237 OA
ATOM     90  O   UNL A   1      46.862  24.281  37.121  1.00  0.00    -0.237 OA
ATOM     91  O   UNL A   1      45.491  25.674  38.620  1.00  0.00    -0.744 OA
ENDBRANCH  84  88
ENDBRANCH  58  81
ENDBRANCH  32  33
ENDBRANCH  24  27
ENDBRANCH  22  23
ENDBRANCH  21  22
ENDBRANCH   1  21
TORSDOF 17
ENDMDL
MODEL 3
REMARK VINA RESULT:     -11.0      2.856      4.538
REMARK SMILES Cc1cc(N(C)[C@H](C)C(=O)NCCCCNC(=O)c2ccc(-c3c4nc(c(-c5cc(S(=O)(=O)[O-])ccc5F)c5ccc([nH]5)c(-c5cc(S(=O)(=O)[O-])ccc5F)c5nc(c(-c6cc(S(=O)(=O)[O-])ccc6F)c6ccc3[nH]6)C=C5)C=C4)cc2)ncc1[N+](=O)[O-]
REMARK SMILES IDX 13 1 12 2 11 3 9 4 10 5 7 7 8 8 5 9 6 10 4 11 1 12 2 13 3 14
REMARK SMILES IDX 84 15 83 16 82 17 85 18 86 19 87 20 14 21 15 22 16 23 17 24
REMARK SMILES IDX 18 26 19 27 20 28 81 29 21 30 80 31 22 32 23 33 24 34 74 35
REMARK SMILES IDX 25 36 79 37 73 38 75 39 26 40 78 41 72 42 71 43 27 45 59 46
REMARK SMILES IDX 39 47 58 48 40 49 43 50 57 51 76 52 41 53 42 54 56 56 77 57
REMARK SMILES IDX 44 58 28 59 29 60 37 61 30 62 36 63 38 64 35 65 31 66 32 67
REMARK SMILES IDX 33 68 34 69 60 70 61 71 69 72 62 73 68 74 70 75 67 76 63 77
REMARK SMILES IDX 64 78 65 79 66 80 45 81 46 82 54 83 47 84 53 85 55 86 52 87
REMARK SMILES IDX 48 88 49 89 50 90 51 91
REMARK H PARENT 11 6 16 25 75 44 43 55
REMARK Flexibility Score: inf
ROOT
ATOM      1  C   UNL A   1      34.806  23.394  24.020  1.00  0.00     0.023 C 
ENDROOT
BRANCH   1   2
ATOM      2  C   UNL A   1      33.646  23.060  23.090  1.00  0.00     0.116 C 
BRANCH   2   3
ATOM      3  N   UNL A   1      33.559  23.966  21.961  1.00  0.00    -0.354 N 
ATOM      4  C   UNL A   1      32.732  25.024  21.722  1.00  0.00     0.242 C 
ATOM      5  O   UNL A   1      33.048  25.749  20.769  1.00  0.00    -0.273 OA
ATOM      6  H   UNL A   1      34.209  23.787  21.245  1.00  0.00     0.163 HD
BRANCH   4   7
ATOM      7  C   UNL A   1      31.462  25.335  22.551  1.00  0.00     0.169 C 
ATOM      8  C   UNL A   1      31.001  24.136  23.381  1.00  0.00     0.042 C 
BRANCH   7   9
ATOM      9  N   UNL A   1      31.491  26.599  23.345  1.00  0.00    -0.348 N 
ATOM     10  C   UNL A   1      32.565  26.894  24.278  1.00  0.00     0.146 C 
BRANCH   9  11
ATOM     11  C   UNL A   1      30.620  27.616  22.962  1.00  0.00     0.129 A 
ATOM     12  C   UNL A   1      26.944  28.485  23.355  1.00  0.00     0.052 C 
ATOM     13  C   UNL A   1      28.385  28.641  22.961  1.00  0.00     0.032 A 
ATOM     14  C   UNL A   1      29.244  27.552  23.212  1.00  0.00     0.057 A 
ATOM     15  C   UNL A   1      28.951  29.769  22.367  1.00  0.00     0.290 A 
ATOM     16  C   UNL A   1      30.308  29.760  22.086  1.00  0.00     0.199 A 
ATOM     17  N   UNL A   1      31.127  28.715  22.364  1.00  0.00    -0.232 NA
BRANCH  15  18
ATOM     18  N   UNL A   1      28.203  30.963  22.010  1.00  0.00     0.064 N 
ATOM     19  O   UNL A   1      27.960  31.774  22.914  1.00  0.00    -0.258 OA
ATOM     20  O   UNL A   1      27.882  31.116  20.824  1.00  0.00    -0.258 OA
ENDBRANCH  15  18
ENDBRANCH   9  11
ENDBRANCH   7   9
ENDBRANCH   4   7
ENDBRANCH   2   3
ENDBRANCH   1   2
BRANCH   1  21
ATOM     21  C   UNL A   1      35.937  22.362  24.037  1.00  0.00     0.023 C 
BRANCH  21  22
ATOM     22  C   UNL A   1      36.484  21.995  25.416  1.00  0.00     0.116 C 
BRANCH  22  23
ATOM     23  N   UNL A   1      37.499  20.951  25.374  1.00  0.00    -0.352 N 
ATOM     24  C   UNL A   1      38.805  20.984  25.812  1.00  0.00     0.251 C 
ATOM     25  H   UNL A   1      37.211  20.100  24.973  1.00  0.00     0.163 HD
ATOM     26  O   UNL A   1      39.549  20.037  25.599  1.00  0.00    -0.269 OA
BRANCH  24  27
ATOM     27  C   UNL A   1      39.302  22.195  26.500  1.00  0.00     0.039 A 
ATOM     28  C   UNL A   1      40.337  22.066  27.429  1.00  0.00     0.014 A 
ATOM     29  C   UNL A   1      38.800  23.455  26.166  1.00  0.00     0.014 A 
ATOM     30  C   UNL A   1      40.947  23.214  27.940  1.00  0.00     0.010 A 
ATOM     31  C   UNL A   1      39.454  24.594  26.622  1.00  0.00     0.010 A 
ATOM     32  C   UNL A   1      40.552  24.485  27.492  1.00  0.00    -0.014 A 
BRANCH  32  33
ATOM     33  C   UNL A   1      41.297  25.712  27.874  1.00  0.00     0.031 A 
ATOM     34  C   UNL A   1      40.601  26.817  28.615  1.00  0.00     0.074 A 
ATOM     35  C   UNL A   1      42.571  25.870  27.463  1.00  0.00     0.049 A 
ATOM     36  N   UNL A   1      41.031  28.016  28.912  1.00  0.00    -0.248 NA
ATOM     37  C   UNL A   1      39.225  26.542  29.053  1.00  0.00     0.031 C 
ATOM     38  C   UNL A   1      43.348  24.883  26.708  1.00  0.00     0.029 A 
ATOM     39  N   UNL A   1      43.435  26.929  27.604  1.00  0.00    -0.354 N 
ATOM     40  C   UNL A   1      39.976  28.645  29.562  1.00  0.00     0.074 A 
ATOM     41  C   UNL A   1      38.868  27.713  29.558  1.00  0.00     0.031 C 
ATOM     42  C   UNL A   1      44.574  25.373  26.472  1.00  0.00     0.029 A 
ATOM     43  C   UNL A   1      44.658  26.728  27.006  1.00  0.00     0.049 A 
ATOM     44  H   UNL A   1      43.201  27.753  28.088  1.00  0.00     0.167 HD
ATOM     45  C   UNL A   1      39.942  29.878  30.128  1.00  0.00     0.034 A 
ATOM     46  C   UNL A   1      45.719  27.551  26.881  1.00  0.00     0.034 A 
ATOM     47  C   UNL A   1      41.058  30.794  30.125  1.00  0.00     0.049 A 
ATOM     48  C   UNL A   1      45.638  28.938  27.462  1.00  0.00     0.074 A 
ATOM     49  C   UNL A   1      41.151  32.044  30.712  1.00  0.00     0.029 A 
ATOM     50  N   UNL A   1      42.273  30.564  29.490  1.00  0.00    -0.354 N 
ATOM     51  N   UNL A   1      44.645  29.507  28.106  1.00  0.00    -0.248 NA
ATOM     52  C   UNL A   1      46.820  29.795  27.298  1.00  0.00     0.031 C 
ATOM     53  C   UNL A   1      42.395  32.594  30.380  1.00  0.00     0.029 A 
ATOM     54  C   UNL A   1      43.107  31.662  29.643  1.00  0.00     0.049 A 
ATOM     55  H   UNL A   1      42.507  29.742  29.003  1.00  0.00     0.167 HD
ATOM     56  C   UNL A   1      45.095  30.779  28.446  1.00  0.00     0.074 A 
ATOM     57  C   UNL A   1      46.449  30.890  27.944  1.00  0.00     0.031 C 
ATOM     58  C   UNL A   1      44.449  31.765  29.120  1.00  0.00     0.034 A 
BRANCH  45  59
ATOM     59  C   UNL A   1      38.644  30.305  30.771  1.00  0.00     0.023 A 
ATOM     60  C   UNL A   1      37.624  30.922  30.025  1.00  0.00     0.031 A 
ATOM     61  C   UNL A   1      38.441  30.140  32.152  1.00  0.00     0.131 A 
ATOM     62  C   UNL A   1      36.492  31.433  30.675  1.00  0.00     0.055 A 
ATOM     63  C   UNL A   1      37.271  30.572  32.780  1.00  0.00     0.041 A 
ATOM     64  F   UNL A   1      39.386  29.576  32.920  1.00  0.00    -0.206 F 
ATOM     65  C   UNL A   1      36.296  31.241  32.045  1.00  0.00     0.022 A 
BRANCH  62  66
ATOM     66  S   UNL A   1      35.362  32.494  29.734  1.00  0.00     0.124 S 
ATOM     67  O   UNL A   1      36.241  33.601  29.360  1.00  0.00    -0.237 OA
ATOM     68  O   UNL A   1      34.939  31.619  28.647  1.00  0.00    -0.237 OA
ATOM     69  O   UNL A   1      34.323  32.835  30.704  1.00  0.00    -0.744 OA
ENDBRANCH  62  66
ENDBRANCH  45  59
BRANCH  46  70
ATOM     70  C   UNL A   1      46.943  27.099  26.163  1.00  0.00     0.023 A 
ATOM     71  C   UNL A   1      47.976  26.441  26.847  1.00  0.00     0.031 A 
ATOM     72  C   UNL A   1      47.114  27.348  24.789  1.00  0.00     0.131 A 
ATOM     73  C   UNL A   1      49.151  26.087  26.167  1.00  0.00     0.055 A 
ATOM     74  C   UNL A   1      48.266  26.953  24.106  1.00  0.00     0.041 A 
ATOM     75  F   UNL A   1      46.153  27.969  24.086  1.00  0.00    -0.206 F 
ATOM     76  C   UNL A   1      49.298  26.327  24.799  1.00  0.00     0.022 A 
BRANCH  73  77
ATOM     77  S   UNL A   1      50.518  25.363  27.116  1.00  0.00     0.124 S 
ATOM     78  O   UNL A   1      50.914  26.481  27.965  1.00  0.00    -0.237 OA
ATOM     79  O   UNL A   1      49.862  24.246  27.787  1.00  0.00    -0.237 OA
ATOM     80  O   UNL A   1      51.484  24.988  26.086  1.00  0.00    -0.744 OA
ENDBRANCH  73  77
ENDBRANCH  46  70
BRANCH  58  81
ATOM     81  C   UNL A   1      45.221  33.032  29.384  1.00  0.00     0.023 A 
ATOM     82  C   UNL A   1      45.187  34.117  28.491  1.00  0.00     0.031 A 
ATOM     83  C   UNL A   1      46.006  33.152  30.544  1.00  0.00     0.131 A 
ATOM     84  C   UNL A   1      45.959  35.260  28.751  1.00  0.00     0.055 A 
ATOM     85  C   UNL A   1      46.730  34.311  30.824  1.00  0.00     0.041 A 
ATOM     86  F   UNL A   1      46.075  32.144  31.428  1.00  0.00    -0.206 F 
ATOM     87  C   UNL A   1      46.718  35.370  29.920  1.00  0.00     0.022 A 
BRANCH  84  88
ATOM     88  S   UNL A   1      46.012  36.580  27.509  1.00  0.00     0.124 S 
ATOM     89  O   UNL A   1      44.603  36.944  27.394  1.00  0.00    -0.237 OA
ATOM     90  O   UNL A   1      46.877  37.570  28.140  1.00  0.00    -0.237 OA
ATOM     91  O   UNL A   1      46.580  35.923  26.333  1.00  0.00    -0.744 OA
ENDBRANCH  84  88
ENDBRANCH  58  81
ENDBRANCH  32  33
ENDBRANCH  24  27
ENDBRANCH  22  23
ENDBRANCH  21  22
ENDBRANCH   1  21
TORSDOF 17
ENDMDL
