MODEL 1
REMARK VINA RESULT:     -11.5      0.000      0.000
REMARK SMILES C[NH2+][C@](C)(C(=O)NCCCCNC(=O)c1ccc(-c2c3nc(c(-c4cc(S(=O)(=O)[O-])ccc4F)c4ccc([nH]4)c(-c4cc(S(=O)(=O)[O-])ccc4F)c4nc(c(-c5cc(S(=O)(=O)[O-])ccc5F)c5ccc2[nH]5)C=C4)C=C3)cc1)c1cccc(Cl)c1
REMARK SMILES IDX 10 1 9 2 8 3 7 4 5 5 6 6 3 8 4 9 2 10 1 11 78 14 79 15 84 16
REMARK SMILES IDX 80 17 82 18 81 19 83 20 11 21 12 22 13 23 14 25 15 26 16 27
REMARK SMILES IDX 77 28 17 29 76 30 18 31 19 32 20 33 70 34 21 35 75 36 69 37
REMARK SMILES IDX 71 38 22 39 74 40 68 41 67 42 23 44 55 45 35 46 54 47 36 48
REMARK SMILES IDX 39 49 53 50 72 51 37 52 38 53 52 55 73 56 40 57 24 58 25 59
REMARK SMILES IDX 33 60 26 61 32 62 34 63 31 64 27 65 28 66 29 67 30 68 56 69
REMARK SMILES IDX 57 70 65 71 58 72 64 73 66 74 63 75 59 76 60 77 61 78 62 79
REMARK SMILES IDX 41 80 42 81 50 82 43 83 49 84 51 85 48 86 44 87 45 88 46 89
REMARK SMILES IDX 47 90
REMARK H PARENT 7 7 2 12 2 13 12 24 71 43 39 54
REMARK Flexibility Score: inf
ROOT
ATOM      1  C   UNL A   1      31.361  29.972  26.563  1.00  0.00     0.023 C 
ENDROOT
BRANCH   1   2
ATOM      2  C   UNL A   1      31.755  28.829  27.499  1.00  0.00     0.023 C 
BRANCH   2   3
ATOM      3  C   UNL A   1      32.234  27.563  26.797  1.00  0.00     0.116 C 
BRANCH   3   4
ATOM      4  N   UNL A   1      31.269  26.483  26.884  1.00  0.00    -0.350 N 
ATOM      5  C   UNL A   1      30.727  25.595  25.996  1.00  0.00     0.285 C 
ATOM      6  O   UNL A   1      29.934  24.818  26.544  1.00  0.00    -0.267 OA
ATOM      7  H   UNL A   1      30.923  26.362  27.797  1.00  0.00     0.163 HD
BRANCH   5   8
ATOM      8  C   UNL A   1      31.044  25.565  24.427  1.00  0.00     0.198 C 
ATOM      9  C   UNL A   1      32.579  25.451  24.247  1.00  0.00     0.096 C 
BRANCH   8  10
ATOM     10  N   UNL A   1      30.261  24.510  23.725  1.00  0.00    -0.332 N 
ATOM     11  C   UNL A   1      30.890  23.286  23.298  1.00  0.00     0.332 C 
ATOM     12  H   UNL A   1      29.504  24.243  24.353  1.00  0.00     0.347 HD
ATOM     13  H   UNL A   1      30.017  24.958  22.841  1.00  0.00     0.347 HD
ENDBRANCH   8  10
BRANCH   8  14
ATOM     14  C   UNL A   1      30.594  26.874  23.657  1.00  0.00     0.023 A 
ATOM     15  C   UNL A   1      31.501  27.814  23.136  1.00  0.00     0.011 A 
ATOM     16  C   UNL A   1      29.226  27.243  23.618  1.00  0.00     0.031 A 
ATOM     17  C   UNL A   1      31.071  29.002  22.528  1.00  0.00     0.002 A 
ATOM     18  C   UNL A   1      28.801  28.441  23.035  1.00  0.00     0.041 A 
ATOM     19  C   UNL A   1      29.718  29.317  22.475  1.00  0.00     0.020 A 
ATOM     20  Cl  UNL A   1      27.127  28.845  23.047  1.00  0.00    -0.084 Cl
ENDBRANCH   8  14
ENDBRANCH   5   8
ENDBRANCH   3   4
ENDBRANCH   2   3
ENDBRANCH   1   2
BRANCH   1  21
ATOM     21  C   UNL A   1      32.478  30.950  26.208  1.00  0.00     0.116 C 
BRANCH  21  22
ATOM     22  N   UNL A   1      32.283  32.281  26.766  1.00  0.00    -0.352 N 
ATOM     23  C   UNL A   1      33.109  33.005  27.599  1.00  0.00     0.251 C 
ATOM     24  H   UNL A   1      31.443  32.727  26.513  1.00  0.00     0.163 HD
ATOM     25  O   UNL A   1      32.740  34.080  28.048  1.00  0.00    -0.269 OA
BRANCH  23  26
ATOM     26  C   UNL A   1      34.419  32.436  27.977  1.00  0.00     0.039 A 
ATOM     27  C   UNL A   1      35.530  33.279  28.023  1.00  0.00     0.014 A 
ATOM     28  C   UNL A   1      34.524  31.097  28.363  1.00  0.00     0.014 A 
ATOM     29  C   UNL A   1      36.729  32.806  28.562  1.00  0.00     0.010 A 
ATOM     30  C   UNL A   1      35.697  30.648  28.959  1.00  0.00     0.010 A 
ATOM     31  C   UNL A   1      36.801  31.507  29.088  1.00  0.00    -0.014 A 
BRANCH  31  32
ATOM     32  C   UNL A   1      37.999  31.037  29.831  1.00  0.00     0.031 A 
ATOM     33  C   UNL A   1      38.914  30.019  29.216  1.00  0.00     0.074 A 
ATOM     34  C   UNL A   1      38.195  31.455  31.097  1.00  0.00     0.049 A 
ATOM     35  N   UNL A   1      39.927  29.389  29.750  1.00  0.00    -0.248 NA
ATOM     36  C   UNL A   1      38.630  29.639  27.825  1.00  0.00     0.031 C 
ATOM     37  C   UNL A   1      37.350  32.412  31.814  1.00  0.00     0.029 A 
ATOM     38  N   UNL A   1      39.157  31.113  32.015  1.00  0.00    -0.354 N 
ATOM     39  C   UNL A   1      40.398  28.527  28.767  1.00  0.00     0.074 A 
ATOM     40  C   UNL A   1      39.519  28.678  27.624  1.00  0.00     0.031 C 
ATOM     41  C   UNL A   1      37.837  32.590  33.053  1.00  0.00     0.029 A 
ATOM     42  C   UNL A   1      38.996  31.722  33.237  1.00  0.00     0.049 A 
ATOM     43  H   UNL A   1      39.893  30.489  31.817  1.00  0.00     0.167 HD
ATOM     44  C   UNL A   1      41.474  27.703  28.806  1.00  0.00     0.034 A 
ATOM     45  C   UNL A   1      39.687  31.581  34.385  1.00  0.00     0.034 A 
ATOM     46  C   UNL A   1      42.341  27.572  29.952  1.00  0.00     0.049 A 
ATOM     47  C   UNL A   1      40.842  30.615  34.425  1.00  0.00     0.074 A 
ATOM     48  C   UNL A   1      43.504  26.831  30.074  1.00  0.00     0.029 A 
ATOM     49  N   UNL A   1      42.130  28.183  31.182  1.00  0.00    -0.354 N 
ATOM     50  N   UNL A   1      41.309  29.848  33.468  1.00  0.00    -0.248 NA
ATOM     51  C   UNL A   1      41.558  30.494  35.702  1.00  0.00     0.031 C 
ATOM     52  C   UNL A   1      43.958  26.941  31.394  1.00  0.00     0.029 A 
ATOM     53  C   UNL A   1      43.115  27.801  32.080  1.00  0.00     0.049 A 
ATOM     54  H   UNL A   1      41.389  28.798  31.385  1.00  0.00     0.167 HD
ATOM     55  C   UNL A   1      42.383  29.161  34.024  1.00  0.00     0.074 A 
ATOM     56  C   UNL A   1      42.504  29.618  35.395  1.00  0.00     0.031 C 
ATOM     57  C   UNL A   1      43.200  28.240  33.452  1.00  0.00     0.034 A 
BRANCH  44  58
ATOM     58  C   UNL A   1      41.746  26.866  27.581  1.00  0.00     0.023 A 
ATOM     59  C   UNL A   1      41.384  25.509  27.521  1.00  0.00     0.031 A 
ATOM     60  C   UNL A   1      42.414  27.417  26.473  1.00  0.00     0.131 A 
ATOM     61  C   UNL A   1      41.767  24.728  26.420  1.00  0.00     0.055 A 
ATOM     62  C   UNL A   1      42.720  26.654  25.345  1.00  0.00     0.041 A 
ATOM     63  F   UNL A   1      42.801  28.702  26.478  1.00  0.00    -0.206 F 
ATOM     64  C   UNL A   1      42.412  25.296  25.321  1.00  0.00     0.022 A 
BRANCH  61  65
ATOM     65  S   UNL A   1      41.545  22.931  26.519  1.00  0.00     0.124 S 
ATOM     66  O   UNL A   1      42.114  22.633  27.831  1.00  0.00    -0.237 OA
ATOM     67  O   UNL A   1      40.100  22.784  26.401  1.00  0.00    -0.237 OA
ATOM     68  O   UNL A   1      42.319  22.428  25.385  1.00  0.00    -0.744 OA
ENDBRANCH  61  65
ENDBRANCH  44  58
BRANCH  45  69
ATOM     69  C   UNL A   1      39.290  32.344  35.601  1.00  0.00     0.023 A 
ATOM     70  C   UNL A   1      39.734  33.659  35.803  1.00  0.00     0.031 A 
ATOM     71  C   UNL A   1      38.483  31.757  36.592  1.00  0.00     0.131 A 
ATOM     72  C   UNL A   1      39.394  34.336  36.985  1.00  0.00     0.055 A 
ATOM     73  C   UNL A   1      38.113  32.450  37.746  1.00  0.00     0.041 A 
ATOM     74  F   UNL A   1      38.027  30.503  36.443  1.00  0.00    -0.206 F 
ATOM     75  C   UNL A   1      38.578  33.745  37.952  1.00  0.00     0.022 A 
BRANCH  72  76
ATOM     76  S   UNL A   1      40.086  35.989  37.267  1.00  0.00     0.124 S 
ATOM     77  O   UNL A   1      39.349  36.424  38.448  1.00  0.00    -0.237 OA
ATOM     78  O   UNL A   1      41.501  35.695  37.466  1.00  0.00    -0.237 OA
ATOM     79  O   UNL A   1      39.769  36.705  36.034  1.00  0.00    -0.744 OA
ENDBRANCH  72  76
ENDBRANCH  45  69
BRANCH  57  80
ATOM     80  C   UNL A   1      44.302  27.683  34.315  1.00  0.00     0.023 A 
ATOM     81  C   UNL A   1      44.137  26.485  35.031  1.00  0.00     0.031 A 
ATOM     82  C   UNL A   1      45.528  28.361  34.428  1.00  0.00     0.131 A 
ATOM     83  C   UNL A   1      45.167  26.023  35.865  1.00  0.00     0.055 A 
ATOM     84  C   UNL A   1      46.568  27.870  35.217  1.00  0.00     0.041 A 
ATOM     85  F   UNL A   1      45.735  29.511  33.766  1.00  0.00    -0.206 F 
ATOM     86  C   UNL A   1      46.387  26.700  35.949  1.00  0.00     0.022 A 
BRANCH  83  87
ATOM     87  S   UNL A   1      44.871  24.554  36.887  1.00  0.00     0.124 S 
ATOM     88  O   UNL A   1      46.222  24.207  37.314  1.00  0.00    -0.237 OA
ATOM     89  O   UNL A   1      43.985  25.068  37.927  1.00  0.00    -0.237 OA
ATOM     90  O   UNL A   1      44.251  23.610  35.959  1.00  0.00    -0.744 OA
ENDBRANCH  83  87
ENDBRANCH  57  80
ENDBRANCH  31  32
ENDBRANCH  23  26
ENDBRANCH  21  22
ENDBRANCH   1  21
TORSDOF 16
ENDMDL
MODEL 2
REMARK VINA RESULT:     -11.4      5.543     10.444
REMARK SMILES C[NH2+][C@](C)(C(=O)NCCCCNC(=O)c1ccc(-c2c3nc(c(-c4cc(S(=O)(=O)[O-])ccc4F)c4ccc([nH]4)c(-c4cc(S(=O)(=O)[O-])ccc4F)c4nc(c(-c5cc(S(=O)(=O)[O-])ccc5F)c5ccc2[nH]5)C=C4)C=C3)cc1)c1cccc(Cl)c1
REMARK SMILES IDX 10 1 9 2 8 3 7 4 5 5 6 6 3 8 4 9 2 10 1 11 78 14 79 15 84 16
REMARK SMILES IDX 80 17 82 18 81 19 83 20 11 21 12 22 13 23 14 25 15 26 16 27
REMARK SMILES IDX 77 28 17 29 76 30 18 31 19 32 20 33 70 34 21 35 75 36 69 37
REMARK SMILES IDX 71 38 22 39 74 40 68 41 67 42 23 44 55 45 35 46 54 47 36 48
REMARK SMILES IDX 39 49 53 50 72 51 37 52 38 53 52 55 73 56 40 57 24 58 25 59
REMARK SMILES IDX 33 60 26 61 32 62 34 63 31 64 27 65 28 66 29 67 30 68 56 69
REMARK SMILES IDX 57 70 65 71 58 72 64 73 66 74 63 75 59 76 60 77 61 78 62 79
REMARK SMILES IDX 41 80 42 81 50 82 43 83 49 84 51 85 48 86 44 87 45 88 46 89
REMARK SMILES IDX 47 90
REMARK H PARENT 7 7 2 12 2 13 12 24 71 43 39 54
REMARK Flexibility Score: inf
ROOT
ATOM      1  C   UNL A   1      36.650  22.322  23.723  1.00  0.00     0.023 C 
ENDROOT
BRANCH   1   2
ATOM      2  C   UNL A   1      35.465  23.260  23.492  1.00  0.00     0.023 C 
BRANCH   2   3
ATOM      3  C   UNL A   1      35.165  24.208  24.648  1.00  0.00     0.116 C 
BRANCH   3   4
ATOM      4  N   UNL A   1      33.937  24.955  24.446  1.00  0.00    -0.350 N 
ATOM      5  C   UNL A   1      32.620  24.753  24.754  1.00  0.00     0.285 C 
ATOM      6  O   UNL A   1      31.908  25.700  24.392  1.00  0.00    -0.267 OA
ATOM      7  H   UNL A   1      34.087  25.806  23.975  1.00  0.00     0.163 HD
BRANCH   5   8
ATOM      8  C   UNL A   1      32.041  23.444  25.473  1.00  0.00     0.198 C 
ATOM      9  C   UNL A   1      32.813  23.242  26.801  1.00  0.00     0.096 C 
BRANCH   8  10
ATOM     10  N   UNL A   1      30.559  23.506  25.624  1.00  0.00    -0.332 N 
ATOM     11  C   UNL A   1      29.922  23.053  26.834  1.00  0.00     0.332 C 
ATOM     12  H   UNL A   1      30.296  24.484  25.506  1.00  0.00     0.347 HD
ATOM     13  H   UNL A   1      30.232  22.833  24.930  1.00  0.00     0.347 HD
ENDBRANCH   8  10
BRANCH   8  14
ATOM     14  C   UNL A   1      32.229  22.115  24.632  1.00  0.00     0.023 A 
ATOM     15  C   UNL A   1      31.975  22.033  23.250  1.00  0.00     0.011 A 
ATOM     16  C   UNL A   1      32.496  20.888  25.288  1.00  0.00     0.031 A 
ATOM     17  C   UNL A   1      32.075  20.824  22.548  1.00  0.00     0.002 A 
ATOM     18  C   UNL A   1      32.568  19.678  24.591  1.00  0.00     0.041 A 
ATOM     19  C   UNL A   1      32.374  19.643  23.219  1.00  0.00     0.020 A 
ATOM     20  Cl  UNL A   1      32.866  18.217  25.452  1.00  0.00    -0.084 Cl
ENDBRANCH   8  14
ENDBRANCH   5   8
ENDBRANCH   3   4
ENDBRANCH   2   3
ENDBRANCH   1   2
BRANCH   1  21
ATOM     21  C   UNL A   1      36.985  22.028  25.183  1.00  0.00     0.116 C 
BRANCH  21  22
ATOM     22  N   UNL A   1      37.959  20.958  25.350  1.00  0.00    -0.352 N 
ATOM     23  C   UNL A   1      39.187  20.988  25.974  1.00  0.00     0.251 C 
ATOM     24  H   UNL A   1      37.705  20.090  24.962  1.00  0.00     0.163 HD
ATOM     25  O   UNL A   1      39.919  20.010  25.939  1.00  0.00    -0.269 OA
BRANCH  23  26
ATOM     26  C   UNL A   1      39.620  22.234  26.639  1.00  0.00     0.039 A 
ATOM     27  C   UNL A   1      40.653  22.174  27.575  1.00  0.00     0.014 A 
ATOM     28  C   UNL A   1      39.061  23.462  26.273  1.00  0.00     0.014 A 
ATOM     29  C   UNL A   1      41.205  23.359  28.067  1.00  0.00     0.010 A 
ATOM     30  C   UNL A   1      39.654  24.641  26.713  1.00  0.00     0.010 A 
ATOM     31  C   UNL A   1      40.748  24.599  27.593  1.00  0.00    -0.014 A 
BRANCH  31  32
ATOM     32  C   UNL A   1      41.432  25.867  27.955  1.00  0.00     0.031 A 
ATOM     33  C   UNL A   1      40.681  26.949  28.672  1.00  0.00     0.074 A 
ATOM     34  C   UNL A   1      42.697  26.075  27.541  1.00  0.00     0.049 A 
ATOM     35  N   UNL A   1      41.057  28.169  28.957  1.00  0.00    -0.248 NA
ATOM     36  C   UNL A   1      39.313  26.623  29.101  1.00  0.00     0.031 C 
ATOM     37  C   UNL A   1      43.516  25.111  26.800  1.00  0.00     0.029 A 
ATOM     38  N   UNL A   1      43.513  27.172  27.665  1.00  0.00    -0.354 N 
ATOM     39  C   UNL A   1      39.970  28.763  29.586  1.00  0.00     0.074 A 
ATOM     40  C   UNL A   1      38.902  27.784  29.589  1.00  0.00     0.031 C 
ATOM     41  C   UNL A   1      44.718  25.655  26.548  1.00  0.00     0.029 A 
ATOM     42  C   UNL A   1      44.740  27.021  27.061  1.00  0.00     0.049 A 
ATOM     43  H   UNL A   1      43.245  27.991  28.141  1.00  0.00     0.167 HD
ATOM     44  C   UNL A   1      39.879  30.002  30.129  1.00  0.00     0.034 A 
ATOM     45  C   UNL A   1      45.757  27.891  26.914  1.00  0.00     0.034 A 
ATOM     46  C   UNL A   1      40.957  30.962  30.122  1.00  0.00     0.049 A 
ATOM     47  C   UNL A   1      45.613  29.281  27.472  1.00  0.00     0.074 A 
ATOM     48  C   UNL A   1      41.004  32.213  30.713  1.00  0.00     0.029 A 
ATOM     49  N   UNL A   1      42.174  30.783  29.476  1.00  0.00    -0.354 N 
ATOM     50  N   UNL A   1      44.598  29.811  28.114  1.00  0.00    -0.248 NA
ATOM     51  C   UNL A   1      46.748  30.192  27.279  1.00  0.00     0.031 C 
ATOM     52  C   UNL A   1      42.219  32.816  30.369  1.00  0.00     0.029 A 
ATOM     53  C   UNL A   1      42.959  31.917  29.617  1.00  0.00     0.049 A 
ATOM     54  H   UNL A   1      42.440  29.970  28.990  1.00  0.00     0.167 HD
ATOM     55  C   UNL A   1      44.979  31.115  28.415  1.00  0.00     0.074 A 
ATOM     56  C   UNL A   1      46.322  31.285  27.897  1.00  0.00     0.031 C 
ATOM     57  C   UNL A   1      44.283  32.082  29.065  1.00  0.00     0.034 A 
BRANCH  44  58
ATOM     58  C   UNL A   1      38.558  30.389  30.748  1.00  0.00     0.023 A 
ATOM     59  C   UNL A   1      37.559  31.039  30.002  1.00  0.00     0.031 A 
ATOM     60  C   UNL A   1      38.308  30.143  32.109  1.00  0.00     0.131 A 
ATOM     61  C   UNL A   1      36.396  31.499  30.639  1.00  0.00     0.055 A 
ATOM     62  C   UNL A   1      37.113  30.531  32.718  1.00  0.00     0.041 A 
ATOM     63  F   UNL A   1      39.231  29.543  32.876  1.00  0.00    -0.206 F 
ATOM     64  C   UNL A   1      36.156  31.229  31.987  1.00  0.00     0.022 A 
BRANCH  61  65
ATOM     65  S   UNL A   1      35.279  32.587  29.713  1.00  0.00     0.124 S 
ATOM     66  O   UNL A   1      36.199  33.611  29.226  1.00  0.00    -0.237 OA
ATOM     67  O   UNL A   1      34.729  31.690  28.704  1.00  0.00    -0.237 OA
ATOM     68  O   UNL A   1      34.330  33.044  30.727  1.00  0.00    -0.744 OA
ENDBRANCH  61  65
ENDBRANCH  44  58
BRANCH  45  69
ATOM     69  C   UNL A   1      46.990  27.489  26.181  1.00  0.00     0.023 A 
ATOM     70  C   UNL A   1      47.154  27.800  24.823  1.00  0.00     0.031 A 
ATOM     71  C   UNL A   1      48.010  26.764  26.823  1.00  0.00     0.131 A 
ATOM     72  C   UNL A   1      48.299  27.360  24.139  1.00  0.00     0.055 A 
ATOM     73  C   UNL A   1      49.167  26.365  26.149  1.00  0.00     0.041 A 
ATOM     74  F   UNL A   1      47.905  26.448  28.124  1.00  0.00    -0.206 F 
ATOM     75  C   UNL A   1      49.310  26.655  24.796  1.00  0.00     0.022 A 
BRANCH  72  76
ATOM     76  S   UNL A   1      48.420  27.675  22.357  1.00  0.00     0.124 S 
ATOM     77  O   UNL A   1      48.486  26.321  21.819  1.00  0.00    -0.237 OA
ATOM     78  O   UNL A   1      47.186  28.410  22.095  1.00  0.00    -0.237 OA
ATOM     79  O   UNL A   1      49.646  28.458  22.233  1.00  0.00    -0.744 OA
ENDBRANCH  72  76
ENDBRANCH  45  69
BRANCH  57  80
ATOM     80  C   UNL A   1      44.980  33.404  29.258  1.00  0.00     0.023 A 
ATOM     81  C   UNL A   1      44.948  34.401  28.268  1.00  0.00     0.031 A 
ATOM     82  C   UNL A   1      45.690  33.665  30.443  1.00  0.00     0.131 A 
ATOM     83  C   UNL A   1      45.651  35.599  28.463  1.00  0.00     0.055 A 
ATOM     84  C   UNL A   1      46.345  34.880  30.653  1.00  0.00     0.041 A 
ATOM     85  F   UNL A   1      45.753  32.744  31.418  1.00  0.00    -0.206 F 
ATOM     86  C   UNL A   1      46.336  35.851  29.656  1.00  0.00     0.022 A 
BRANCH  83  87
ATOM     87  S   UNL A   1      45.711  36.806  27.110  1.00  0.00     0.124 S 
ATOM     88  O   UNL A   1      44.306  37.176  26.974  1.00  0.00    -0.237 OA
ATOM     89  O   UNL A   1      46.593  37.837  27.647  1.00  0.00    -0.237 OA
ATOM     90  O   UNL A   1      46.263  36.042  25.993  1.00  0.00    -0.744 OA
ENDBRANCH  83  87
ENDBRANCH  57  80
ENDBRANCH  31  32
ENDBRANCH  23  26
ENDBRANCH  21  22
ENDBRANCH   1  21
TORSDOF 16
ENDMDL
MODEL 3
REMARK VINA RESULT:     -11.2      1.559      2.316
REMARK SMILES C[NH2+][C@](C)(C(=O)NCCCCNC(=O)c1ccc(-c2c3nc(c(-c4cc(S(=O)(=O)[O-])ccc4F)c4ccc([nH]4)c(-c4cc(S(=O)(=O)[O-])ccc4F)c4nc(c(-c5cc(S(=O)(=O)[O-])ccc5F)c5ccc2[nH]5)C=C4)C=C3)cc1)c1cccc(Cl)c1
REMARK SMILES IDX 10 1 9 2 8 3 7 4 5 5 6 6 3 8 4 9 2 10 1 11 78 14 79 15 84 16
REMARK SMILES IDX 80 17 82 18 81 19 83 20 11 21 12 22 13 23 14 25 15 26 16 27
REMARK SMILES IDX 77 28 17 29 76 30 18 31 19 32 20 33 70 34 21 35 75 36 69 37
REMARK SMILES IDX 71 38 22 39 74 40 68 41 67 42 23 44 55 45 35 46 54 47 36 48
REMARK SMILES IDX 39 49 53 50 72 51 37 52 38 53 52 55 73 56 40 57 24 58 25 59
REMARK SMILES IDX 33 60 26 61 32 62 34 63 31 64 27 65 28 66 29 67 30 68 56 69
REMARK SMILES IDX 57 70 65 71 58 72 64 73 66 74 63 75 59 76 60 77 61 78 62 79
REMARK SMILES IDX 41 80 42 81 50 82 43 83 49 84 51 85 48 86 44 87 45 88 46 89
REMARK SMILES IDX 47 90
REMARK H PARENT 7 7 2 12 2 13 12 24 71 43 39 54
REMARK Flexibility Score: inf
ROOT
ATOM      1  C   UNL A   1      31.204  30.601  25.516  1.00  0.00     0.023 C 
ENDROOT
BRANCH   1   2
ATOM      2  C   UNL A   1      31.436  29.206  24.935  1.00  0.00     0.023 C 
BRANCH   2   3
ATOM      3  C   UNL A   1      32.882  28.723  24.988  1.00  0.00     0.116 C 
BRANCH   3   4
ATOM      4  N   UNL A   1      33.477  28.615  23.669  1.00  0.00    -0.350 N 
ATOM      5  C   UNL A   1      33.447  27.685  22.667  1.00  0.00     0.285 C 
ATOM      6  O   UNL A   1      34.111  28.040  21.683  1.00  0.00    -0.267 OA
ATOM      7  H   UNL A   1      34.032  29.395  23.442  1.00  0.00     0.163 HD
BRANCH   5   8
ATOM      8  C   UNL A   1      32.676  26.283  22.746  1.00  0.00     0.198 C 
ATOM      9  C   UNL A   1      31.153  26.568  22.724  1.00  0.00     0.096 C 
BRANCH   8  10
ATOM     10  N   UNL A   1      33.142  25.336  21.693  1.00  0.00    -0.332 N 
ATOM     11  C   UNL A   1      32.618  25.408  20.353  1.00  0.00     0.332 C 
ATOM     12  H   UNL A   1      34.151  25.459  21.618  1.00  0.00     0.347 HD
ATOM     13  H   UNL A   1      32.790  24.438  22.025  1.00  0.00     0.347 HD
ENDBRANCH   8  10
BRANCH   8  14
ATOM     14  C   UNL A   1      32.966  25.466  24.072  1.00  0.00     0.023 A 
ATOM     15  C   UNL A   1      34.263  25.177  24.533  1.00  0.00     0.011 A 
ATOM     16  C   UNL A   1      31.904  24.831  24.764  1.00  0.00     0.031 A 
ATOM     17  C   UNL A   1      34.487  24.385  25.668  1.00  0.00     0.002 A 
ATOM     18  C   UNL A   1      32.131  24.019  25.879  1.00  0.00     0.041 A 
ATOM     19  C   UNL A   1      33.419  23.806  26.345  1.00  0.00     0.020 A 
ATOM     20  Cl  UNL A   1      30.800  23.252  26.657  1.00  0.00    -0.084 Cl
ENDBRANCH   8  14
ENDBRANCH   5   8
ENDBRANCH   3   4
ENDBRANCH   2   3
ENDBRANCH   1   2
BRANCH   1  21
ATOM     21  C   UNL A   1      32.113  30.993  26.678  1.00  0.00     0.116 C 
BRANCH  21  22
ATOM     22  N   UNL A   1      32.034  32.405  27.025  1.00  0.00    -0.352 N 
ATOM     23  C   UNL A   1      32.959  33.196  27.672  1.00  0.00     0.251 C 
ATOM     24  H   UNL A   1      31.202  32.860  26.760  1.00  0.00     0.163 HD
ATOM     25  O   UNL A   1      32.684  34.350  27.964  1.00  0.00    -0.269 OA
BRANCH  23  26
ATOM     26  C   UNL A   1      34.261  32.609  28.048  1.00  0.00     0.039 A 
ATOM     27  C   UNL A   1      35.395  33.423  28.035  1.00  0.00     0.014 A 
ATOM     28  C   UNL A   1      34.340  31.285  28.490  1.00  0.00     0.014 A 
ATOM     29  C   UNL A   1      36.592  32.942  28.570  1.00  0.00     0.010 A 
ATOM     30  C   UNL A   1      35.514  30.831  29.081  1.00  0.00     0.010 A 
ATOM     31  C   UNL A   1      36.642  31.665  29.151  1.00  0.00    -0.014 A 
BRANCH  31  32
ATOM     32  C   UNL A   1      37.842  31.196  29.889  1.00  0.00     0.031 A 
ATOM     33  C   UNL A   1      38.738  30.155  29.285  1.00  0.00     0.074 A 
ATOM     34  C   UNL A   1      38.058  31.636  31.144  1.00  0.00     0.049 A 
ATOM     35  N   UNL A   1      39.750  29.523  29.820  1.00  0.00    -0.248 NA
ATOM     36  C   UNL A   1      38.434  29.751  27.905  1.00  0.00     0.031 C 
ATOM     37  C   UNL A   1      37.233  32.618  31.852  1.00  0.00     0.029 A 
ATOM     38  N   UNL A   1      39.026  31.301  32.058  1.00  0.00    -0.354 N 
ATOM     39  C   UNL A   1      40.199  28.637  28.848  1.00  0.00     0.074 A 
ATOM     40  C   UNL A   1      39.309  28.776  27.713  1.00  0.00     0.031 C 
ATOM     41  C   UNL A   1      37.736  32.814  33.081  1.00  0.00     0.029 A 
ATOM     42  C   UNL A   1      38.886  31.936  33.270  1.00  0.00     0.049 A 
ATOM     43  H   UNL A   1      39.752  30.665  31.865  1.00  0.00     0.167 HD
ATOM     44  C   UNL A   1      41.266  27.800  28.892  1.00  0.00     0.034 A 
ATOM     45  C   UNL A   1      39.589  31.809  34.412  1.00  0.00     0.034 A 
ATOM     46  C   UNL A   1      42.144  27.681  30.031  1.00  0.00     0.049 A 
ATOM     47  C   UNL A   1      40.732  30.831  34.459  1.00  0.00     0.074 A 
ATOM     48  C   UNL A   1      43.299  26.929  30.155  1.00  0.00     0.029 A 
ATOM     49  N   UNL A   1      41.954  28.320  31.250  1.00  0.00    -0.354 N 
ATOM     50  N   UNL A   1      41.179  30.039  33.512  1.00  0.00    -0.248 NA
ATOM     51  C   UNL A   1      41.461  30.726  35.729  1.00  0.00     0.031 C 
ATOM     52  C   UNL A   1      43.770  27.060  31.468  1.00  0.00     0.029 A 
ATOM     53  C   UNL A   1      42.945  27.944  32.145  1.00  0.00     0.049 A 
ATOM     54  H   UNL A   1      41.223  28.947  31.450  1.00  0.00     0.167 HD
ATOM     55  C   UNL A   1      42.252  29.351  34.070  1.00  0.00     0.074 A 
ATOM     56  C   UNL A   1      42.393  29.833  35.430  1.00  0.00     0.031 C 
ATOM     57  C   UNL A   1      43.051  28.409  33.507  1.00  0.00     0.034 A 
BRANCH  44  58
ATOM     58  C   UNL A   1      41.514  26.936  27.681  1.00  0.00     0.023 A 
ATOM     59  C   UNL A   1      41.126  25.585  27.649  1.00  0.00     0.031 A 
ATOM     60  C   UNL A   1      42.185  27.454  26.559  1.00  0.00     0.131 A 
ATOM     61  C   UNL A   1      41.487  24.777  26.560  1.00  0.00     0.055 A 
ATOM     62  C   UNL A   1      42.469  26.664  25.443  1.00  0.00     0.041 A 
ATOM     63  F   UNL A   1      42.596  28.731  26.539  1.00  0.00    -0.206 F 
ATOM     64  C   UNL A   1      42.135  25.313  25.447  1.00  0.00     0.022 A 
BRANCH  61  65
ATOM     65  S   UNL A   1      41.231  22.987  26.693  1.00  0.00     0.124 S 
ATOM     66  O   UNL A   1      39.821  22.861  26.334  1.00  0.00    -0.237 OA
ATOM     67  O   UNL A   1      42.186  22.459  25.726  1.00  0.00    -0.237 OA
ATOM     68  O   UNL A   1      41.538  22.700  28.093  1.00  0.00    -0.744 OA
ENDBRANCH  61  65
ENDBRANCH  44  58
BRANCH  45  69
ATOM     69  C   UNL A   1      39.215  32.601  35.618  1.00  0.00     0.023 A 
ATOM     70  C   UNL A   1      39.696  33.905  35.800  1.00  0.00     0.031 A 
ATOM     71  C   UNL A   1      38.392  32.052  36.617  1.00  0.00     0.131 A 
ATOM     72  C   UNL A   1      39.377  34.610  36.972  1.00  0.00     0.055 A 
ATOM     73  C   UNL A   1      38.042  32.772  37.761  1.00  0.00     0.041 A 
ATOM     74  F   UNL A   1      37.900  30.809  36.486  1.00  0.00    -0.206 F 
ATOM     75  C   UNL A   1      38.544  34.056  37.948  1.00  0.00     0.022 A 
BRANCH  72  76
ATOM     76  S   UNL A   1      40.115  36.246  37.230  1.00  0.00     0.124 S 
ATOM     77  O   UNL A   1      39.985  36.844  35.906  1.00  0.00    -0.237 OA
ATOM     78  O   UNL A   1      39.260  36.803  38.273  1.00  0.00    -0.237 OA
ATOM     79  O   UNL A   1      41.481  35.940  37.647  1.00  0.00    -0.744 OA
ENDBRANCH  72  76
ENDBRANCH  45  69
BRANCH  57  80
ATOM     80  C   UNL A   1      44.156  27.856  34.369  1.00  0.00     0.023 A 
ATOM     81  C   UNL A   1      43.976  26.689  35.133  1.00  0.00     0.031 A 
ATOM     82  C   UNL A   1      45.400  28.506  34.432  1.00  0.00     0.131 A 
ATOM     83  C   UNL A   1      45.010  26.232  35.962  1.00  0.00     0.055 A 
ATOM     84  C   UNL A   1      46.444  28.017  35.219  1.00  0.00     0.041 A 
ATOM     85  F   UNL A   1      45.622  29.625  33.724  1.00  0.00    -0.206 F 
ATOM     86  C   UNL A   1      46.249  26.880  35.998  1.00  0.00     0.022 A 
BRANCH  83  87
ATOM     87  S   UNL A   1      44.699  24.810  37.044  1.00  0.00     0.124 S 
ATOM     88  O   UNL A   1      43.617  25.306  37.889  1.00  0.00    -0.237 OA
ATOM     89  O   UNL A   1      44.337  23.764  36.093  1.00  0.00    -0.237 OA
ATOM     90  O   UNL A   1      45.977  24.611  37.725  1.00  0.00    -0.744 OA
ENDBRANCH  83  87
ENDBRANCH  57  80
ENDBRANCH  31  32
ENDBRANCH  23  26
ENDBRANCH  21  22
ENDBRANCH   1  21
TORSDOF 16
ENDMDL
