MODEL 1
REMARK VINA RESULT:     -11.4      0.000      0.000
REMARK SMILES C[C@@](NC(=O)[C@H]1COc2ccccc21)(C(=O)NCCCCNC(=O)c1ccc(-c2c3nc(c(-c4cc(S(=O)(=O)[O-])ccc4F)c4ccc([nH]4)c(-c4cc(S(=O)(=O)[O-])ccc4F)c4nc(c(-c5cc(S(=O)(=O)[O-])ccc5F)c5ccc2[nH]5)C=C4)C=C3)cc1)C(F)(F)F
REMARK SMILES IDX 20 1 19 2 18 3 17 4 15 5 16 6 2 8 1 9 3 10 4 11 5 13 6 14
REMARK SMILES IDX 7 15 14 16 8 17 9 18 13 19 10 20 12 21 11 22 88 23 89 24
REMARK SMILES IDX 90 25 91 26 21 27 22 28 23 29 24 31 25 32 26 33 87 34 27 35
REMARK SMILES IDX 86 36 28 37 29 38 30 39 80 40 31 41 85 42 79 43 81 44 32 45
REMARK SMILES IDX 84 46 78 47 77 48 33 50 65 51 45 52 64 53 46 54 49 55 63 56
REMARK SMILES IDX 82 57 47 58 48 59 62 61 83 62 50 63 34 64 35 65 43 66 36 67
REMARK SMILES IDX 42 68 44 69 41 70 37 71 38 72 39 73 40 74 66 75 67 76 75 77
REMARK SMILES IDX 68 78 74 79 76 80 73 81 69 82 70 83 71 84 72 85 51 86 52 87
REMARK SMILES IDX 60 88 53 89 59 90 61 91 58 92 54 93 55 94 56 95 57 96
REMARK H PARENT 17 7 3 12 22 30 81 49 49 60
REMARK Flexibility Score: inf
ROOT
ATOM      1  C   UNL A   1      32.611  28.428  25.305  1.00  0.00     0.023 C 
ENDROOT
BRANCH   1   2
ATOM      2  C   UNL A   1      32.800  26.912  25.400  1.00  0.00     0.023 C 
BRANCH   2   3
ATOM      3  C   UNL A   1      33.069  26.227  24.068  1.00  0.00     0.116 C 
BRANCH   3   4
ATOM      4  N   UNL A   1      32.072  25.216  23.767  1.00  0.00    -0.354 N 
ATOM      5  C   UNL A   1      32.064  23.875  24.033  1.00  0.00     0.254 C 
ATOM      6  O   UNL A   1      31.033  23.266  23.743  1.00  0.00    -0.272 OA
ATOM      7  H   UNL A   1      31.275  25.550  23.295  1.00  0.00     0.163 HD
BRANCH   5   8
ATOM      8  C   UNL A   1      33.316  23.158  24.561  1.00  0.00     0.212 C 
ATOM      9  C   UNL A   1      33.098  21.643  24.327  1.00  0.00     0.056 C 
BRANCH   8  10
ATOM     10  N   UNL A   1      34.598  23.559  23.883  1.00  0.00    -0.334 N 
ATOM     11  C   UNL A   1      35.791  22.886  23.807  1.00  0.00     0.232 C 
ATOM     12  H   UNL A   1      34.577  24.432  23.427  1.00  0.00     0.164 HD
ATOM     13  O   UNL A   1      36.412  23.005  22.749  1.00  0.00    -0.274 OA
BRANCH  11  14
ATOM     14  C   UNL A   1      36.347  22.135  25.005  1.00  0.00     0.150 C 
ATOM     15  C   UNL A   1      36.958  20.783  24.630  1.00  0.00     0.248 C 
ATOM     16  C   UNL A   1      37.533  22.782  25.641  1.00  0.00     0.010 A 
ATOM     17  O   UNL A   1      38.227  20.604  25.305  1.00  0.00    -0.492 OA
ATOM     18  C   UNL A   1      38.526  21.834  25.822  1.00  0.00     0.123 A 
ATOM     19  C   UNL A   1      37.700  24.073  26.124  1.00  0.00     0.008 A 
ATOM     20  C   UNL A   1      39.695  22.120  26.499  1.00  0.00     0.047 A 
ATOM     21  C   UNL A   1      38.876  24.383  26.815  1.00  0.00     0.001 A 
ATOM     22  C   UNL A   1      39.865  23.409  27.009  1.00  0.00     0.004 A 
ENDBRANCH  11  14
ENDBRANCH   8  10
BRANCH   8  23
ATOM     23  C   UNL A   1      33.386  23.367  26.091  1.00  0.00     0.420 C 
ATOM     24  F   UNL A   1      32.224  23.793  26.629  1.00  0.00    -0.168 F 
ATOM     25  F   UNL A   1      33.671  22.181  26.698  1.00  0.00    -0.168 F 
ATOM     26  F   UNL A   1      34.369  24.223  26.448  1.00  0.00    -0.168 F 
ENDBRANCH   8  23
ENDBRANCH   5   8
ENDBRANCH   3   4
ENDBRANCH   2   3
ENDBRANCH   1   2
BRANCH   1  27
ATOM     27  C   UNL A   1      33.791  29.267  25.791  1.00  0.00     0.116 C 
BRANCH  27  28
ATOM     28  N   UNL A   1      33.392  30.593  26.237  1.00  0.00    -0.352 N 
ATOM     29  C   UNL A   1      33.924  31.359  27.250  1.00  0.00     0.251 C 
ATOM     30  H   UNL A   1      32.639  30.997  25.749  1.00  0.00     0.163 HD
ATOM     31  O   UNL A   1      33.366  32.391  27.592  1.00  0.00    -0.269 OA
BRANCH  29  32
ATOM     32  C   UNL A   1      35.152  30.901  27.932  1.00  0.00     0.039 A 
ATOM     33  C   UNL A   1      36.242  31.769  28.018  1.00  0.00     0.014 A 
ATOM     34  C   UNL A   1      35.208  29.631  28.514  1.00  0.00     0.014 A 
ATOM     35  C   UNL A   1      37.368  31.390  28.752  1.00  0.00     0.010 A 
ATOM     36  C   UNL A   1      36.306  29.281  29.296  1.00  0.00     0.010 A 
ATOM     37  C   UNL A   1      37.393  30.160  29.429  1.00  0.00    -0.014 A 
BRANCH  37  38
ATOM     38  C   UNL A   1      38.542  29.778  30.290  1.00  0.00     0.031 A 
ATOM     39  C   UNL A   1      38.678  30.362  31.668  1.00  0.00     0.074 A 
ATOM     40  C   UNL A   1      39.495  28.959  29.802  1.00  0.00     0.049 A 
ATOM     41  N   UNL A   1      39.643  30.214  32.539  1.00  0.00    -0.248 NA
ATOM     42  C   UNL A   1      37.597  31.254  32.111  1.00  0.00     0.031 C 
ATOM     43  C   UNL A   1      39.493  28.362  28.465  1.00  0.00     0.029 A 
ATOM     44  N   UNL A   1      40.658  28.498  30.367  1.00  0.00    -0.354 N 
ATOM     45  C   UNL A   1      39.291  31.000  33.631  1.00  0.00     0.074 A 
ATOM     46  C   UNL A   1      38.055  31.669  33.283  1.00  0.00     0.031 C 
ATOM     47  C   UNL A   1      40.590  27.601  28.320  1.00  0.00     0.029 A 
ATOM     48  C   UNL A   1      41.396  27.689  29.533  1.00  0.00     0.049 A 
ATOM     49  H   UNL A   1      40.938  28.725  31.283  1.00  0.00     0.167 HD
ATOM     50  C   UNL A   1      39.930  31.134  34.820  1.00  0.00     0.034 A 
ATOM     51  C   UNL A   1      42.592  27.098  29.720  1.00  0.00     0.034 A 
ATOM     52  C   UNL A   1      41.160  30.456  35.150  1.00  0.00     0.049 A 
ATOM     53  C   UNL A   1      43.298  27.284  31.039  1.00  0.00     0.074 A 
ATOM     54  C   UNL A   1      41.864  30.477  36.342  1.00  0.00     0.029 A 
ATOM     55  N   UNL A   1      41.879  29.643  34.282  1.00  0.00    -0.354 N 
ATOM     56  N   UNL A   1      42.926  27.987  32.084  1.00  0.00    -0.248 NA
ATOM     57  C   UNL A   1      44.580  26.588  31.209  1.00  0.00     0.031 C 
ATOM     58  C   UNL A   1      43.039  29.736  36.172  1.00  0.00     0.029 A 
ATOM     59  C   UNL A   1      43.032  29.185  34.901  1.00  0.00     0.049 A 
ATOM     60  H   UNL A   1      41.608  29.424  33.361  1.00  0.00     0.167 HD
ATOM     61  C   UNL A   1      43.913  27.790  33.046  1.00  0.00     0.074 A 
ATOM     62  C   UNL A   1      44.888  26.892  32.460  1.00  0.00     0.031 C 
ATOM     63  C   UNL A   1      44.003  28.299  34.301  1.00  0.00     0.034 A 
BRANCH  50  64
ATOM     64  C   UNL A   1      39.316  32.070  35.835  1.00  0.00     0.023 A 
ATOM     65  C   UNL A   1      39.715  33.414  35.936  1.00  0.00     0.031 A 
ATOM     66  C   UNL A   1      38.339  31.606  36.733  1.00  0.00     0.131 A 
ATOM     67  C   UNL A   1      39.204  34.223  36.961  1.00  0.00     0.055 A 
ATOM     68  C   UNL A   1      37.771  32.441  37.699  1.00  0.00     0.041 A 
ATOM     69  F   UNL A   1      37.931  30.328  36.701  1.00  0.00    -0.206 F 
ATOM     70  C   UNL A   1      38.214  33.754  37.828  1.00  0.00     0.022 A 
BRANCH  67  71
ATOM     71  S   UNL A   1      39.961  35.848  37.240  1.00  0.00     0.124 S 
ATOM     72  O   UNL A   1      39.662  36.532  35.984  1.00  0.00    -0.237 OA
ATOM     73  O   UNL A   1      39.246  36.331  38.416  1.00  0.00    -0.237 OA
ATOM     74  O   UNL A   1      41.373  35.537  37.451  1.00  0.00    -0.744 OA
ENDBRANCH  67  71
ENDBRANCH  50  64
BRANCH  51  75
ATOM     75  C   UNL A   1      43.209  26.281  28.635  1.00  0.00     0.023 A 
ATOM     76  C   UNL A   1      44.128  26.847  27.737  1.00  0.00     0.031 A 
ATOM     77  C   UNL A   1      42.860  24.930  28.456  1.00  0.00     0.131 A 
ATOM     78  C   UNL A   1      44.628  26.082  26.673  1.00  0.00     0.055 A 
ATOM     79  C   UNL A   1      43.401  24.158  27.428  1.00  0.00     0.041 A 
ATOM     80  F   UNL A   1      41.991  24.338  29.292  1.00  0.00    -0.206 F 
ATOM     81  C   UNL A   1      44.282  24.738  26.519  1.00  0.00     0.022 A 
BRANCH  78  82
ATOM     82  S   UNL A   1      45.682  26.895  25.440  1.00  0.00     0.124 S 
ATOM     83  O   UNL A   1      46.108  25.765  24.622  1.00  0.00    -0.237 OA
ATOM     84  O   UNL A   1      44.750  27.827  24.814  1.00  0.00    -0.237 OA
ATOM     85  O   UNL A   1      46.732  27.514  26.246  1.00  0.00    -0.744 OA
ENDBRANCH  78  82
ENDBRANCH  51  75
BRANCH  63  86
ATOM     86  C   UNL A   1      45.178  27.854  35.138  1.00  0.00     0.023 A 
ATOM     87  C   UNL A   1      45.174  26.631  35.832  1.00  0.00     0.031 A 
ATOM     88  C   UNL A   1      46.313  28.675  35.253  1.00  0.00     0.131 A 
ATOM     89  C   UNL A   1      46.260  26.291  36.653  1.00  0.00     0.055 A 
ATOM     90  C   UNL A   1      47.417  28.303  36.022  1.00  0.00     0.041 A 
ATOM     91  F   UNL A   1      46.370  29.856  34.615  1.00  0.00    -0.206 F 
ATOM     92  C   UNL A   1      47.388  27.110  36.738  1.00  0.00     0.022 A 
BRANCH  89  93
ATOM     93  S   UNL A   1      46.141  24.802  37.683  1.00  0.00     0.124 S 
ATOM     94  O   UNL A   1      45.857  23.769  36.692  1.00  0.00    -0.237 OA
ATOM     95  O   UNL A   1      47.460  24.745  38.304  1.00  0.00    -0.237 OA
ATOM     96  O   UNL A   1      45.039  25.104  38.596  1.00  0.00    -0.744 OA
ENDBRANCH  89  93
ENDBRANCH  63  86
ENDBRANCH  37  38
ENDBRANCH  29  32
ENDBRANCH  27  28
ENDBRANCH   1  27
TORSDOF 17
ENDMDL
MODEL 2
REMARK VINA RESULT:     -11.4      2.265      7.963
REMARK SMILES C[C@@](NC(=O)[C@H]1COc2ccccc21)(C(=O)NCCCCNC(=O)c1ccc(-c2c3nc(c(-c4cc(S(=O)(=O)[O-])ccc4F)c4ccc([nH]4)c(-c4cc(S(=O)(=O)[O-])ccc4F)c4nc(c(-c5cc(S(=O)(=O)[O-])ccc5F)c5ccc2[nH]5)C=C4)C=C3)cc1)C(F)(F)F
REMARK SMILES IDX 20 1 19 2 18 3 17 4 15 5 16 6 2 8 1 9 3 10 4 11 5 13 6 14
REMARK SMILES IDX 7 15 14 16 8 17 9 18 13 19 10 20 12 21 11 22 88 23 89 24
REMARK SMILES IDX 90 25 91 26 21 27 22 28 23 29 24 31 25 32 26 33 87 34 27 35
REMARK SMILES IDX 86 36 28 37 29 38 30 39 80 40 31 41 85 42 79 43 81 44 32 45
REMARK SMILES IDX 84 46 78 47 77 48 33 50 65 51 45 52 64 53 46 54 49 55 63 56
REMARK SMILES IDX 82 57 47 58 48 59 62 61 83 62 50 63 34 64 35 65 43 66 36 67
REMARK SMILES IDX 42 68 44 69 41 70 37 71 38 72 39 73 40 74 66 75 67 76 75 77
REMARK SMILES IDX 68 78 74 79 76 80 73 81 69 82 70 83 71 84 72 85 51 86 52 87
REMARK SMILES IDX 60 88 53 89 59 90 61 91 58 92 54 93 55 94 56 95 57 96
REMARK H PARENT 17 7 3 12 22 30 81 49 49 60
REMARK Flexibility Score: inf
ROOT
ATOM      1  C   UNL A   1      31.855  31.122  26.591  1.00  0.00     0.023 C 
ENDROOT
BRANCH   1   2
ATOM      2  C   UNL A   1      32.093  29.617  26.445  1.00  0.00     0.023 C 
BRANCH   2   3
ATOM      3  C   UNL A   1      32.281  29.146  25.009  1.00  0.00     0.116 C 
BRANCH   3   4
ATOM      4  N   UNL A   1      31.019  28.799  24.383  1.00  0.00    -0.354 N 
ATOM      5  C   UNL A   1      30.448  27.575  24.162  1.00  0.00     0.254 C 
ATOM      6  O   UNL A   1      29.312  27.580  23.688  1.00  0.00    -0.272 OA
ATOM      7  H   UNL A   1      30.488  29.566  24.067  1.00  0.00     0.163 HD
BRANCH   5   8
ATOM      8  C   UNL A   1      31.234  26.275  24.390  1.00  0.00     0.212 C 
ATOM      9  C   UNL A   1      30.390  25.128  23.782  1.00  0.00     0.056 C 
BRANCH   8  10
ATOM     10  N   UNL A   1      32.596  26.248  23.751  1.00  0.00    -0.334 N 
ATOM     11  C   UNL A   1      33.360  25.172  23.375  1.00  0.00     0.232 C 
ATOM     12  H   UNL A   1      32.996  27.131  23.577  1.00  0.00     0.164 HD
ATOM     13  O   UNL A   1      34.028  25.316  22.349  1.00  0.00    -0.274 OA
BRANCH  11  14
ATOM     14  C   UNL A   1      33.449  23.929  24.244  1.00  0.00     0.150 C 
ATOM     15  C   UNL A   1      33.117  22.645  23.482  1.00  0.00     0.248 C 
ATOM     16  C   UNL A   1      34.829  23.599  24.709  1.00  0.00     0.010 A 
ATOM     17  O   UNL A   1      34.080  21.611  23.802  1.00  0.00    -0.492 OA
ATOM     18  C   UNL A   1      35.082  22.260  24.469  1.00  0.00     0.123 A 
ATOM     19  C   UNL A   1      35.759  24.378  25.385  1.00  0.00     0.008 A 
ATOM     20  C   UNL A   1      36.239  21.644  24.906  1.00  0.00     0.047 A 
ATOM     21  C   UNL A   1      36.935  23.774  25.838  1.00  0.00     0.001 A 
ATOM     22  C   UNL A   1      37.171  22.411  25.607  1.00  0.00     0.004 A 
ENDBRANCH  11  14
ENDBRANCH   8  10
BRANCH   8  23
ATOM     23  C   UNL A   1      31.309  26.015  25.912  1.00  0.00     0.420 C 
ATOM     24  F   UNL A   1      32.515  26.299  26.447  1.00  0.00    -0.168 F 
ATOM     25  F   UNL A   1      30.414  26.817  26.553  1.00  0.00    -0.168 F 
ATOM     26  F   UNL A   1      30.980  24.744  26.233  1.00  0.00    -0.168 F 
ENDBRANCH   8  23
ENDBRANCH   5   8
ENDBRANCH   3   4
ENDBRANCH   2   3
ENDBRANCH   1   2
BRANCH   1  27
ATOM     27  C   UNL A   1      32.993  31.904  27.243  1.00  0.00     0.116 C 
BRANCH  27  28
ATOM     28  N   UNL A   1      32.671  33.311  27.432  1.00  0.00    -0.352 N 
ATOM     29  C   UNL A   1      33.205  34.205  28.332  1.00  0.00     0.251 C 
ATOM     30  H   UNL A   1      31.978  33.672  26.834  1.00  0.00     0.163 HD
ATOM     31  O   UNL A   1      32.708  35.315  28.457  1.00  0.00    -0.269 OA
BRANCH  29  32
ATOM     32  C   UNL A   1      34.357  33.793  29.161  1.00  0.00     0.039 A 
ATOM     33  C   UNL A   1      34.134  32.963  30.262  1.00  0.00     0.014 A 
ATOM     34  C   UNL A   1      35.652  34.198  28.827  1.00  0.00     0.014 A 
ATOM     35  C   UNL A   1      35.224  32.478  30.988  1.00  0.00     0.010 A 
ATOM     36  C   UNL A   1      36.738  33.665  29.515  1.00  0.00     0.010 A 
ATOM     37  C   UNL A   1      36.535  32.793  30.598  1.00  0.00    -0.014 A 
BRANCH  37  38
ATOM     38  C   UNL A   1      37.709  32.214  31.302  1.00  0.00     0.031 A 
ATOM     39  C   UNL A   1      38.479  31.084  30.677  1.00  0.00     0.074 A 
ATOM     40  C   UNL A   1      38.035  32.662  32.530  1.00  0.00     0.049 A 
ATOM     41  N   UNL A   1      39.480  30.397  31.163  1.00  0.00    -0.248 NA
ATOM     42  C   UNL A   1      38.045  30.654  29.340  1.00  0.00     0.031 C 
ATOM     43  C   UNL A   1      37.337  33.725  33.255  1.00  0.00     0.029 A 
ATOM     44  N   UNL A   1      39.028  32.270  33.394  1.00  0.00    -0.354 N 
ATOM     45  C   UNL A   1      39.791  29.447  30.196  1.00  0.00     0.074 A 
ATOM     46  C   UNL A   1      38.831  29.610  29.125  1.00  0.00     0.031 C 
ATOM     47  C   UNL A   1      37.933  33.913  34.443  1.00  0.00     0.029 A 
ATOM     48  C   UNL A   1      39.025  32.956  34.587  1.00  0.00     0.049 A 
ATOM     49  H   UNL A   1      39.679  31.564  33.180  1.00  0.00     0.167 HD
ATOM     50  C   UNL A   1      40.798  28.537  30.195  1.00  0.00     0.034 A 
ATOM     51  C   UNL A   1      39.806  32.821  35.676  1.00  0.00     0.034 A 
ATOM     52  C   UNL A   1      41.748  28.391  31.270  1.00  0.00     0.049 A 
ATOM     53  C   UNL A   1      40.900  31.783  35.664  1.00  0.00     0.074 A 
ATOM     54  C   UNL A   1      42.838  27.540  31.349  1.00  0.00     0.029 A 
ATOM     55  N   UNL A   1      41.717  29.104  32.463  1.00  0.00    -0.354 N 
ATOM     56  N   UNL A   1      41.217  30.927  34.719  1.00  0.00    -0.248 NA
ATOM     57  C   UNL A   1      41.749  31.700  36.859  1.00  0.00     0.031 C 
ATOM     58  C   UNL A   1      43.422  27.690  32.612  1.00  0.00     0.029 A 
ATOM     59  C   UNL A   1      42.747  28.690  33.294  1.00  0.00     0.049 A 
ATOM     60  H   UNL A   1      41.059  29.802  32.684  1.00  0.00     0.167 HD
ATOM     61  C   UNL A   1      42.323  30.229  35.195  1.00  0.00     0.074 A 
ATOM     62  C   UNL A   1      42.624  30.772  36.504  1.00  0.00     0.031 C 
ATOM     63  C   UNL A   1      43.029  29.232  34.602  1.00  0.00     0.034 A 
BRANCH  50  64
ATOM     64  C   UNL A   1      40.897  27.616  29.000  1.00  0.00     0.023 A 
ATOM     65  C   UNL A   1      41.898  27.777  28.026  1.00  0.00     0.031 A 
ATOM     66  C   UNL A   1      39.961  26.584  28.815  1.00  0.00     0.131 A 
ATOM     67  C   UNL A   1      41.893  26.975  26.875  1.00  0.00     0.055 A 
ATOM     68  C   UNL A   1      40.012  25.733  27.709  1.00  0.00     0.041 A 
ATOM     69  F   UNL A   1      38.970  26.393  29.699  1.00  0.00    -0.206 F 
ATOM     70  C   UNL A   1      40.972  25.936  26.722  1.00  0.00     0.022 A 
BRANCH  67  71
ATOM     71  S   UNL A   1      43.010  27.408  25.514  1.00  0.00     0.124 S 
ATOM     72  O   UNL A   1      44.067  28.131  26.219  1.00  0.00    -0.237 OA
ATOM     73  O   UNL A   1      43.377  26.101  24.980  1.00  0.00    -0.237 OA
ATOM     74  O   UNL A   1      42.181  28.231  24.637  1.00  0.00    -0.744 OA
ENDBRANCH  67  71
ENDBRANCH  50  64
BRANCH  51  75
ATOM     75  C   UNL A   1      39.584  33.677  36.878  1.00  0.00     0.023 A 
ATOM     76  C   UNL A   1      38.941  33.170  38.018  1.00  0.00     0.031 A 
ATOM     77  C   UNL A   1      39.976  35.028  36.887  1.00  0.00     0.131 A 
ATOM     78  C   UNL A   1      38.666  34.018  39.101  1.00  0.00     0.055 A 
ATOM     79  C   UNL A   1      39.747  35.854  37.988  1.00  0.00     0.041 A 
ATOM     80  F   UNL A   1      40.601  35.561  35.825  1.00  0.00    -0.206 F 
ATOM     81  C   UNL A   1      39.076  35.353  39.100  1.00  0.00     0.022 A 
BRANCH  78  82
ATOM     82  S   UNL A   1      37.689  33.370  40.485  1.00  0.00     0.124 S 
ATOM     83  O   UNL A   1      38.571  32.334  41.012  1.00  0.00    -0.237 OA
ATOM     84  O   UNL A   1      37.521  34.556  41.318  1.00  0.00    -0.237 OA
ATOM     85  O   UNL A   1      36.469  32.885  39.843  1.00  0.00    -0.744 OA
ENDBRANCH  78  82
ENDBRANCH  51  75
BRANCH  63  86
ATOM     86  C   UNL A   1      44.227  28.701  35.353  1.00  0.00     0.023 A 
ATOM     87  C   UNL A   1      44.116  27.647  36.277  1.00  0.00     0.031 A 
ATOM     88  C   UNL A   1      45.497  29.270  35.149  1.00  0.00     0.131 A 
ATOM     89  C   UNL A   1      45.244  27.233  37.001  1.00  0.00     0.055 A 
ATOM     90  C   UNL A   1      46.626  28.813  35.827  1.00  0.00     0.041 A 
ATOM     91  F   UNL A   1      45.660  30.282  34.281  1.00  0.00    -0.206 F 
ATOM     92  C   UNL A   1      46.501  27.797  36.770  1.00  0.00     0.022 A 
BRANCH  89  93
ATOM     93  S   UNL A   1      45.029  26.006  38.321  1.00  0.00     0.124 S 
ATOM     94  O   UNL A   1      44.480  26.817  39.402  1.00  0.00    -0.237 OA
ATOM     95  O   UNL A   1      44.112  25.049  37.712  1.00  0.00    -0.237 OA
ATOM     96  O   UNL A   1      46.385  25.506  38.549  1.00  0.00    -0.744 OA
ENDBRANCH  89  93
ENDBRANCH  63  86
ENDBRANCH  37  38
ENDBRANCH  29  32
ENDBRANCH  27  28
ENDBRANCH   1  27
TORSDOF 17
ENDMDL
MODEL 3
REMARK VINA RESULT:     -11.2      2.260      2.772
REMARK SMILES C[C@@](NC(=O)[C@H]1COc2ccccc21)(C(=O)NCCCCNC(=O)c1ccc(-c2c3nc(c(-c4cc(S(=O)(=O)[O-])ccc4F)c4ccc([nH]4)c(-c4cc(S(=O)(=O)[O-])ccc4F)c4nc(c(-c5cc(S(=O)(=O)[O-])ccc5F)c5ccc2[nH]5)C=C4)C=C3)cc1)C(F)(F)F
REMARK SMILES IDX 20 1 19 2 18 3 17 4 15 5 16 6 2 8 1 9 3 10 4 11 5 13 6 14
REMARK SMILES IDX 7 15 14 16 8 17 9 18 13 19 10 20 12 21 11 22 88 23 89 24
REMARK SMILES IDX 90 25 91 26 21 27 22 28 23 29 24 31 25 32 26 33 87 34 27 35
REMARK SMILES IDX 86 36 28 37 29 38 30 39 80 40 31 41 85 42 79 43 81 44 32 45
REMARK SMILES IDX 84 46 78 47 77 48 33 50 65 51 45 52 64 53 46 54 49 55 63 56
REMARK SMILES IDX 82 57 47 58 48 59 62 61 83 62 50 63 34 64 35 65 43 66 36 67
REMARK SMILES IDX 42 68 44 69 41 70 37 71 38 72 39 73 40 74 66 75 67 76 75 77
REMARK SMILES IDX 68 78 74 79 76 80 73 81 69 82 70 83 71 84 72 85 51 86 52 87
REMARK SMILES IDX 60 88 53 89 59 90 61 91 58 92 54 93 55 94 56 95 57 96
REMARK H PARENT 17 7 3 12 22 30 81 49 49 60
REMARK Flexibility Score: inf
ROOT
ATOM      1  C   UNL A   1      32.254  29.773  25.285  1.00  0.00     0.023 C 
ENDROOT
BRANCH   1   2
ATOM      2  C   UNL A   1      33.322  28.794  24.791  1.00  0.00     0.023 C 
BRANCH   2   3
ATOM      3  C   UNL A   1      32.836  27.813  23.734  1.00  0.00     0.116 C 
BRANCH   3   4
ATOM      4  N   UNL A   1      31.433  27.484  23.904  1.00  0.00    -0.354 N 
ATOM      5  C   UNL A   1      30.844  26.381  24.460  1.00  0.00     0.254 C 
ATOM      6  O   UNL A   1      29.617  26.408  24.558  1.00  0.00    -0.272 OA
ATOM      7  H   UNL A   1      30.804  28.162  23.565  1.00  0.00     0.163 HD
BRANCH   5   8
ATOM      8  C   UNL A   1      31.668  25.139  24.833  1.00  0.00     0.212 C 
ATOM      9  C   UNL A   1      30.658  24.017  25.176  1.00  0.00     0.056 C 
BRANCH   8  10
ATOM     10  N   UNL A   1      32.573  24.639  23.740  1.00  0.00    -0.334 N 
ATOM     11  C   UNL A   1      33.049  23.372  23.515  1.00  0.00     0.232 C 
ATOM     12  H   UNL A   1      32.868  25.321  23.093  1.00  0.00     0.164 HD
ATOM     13  O   UNL A   1      33.165  23.041  22.333  1.00  0.00    -0.274 OA
BRANCH  11  14
ATOM     14  C   UNL A   1      33.504  22.487  24.663  1.00  0.00     0.150 C 
ATOM     15  C   UNL A   1      32.947  21.064  24.575  1.00  0.00     0.248 C 
ATOM     16  C   UNL A   1      34.966  22.188  24.670  1.00  0.00     0.010 A 
ATOM     17  O   UNL A   1      33.992  20.101  24.856  1.00  0.00    -0.492 OA
ATOM     18  C   UNL A   1      35.151  20.826  24.835  1.00  0.00     0.123 A 
ATOM     19  C   UNL A   1      36.058  23.045  24.639  1.00  0.00     0.008 A 
ATOM     20  C   UNL A   1      36.407  20.273  25.000  1.00  0.00     0.047 A 
ATOM     21  C   UNL A   1      37.337  22.507  24.806  1.00  0.00     0.001 A 
ATOM     22  C   UNL A   1      37.511  21.128  24.993  1.00  0.00     0.004 A 
ENDBRANCH  11  14
ENDBRANCH   8  10
BRANCH   8  23
ATOM     23  C   UNL A   1      32.450  25.447  26.130  1.00  0.00     0.420 C 
ATOM     24  F   UNL A   1      31.995  26.537  26.785  1.00  0.00    -0.168 F 
ATOM     25  F   UNL A   1      32.318  24.404  26.997  1.00  0.00    -0.168 F 
ATOM     26  F   UNL A   1      33.774  25.594  25.909  1.00  0.00    -0.168 F 
ENDBRANCH   8  23
ENDBRANCH   5   8
ENDBRANCH   3   4
ENDBRANCH   2   3
ENDBRANCH   1   2
BRANCH   1  27
ATOM     27  C   UNL A   1      32.412  30.240  26.730  1.00  0.00     0.116 C 
BRANCH  27  28
ATOM     28  N   UNL A   1      32.436  31.690  26.853  1.00  0.00    -0.352 N 
ATOM     29  C   UNL A   1      33.366  32.488  27.481  1.00  0.00     0.251 C 
ATOM     30  H   UNL A   1      31.685  32.164  26.430  1.00  0.00     0.163 HD
ATOM     31  O   UNL A   1      33.149  33.683  27.620  1.00  0.00    -0.269 OA
BRANCH  29  32
ATOM     32  C   UNL A   1      34.603  31.875  28.008  1.00  0.00     0.039 A 
ATOM     33  C   UNL A   1      35.736  32.675  28.173  1.00  0.00     0.014 A 
ATOM     34  C   UNL A   1      34.628  30.525  28.370  1.00  0.00     0.014 A 
ATOM     35  C   UNL A   1      36.877  32.136  28.771  1.00  0.00     0.010 A 
ATOM     36  C   UNL A   1      35.745  30.008  29.019  1.00  0.00     0.010 A 
ATOM     37  C   UNL A   1      36.878  30.811  29.233  1.00  0.00    -0.014 A 
BRANCH  37  38
ATOM     38  C   UNL A   1      38.049  30.247  29.954  1.00  0.00     0.031 A 
ATOM     39  C   UNL A   1      38.357  30.693  31.356  1.00  0.00     0.074 A 
ATOM     40  C   UNL A   1      38.868  29.386  29.318  1.00  0.00     0.049 A 
ATOM     41  N   UNL A   1      39.371  30.378  32.120  1.00  0.00    -0.248 NA
ATOM     42  C   UNL A   1      37.415  31.643  31.964  1.00  0.00     0.031 C 
ATOM     43  C   UNL A   1      38.694  28.911  27.944  1.00  0.00     0.029 A 
ATOM     44  N   UNL A   1      40.020  28.768  29.738  1.00  0.00    -0.354 N 
ATOM     45  C   UNL A   1      39.193  31.097  33.298  1.00  0.00     0.074 A 
ATOM     46  C   UNL A   1      38.008  31.909  33.118  1.00  0.00     0.031 C 
ATOM     47  C   UNL A   1      39.691  28.064  27.641  1.00  0.00     0.029 A 
ATOM     48  C   UNL A   1      40.600  27.968  28.779  1.00  0.00     0.049 A 
ATOM     49  H   UNL A   1      40.397  28.887  30.639  1.00  0.00     0.167 HD
ATOM     50  C   UNL A   1      39.939  31.065  34.431  1.00  0.00     0.034 A 
ATOM     51  C   UNL A   1      41.740  27.251  28.810  1.00  0.00     0.034 A 
ATOM     52  C   UNL A   1      41.116  30.246  34.593  1.00  0.00     0.049 A 
ATOM     53  C   UNL A   1      42.568  27.253  30.069  1.00  0.00     0.074 A 
ATOM     54  C   UNL A   1      41.915  30.096  35.715  1.00  0.00     0.029 A 
ATOM     55  N   UNL A   1      41.673  29.446  33.602  1.00  0.00    -0.354 N 
ATOM     56  N   UNL A   1      42.358  27.896  31.196  1.00  0.00    -0.248 NA
ATOM     57  C   UNL A   1      43.781  26.425  30.066  1.00  0.00     0.031 C 
ATOM     58  C   UNL A   1      42.989  29.263  35.380  1.00  0.00     0.029 A 
ATOM     59  C   UNL A   1      42.821  28.828  34.076  1.00  0.00     0.049 A 
ATOM     60  H   UNL A   1      41.306  29.336  32.695  1.00  0.00     0.167 HD
ATOM     61  C   UNL A   1      43.396  27.521  32.045  1.00  0.00     0.074 A 
ATOM     62  C   UNL A   1      44.221  26.589  31.304  1.00  0.00     0.031 C 
ATOM     63  C   UNL A   1      43.641  27.909  33.323  1.00  0.00     0.034 A 
BRANCH  50  64
ATOM     64  C   UNL A   1      39.511  31.964  35.567  1.00  0.00     0.023 A 
ATOM     65  C   UNL A   1      38.749  31.480  36.644  1.00  0.00     0.031 A 
ATOM     66  C   UNL A   1      39.842  33.330  35.560  1.00  0.00     0.131 A 
ATOM     67  C   UNL A   1      38.275  32.366  37.624  1.00  0.00     0.055 A 
ATOM     68  C   UNL A   1      39.440  34.192  36.583  1.00  0.00     0.041 A 
ATOM     69  F   UNL A   1      40.550  33.857  34.549  1.00  0.00    -0.206 F 
ATOM     70  C   UNL A   1      38.637  33.715  37.615  1.00  0.00     0.022 A 
BRANCH  67  71
ATOM     71  S   UNL A   1      37.056  31.759  38.822  1.00  0.00     0.124 S 
ATOM     72  O   UNL A   1      37.764  31.951  40.086  1.00  0.00    -0.237 OA
ATOM     73  O   UNL A   1      35.918  32.640  38.587  1.00  0.00    -0.237 OA
ATOM     74  O   UNL A   1      36.857  30.365  38.433  1.00  0.00    -0.744 OA
ENDBRANCH  67  71
ENDBRANCH  50  64
BRANCH  51  75
ATOM     75  C   UNL A   1      42.178  26.476  27.612  1.00  0.00     0.023 A 
ATOM     76  C   UNL A   1      41.860  25.116  27.476  1.00  0.00     0.031 A 
ATOM     77  C   UNL A   1      42.954  27.077  26.605  1.00  0.00     0.131 A 
ATOM     78  C   UNL A   1      42.357  24.388  26.384  1.00  0.00     0.055 A 
ATOM     79  C   UNL A   1      43.401  26.361  25.493  1.00  0.00     0.041 A 
ATOM     80  F   UNL A   1      43.280  28.377  26.683  1.00  0.00    -0.206 F 
ATOM     81  C   UNL A   1      43.114  25.004  25.385  1.00  0.00     0.022 A 
BRANCH  78  82
ATOM     82  S   UNL A   1      42.064  22.598  26.328  1.00  0.00     0.124 S 
ATOM     83  O   UNL A   1      42.834  22.135  27.477  1.00  0.00    -0.237 OA
ATOM     84  O   UNL A   1      40.612  22.526  26.455  1.00  0.00    -0.237 OA
ATOM     85  O   UNL A   1      42.593  22.208  25.023  1.00  0.00    -0.744 OA
ENDBRANCH  78  82
ENDBRANCH  51  75
BRANCH  63  86
ATOM     86  C   UNL A   1      44.830  27.283  34.012  1.00  0.00     0.023 A 
ATOM     87  C   UNL A   1      44.709  26.110  34.780  1.00  0.00     0.031 A 
ATOM     88  C   UNL A   1      46.100  27.877  33.909  1.00  0.00     0.131 A 
ATOM     89  C   UNL A   1      45.828  25.603  35.459  1.00  0.00     0.055 A 
ATOM     90  C   UNL A   1      47.221  27.333  34.535  1.00  0.00     0.041 A 
ATOM     91  F   UNL A   1      46.272  28.999  33.191  1.00  0.00    -0.206 F 
ATOM     92  C   UNL A   1      47.085  26.196  35.327  1.00  0.00     0.022 A 
BRANCH  89  93
ATOM     93  S   UNL A   1      45.598  24.205  36.593  1.00  0.00     0.124 S 
ATOM     94  O   UNL A   1      44.312  24.520  37.205  1.00  0.00    -0.237 OA
ATOM     95  O   UNL A   1      45.611  23.062  35.687  1.00  0.00    -0.237 OA
ATOM     96  O   UNL A   1      46.750  24.298  37.489  1.00  0.00    -0.744 OA
ENDBRANCH  89  93
ENDBRANCH  63  86
ENDBRANCH  37  38
ENDBRANCH  29  32
ENDBRANCH  27  28
ENDBRANCH   1  27
TORSDOF 17
ENDMDL
