MODEL 1
REMARK VINA RESULT:     -12.5      0.000      0.000
REMARK SMILES Cc1cccc(NC(=O)[C@H]2C[C@H]2C(=O)NCCCCNC(=O)c2ccc(-c3c4nc(c(-c5cc(S(=O)(=O)[O-])ccc5F)c5ccc([nH]5)c(-c5cc(S(=O)(=O)[O-])ccc5F)c5nc(c(-c6cc(S(=O)(=O)[O-])ccc6F)c6ccc3[nH]6)C=C5)C=C4)cc2)c1
REMARK SMILES IDX 18 1 17 2 16 3 15 4 13 5 14 6 12 8 10 9 11 10 8 11 7 12 9 14
REMARK SMILES IDX 6 15 1 16 2 17 3 18 86 19 4 20 5 21 19 22 20 23 21 24 22 26
REMARK SMILES IDX 23 27 24 28 85 29 25 30 84 31 26 32 27 33 28 34 78 35 29 36
REMARK SMILES IDX 83 37 77 38 79 39 30 40 82 41 76 42 75 43 31 45 63 46 43 47
REMARK SMILES IDX 62 48 44 49 47 50 61 51 80 52 45 53 46 54 60 56 81 57 48 58
REMARK SMILES IDX 32 59 33 60 41 61 34 62 40 63 42 64 39 65 35 66 36 67 37 68
REMARK SMILES IDX 38 69 64 70 65 71 73 72 66 73 72 74 74 75 71 76 67 77 68 78
REMARK SMILES IDX 69 79 70 80 49 81 50 82 58 83 51 84 57 85 59 86 56 87 52 88
REMARK SMILES IDX 53 89 54 90 55 91
REMARK H PARENT 15 7 7 13 20 25 79 44 47 55
REMARK Flexibility Score: inf
ROOT
ATOM      1  C   UNL A   1      38.748  21.499  25.754  1.00  0.00     0.023 C 
ENDROOT
BRANCH   1   2
ATOM      2  C   UNL A   1      37.472  21.322  24.936  1.00  0.00     0.023 C 
BRANCH   2   3
ATOM      3  C   UNL A   1      36.165  21.358  25.733  1.00  0.00     0.116 C 
BRANCH   3   4
ATOM      4  N   UNL A   1      35.683  22.716  25.890  1.00  0.00    -0.356 N 
ATOM      5  C   UNL A   1      34.891  23.506  25.115  1.00  0.00     0.223 C 
ATOM      6  O   UNL A   1      34.814  24.695  25.431  1.00  0.00    -0.275 OA
ATOM      7  H   UNL A   1      35.988  23.153  26.718  1.00  0.00     0.163 HD
BRANCH   5   8
ATOM      8  C   UNL A   1      34.085  23.079  23.944  1.00  0.00     0.091 C 
ATOM      9  C   UNL A   1      33.028  22.002  23.899  1.00  0.00     0.092 C 
ATOM     10  C   UNL A   1      32.694  23.457  23.570  1.00  0.00     0.028 C 
BRANCH   9  11
ATOM     11  C   UNL A   1      32.295  21.359  25.010  1.00  0.00     0.228 C 
ATOM     12  N   UNL A   1      32.192  20.001  25.141  1.00  0.00    -0.326 N 
ATOM     13  H   UNL A   1      31.604  19.726  25.881  1.00  0.00     0.169 HD
ATOM     14  O   UNL A   1      31.576  22.048  25.740  1.00  0.00    -0.274 OA
BRANCH  12  15
ATOM     15  C   UNL A   1      32.745  18.920  24.445  1.00  0.00     0.041 A 
ATOM     16  C   UNL A   1      35.287  16.184  25.255  1.00  0.00     0.044 C 
ATOM     17  C   UNL A   1      34.290  17.029  24.521  1.00  0.00    -0.049 A 
ATOM     18  C   UNL A   1      33.940  16.701  23.209  1.00  0.00     0.003 A 
ATOM     19  C   UNL A   1      33.702  18.151  25.124  1.00  0.00     0.029 A 
ATOM     20  C   UNL A   1      33.015  17.477  22.519  1.00  0.00     0.002 A 
ATOM     21  C   UNL A   1      32.417  18.573  23.141  1.00  0.00     0.026 A 
ENDBRANCH  12  15
ENDBRANCH   9  11
ENDBRANCH   5   8
ENDBRANCH   3   4
ENDBRANCH   2   3
ENDBRANCH   1   2
BRANCH   1  22
ATOM     22  C   UNL A   1      39.063  22.919  26.215  1.00  0.00     0.116 C 
BRANCH  22  23
ATOM     23  N   UNL A   1      40.465  23.196  26.525  1.00  0.00    -0.352 N 
ATOM     24  C   UNL A   1      41.089  24.410  26.790  1.00  0.00     0.251 C 
ATOM     25  H   UNL A   1      41.053  22.406  26.550  1.00  0.00     0.163 HD
ATOM     26  O   UNL A   1      42.297  24.478  27.005  1.00  0.00    -0.269 OA
BRANCH  24  27
ATOM     27  C   UNL A   1      40.259  25.628  27.002  1.00  0.00     0.039 A 
ATOM     28  C   UNL A   1      40.655  26.782  26.313  1.00  0.00     0.014 A 
ATOM     29  C   UNL A   1      39.447  25.731  28.120  1.00  0.00     0.014 A 
ATOM     30  C   UNL A   1      40.570  28.009  26.957  1.00  0.00     0.010 A 
ATOM     31  C   UNL A   1      39.512  26.900  28.838  1.00  0.00     0.010 A 
ATOM     32  C   UNL A   1      40.144  28.013  28.279  1.00  0.00    -0.014 A 
BRANCH  32  33
ATOM     33  C   UNL A   1      40.274  29.148  29.167  1.00  0.00     0.031 A 
ATOM     34  C   UNL A   1      39.169  30.114  29.174  1.00  0.00     0.074 A 
ATOM     35  C   UNL A   1      41.343  29.244  29.986  1.00  0.00     0.049 A 
ATOM     36  N   UNL A   1      39.289  31.361  29.448  1.00  0.00    -0.248 NA
ATOM     37  C   UNL A   1      37.816  29.742  28.766  1.00  0.00     0.031 C 
ATOM     38  C   UNL A   1      41.538  30.157  31.107  1.00  0.00     0.029 A 
ATOM     39  N   UNL A   1      42.584  28.630  29.827  1.00  0.00    -0.354 N 
ATOM     40  C   UNL A   1      38.018  31.886  29.542  1.00  0.00     0.074 A 
ATOM     41  C   UNL A   1      37.150  30.875  28.998  1.00  0.00     0.031 C 
ATOM     42  C   UNL A   1      42.852  30.232  31.385  1.00  0.00     0.029 A 
ATOM     43  C   UNL A   1      43.560  29.494  30.352  1.00  0.00     0.049 A 
ATOM     44  H   UNL A   1      42.747  27.748  29.419  1.00  0.00     0.167 HD
ATOM     45  C   UNL A   1      37.843  33.053  30.222  1.00  0.00     0.034 A 
ATOM     46  C   UNL A   1      44.519  30.026  29.531  1.00  0.00     0.034 A 
ATOM     47  C   UNL A   1      39.135  33.558  30.685  1.00  0.00     0.049 A 
ATOM     48  C   UNL A   1      44.374  31.520  29.365  1.00  0.00     0.074 A 
ATOM     49  C   UNL A   1      39.810  33.404  31.884  1.00  0.00     0.029 A 
ATOM     50  N   UNL A   1      40.071  33.990  29.755  1.00  0.00    -0.354 N 
ATOM     51  N   UNL A   1      43.288  32.186  29.648  1.00  0.00    -0.248 NA
ATOM     52  C   UNL A   1      45.448  32.374  28.873  1.00  0.00     0.031 C 
ATOM     53  C   UNL A   1      41.185  33.658  31.641  1.00  0.00     0.029 A 
ATOM     54  C   UNL A   1      41.336  34.017  30.312  1.00  0.00     0.049 A 
ATOM     55  H   UNL A   1      39.863  34.242  28.826  1.00  0.00     0.167 HD
ATOM     56  C   UNL A   1      43.480  33.514  29.371  1.00  0.00     0.074 A 
ATOM     57  C   UNL A   1      44.862  33.582  28.922  1.00  0.00     0.031 C 
ATOM     58  C   UNL A   1      42.481  34.439  29.517  1.00  0.00     0.034 A 
BRANCH  45  59
ATOM     59  C   UNL A   1      36.522  33.561  30.753  1.00  0.00     0.023 A 
ATOM     60  C   UNL A   1      35.632  34.171  29.845  1.00  0.00     0.031 A 
ATOM     61  C   UNL A   1      36.086  33.535  32.092  1.00  0.00     0.131 A 
ATOM     62  C   UNL A   1      34.444  34.786  30.273  1.00  0.00     0.055 A 
ATOM     63  C   UNL A   1      34.921  34.182  32.529  1.00  0.00     0.041 A 
ATOM     64  F   UNL A   1      36.731  32.841  33.038  1.00  0.00    -0.206 F 
ATOM     65  C   UNL A   1      34.095  34.821  31.618  1.00  0.00     0.022 A 
BRANCH  62  66
ATOM     66  S   UNL A   1      33.358  35.540  29.034  1.00  0.00     0.124 S 
ATOM     67  O   UNL A   1      32.538  36.432  29.847  1.00  0.00    -0.237 OA
ATOM     68  O   UNL A   1      34.312  36.177  28.133  1.00  0.00    -0.237 OA
ATOM     69  O   UNL A   1      32.646  34.395  28.467  1.00  0.00    -0.744 OA
ENDBRANCH  62  66
ENDBRANCH  45  59
BRANCH  46  70
ATOM     70  C   UNL A   1      44.937  29.075  28.456  1.00  0.00     0.023 A 
ATOM     71  C   UNL A   1      45.681  27.957  28.878  1.00  0.00     0.031 A 
ATOM     72  C   UNL A   1      44.190  28.964  27.276  1.00  0.00     0.131 A 
ATOM     73  C   UNL A   1      45.437  26.704  28.294  1.00  0.00     0.055 A 
ATOM     74  C   UNL A   1      44.014  27.724  26.652  1.00  0.00     0.041 A 
ATOM     75  F   UNL A   1      43.487  30.006  26.810  1.00  0.00    -0.206 F 
ATOM     76  C   UNL A   1      44.570  26.574  27.209  1.00  0.00     0.022 A 
BRANCH  73  77
ATOM     77  S   UNL A   1      45.988  25.228  29.188  1.00  0.00     0.124 S 
ATOM     78  O   UNL A   1      45.630  24.159  28.264  1.00  0.00    -0.237 OA
ATOM     79  O   UNL A   1      47.413  25.500  29.348  1.00  0.00    -0.237 OA
ATOM     80  O   UNL A   1      45.221  25.278  30.433  1.00  0.00    -0.744 OA
ENDBRANCH  73  77
ENDBRANCH  46  70
BRANCH  58  81
ATOM     81  C   UNL A   1      42.524  35.856  28.992  1.00  0.00     0.023 A 
ATOM     82  C   UNL A   1      43.209  36.886  29.643  1.00  0.00     0.031 A 
ATOM     83  C   UNL A   1      41.917  36.213  27.761  1.00  0.00     0.131 A 
ATOM     84  C   UNL A   1      43.165  38.205  29.170  1.00  0.00     0.055 A 
ATOM     85  C   UNL A   1      41.980  37.503  27.226  1.00  0.00     0.041 A 
ATOM     86  F   UNL A   1      41.239  35.326  27.018  1.00  0.00    -0.206 F 
ATOM     87  C   UNL A   1      42.582  38.520  27.947  1.00  0.00     0.022 A 
BRANCH  84  88
ATOM     88  S   UNL A   1      43.782  39.508  30.262  1.00  0.00     0.124 S 
ATOM     89  O   UNL A   1      42.739  40.523  30.131  1.00  0.00    -0.237 OA
ATOM     90  O   UNL A   1      43.846  38.831  31.554  1.00  0.00    -0.237 OA
ATOM     91  O   UNL A   1      45.073  39.865  29.680  1.00  0.00    -0.744 OA
ENDBRANCH  84  88
ENDBRANCH  58  81
ENDBRANCH  32  33
ENDBRANCH  24  27
ENDBRANCH  22  23
ENDBRANCH   1  22
TORSDOF 16
ENDMDL
MODEL 2
REMARK VINA RESULT:     -12.4      2.570      3.742
REMARK SMILES Cc1cccc(NC(=O)[C@H]2C[C@H]2C(=O)NCCCCNC(=O)c2ccc(-c3c4nc(c(-c5cc(S(=O)(=O)[O-])ccc5F)c5ccc([nH]5)c(-c5cc(S(=O)(=O)[O-])ccc5F)c5nc(c(-c6cc(S(=O)(=O)[O-])ccc6F)c6ccc3[nH]6)C=C5)C=C4)cc2)c1
REMARK SMILES IDX 18 1 17 2 16 3 15 4 13 5 14 6 12 8 10 9 11 10 8 11 7 12 9 14
REMARK SMILES IDX 6 15 1 16 2 17 3 18 86 19 4 20 5 21 19 22 20 23 21 24 22 26
REMARK SMILES IDX 23 27 24 28 85 29 25 30 84 31 26 32 27 33 28 34 78 35 29 36
REMARK SMILES IDX 83 37 77 38 79 39 30 40 82 41 76 42 75 43 31 45 63 46 43 47
REMARK SMILES IDX 62 48 44 49 47 50 61 51 80 52 45 53 46 54 60 56 81 57 48 58
REMARK SMILES IDX 32 59 33 60 41 61 34 62 40 63 42 64 39 65 35 66 36 67 37 68
REMARK SMILES IDX 38 69 64 70 65 71 73 72 66 73 72 74 74 75 71 76 67 77 68 78
REMARK SMILES IDX 69 79 70 80 49 81 50 82 58 83 51 84 57 85 59 86 56 87 52 88
REMARK SMILES IDX 53 89 54 90 55 91
REMARK H PARENT 15 7 7 13 20 25 79 44 47 55
REMARK Flexibility Score: inf
ROOT
ATOM      1  C   UNL A   1      38.135  23.879  26.062  1.00  0.00     0.023 C 
ENDROOT
BRANCH   1   2
ATOM      2  C   UNL A   1      37.095  22.828  25.687  1.00  0.00     0.023 C 
BRANCH   2   3
ATOM      3  C   UNL A   1      35.696  23.044  26.272  1.00  0.00     0.116 C 
BRANCH   3   4
ATOM      4  N   UNL A   1      35.076  24.236  25.725  1.00  0.00    -0.356 N 
ATOM      5  C   UNL A   1      34.536  24.515  24.508  1.00  0.00     0.223 C 
ATOM      6  O   UNL A   1      34.256  25.694  24.282  1.00  0.00    -0.275 OA
ATOM      7  H   UNL A   1      35.041  24.990  26.357  1.00  0.00     0.163 HD
BRANCH   5   8
ATOM      8  C   UNL A   1      34.221  23.543  23.431  1.00  0.00     0.091 C 
ATOM      9  C   UNL A   1      33.491  22.229  23.565  1.00  0.00     0.092 C 
ATOM     10  C   UNL A   1      32.951  23.351  22.678  1.00  0.00     0.028 C 
BRANCH   9  11
ATOM     11  C   UNL A   1      32.630  21.740  24.662  1.00  0.00     0.228 C 
ATOM     12  N   UNL A   1      32.336  20.416  24.840  1.00  0.00    -0.326 N 
ATOM     13  H   UNL A   1      31.685  20.256  25.561  1.00  0.00     0.169 HD
ATOM     14  O   UNL A   1      31.981  22.551  25.330  1.00  0.00    -0.274 OA
BRANCH  12  15
ATOM     15  C   UNL A   1      32.766  19.239  24.214  1.00  0.00     0.041 A 
ATOM     16  C   UNL A   1      35.142  16.389  25.123  1.00  0.00     0.044 C 
ATOM     17  C   UNL A   1      34.168  17.245  24.372  1.00  0.00    -0.049 A 
ATOM     18  C   UNL A   1      33.717  16.838  23.114  1.00  0.00     0.003 A 
ATOM     19  C   UNL A   1      33.702  18.457  24.905  1.00  0.00     0.029 A 
ATOM     20  C   UNL A   1      32.812  17.624  22.410  1.00  0.00     0.002 A 
ATOM     21  C   UNL A   1      32.335  18.812  22.964  1.00  0.00     0.026 A 
ENDBRANCH  12  15
ENDBRANCH   9  11
ENDBRANCH   5   8
ENDBRANCH   3   4
ENDBRANCH   2   3
ENDBRANCH   1   2
BRANCH   1  22
ATOM     22  C   UNL A   1      39.397  23.366  26.749  1.00  0.00     0.116 C 
BRANCH  22  23
ATOM     23  N   UNL A   1      39.960  22.128  26.213  1.00  0.00    -0.352 N 
ATOM     24  C   UNL A   1      41.287  21.711  26.158  1.00  0.00     0.251 C 
ATOM     25  H   UNL A   1      39.305  21.497  25.837  1.00  0.00     0.163 HD
ATOM     26  O   UNL A   1      41.602  20.642  25.641  1.00  0.00    -0.269 OA
BRANCH  24  27
ATOM     27  C   UNL A   1      42.326  22.478  26.898  1.00  0.00     0.039 A 
ATOM     28  C   UNL A   1      42.359  22.304  28.288  1.00  0.00     0.014 A 
ATOM     29  C   UNL A   1      42.904  23.599  26.325  1.00  0.00     0.014 A 
ATOM     30  C   UNL A   1      42.607  23.406  29.096  1.00  0.00     0.010 A 
ATOM     31  C   UNL A   1      42.982  24.731  27.098  1.00  0.00     0.010 A 
ATOM     32  C   UNL A   1      42.755  24.639  28.472  1.00  0.00    -0.014 A 
BRANCH  32  33
ATOM     33  C   UNL A   1      42.729  25.906  29.171  1.00  0.00     0.031 A 
ATOM     34  C   UNL A   1      41.530  26.735  28.996  1.00  0.00     0.074 A 
ATOM     35  C   UNL A   1      43.746  26.244  29.993  1.00  0.00     0.049 A 
ATOM     36  N   UNL A   1      41.509  28.015  29.071  1.00  0.00    -0.248 NA
ATOM     37  C   UNL A   1      40.242  26.159  28.617  1.00  0.00     0.031 C 
ATOM     38  C   UNL A   1      43.797  27.335  30.958  1.00  0.00     0.029 A 
ATOM     39  N   UNL A   1      45.049  25.751  29.965  1.00  0.00    -0.354 N 
ATOM     40  C   UNL A   1      40.187  28.407  29.047  1.00  0.00     0.074 A 
ATOM     41  C   UNL A   1      39.453  27.235  28.649  1.00  0.00     0.031 C 
ATOM     42  C   UNL A   1      45.083  27.596  31.255  1.00  0.00     0.029 A 
ATOM     43  C   UNL A   1      45.908  26.788  30.371  1.00  0.00     0.049 A 
ATOM     44  H   UNL A   1      45.320  24.840  29.707  1.00  0.00     0.167 HD
ATOM     45  C   UNL A   1      39.863  29.639  29.528  1.00  0.00     0.034 A 
ATOM     46  C   UNL A   1      46.840  27.287  29.501  1.00  0.00     0.034 A 
ATOM     47  C   UNL A   1      41.075  30.347  29.938  1.00  0.00     0.049 A 
ATOM     48  C   UNL A   1      46.549  28.712  29.096  1.00  0.00     0.074 A 
ATOM     49  C   UNL A   1      41.711  30.456  31.164  1.00  0.00     0.029 A 
ATOM     50  N   UNL A   1      42.000  30.729  28.976  1.00  0.00    -0.354 N 
ATOM     51  N   UNL A   1      45.389  29.292  29.241  1.00  0.00    -0.248 NA
ATOM     52  C   UNL A   1      47.548  29.592  28.503  1.00  0.00     0.031 C 
ATOM     53  C   UNL A   1      43.062  30.817  30.919  1.00  0.00     0.029 A 
ATOM     54  C   UNL A   1      43.231  30.980  29.555  1.00  0.00     0.049 A 
ATOM     55  H   UNL A   1      41.808  30.810  28.014  1.00  0.00     0.167 HD
ATOM     56  C   UNL A   1      45.454  30.574  28.761  1.00  0.00     0.074 A 
ATOM     57  C   UNL A   1      46.839  30.721  28.343  1.00  0.00     0.031 C 
ATOM     58  C   UNL A   1      44.359  31.395  28.733  1.00  0.00     0.034 A 
BRANCH  45  59
ATOM     59  C   UNL A   1      38.476  30.077  29.937  1.00  0.00     0.023 A 
ATOM     60  C   UNL A   1      37.961  31.262  29.373  1.00  0.00     0.031 A 
ATOM     61  C   UNL A   1      37.635  29.444  30.874  1.00  0.00     0.131 A 
ATOM     62  C   UNL A   1      36.737  31.811  29.792  1.00  0.00     0.055 A 
ATOM     63  C   UNL A   1      36.433  30.010  31.324  1.00  0.00     0.041 A 
ATOM     64  F   UNL A   1      37.901  28.227  31.363  1.00  0.00    -0.206 F 
ATOM     65  C   UNL A   1      35.981  31.206  30.789  1.00  0.00     0.022 A 
BRANCH  62  66
ATOM     66  S   UNL A   1      36.151  33.334  29.007  1.00  0.00     0.124 S 
ATOM     67  O   UNL A   1      34.960  33.645  29.791  1.00  0.00    -0.237 OA
ATOM     68  O   UNL A   1      37.291  34.229  29.177  1.00  0.00    -0.237 OA
ATOM     69  O   UNL A   1      35.891  32.925  27.627  1.00  0.00    -0.744 OA
ENDBRANCH  62  66
ENDBRANCH  45  59
BRANCH  46  70
ATOM     70  C   UNL A   1      47.401  26.232  28.603  1.00  0.00     0.023 A 
ATOM     71  C   UNL A   1      46.938  26.245  27.273  1.00  0.00     0.031 A 
ATOM     72  C   UNL A   1      48.664  25.681  28.856  1.00  0.00     0.131 A 
ATOM     73  C   UNL A   1      47.836  25.987  26.226  1.00  0.00     0.055 A 
ATOM     74  C   UNL A   1      49.527  25.351  27.806  1.00  0.00     0.041 A 
ATOM     75  F   UNL A   1      49.143  25.615  30.107  1.00  0.00    -0.206 F 
ATOM     76  C   UNL A   1      49.144  25.583  26.486  1.00  0.00     0.022 A 
BRANCH  73  77
ATOM     77  S   UNL A   1      47.373  26.523  24.558  1.00  0.00     0.124 S 
ATOM     78  O   UNL A   1      48.023  25.521  23.723  1.00  0.00    -0.237 OA
ATOM     79  O   UNL A   1      45.916  26.465  24.628  1.00  0.00    -0.237 OA
ATOM     80  O   UNL A   1      47.920  27.877  24.473  1.00  0.00    -0.744 OA
ENDBRANCH  73  77
ENDBRANCH  46  70
BRANCH  58  81
ATOM     81  C   UNL A   1      44.277  32.710  27.990  1.00  0.00     0.023 A 
ATOM     82  C   UNL A   1      44.057  33.932  28.633  1.00  0.00     0.031 A 
ATOM     83  C   UNL A   1      44.484  32.789  26.590  1.00  0.00     0.131 A 
ATOM     84  C   UNL A   1      43.911  35.123  27.906  1.00  0.00     0.055 A 
ATOM     85  C   UNL A   1      44.462  33.993  25.882  1.00  0.00     0.041 A 
ATOM     86  F   UNL A   1      44.723  31.700  25.843  1.00  0.00    -0.206 F 
ATOM     87  C   UNL A   1      44.144  35.171  26.536  1.00  0.00     0.022 A 
BRANCH  84  88
ATOM     88  S   UNL A   1      43.285  36.571  28.790  1.00  0.00     0.124 S 
ATOM     89  O   UNL A   1      43.346  36.120  30.178  1.00  0.00    -0.237 OA
ATOM     90  O   UNL A   1      44.246  37.606  28.420  1.00  0.00    -0.237 OA
ATOM     91  O   UNL A   1      41.938  36.748  28.253  1.00  0.00    -0.744 OA
ENDBRANCH  84  88
ENDBRANCH  58  81
ENDBRANCH  32  33
ENDBRANCH  24  27
ENDBRANCH  22  23
ENDBRANCH   1  22
TORSDOF 16
ENDMDL
MODEL 3
REMARK VINA RESULT:     -12.4      2.688      4.087
REMARK SMILES Cc1cccc(NC(=O)[C@H]2C[C@H]2C(=O)NCCCCNC(=O)c2ccc(-c3c4nc(c(-c5cc(S(=O)(=O)[O-])ccc5F)c5ccc([nH]5)c(-c5cc(S(=O)(=O)[O-])ccc5F)c5nc(c(-c6cc(S(=O)(=O)[O-])ccc6F)c6ccc3[nH]6)C=C5)C=C4)cc2)c1
REMARK SMILES IDX 18 1 17 2 16 3 15 4 13 5 14 6 12 8 10 9 11 10 8 11 7 12 9 14
REMARK SMILES IDX 6 15 1 16 2 17 3 18 86 19 4 20 5 21 19 22 20 23 21 24 22 26
REMARK SMILES IDX 23 27 24 28 85 29 25 30 84 31 26 32 27 33 28 34 78 35 29 36
REMARK SMILES IDX 83 37 77 38 79 39 30 40 82 41 76 42 75 43 31 45 63 46 43 47
REMARK SMILES IDX 62 48 44 49 47 50 61 51 80 52 45 53 46 54 60 56 81 57 48 58
REMARK SMILES IDX 32 59 33 60 41 61 34 62 40 63 42 64 39 65 35 66 36 67 37 68
REMARK SMILES IDX 38 69 64 70 65 71 73 72 66 73 72 74 74 75 71 76 67 77 68 78
REMARK SMILES IDX 69 79 70 80 49 81 50 82 58 83 51 84 57 85 59 86 56 87 52 88
REMARK SMILES IDX 53 89 54 90 55 91
REMARK H PARENT 15 7 7 13 20 25 79 44 47 55
REMARK Flexibility Score: inf
ROOT
ATOM      1  C   UNL A   1      38.081  21.634  24.986  1.00  0.00     0.023 C 
ENDROOT
BRANCH   1   2
ATOM      2  C   UNL A   1      37.204  20.388  25.056  1.00  0.00     0.023 C 
BRANCH   2   3
ATOM      3  C   UNL A   1      35.694  20.642  25.031  1.00  0.00     0.116 C 
BRANCH   3   4
ATOM      4  N   UNL A   1      35.247  21.278  26.255  1.00  0.00    -0.356 N 
ATOM      5  C   UNL A   1      34.769  22.524  26.522  1.00  0.00     0.223 C 
ATOM      6  O   UNL A   1      34.652  22.831  27.710  1.00  0.00    -0.275 OA
ATOM      7  H   UNL A   1      35.301  20.696  27.048  1.00  0.00     0.163 HD
BRANCH   5   8
ATOM      8  C   UNL A   1      34.347  23.545  25.531  1.00  0.00     0.091 C 
ATOM      9  C   UNL A   1      33.007  24.235  25.437  1.00  0.00     0.092 C 
ATOM     10  C   UNL A   1      34.294  25.027  25.670  1.00  0.00     0.028 C 
BRANCH   9  11
ATOM     11  C   UNL A   1      31.935  24.345  26.448  1.00  0.00     0.228 C 
ATOM     12  N   UNL A   1      31.240  25.503  26.668  1.00  0.00    -0.326 N 
ATOM     13  H   UNL A   1      30.618  25.444  27.429  1.00  0.00     0.169 HD
ATOM     14  O   UNL A   1      31.781  23.436  27.270  1.00  0.00    -0.274 OA
BRANCH  12  15
ATOM     15  C   UNL A   1      31.228  26.755  26.041  1.00  0.00     0.041 A 
ATOM     16  C   UNL A   1      29.755  28.158  22.807  1.00  0.00     0.044 C 
ATOM     17  C   UNL A   1      30.483  28.057  24.113  1.00  0.00    -0.049 A 
ATOM     18  C   UNL A   1      31.088  29.193  24.656  1.00  0.00     0.003 A 
ATOM     19  C   UNL A   1      30.575  26.838  24.803  1.00  0.00     0.029 A 
ATOM     20  C   UNL A   1      31.764  29.110  25.869  1.00  0.00     0.002 A 
ATOM     21  C   UNL A   1      31.824  27.899  26.558  1.00  0.00     0.026 A 
ENDBRANCH  12  15
ENDBRANCH   9  11
ENDBRANCH   5   8
ENDBRANCH   3   4
ENDBRANCH   2   3
ENDBRANCH   1   2
BRANCH   1  22
ATOM     22  C   UNL A   1      38.679  22.116  26.305  1.00  0.00     0.116 C 
BRANCH  22  23
ATOM     23  N   UNL A   1      40.117  22.378  26.299  1.00  0.00    -0.352 N 
ATOM     24  C   UNL A   1      40.795  23.593  26.339  1.00  0.00     0.251 C 
ATOM     25  H   UNL A   1      40.690  21.578  26.262  1.00  0.00     0.163 HD
ATOM     26  O   UNL A   1      42.022  23.645  26.296  1.00  0.00    -0.269 OA
BRANCH  24  27
ATOM     27  C   UNL A   1      40.039  24.843  26.625  1.00  0.00     0.039 A 
ATOM     28  C   UNL A   1      40.590  26.033  26.132  1.00  0.00     0.014 A 
ATOM     29  C   UNL A   1      39.123  24.881  27.664  1.00  0.00     0.014 A 
ATOM     30  C   UNL A   1      40.528  27.177  26.917  1.00  0.00     0.010 A 
ATOM     31  C   UNL A   1      39.197  25.944  28.528  1.00  0.00     0.010 A 
ATOM     32  C   UNL A   1      39.965  27.057  28.182  1.00  0.00    -0.014 A 
BRANCH  32  33
ATOM     33  C   UNL A   1      40.083  28.062  29.217  1.00  0.00     0.031 A 
ATOM     34  C   UNL A   1      39.095  29.147  29.202  1.00  0.00     0.074 A 
ATOM     35  C   UNL A   1      41.027  27.935  30.174  1.00  0.00     0.049 A 
ATOM     36  N   UNL A   1      39.303  30.332  29.647  1.00  0.00    -0.248 NA
ATOM     37  C   UNL A   1      37.783  28.990  28.577  1.00  0.00     0.031 C 
ATOM     38  C   UNL A   1      41.152  28.686  31.418  1.00  0.00     0.029 A 
ATOM     39  N   UNL A   1      42.207  27.197  30.100  1.00  0.00    -0.354 N 
ATOM     40  C   UNL A   1      38.093  30.993  29.641  1.00  0.00     0.074 A 
ATOM     41  C   UNL A   1      37.213  30.161  28.864  1.00  0.00     0.031 C 
ATOM     42  C   UNL A   1      42.412  28.570  31.873  1.00  0.00     0.029 A 
ATOM     43  C   UNL A   1      43.182  27.873  30.855  1.00  0.00     0.049 A 
ATOM     44  H   UNL A   1      42.334  26.354  29.608  1.00  0.00     0.167 HD
ATOM     45  C   UNL A   1      37.945  32.089  30.436  1.00  0.00     0.034 A 
ATOM     46  C   UNL A   1      44.298  28.374  30.241  1.00  0.00     0.034 A 
ATOM     47  C   UNL A   1      39.202  32.378  31.124  1.00  0.00     0.049 A 
ATOM     48  C   UNL A   1      44.335  29.883  30.249  1.00  0.00     0.074 A 
ATOM     49  C   UNL A   1      39.677  32.010  32.372  1.00  0.00     0.029 A 
ATOM     50  N   UNL A   1      40.302  32.796  30.387  1.00  0.00    -0.354 N 
ATOM     51  N   UNL A   1      43.296  30.640  30.471  1.00  0.00    -0.248 NA
ATOM     52  C   UNL A   1      45.552  30.652  30.016  1.00  0.00     0.031 C 
ATOM     53  C   UNL A   1      41.092  32.122  32.345  1.00  0.00     0.029 A 
ATOM     54  C   UNL A   1      41.469  32.607  31.104  1.00  0.00     0.049 A 
ATOM     55  H   UNL A   1      40.258  33.174  29.479  1.00  0.00     0.167 HD
ATOM     56  C   UNL A   1      43.662  31.958  30.394  1.00  0.00     0.074 A 
ATOM     57  C   UNL A   1      45.094  31.909  30.142  1.00  0.00     0.031 C 
ATOM     58  C   UNL A   1      42.755  32.974  30.526  1.00  0.00     0.034 A 
BRANCH  45  59
ATOM     59  C   UNL A   1      36.622  32.690  30.850  1.00  0.00     0.023 A 
ATOM     60  C   UNL A   1      35.899  33.428  29.892  1.00  0.00     0.031 A 
ATOM     61  C   UNL A   1      36.034  32.632  32.130  1.00  0.00     0.131 A 
ATOM     62  C   UNL A   1      34.727  34.128  30.225  1.00  0.00     0.055 A 
ATOM     63  C   UNL A   1      34.888  33.363  32.477  1.00  0.00     0.041 A 
ATOM     64  F   UNL A   1      36.502  31.832  33.094  1.00  0.00    -0.206 F 
ATOM     65  C   UNL A   1      34.231  34.124  31.523  1.00  0.00     0.022 A 
BRANCH  62  66
ATOM     66  S   UNL A   1      33.861  35.047  28.926  1.00  0.00     0.124 S 
ATOM     67  O   UNL A   1      33.453  36.260  29.626  1.00  0.00    -0.237 OA
ATOM     68  O   UNL A   1      34.898  35.201  27.912  1.00  0.00    -0.237 OA
ATOM     69  O   UNL A   1      32.765  34.152  28.553  1.00  0.00    -0.744 OA
ENDBRANCH  62  66
ENDBRANCH  45  59
BRANCH  46  70
ATOM     70  C   UNL A   1      44.766  27.507  29.117  1.00  0.00     0.023 A 
ATOM     71  C   UNL A   1      44.871  28.130  27.859  1.00  0.00     0.031 A 
ATOM     72  C   UNL A   1      45.578  26.392  29.371  1.00  0.00     0.131 A 
ATOM     73  C   UNL A   1      45.954  27.819  27.022  1.00  0.00     0.055 A 
ATOM     74  C   UNL A   1      46.607  26.039  28.492  1.00  0.00     0.041 A 
ATOM     75  F   UNL A   1      45.499  25.740  30.540  1.00  0.00    -0.206 F 
ATOM     76  C   UNL A   1      46.851  26.805  27.354  1.00  0.00     0.022 A 
BRANCH  73  77
ATOM     77  S   UNL A   1      46.361  28.983  25.693  1.00  0.00     0.124 S 
ATOM     78  O   UNL A   1      45.529  30.131  26.027  1.00  0.00    -0.237 OA
ATOM     79  O   UNL A   1      47.800  29.145  25.880  1.00  0.00    -0.237 OA
ATOM     80  O   UNL A   1      45.988  28.256  24.480  1.00  0.00    -0.744 OA
ENDBRANCH  73  77
ENDBRANCH  46  70
BRANCH  58  81
ATOM     81  C   UNL A   1      43.020  34.426  30.196  1.00  0.00     0.023 A 
ATOM     82  C   UNL A   1      42.743  34.982  28.943  1.00  0.00     0.031 A 
ATOM     83  C   UNL A   1      43.512  35.333  31.168  1.00  0.00     0.131 A 
ATOM     84  C   UNL A   1      43.072  36.313  28.646  1.00  0.00     0.055 A 
ATOM     85  C   UNL A   1      43.722  36.689  30.907  1.00  0.00     0.041 A 
ATOM     86  F   UNL A   1      43.807  34.946  32.418  1.00  0.00    -0.206 F 
ATOM     87  C   UNL A   1      43.531  37.184  29.628  1.00  0.00     0.022 A 
BRANCH  84  88
ATOM     88  S   UNL A   1      43.000  36.827  26.914  1.00  0.00     0.124 S 
ATOM     89  O   UNL A   1      41.893  37.780  26.934  1.00  0.00    -0.237 OA
ATOM     90  O   UNL A   1      44.324  37.401  26.700  1.00  0.00    -0.237 OA
ATOM     91  O   UNL A   1      42.735  35.582  26.196  1.00  0.00    -0.744 OA
ENDBRANCH  84  88
ENDBRANCH  58  81
ENDBRANCH  32  33
ENDBRANCH  24  27
ENDBRANCH  22  23
ENDBRANCH   1  22
TORSDOF 16
ENDMDL
