MODEL 1
REMARK VINA RESULT:     -10.9      0.000      0.000
REMARK SMILES O=C(CN(CC(F)(F)F)C(=O)CC[C@H]1CCC[NH2+]C1)NCCCCNC(=O)c1ccc(-c2c3nc(c(-c4cc(S(=O)(=O)[O-])ccc4F)c4ccc([nH]4)c(-c4cc(S(=O)(=O)[O-])ccc4F)c4nc(c(-c5cc(S(=O)(=O)[O-])ccc5F)c5ccc2[nH]5)C=C4)C=C3)cc1
REMARK SMILES IDX 21 1 20 2 1 3 2 4 3 6 4 7 5 8 6 9 7 10 8 11 9 12 10 13 11 14
REMARK SMILES IDX 12 15 13 16 14 17 15 18 19 19 16 20 18 21 17 22 22 25 23 26
REMARK SMILES IDX 24 27 25 28 26 29 27 31 28 32 29 33 90 34 30 35 89 36 31 37
REMARK SMILES IDX 32 38 33 39 83 40 34 41 88 42 82 43 84 44 35 45 87 46 81 47
REMARK SMILES IDX 80 48 36 50 68 51 48 52 67 53 49 54 52 55 66 56 85 57 50 58
REMARK SMILES IDX 51 59 65 61 86 62 53 63 37 64 38 65 46 66 39 67 45 68 47 69
REMARK SMILES IDX 44 70 40 71 41 72 42 73 43 74 69 75 70 76 78 77 71 78 77 79
REMARK SMILES IDX 79 80 76 81 72 82 73 83 74 84 75 85 54 86 55 87 63 88 56 89
REMARK SMILES IDX 62 90 64 91 61 92 57 93 58 94 59 95 60 96
REMARK H PARENT 20 5 18 23 18 24 25 30 84 49 52 60
REMARK Flexibility Score: inf
ROOT
ATOM      1  C   UNL A   1      32.748  29.998  25.887  1.00  0.00     0.116 C 
ENDROOT
BRANCH   1   2
ATOM      2  N   UNL A   1      32.947  28.891  24.961  1.00  0.00    -0.355 N 
ATOM      3  O   UNL A   1      33.414  27.321  26.559  1.00  0.00    -0.273 OA
ATOM      4  C   UNL A   1      33.086  27.586  25.400  1.00  0.00     0.239 C 
ATOM      5  H   UNL A   1      32.984  29.077  23.994  1.00  0.00     0.163 HD
BRANCH   4   6
ATOM      6  C   UNL A   1      33.035  26.468  24.323  1.00  0.00     0.219 C 
BRANCH   6   7
ATOM      7  N   UNL A   1      31.785  25.701  24.159  1.00  0.00    -0.324 N 
BRANCH   7   8
ATOM      8  C   UNL A   1      31.865  24.234  24.302  1.00  0.00     0.235 C 
BRANCH   8   9
ATOM      9  C   UNL A   1      32.065  23.636  25.701  1.00  0.00     0.406 C 
ATOM     10  F   UNL A   1      33.305  23.135  25.880  1.00  0.00    -0.169 F 
ATOM     11  F   UNL A   1      31.888  24.602  26.637  1.00  0.00    -0.169 F 
ATOM     12  F   UNL A   1      31.176  22.656  25.956  1.00  0.00    -0.169 F 
ENDBRANCH   8   9
ENDBRANCH   7   8
BRANCH   7  13
ATOM     13  C   UNL A   1      30.580  26.402  24.212  1.00  0.00     0.223 C 
ATOM     14  O   UNL A   1      29.812  26.274  25.165  1.00  0.00    -0.275 OA
BRANCH  13  15
ATOM     15  C   UNL A   1      30.234  27.396  23.098  1.00  0.00     0.101 C 
BRANCH  15  16
ATOM     16  C   UNL A   1      28.780  27.907  23.093  1.00  0.00     0.019 C 
BRANCH  16  17
ATOM     17  C   UNL A   1      28.485  29.328  22.535  1.00  0.00     0.045 C 
ATOM     18  C   UNL A   1      27.568  30.116  23.475  1.00  0.00     0.015 C 
ATOM     19  C   UNL A   1      29.751  30.081  22.090  1.00  0.00     0.264 C 
ATOM     20  C   UNL A   1      27.581  31.632  23.323  1.00  0.00     0.062 C 
ATOM     21  N   UNL A   1      29.494  31.487  21.799  1.00  0.00    -0.346 N 
ATOM     22  C   UNL A   1      28.937  32.203  22.937  1.00  0.00     0.260 C 
ATOM     23  H   UNL A   1      30.373  31.931  21.534  1.00  0.00     0.346 HD
ATOM     24  H   UNL A   1      28.808  31.524  21.046  1.00  0.00     0.346 HD
ENDBRANCH  16  17
ENDBRANCH  15  16
ENDBRANCH  13  15
ENDBRANCH   7  13
ENDBRANCH   6   7
ENDBRANCH   4   6
ENDBRANCH   1   2
BRANCH   1  25
ATOM     25  C   UNL A   1      31.404  30.713  25.739  1.00  0.00     0.023 C 
BRANCH  25  26
ATOM     26  C   UNL A   1      31.293  32.085  26.414  1.00  0.00     0.023 C 
BRANCH  26  27
ATOM     27  C   UNL A   1      32.286  32.370  27.542  1.00  0.00     0.116 C 
BRANCH  27  28
ATOM     28  N   UNL A   1      32.777  33.740  27.558  1.00  0.00    -0.352 N 
ATOM     29  C   UNL A   1      33.974  34.250  28.007  1.00  0.00     0.251 C 
ATOM     30  H   UNL A   1      32.154  34.406  27.188  1.00  0.00     0.163 HD
ATOM     31  O   UNL A   1      34.135  35.471  28.021  1.00  0.00    -0.269 OA
BRANCH  29  32
ATOM     32  C   UNL A   1      35.050  33.361  28.511  1.00  0.00     0.039 A 
ATOM     33  C   UNL A   1      36.383  33.720  28.278  1.00  0.00     0.014 A 
ATOM     34  C   UNL A   1      34.768  32.176  29.194  1.00  0.00     0.014 A 
ATOM     35  C   UNL A   1      37.422  32.942  28.800  1.00  0.00     0.010 A 
ATOM     36  C   UNL A   1      35.803  31.441  29.778  1.00  0.00     0.010 A 
ATOM     37  C   UNL A   1      37.143  31.820  29.598  1.00  0.00    -0.014 A 
BRANCH  37  38
ATOM     38  C   UNL A   1      38.233  31.047  30.260  1.00  0.00     0.031 A 
ATOM     39  C   UNL A   1      38.606  31.325  31.692  1.00  0.00     0.074 A 
ATOM     40  C   UNL A   1      38.931  30.136  29.552  1.00  0.00     0.049 A 
ATOM     41  N   UNL A   1      39.580  30.820  32.408  1.00  0.00    -0.248 NA
ATOM     42  C   UNL A   1      37.792  32.322  32.402  1.00  0.00     0.031 C 
ATOM     43  C   UNL A   1      38.693  29.795  28.148  1.00  0.00     0.029 A 
ATOM     44  N   UNL A   1      39.990  29.337  29.908  1.00  0.00    -0.354 N 
ATOM     45  C   UNL A   1      39.501  31.442  33.651  1.00  0.00     0.074 A 
ATOM     46  C   UNL A   1      38.425  32.408  33.563  1.00  0.00     0.031 C 
ATOM     47  C   UNL A   1      39.564  28.846  27.769  1.00  0.00     0.029 A 
ATOM     48  C   UNL A   1      40.459  28.546  28.882  1.00  0.00     0.049 A 
ATOM     49  H   UNL A   1      40.379  29.330  30.813  1.00  0.00     0.167 HD
ATOM     50  C   UNL A   1      40.241  31.214  34.765  1.00  0.00     0.034 A 
ATOM     51  C   UNL A   1      41.500  27.690  28.834  1.00  0.00     0.034 A 
ATOM     52  C   UNL A   1      41.310  30.247  34.839  1.00  0.00     0.049 A 
ATOM     53  C   UNL A   1      42.337  27.484  30.072  1.00  0.00     0.074 A 
ATOM     54  C   UNL A   1      42.093  29.909  35.931  1.00  0.00     0.029 A 
ATOM     55  N   UNL A   1      41.759  29.469  33.778  1.00  0.00    -0.354 N 
ATOM     56  N   UNL A   1      42.221  28.051  31.252  1.00  0.00    -0.248 NA
ATOM     57  C   UNL A   1      43.437  26.515  29.976  1.00  0.00     0.031 C 
ATOM     58  C   UNL A   1      43.059  28.987  35.512  1.00  0.00     0.029 A 
ATOM     59  C   UNL A   1      42.827  28.680  34.181  1.00  0.00     0.049 A 
ATOM     60  H   UNL A   1      41.375  29.478  32.872  1.00  0.00     0.167 HD
ATOM     61  C   UNL A   1      43.215  27.482  32.045  1.00  0.00     0.074 A 
ATOM     62  C   UNL A   1      43.908  26.518  31.214  1.00  0.00     0.031 C 
ATOM     63  C   UNL A   1      43.522  27.731  33.344  1.00  0.00     0.034 A 
BRANCH  50  64
ATOM     64  C   UNL A   1      39.929  32.048  35.987  1.00  0.00     0.023 A 
ATOM     65  C   UNL A   1      38.911  31.687  36.888  1.00  0.00     0.031 A 
ATOM     66  C   UNL A   1      40.643  33.232  36.247  1.00  0.00     0.131 A 
ATOM     67  C   UNL A   1      38.580  32.539  37.952  1.00  0.00     0.055 A 
ATOM     68  C   UNL A   1      40.368  34.030  37.359  1.00  0.00     0.041 A 
ATOM     69  F   UNL A   1      41.614  33.642  35.416  1.00  0.00    -0.206 F 
ATOM     70  C   UNL A   1      39.319  33.694  38.211  1.00  0.00     0.022 A 
BRANCH  67  71
ATOM     71  S   UNL A   1      37.071  32.194  38.898  1.00  0.00     0.124 S 
ATOM     72  O   UNL A   1      36.095  33.036  38.211  1.00  0.00    -0.237 OA
ATOM     73  O   UNL A   1      36.910  30.755  38.723  1.00  0.00    -0.237 OA
ATOM     74  O   UNL A   1      37.409  32.625  40.252  1.00  0.00    -0.744 OA
ENDBRANCH  67  71
ENDBRANCH  50  64
BRANCH  51  75
ATOM     75  C   UNL A   1      41.831  26.975  27.566  1.00  0.00     0.023 A 
ATOM     76  C   UNL A   1      41.680  25.583  27.455  1.00  0.00     0.031 A 
ATOM     77  C   UNL A   1      42.347  27.671  26.458  1.00  0.00     0.131 A 
ATOM     78  C   UNL A   1      42.085  24.926  26.282  1.00  0.00     0.055 A 
ATOM     79  C   UNL A   1      42.694  27.020  25.272  1.00  0.00     0.041 A 
ATOM     80  F   UNL A   1      42.512  29.002  26.508  1.00  0.00    -0.206 F 
ATOM     81  C   UNL A   1      42.577  25.637  25.185  1.00  0.00     0.022 A 
BRANCH  78  82
ATOM     82  S   UNL A   1      42.048  23.113  26.245  1.00  0.00     0.124 S 
ATOM     83  O   UNL A   1      42.872  22.776  27.400  1.00  0.00    -0.237 OA
ATOM     84  O   UNL A   1      40.622  22.837  26.370  1.00  0.00    -0.237 OA
ATOM     85  O   UNL A   1      42.632  22.789  24.945  1.00  0.00    -0.744 OA
ENDBRANCH  78  82
ENDBRANCH  51  75
BRANCH  63  86
ATOM     86  C   UNL A   1      44.630  26.907  33.960  1.00  0.00     0.023 A 
ATOM     87  C   UNL A   1      44.399  25.622  34.482  1.00  0.00     0.031 A 
ATOM     88  C   UNL A   1      45.936  27.423  34.033  1.00  0.00     0.131 A 
ATOM     89  C   UNL A   1      45.444  24.922  35.105  1.00  0.00     0.055 A 
ATOM     90  C   UNL A   1      46.985  26.695  34.595  1.00  0.00     0.041 A 
ATOM     91  F   UNL A   1      46.216  28.647  33.555  1.00  0.00    -0.206 F 
ATOM     92  C   UNL A   1      46.740  25.442  35.147  1.00  0.00     0.022 A 
BRANCH  89  93
ATOM     93  S   UNL A   1      45.066  23.360  35.947  1.00  0.00     0.124 S 
ATOM     94  O   UNL A   1      45.282  23.710  37.347  1.00  0.00    -0.237 OA
ATOM     95  O   UNL A   1      43.681  23.120  35.555  1.00  0.00    -0.237 OA
ATOM     96  O   UNL A   1      46.039  22.423  35.386  1.00  0.00    -0.744 OA
ENDBRANCH  89  93
ENDBRANCH  63  86
ENDBRANCH  37  38
ENDBRANCH  29  32
ENDBRANCH  27  28
ENDBRANCH  26  27
ENDBRANCH  25  26
ENDBRANCH   1  25
TORSDOF 21
ENDMDL
MODEL 2
REMARK VINA RESULT:     -10.8      5.976      9.681
REMARK SMILES O=C(CN(CC(F)(F)F)C(=O)CC[C@H]1CCC[NH2+]C1)NCCCCNC(=O)c1ccc(-c2c3nc(c(-c4cc(S(=O)(=O)[O-])ccc4F)c4ccc([nH]4)c(-c4cc(S(=O)(=O)[O-])ccc4F)c4nc(c(-c5cc(S(=O)(=O)[O-])ccc5F)c5ccc2[nH]5)C=C4)C=C3)cc1
REMARK SMILES IDX 21 1 20 2 1 3 2 4 3 6 4 7 5 8 6 9 7 10 8 11 9 12 10 13 11 14
REMARK SMILES IDX 12 15 13 16 14 17 15 18 19 19 16 20 18 21 17 22 22 25 23 26
REMARK SMILES IDX 24 27 25 28 26 29 27 31 28 32 29 33 90 34 30 35 89 36 31 37
REMARK SMILES IDX 32 38 33 39 83 40 34 41 88 42 82 43 84 44 35 45 87 46 81 47
REMARK SMILES IDX 80 48 36 50 68 51 48 52 67 53 49 54 52 55 66 56 85 57 50 58
REMARK SMILES IDX 51 59 65 61 86 62 53 63 37 64 38 65 46 66 39 67 45 68 47 69
REMARK SMILES IDX 44 70 40 71 41 72 42 73 43 74 69 75 70 76 78 77 71 78 77 79
REMARK SMILES IDX 79 80 76 81 72 82 73 83 74 84 75 85 54 86 55 87 63 88 56 89
REMARK SMILES IDX 62 90 64 91 61 92 57 93 58 94 59 95 60 96
REMARK H PARENT 20 5 18 23 18 24 25 30 84 49 52 60
REMARK Flexibility Score: inf
ROOT
ATOM      1  C   UNL A   1      37.499  21.956  24.854  1.00  0.00     0.116 C 
ENDROOT
BRANCH   1   2
ATOM      2  N   UNL A   1      36.422  22.912  25.073  1.00  0.00    -0.355 N 
ATOM      3  O   UNL A   1      36.023  23.337  22.861  1.00  0.00    -0.273 OA
ATOM      4  C   UNL A   1      35.644  23.388  24.033  1.00  0.00     0.239 C 
ATOM      5  H   UNL A   1      36.243  23.228  25.989  1.00  0.00     0.163 HD
BRANCH   4   6
ATOM      6  C   UNL A   1      34.372  24.195  24.413  1.00  0.00     0.219 C 
BRANCH   6   7
ATOM      7  N   UNL A   1      33.232  23.476  25.012  1.00  0.00    -0.324 N 
BRANCH   7   8
ATOM      8  C   UNL A   1      33.041  23.599  26.470  1.00  0.00     0.235 C 
BRANCH   8   9
ATOM      9  C   UNL A   1      33.655  22.536  27.390  1.00  0.00     0.406 C 
ATOM     10  F   UNL A   1      32.848  22.210  28.421  1.00  0.00    -0.169 F 
ATOM     11  F   UNL A   1      33.877  21.399  26.684  1.00  0.00    -0.169 F 
ATOM     12  F   UNL A   1      34.839  22.937  27.895  1.00  0.00    -0.169 F 
ENDBRANCH   8   9
ENDBRANCH   7   8
BRANCH   7  13
ATOM     13  C   UNL A   1      32.234  23.010  24.156  1.00  0.00     0.223 C 
ATOM     14  O   UNL A   1      31.186  23.637  24.001  1.00  0.00    -0.275 OA
BRANCH  13  15
ATOM     15  C   UNL A   1      32.470  21.732  23.343  1.00  0.00     0.101 C 
BRANCH  15  16
ATOM     16  C   UNL A   1      32.292  20.411  24.117  1.00  0.00     0.019 C 
BRANCH  16  17
ATOM     17  C   UNL A   1      33.103  19.163  23.669  1.00  0.00     0.045 C 
ATOM     18  C   UNL A   1      34.240  18.857  24.650  1.00  0.00     0.015 C 
ATOM     19  C   UNL A   1      32.217  17.956  23.314  1.00  0.00     0.264 C 
ATOM     20  C   UNL A   1      34.797  17.440  24.622  1.00  0.00     0.062 C 
ATOM     21  N   UNL A   1      32.986  16.731  23.133  1.00  0.00    -0.346 N 
ATOM     22  C   UNL A   1      33.759  16.372  24.312  1.00  0.00     0.260 C 
ATOM     23  H   UNL A   1      32.340  15.969  22.923  1.00  0.00     0.346 HD
ATOM     24  H   UNL A   1      33.644  16.890  22.370  1.00  0.00     0.346 HD
ENDBRANCH  16  17
ENDBRANCH  15  16
ENDBRANCH  13  15
ENDBRANCH   7  13
ENDBRANCH   6   7
ENDBRANCH   4   6
ENDBRANCH   1   2
BRANCH   1  25
ATOM     25  C   UNL A   1      37.032  20.517  24.621  1.00  0.00     0.023 C 
BRANCH  25  26
ATOM     26  C   UNL A   1      38.061  19.420  24.916  1.00  0.00     0.023 C 
BRANCH  26  27
ATOM     27  C   UNL A   1      39.020  19.681  26.079  1.00  0.00     0.116 C 
BRANCH  27  28
ATOM     28  N   UNL A   1      40.294  18.990  25.952  1.00  0.00    -0.352 N 
ATOM     29  C   UNL A   1      41.580  19.472  26.053  1.00  0.00     0.251 C 
ATOM     30  H   UNL A   1      40.226  18.026  25.766  1.00  0.00     0.163 HD
ATOM     31  O   UNL A   1      42.522  18.719  25.801  1.00  0.00    -0.269 OA
BRANCH  29  32
ATOM     32  C   UNL A   1      41.847  20.886  26.418  1.00  0.00     0.039 A 
ATOM     33  C   UNL A   1      42.360  21.167  27.690  1.00  0.00     0.014 A 
ATOM     34  C   UNL A   1      41.587  21.937  25.535  1.00  0.00     0.014 A 
ATOM     35  C   UNL A   1      42.690  22.481  28.040  1.00  0.00     0.010 A 
ATOM     36  C   UNL A   1      41.986  23.237  25.857  1.00  0.00     0.010 A 
ATOM     37  C   UNL A   1      42.552  23.524  27.109  1.00  0.00    -0.014 A 
BRANCH  37  38
ATOM     38  C   UNL A   1      43.007  24.909  27.422  1.00  0.00     0.031 A 
ATOM     39  C   UNL A   1      42.071  25.893  28.071  1.00  0.00     0.074 A 
ATOM     40  C   UNL A   1      44.247  25.302  27.064  1.00  0.00     0.049 A 
ATOM     41  N   UNL A   1      42.256  27.162  28.339  1.00  0.00    -0.248 NA
ATOM     42  C   UNL A   1      40.742  25.389  28.444  1.00  0.00     0.031 C 
ATOM     43  C   UNL A   1      45.241  24.457  26.399  1.00  0.00     0.029 A 
ATOM     44  N   UNL A   1      44.882  26.513  27.196  1.00  0.00    -0.354 N 
ATOM     45  C   UNL A   1      41.066  27.610  28.905  1.00  0.00     0.074 A 
ATOM     46  C   UNL A   1      40.147  26.491  28.878  1.00  0.00     0.031 C 
ATOM     47  C   UNL A   1      46.363  25.168  26.200  1.00  0.00     0.029 A 
ATOM     48  C   UNL A   1      46.155  26.533  26.673  1.00  0.00     0.049 A 
ATOM     49  H   UNL A   1      44.465  27.296  27.625  1.00  0.00     0.167 HD
ATOM     50  C   UNL A   1      40.775  28.832  29.417  1.00  0.00     0.034 A 
ATOM     51  C   UNL A   1      47.050  27.537  26.566  1.00  0.00     0.034 A 
ATOM     52  C   UNL A   1      41.700  29.940  29.438  1.00  0.00     0.049 A 
ATOM     53  C   UNL A   1      46.688  28.899  27.103  1.00  0.00     0.074 A 
ATOM     54  C   UNL A   1      41.520  31.205  29.972  1.00  0.00     0.029 A 
ATOM     55  N   UNL A   1      42.979  29.923  28.893  1.00  0.00    -0.354 N 
ATOM     56  N   UNL A   1      45.572  29.294  27.672  1.00  0.00    -0.248 NA
ATOM     57  C   UNL A   1      47.710  29.949  26.993  1.00  0.00     0.031 C 
ATOM     58  C   UNL A   1      42.654  31.972  29.683  1.00  0.00     0.029 A 
ATOM     59  C   UNL A   1      43.582  31.163  29.048  1.00  0.00     0.049 A 
ATOM     60  H   UNL A   1      43.396  29.144  28.460  1.00  0.00     0.167 HD
ATOM     61  C   UNL A   1      45.773  30.629  28.016  1.00  0.00     0.074 A 
ATOM     62  C   UNL A   1      47.121  30.965  27.604  1.00  0.00     0.031 C 
ATOM     63  C   UNL A   1      44.922  31.496  28.622  1.00  0.00     0.034 A 
BRANCH  50  64
ATOM     64  C   UNL A   1      39.384  29.037  29.974  1.00  0.00     0.023 A 
ATOM     65  C   UNL A   1      38.355  29.605  29.201  1.00  0.00     0.031 A 
ATOM     66  C   UNL A   1      39.084  28.682  31.302  1.00  0.00     0.131 A 
ATOM     67  C   UNL A   1      37.108  29.877  29.782  1.00  0.00     0.055 A 
ATOM     68  C   UNL A   1      37.814  28.873  31.848  1.00  0.00     0.041 A 
ATOM     69  F   UNL A   1      40.027  28.153  32.098  1.00  0.00    -0.206 F 
ATOM     70  C   UNL A   1      36.820  29.490  31.092  1.00  0.00     0.022 A 
BRANCH  67  71
ATOM     71  S   UNL A   1      35.921  30.884  28.851  1.00  0.00     0.124 S 
ATOM     72  O   UNL A   1      35.191  29.862  28.104  1.00  0.00    -0.237 OA
ATOM     73  O   UNL A   1      35.177  31.556  29.910  1.00  0.00    -0.237 OA
ATOM     74  O   UNL A   1      36.770  31.750  28.037  1.00  0.00    -0.744 OA
ENDBRANCH  67  71
ENDBRANCH  50  64
BRANCH  51  75
ATOM     75  C   UNL A   1      48.368  27.306  25.905  1.00  0.00     0.023 A 
ATOM     76  C   UNL A   1      48.532  27.495  24.523  1.00  0.00     0.031 A 
ATOM     77  C   UNL A   1      49.475  26.847  26.641  1.00  0.00     0.131 A 
ATOM     78  C   UNL A   1      49.757  27.182  23.914  1.00  0.00     0.055 A 
ATOM     79  C   UNL A   1      50.709  26.593  26.040  1.00  0.00     0.041 A 
ATOM     80  F   UNL A   1      49.375  26.649  27.966  1.00  0.00    -0.206 F 
ATOM     81  C   UNL A   1      50.851  26.746  24.665  1.00  0.00     0.022 A 
BRANCH  78  82
ATOM     82  S   UNL A   1      49.874  27.263  22.106  1.00  0.00     0.124 S 
ATOM     83  O   UNL A   1      48.806  26.356  21.699  1.00  0.00    -0.237 OA
ATOM     84  O   UNL A   1      49.647  28.680  21.851  1.00  0.00    -0.237 OA
ATOM     85  O   UNL A   1      51.231  26.793  21.832  1.00  0.00    -0.744 OA
ENDBRANCH  78  82
ENDBRANCH  51  75
BRANCH  63  86
ATOM     86  C   UNL A   1      45.446  32.882  28.921  1.00  0.00     0.023 A 
ATOM     87  C   UNL A   1      45.350  33.930  27.989  1.00  0.00     0.031 A 
ATOM     88  C   UNL A   1      46.059  33.153  30.158  1.00  0.00     0.131 A 
ATOM     89  C   UNL A   1      45.911  35.182  28.284  1.00  0.00     0.055 A 
ATOM     90  C   UNL A   1      46.556  34.419  30.471  1.00  0.00     0.041 A 
ATOM     91  F   UNL A   1      46.183  32.190  31.086  1.00  0.00    -0.206 F 
ATOM     92  C   UNL A   1      46.496  35.438  29.527  1.00  0.00     0.022 A 
BRANCH  89  93
ATOM     93  S   UNL A   1      45.953  36.447  26.984  1.00  0.00     0.124 S 
ATOM     94  O   UNL A   1      46.200  35.646  25.789  1.00  0.00    -0.237 OA
ATOM     95  O   UNL A   1      44.626  37.045  27.087  1.00  0.00    -0.237 OA
ATOM     96  O   UNL A   1      47.057  37.317  27.386  1.00  0.00    -0.744 OA
ENDBRANCH  89  93
ENDBRANCH  63  86
ENDBRANCH  37  38
ENDBRANCH  29  32
ENDBRANCH  27  28
ENDBRANCH  26  27
ENDBRANCH  25  26
ENDBRANCH   1  25
TORSDOF 21
ENDMDL
MODEL 3
REMARK VINA RESULT:     -10.7      4.723      9.647
REMARK SMILES O=C(CN(CC(F)(F)F)C(=O)CC[C@H]1CCC[NH2+]C1)NCCCCNC(=O)c1ccc(-c2c3nc(c(-c4cc(S(=O)(=O)[O-])ccc4F)c4ccc([nH]4)c(-c4cc(S(=O)(=O)[O-])ccc4F)c4nc(c(-c5cc(S(=O)(=O)[O-])ccc5F)c5ccc2[nH]5)C=C4)C=C3)cc1
REMARK SMILES IDX 21 1 20 2 1 3 2 4 3 6 4 7 5 8 6 9 7 10 8 11 9 12 10 13 11 14
REMARK SMILES IDX 12 15 13 16 14 17 15 18 19 19 16 20 18 21 17 22 22 25 23 26
REMARK SMILES IDX 24 27 25 28 26 29 27 31 28 32 29 33 90 34 30 35 89 36 31 37
REMARK SMILES IDX 32 38 33 39 83 40 34 41 88 42 82 43 84 44 35 45 87 46 81 47
REMARK SMILES IDX 80 48 36 50 68 51 48 52 67 53 49 54 52 55 66 56 85 57 50 58
REMARK SMILES IDX 51 59 65 61 86 62 53 63 37 64 38 65 46 66 39 67 45 68 47 69
REMARK SMILES IDX 44 70 40 71 41 72 42 73 43 74 69 75 70 76 78 77 71 78 77 79
REMARK SMILES IDX 79 80 76 81 72 82 73 83 74 84 75 85 54 86 55 87 63 88 56 89
REMARK SMILES IDX 62 90 64 91 61 92 57 93 58 94 59 95 60 96
REMARK H PARENT 20 5 18 23 18 24 25 30 84 49 52 60
REMARK Flexibility Score: inf
ROOT
ATOM      1  C   UNL A   1      34.147  21.124  25.300  1.00  0.00     0.116 C 
ENDROOT
BRANCH   1   2
ATOM      2  N   UNL A   1      33.016  21.986  24.984  1.00  0.00    -0.355 N 
ATOM      3  O   UNL A   1      33.954  22.945  23.130  1.00  0.00    -0.273 OA
ATOM      4  C   UNL A   1      32.949  22.699  23.800  1.00  0.00     0.239 C 
ATOM      5  H   UNL A   1      32.279  22.063  25.632  1.00  0.00     0.163 HD
BRANCH   4   6
ATOM      6  C   UNL A   1      31.593  23.376  23.459  1.00  0.00     0.219 C 
BRANCH   6   7
ATOM      7  N   UNL A   1      31.243  24.638  24.137  1.00  0.00    -0.324 N 
BRANCH   7   8
ATOM      8  C   UNL A   1      30.749  25.747  23.297  1.00  0.00     0.235 C 
BRANCH   8   9
ATOM      9  C   UNL A   1      31.716  26.417  22.312  1.00  0.00     0.406 C 
ATOM     10  F   UNL A   1      31.563  27.757  22.262  1.00  0.00    -0.169 F 
ATOM     11  F   UNL A   1      32.994  26.176  22.696  1.00  0.00    -0.169 F 
ATOM     12  F   UNL A   1      31.569  25.932  21.062  1.00  0.00    -0.169 F 
ENDBRANCH   8   9
ENDBRANCH   7   8
BRANCH   7  13
ATOM     13  C   UNL A   1      31.081  24.610  25.522  1.00  0.00     0.223 C 
ATOM     14  O   UNL A   1      30.535  23.657  26.079  1.00  0.00    -0.275 OA
BRANCH  13  15
ATOM     15  C   UNL A   1      31.649  25.750  26.374  1.00  0.00     0.101 C 
BRANCH  15  16
ATOM     16  C   UNL A   1      33.041  26.262  25.955  1.00  0.00     0.019 C 
BRANCH  16  17
ATOM     17  C   UNL A   1      33.230  27.778  25.668  1.00  0.00     0.045 C 
ATOM     18  C   UNL A   1      31.881  28.493  25.541  1.00  0.00     0.015 C 
ATOM     19  C   UNL A   1      34.231  28.457  26.620  1.00  0.00     0.264 C 
ATOM     20  C   UNL A   1      31.891  30.002  25.742  1.00  0.00     0.062 C 
ATOM     21  N   UNL A   1      34.218  29.910  26.503  1.00  0.00    -0.346 N 
ATOM     22  C   UNL A   1      32.906  30.484  26.767  1.00  0.00     0.260 C 
ATOM     23  H   UNL A   1      34.883  30.297  27.173  1.00  0.00     0.346 HD
ATOM     24  H   UNL A   1      34.468  30.144  25.543  1.00  0.00     0.346 HD
ENDBRANCH  16  17
ENDBRANCH  15  16
ENDBRANCH  13  15
ENDBRANCH   7  13
ENDBRANCH   6   7
ENDBRANCH   4   6
ENDBRANCH   1   2
BRANCH   1  25
ATOM     25  C   UNL A   1      35.059  21.655  26.408  1.00  0.00     0.023 C 
BRANCH  25  26
ATOM     26  C   UNL A   1      35.720  23.012  26.144  1.00  0.00     0.023 C 
BRANCH  26  27
ATOM     27  C   UNL A   1      37.009  22.992  25.322  1.00  0.00     0.116 C 
BRANCH  27  28
ATOM     28  N   UNL A   1      38.058  22.166  25.900  1.00  0.00    -0.352 N 
ATOM     29  C   UNL A   1      39.198  22.526  26.583  1.00  0.00     0.251 C 
ATOM     30  H   UNL A   1      37.933  21.196  25.784  1.00  0.00     0.163 HD
ATOM     31  O   UNL A   1      40.010  21.653  26.893  1.00  0.00    -0.269 OA
BRANCH  29  32
ATOM     32  C   UNL A   1      39.483  23.944  26.914  1.00  0.00     0.039 A 
ATOM     33  C   UNL A   1      39.176  24.410  28.199  1.00  0.00     0.014 A 
ATOM     34  C   UNL A   1      40.032  24.824  25.979  1.00  0.00     0.014 A 
ATOM     35  C   UNL A   1      39.497  25.721  28.566  1.00  0.00     0.010 A 
ATOM     36  C   UNL A   1      40.420  26.108  26.368  1.00  0.00     0.010 A 
ATOM     37  C   UNL A   1      40.167  26.570  27.670  1.00  0.00    -0.014 A 
BRANCH  37  38
ATOM     38  C   UNL A   1      40.622  27.929  28.081  1.00  0.00     0.031 A 
ATOM     39  C   UNL A   1      42.089  28.268  28.111  1.00  0.00     0.074 A 
ATOM     40  C   UNL A   1      39.717  28.843  28.488  1.00  0.00     0.049 A 
ATOM     41  N   UNL A   1      42.679  29.363  28.522  1.00  0.00    -0.248 NA
ATOM     42  C   UNL A   1      43.014  27.227  27.641  1.00  0.00     0.031 C 
ATOM     43  C   UNL A   1      38.269  28.631  28.539  1.00  0.00     0.029 A 
ATOM     44  N   UNL A   1      39.877  30.127  28.949  1.00  0.00    -0.354 N 
ATOM     45  C   UNL A   1      44.044  29.141  28.367  1.00  0.00     0.074 A 
ATOM     46  C   UNL A   1      44.192  27.783  27.887  1.00  0.00     0.031 C 
ATOM     47  C   UNL A   1      37.674  29.749  28.984  1.00  0.00     0.029 A 
ATOM     48  C   UNL A   1      38.696  30.741  29.302  1.00  0.00     0.049 A 
ATOM     49  H   UNL A   1      40.754  30.568  29.021  1.00  0.00     0.167 HD
ATOM     50  C   UNL A   1      45.075  29.996  28.584  1.00  0.00     0.034 A 
ATOM     51  C   UNL A   1      38.460  31.956  29.839  1.00  0.00     0.034 A 
ATOM     52  C   UNL A   1      44.915  31.349  29.063  1.00  0.00     0.049 A 
ATOM     53  C   UNL A   1      39.625  32.874  30.113  1.00  0.00     0.074 A 
ATOM     54  C   UNL A   1      45.889  32.310  29.275  1.00  0.00     0.029 A 
ATOM     55  N   UNL A   1      43.703  31.933  29.415  1.00  0.00    -0.354 N 
ATOM     56  N   UNL A   1      40.907  32.662  29.921  1.00  0.00    -0.248 NA
ATOM     57  C   UNL A   1      39.310  34.199  30.665  1.00  0.00     0.031 C 
ATOM     58  C   UNL A   1      45.279  33.443  29.824  1.00  0.00     0.029 A 
ATOM     59  C   UNL A   1      43.911  33.226  29.874  1.00  0.00     0.049 A 
ATOM     60  H   UNL A   1      42.826  31.493  29.348  1.00  0.00     0.167 HD
ATOM     61  C   UNL A   1      41.546  33.840  30.300  1.00  0.00     0.074 A 
ATOM     62  C   UNL A   1      40.508  34.761  30.715  1.00  0.00     0.031 C 
ATOM     63  C   UNL A   1      42.872  34.135  30.299  1.00  0.00     0.034 A 
BRANCH  50  64
ATOM     64  C   UNL A   1      46.472  29.477  28.328  1.00  0.00     0.023 A 
ATOM     65  C   UNL A   1      47.214  28.827  29.330  1.00  0.00     0.031 A 
ATOM     66  C   UNL A   1      47.082  29.653  27.072  1.00  0.00     0.131 A 
ATOM     67  C   UNL A   1      48.545  28.453  29.090  1.00  0.00     0.055 A 
ATOM     68  C   UNL A   1      48.376  29.198  26.811  1.00  0.00     0.041 A 
ATOM     69  F   UNL A   1      46.435  30.283  26.080  1.00  0.00    -0.206 F 
ATOM     70  C   UNL A   1      49.122  28.609  27.828  1.00  0.00     0.022 A 
BRANCH  67  71
ATOM     71  S   UNL A   1      49.556  27.905  30.491  1.00  0.00     0.124 S 
ATOM     72  O   UNL A   1      50.425  26.916  29.858  1.00  0.00    -0.237 OA
ATOM     73  O   UNL A   1      50.201  29.141  30.918  1.00  0.00    -0.237 OA
ATOM     74  O   UNL A   1      48.578  27.355  31.426  1.00  0.00    -0.744 OA
ENDBRANCH  67  71
ENDBRANCH  50  64
BRANCH  51  75
ATOM     75  C   UNL A   1      37.067  32.374  30.177  1.00  0.00     0.023 A 
ATOM     76  C   UNL A   1      36.266  33.053  29.245  1.00  0.00     0.031 A 
ATOM     77  C   UNL A   1      36.532  32.139  31.456  1.00  0.00     0.131 A 
ATOM     78  C   UNL A   1      34.994  33.515  29.620  1.00  0.00     0.055 A 
ATOM     79  C   UNL A   1      35.244  32.549  31.806  1.00  0.00     0.041 A 
ATOM     80  F   UNL A   1      37.254  31.494  32.386  1.00  0.00    -0.206 F 
ATOM     81  C   UNL A   1      34.472  33.255  30.889  1.00  0.00     0.022 A 
BRANCH  78  82
ATOM     82  S   UNL A   1      34.065  34.547  28.453  1.00  0.00     0.124 S 
ATOM     83  O   UNL A   1      32.842  33.771  28.280  1.00  0.00    -0.237 OA
ATOM     84  O   UNL A   1      33.934  35.797  29.192  1.00  0.00    -0.237 OA
ATOM     85  O   UNL A   1      34.938  34.605  27.282  1.00  0.00    -0.744 OA
ENDBRANCH  78  82
ENDBRANCH  51  75
BRANCH  63  86
ATOM     86  C   UNL A   1      43.268  35.532  30.717  1.00  0.00     0.023 A 
ATOM     87  C   UNL A   1      43.434  35.886  32.068  1.00  0.00     0.031 A 
ATOM     88  C   UNL A   1      43.474  36.528  29.744  1.00  0.00     0.131 A 
ATOM     89  C   UNL A   1      43.737  37.213  32.411  1.00  0.00     0.055 A 
ATOM     90  C   UNL A   1      43.839  37.829  30.090  1.00  0.00     0.041 A 
ATOM     91  F   UNL A   1      43.325  36.250  28.439  1.00  0.00    -0.206 F 
ATOM     92  C   UNL A   1      43.960  38.182  31.430  1.00  0.00     0.022 A 
BRANCH  89  93
ATOM     93  S   UNL A   1      43.741  37.680  34.165  1.00  0.00     0.124 S 
ATOM     94  O   UNL A   1      43.332  36.437  34.810  1.00  0.00    -0.237 OA
ATOM     95  O   UNL A   1      45.127  38.083  34.378  1.00  0.00    -0.237 OA
ATOM     96  O   UNL A   1      42.764  38.765  34.233  1.00  0.00    -0.744 OA
ENDBRANCH  89  93
ENDBRANCH  63  86
ENDBRANCH  37  38
ENDBRANCH  29  32
ENDBRANCH  27  28
ENDBRANCH  26  27
ENDBRANCH  25  26
ENDBRANCH   1  25
TORSDOF 21
ENDMDL
