MODEL 1
REMARK VINA RESULT:     -11.1      0.000      0.000
REMARK SMILES CCCc1nnsc1C(=O)NC[C@@H]1CC[C@@H](C(=O)NCCCCNC(=O)c2ccc(-c3c4nc(c(-c5cc(S(=O)(=O)[O-])ccc5F)c5ccc([nH]5)c(-c5cc(S(=O)(=O)[O-])ccc5F)c5nc(c(-c6cc(S(=O)(=O)[O-])ccc6F)c6ccc3[nH]6)C=C5)C=C4)cc2)O1
REMARK SMILES IDX 20 1 19 2 17 3 18 4 16 6 13 7 14 8 90 9 15 10 12 11 11 12
REMARK SMILES IDX 9 13 10 14 8 16 4 17 5 18 6 19 7 20 3 21 2 22 1 23 21 24
REMARK SMILES IDX 22 25 23 26 24 27 25 28 26 30 27 31 28 32 89 33 29 34 88 35
REMARK SMILES IDX 30 36 31 37 32 38 82 39 33 40 87 41 81 42 83 43 34 44 86 45
REMARK SMILES IDX 80 46 79 47 35 49 67 50 47 51 66 52 48 53 51 54 65 55 84 56
REMARK SMILES IDX 49 57 50 58 64 60 85 61 52 62 36 63 37 64 45 65 38 66 44 67
REMARK SMILES IDX 46 68 43 69 39 70 40 71 41 72 42 73 68 74 69 75 77 76 70 77
REMARK SMILES IDX 76 78 78 79 75 80 71 81 72 82 73 83 74 84 53 85 54 86 62 87
REMARK SMILES IDX 55 88 61 89 63 90 60 91 56 92 57 93 58 94 59 95
REMARK H PARENT 19 5 11 15 24 29 83 48 51 59
REMARK Flexibility Score: inf
ROOT
ATOM      1  C   UNL A   1      32.651  29.553  24.974  1.00  0.00     0.116 C 
ENDROOT
BRANCH   1   2
ATOM      2  N   UNL A   1      31.720  29.551  23.864  1.00  0.00    -0.354 N 
ATOM      3  C   UNL A   1      31.331  28.522  23.056  1.00  0.00     0.249 C 
ATOM      4  O   UNL A   1      30.460  28.741  22.210  1.00  0.00    -0.272 OA
ATOM      5  H   UNL A   1      31.307  30.422  23.662  1.00  0.00     0.163 HD
BRANCH   3   6
ATOM      6  C   UNL A   1      31.926  27.114  23.217  1.00  0.00     0.207 C 
ATOM      7  C   UNL A   1      31.153  24.937  22.825  1.00  0.00     0.138 C 
ATOM      8  C   UNL A   1      32.459  25.106  22.067  1.00  0.00     0.037 C 
ATOM      9  O   UNL A   1      30.962  26.129  23.604  1.00  0.00    -0.363 OA
ATOM     10  C   UNL A   1      32.634  26.603  21.973  1.00  0.00     0.045 C 
BRANCH   7  11
ATOM     11  C   UNL A   1      31.133  23.719  23.755  1.00  0.00     0.148 C 
BRANCH  11  12
ATOM     12  N   UNL A   1      30.980  24.124  25.139  1.00  0.00    -0.349 N 
ATOM     13  C   UNL A   1      31.702  23.991  26.292  1.00  0.00     0.265 C 
ATOM     14  O   UNL A   1      31.160  24.556  27.251  1.00  0.00    -0.268 OA
ATOM     15  H   UNL A   1      30.143  24.619  25.285  1.00  0.00     0.163 HD
BRANCH  13  16
ATOM     16  C   UNL A   1      32.977  23.304  26.432  1.00  0.00     0.136 A 
ATOM     17  C   UNL A   1      34.226  23.210  25.811  1.00  0.00     0.088 A 
ATOM     18  N   UNL A   1      35.127  22.342  26.438  1.00  0.00    -0.142 NA
ATOM     19  N   UNL A   1      34.608  21.728  27.477  1.00  0.00    -0.090 NA
ATOM     20  S   UNL A   1      33.040  22.173  27.765  1.00  0.00    -0.006 S 
BRANCH  17  21
ATOM     21  C   UNL A   1      34.753  23.893  24.592  1.00  0.00     0.060 C 
BRANCH  21  22
ATOM     22  C   UNL A   1      35.168  23.012  23.410  1.00  0.00     0.003 C 
ATOM     23  C   UNL A   1      36.674  22.895  23.236  1.00  0.00     0.004 C 
ENDBRANCH  21  22
ENDBRANCH  17  21
ENDBRANCH  13  16
ENDBRANCH  11  12
ENDBRANCH   7  11
ENDBRANCH   3   6
ENDBRANCH   1   2
BRANCH   1  24
ATOM     24  C   UNL A   1      31.992  29.875  26.311  1.00  0.00     0.023 C 
BRANCH  24  25
ATOM     25  C   UNL A   1      31.714  31.361  26.548  1.00  0.00     0.023 C 
BRANCH  25  26
ATOM     26  C   UNL A   1      32.843  32.146  27.208  1.00  0.00     0.116 C 
BRANCH  26  27
ATOM     27  N   UNL A   1      32.513  33.537  27.470  1.00  0.00    -0.352 N 
ATOM     28  C   UNL A   1      33.114  34.406  28.356  1.00  0.00     0.251 C 
ATOM     29  H   UNL A   1      31.764  33.907  26.949  1.00  0.00     0.163 HD
ATOM     30  O   UNL A   1      32.656  35.528  28.521  1.00  0.00    -0.269 OA
BRANCH  28  31
ATOM     31  C   UNL A   1      34.284  33.943  29.132  1.00  0.00     0.039 A 
ATOM     32  C   UNL A   1      34.075  33.122  30.243  1.00  0.00     0.014 A 
ATOM     33  C   UNL A   1      35.581  34.273  28.731  1.00  0.00     0.014 A 
ATOM     34  C   UNL A   1      35.172  32.564  30.904  1.00  0.00     0.010 A 
ATOM     35  C   UNL A   1      36.670  33.661  29.348  1.00  0.00     0.010 A 
ATOM     36  C   UNL A   1      36.476  32.794  30.435  1.00  0.00    -0.014 A 
BRANCH  36  37
ATOM     37  C   UNL A   1      37.651  32.133  31.062  1.00  0.00     0.031 A 
ATOM     38  C   UNL A   1      38.422  31.090  30.301  1.00  0.00     0.074 A 
ATOM     39  C   UNL A   1      37.974  32.418  32.339  1.00  0.00     0.049 A 
ATOM     40  N   UNL A   1      39.413  30.337  30.701  1.00  0.00    -0.248 NA
ATOM     41  C   UNL A   1      37.997  30.841  28.916  1.00  0.00     0.031 C 
ATOM     42  C   UNL A   1      37.273  33.378  33.196  1.00  0.00     0.029 A 
ATOM     43  N   UNL A   1      38.966  31.919  33.148  1.00  0.00    -0.354 N 
ATOM     44  C   UNL A   1      39.721  29.512  29.625  1.00  0.00     0.074 A 
ATOM     45  C   UNL A   1      38.768  29.820  28.578  1.00  0.00     0.031 C 
ATOM     46  C   UNL A   1      37.868  33.412  34.399  1.00  0.00     0.029 A 
ATOM     47  C   UNL A   1      38.963  32.447  34.418  1.00  0.00     0.049 A 
ATOM     48  H   UNL A   1      39.618  31.247  32.845  1.00  0.00     0.167 HD
ATOM     49  C   UNL A   1      40.720  28.600  29.511  1.00  0.00     0.034 A 
ATOM     50  C   UNL A   1      39.746  32.176  35.482  1.00  0.00     0.034 A 
ATOM     51  C   UNL A   1      41.669  28.318  30.559  1.00  0.00     0.049 A 
ATOM     52  C   UNL A   1      40.840  31.149  35.338  1.00  0.00     0.074 A 
ATOM     53  C   UNL A   1      42.756  27.461  30.531  1.00  0.00     0.029 A 
ATOM     54  N   UNL A   1      41.644  28.882  31.830  1.00  0.00    -0.354 N 
ATOM     55  N   UNL A   1      41.153  30.417  34.293  1.00  0.00    -0.248 NA
ATOM     56  C   UNL A   1      41.694  30.922  36.510  1.00  0.00     0.031 C 
ATOM     57  C   UNL A   1      43.346  27.457  31.800  1.00  0.00     0.029 A 
ATOM     58  C   UNL A   1      42.675  28.367  32.600  1.00  0.00     0.049 A 
ATOM     59  H   UNL A   1      40.988  29.548  32.137  1.00  0.00     0.167 HD
ATOM     60  C   UNL A   1      42.259  29.664  34.677  1.00  0.00     0.074 A 
ATOM     61  C   UNL A   1      42.566  30.042  36.041  1.00  0.00     0.031 C 
ATOM     62  C   UNL A   1      42.963  28.746  33.964  1.00  0.00     0.034 A 
BRANCH  49  63
ATOM     63  C   UNL A   1      40.811  27.831  28.214  1.00  0.00     0.023 A 
ATOM     64  C   UNL A   1      40.228  26.559  28.068  1.00  0.00     0.031 A 
ATOM     65  C   UNL A   1      41.518  28.358  27.119  1.00  0.00     0.131 A 
ATOM     66  C   UNL A   1      40.431  25.825  26.890  1.00  0.00     0.055 A 
ATOM     67  C   UNL A   1      41.645  27.658  25.918  1.00  0.00     0.041 A 
ATOM     68  F   UNL A   1      42.113  29.558  27.205  1.00  0.00    -0.206 F 
ATOM     69  C   UNL A   1      41.114  26.377  25.804  1.00  0.00     0.022 A 
BRANCH  66  70
ATOM     70  S   UNL A   1      39.923  24.084  26.856  1.00  0.00     0.124 S 
ATOM     71  O   UNL A   1      38.648  24.164  26.148  1.00  0.00    -0.237 OA
ATOM     72  O   UNL A   1      41.019  23.450  26.132  1.00  0.00    -0.237 OA
ATOM     73  O   UNL A   1      39.821  23.729  28.270  1.00  0.00    -0.744 OA
ENDBRANCH  66  70
ENDBRANCH  49  63
BRANCH  50  74
ATOM     74  C   UNL A   1      39.525  32.874  36.781  1.00  0.00     0.023 A 
ATOM     75  C   UNL A   1      38.609  32.378  37.722  1.00  0.00     0.031 A 
ATOM     76  C   UNL A   1      40.196  34.072  37.082  1.00  0.00     0.131 A 
ATOM     77  C   UNL A   1      38.355  33.099  38.899  1.00  0.00     0.055 A 
ATOM     78  C   UNL A   1      39.978  34.761  38.277  1.00  0.00     0.041 A 
ATOM     79  F   UNL A   1      41.086  34.588  36.219  1.00  0.00    -0.206 F 
ATOM     80  C   UNL A   1      39.041  34.280  39.188  1.00  0.00     0.022 A 
BRANCH  77  81
ATOM     81  S   UNL A   1      37.047  32.512  40.012  1.00  0.00     0.124 S 
ATOM     82  O   UNL A   1      37.590  31.235  40.460  1.00  0.00    -0.237 OA
ATOM     83  O   UNL A   1      37.001  33.575  41.009  1.00  0.00    -0.237 OA
ATOM     84  O   UNL A   1      35.876  32.424  39.143  1.00  0.00    -0.744 OA
ENDBRANCH  77  81
ENDBRANCH  50  74
BRANCH  62  85
ATOM     85  C   UNL A   1      44.161  28.127  34.640  1.00  0.00     0.023 A 
ATOM     86  C   UNL A   1      44.071  26.913  35.342  1.00  0.00     0.031 A 
ATOM     87  C   UNL A   1      45.411  28.770  34.587  1.00  0.00     0.131 A 
ATOM     88  C   UNL A   1      45.197  26.405  36.009  1.00  0.00     0.055 A 
ATOM     89  C   UNL A   1      46.541  28.232  35.203  1.00  0.00     0.041 A 
ATOM     90  F   UNL A   1      45.553  29.933  33.932  1.00  0.00    -0.206 F 
ATOM     91  C   UNL A   1      46.435  27.049  35.930  1.00  0.00     0.022 A 
BRANCH  88  92
ATOM     92  S   UNL A   1      45.003  24.937  37.054  1.00  0.00     0.124 S 
ATOM     93  O   UNL A   1      46.390  24.533  37.269  1.00  0.00    -0.237 OA
ATOM     94  O   UNL A   1      44.308  25.471  38.220  1.00  0.00    -0.237 OA
ATOM     95  O   UNL A   1      44.214  24.027  36.226  1.00  0.00    -0.744 OA
ENDBRANCH  88  92
ENDBRANCH  62  85
ENDBRANCH  36  37
ENDBRANCH  28  31
ENDBRANCH  26  27
ENDBRANCH  25  26
ENDBRANCH  24  25
ENDBRANCH   1  24
TORSDOF 19
ENDMDL
MODEL 2
REMARK VINA RESULT:     -11.0      1.788      2.139
REMARK SMILES CCCc1nnsc1C(=O)NC[C@@H]1CC[C@@H](C(=O)NCCCCNC(=O)c2ccc(-c3c4nc(c(-c5cc(S(=O)(=O)[O-])ccc5F)c5ccc([nH]5)c(-c5cc(S(=O)(=O)[O-])ccc5F)c5nc(c(-c6cc(S(=O)(=O)[O-])ccc6F)c6ccc3[nH]6)C=C5)C=C4)cc2)O1
REMARK SMILES IDX 20 1 19 2 17 3 18 4 16 6 13 7 14 8 90 9 15 10 12 11 11 12
REMARK SMILES IDX 9 13 10 14 8 16 4 17 5 18 6 19 7 20 3 21 2 22 1 23 21 24
REMARK SMILES IDX 22 25 23 26 24 27 25 28 26 30 27 31 28 32 89 33 29 34 88 35
REMARK SMILES IDX 30 36 31 37 32 38 82 39 33 40 87 41 81 42 83 43 34 44 86 45
REMARK SMILES IDX 80 46 79 47 35 49 67 50 47 51 66 52 48 53 51 54 65 55 84 56
REMARK SMILES IDX 49 57 50 58 64 60 85 61 52 62 36 63 37 64 45 65 38 66 44 67
REMARK SMILES IDX 46 68 43 69 39 70 40 71 41 72 42 73 68 74 69 75 77 76 70 77
REMARK SMILES IDX 76 78 78 79 75 80 71 81 72 82 73 83 74 84 53 85 54 86 62 87
REMARK SMILES IDX 55 88 61 89 63 90 60 91 56 92 57 93 58 94 59 95
REMARK H PARENT 19 5 11 15 24 29 83 48 51 59
REMARK Flexibility Score: inf
ROOT
ATOM      1  C   UNL A   1      32.383  29.296  25.229  1.00  0.00     0.116 C 
ENDROOT
BRANCH   1   2
ATOM      2  N   UNL A   1      31.188  28.483  25.129  1.00  0.00    -0.354 N 
ATOM      3  C   UNL A   1      31.004  27.276  24.517  1.00  0.00     0.249 C 
ATOM      4  O   UNL A   1      29.904  26.729  24.625  1.00  0.00    -0.272 OA
ATOM      5  H   UNL A   1      30.390  28.856  25.569  1.00  0.00     0.163 HD
BRANCH   3   6
ATOM      6  C   UNL A   1      32.145  26.592  23.748  1.00  0.00     0.207 C 
ATOM      7  C   UNL A   1      32.431  24.502  22.728  1.00  0.00     0.138 C 
ATOM      8  C   UNL A   1      32.735  25.567  21.689  1.00  0.00     0.037 C 
ATOM      9  O   UNL A   1      32.220  25.181  23.977  1.00  0.00    -0.363 OA
ATOM     10  C   UNL A   1      32.089  26.814  22.245  1.00  0.00     0.045 C 
BRANCH   7  11
ATOM     11  C   UNL A   1      33.551  23.469  22.900  1.00  0.00     0.148 C 
BRANCH  11  12
ATOM     12  N   UNL A   1      33.008  22.155  23.178  1.00  0.00    -0.349 N 
ATOM     13  C   UNL A   1      32.480  21.513  24.265  1.00  0.00     0.265 C 
ATOM     14  O   UNL A   1      32.108  20.364  23.994  1.00  0.00    -0.268 OA
ATOM     15  H   UNL A   1      33.025  21.576  22.383  1.00  0.00     0.163 HD
BRANCH  13  16
ATOM     16  C   UNL A   1      32.322  22.073  25.598  1.00  0.00     0.136 A 
ATOM     17  C   UNL A   1      33.045  22.269  26.780  1.00  0.00     0.088 A 
ATOM     18  N   UNL A   1      32.337  22.919  27.797  1.00  0.00    -0.142 NA
ATOM     19  N   UNL A   1      31.092  23.179  27.468  1.00  0.00    -0.090 NA
ATOM     20  S   UNL A   1      30.719  22.687  25.933  1.00  0.00    -0.006 S 
BRANCH  17  21
ATOM     21  C   UNL A   1      34.452  21.904  27.123  1.00  0.00     0.060 C 
BRANCH  21  22
ATOM     22  C   UNL A   1      35.555  22.360  26.165  1.00  0.00     0.003 C 
ATOM     23  C   UNL A   1      35.543  23.855  25.887  1.00  0.00     0.004 C 
ENDBRANCH  21  22
ENDBRANCH  17  21
ENDBRANCH  13  16
ENDBRANCH  11  12
ENDBRANCH   7  11
ENDBRANCH   3   6
ENDBRANCH   1   2
BRANCH   1  24
ATOM     24  C   UNL A   1      32.660  29.789  26.646  1.00  0.00     0.023 C 
BRANCH  24  25
ATOM     25  C   UNL A   1      32.197  31.219  26.930  1.00  0.00     0.023 C 
BRANCH  25  26
ATOM     26  C   UNL A   1      33.296  32.200  27.326  1.00  0.00     0.116 C 
BRANCH  26  27
ATOM     27  N   UNL A   1      32.807  33.537  27.621  1.00  0.00    -0.352 N 
ATOM     28  C   UNL A   1      33.237  34.407  28.601  1.00  0.00     0.251 C 
ATOM     29  H   UNL A   1      32.075  33.863  27.050  1.00  0.00     0.163 HD
ATOM     30  O   UNL A   1      32.657  35.470  28.775  1.00  0.00    -0.269 OA
BRANCH  28  31
ATOM     31  C   UNL A   1      34.373  34.014  29.462  1.00  0.00     0.039 A 
ATOM     32  C   UNL A   1      34.145  33.129  30.518  1.00  0.00     0.014 A 
ATOM     33  C   UNL A   1      35.664  34.473  29.191  1.00  0.00     0.014 A 
ATOM     34  C   UNL A   1      35.226  32.639  31.254  1.00  0.00     0.010 A 
ATOM     35  C   UNL A   1      36.747  33.931  29.880  1.00  0.00     0.010 A 
ATOM     36  C   UNL A   1      36.540  33.003  30.913  1.00  0.00    -0.014 A 
BRANCH  36  37
ATOM     37  C   UNL A   1      37.711  32.419  31.618  1.00  0.00     0.031 A 
ATOM     38  C   UNL A   1      38.472  31.280  30.998  1.00  0.00     0.074 A 
ATOM     39  C   UNL A   1      38.040  32.865  32.847  1.00  0.00     0.049 A 
ATOM     40  N   UNL A   1      39.459  30.577  31.490  1.00  0.00    -0.248 NA
ATOM     41  C   UNL A   1      38.041  30.857  29.658  1.00  0.00     0.031 C 
ATOM     42  C   UNL A   1      37.349  33.933  33.574  1.00  0.00     0.029 A 
ATOM     43  N   UNL A   1      39.030  32.467  33.712  1.00  0.00    -0.354 N 
ATOM     44  C   UNL A   1      39.757  29.617  30.529  1.00  0.00     0.074 A 
ATOM     45  C   UNL A   1      38.804  29.794  29.454  1.00  0.00     0.031 C 
ATOM     46  C   UNL A   1      37.948  34.118  34.761  1.00  0.00     0.029 A 
ATOM     47  C   UNL A   1      39.035  33.155  34.903  1.00  0.00     0.049 A 
ATOM     48  H   UNL A   1      39.676  31.756  33.498  1.00  0.00     0.167 HD
ATOM     49  C   UNL A   1      40.748  28.690  30.533  1.00  0.00     0.034 A 
ATOM     50  C   UNL A   1      39.819  33.018  35.991  1.00  0.00     0.034 A 
ATOM     51  C   UNL A   1      41.698  28.539  31.607  1.00  0.00     0.049 A 
ATOM     52  C   UNL A   1      40.905  31.972  35.980  1.00  0.00     0.074 A 
ATOM     53  C   UNL A   1      42.778  27.677  31.689  1.00  0.00     0.029 A 
ATOM     54  N   UNL A   1      41.681  29.263  32.794  1.00  0.00    -0.354 N 
ATOM     55  N   UNL A   1      41.209  31.108  35.039  1.00  0.00    -0.248 NA
ATOM     56  C   UNL A   1      41.760  31.893  37.170  1.00  0.00     0.031 C 
ATOM     57  C   UNL A   1      43.372  27.832  32.946  1.00  0.00     0.029 A 
ATOM     58  C   UNL A   1      42.711  28.844  33.623  1.00  0.00     0.049 A 
ATOM     59  H   UNL A   1      41.032  29.969  33.014  1.00  0.00     0.167 HD
ATOM     60  C   UNL A   1      42.310  30.402  35.515  1.00  0.00     0.074 A 
ATOM     61  C   UNL A   1      42.624  30.952  36.818  1.00  0.00     0.031 C 
ATOM     62  C   UNL A   1      43.005  29.395  34.926  1.00  0.00     0.034 A 
BRANCH  49  63
ATOM     63  C   UNL A   1      40.829  27.758  29.347  1.00  0.00     0.023 A 
ATOM     64  C   UNL A   1      41.796  27.929  28.339  1.00  0.00     0.031 A 
ATOM     65  C   UNL A   1      39.909  26.705  29.202  1.00  0.00     0.131 A 
ATOM     66  C   UNL A   1      41.769  27.116  27.197  1.00  0.00     0.055 A 
ATOM     67  C   UNL A   1      39.941  25.845  28.103  1.00  0.00     0.041 A 
ATOM     68  F   UNL A   1      38.951  26.504  30.120  1.00  0.00    -0.206 F 
ATOM     69  C   UNL A   1      40.863  26.059  27.083  1.00  0.00     0.022 A 
BRANCH  66  70
ATOM     70  S   UNL A   1      42.832  27.558  25.795  1.00  0.00     0.124 S 
ATOM     71  O   UNL A   1      42.620  29.001  25.709  1.00  0.00    -0.237 OA
ATOM     72  O   UNL A   1      44.149  27.131  26.251  1.00  0.00    -0.237 OA
ATOM     73  O   UNL A   1      42.275  26.787  24.686  1.00  0.00    -0.744 OA
ENDBRANCH  66  70
ENDBRANCH  49  63
BRANCH  50  74
ATOM     74  C   UNL A   1      39.607  33.880  37.189  1.00  0.00     0.023 A 
ATOM     75  C   UNL A   1      38.941  33.391  38.324  1.00  0.00     0.031 A 
ATOM     76  C   UNL A   1      40.031  35.221  37.200  1.00  0.00     0.131 A 
ATOM     77  C   UNL A   1      38.677  34.248  39.404  1.00  0.00     0.055 A 
ATOM     78  C   UNL A   1      39.811  36.056  38.298  1.00  0.00     0.041 A 
ATOM     79  F   UNL A   1      40.677  35.738  36.143  1.00  0.00    -0.206 F 
ATOM     80  C   UNL A   1      39.118  35.573  39.404  1.00  0.00     0.022 A 
BRANCH  77  81
ATOM     81  S   UNL A   1      37.672  33.625  40.781  1.00  0.00     0.124 S 
ATOM     82  O   UNL A   1      36.499  33.113  40.084  1.00  0.00    -0.237 OA
ATOM     83  O   UNL A   1      38.555  32.626  41.371  1.00  0.00    -0.237 OA
ATOM     84  O   UNL A   1      37.444  34.814  41.599  1.00  0.00    -0.744 OA
ENDBRANCH  77  81
ENDBRANCH  50  74
BRANCH  62  85
ATOM     85  C   UNL A   1      44.201  28.859  35.674  1.00  0.00     0.023 A 
ATOM     86  C   UNL A   1      44.083  27.814  36.606  1.00  0.00     0.031 A 
ATOM     87  C   UNL A   1      45.475  29.412  35.456  1.00  0.00     0.131 A 
ATOM     88  C   UNL A   1      45.211  27.389  37.326  1.00  0.00     0.055 A 
ATOM     89  C   UNL A   1      46.603  28.947  36.131  1.00  0.00     0.041 A 
ATOM     90  F   UNL A   1      45.643  30.414  34.578  1.00  0.00    -0.206 F 
ATOM     91  C   UNL A   1      46.473  27.938  37.082  1.00  0.00     0.022 A 
BRANCH  88  92
ATOM     92  S   UNL A   1      44.994  26.168  38.648  1.00  0.00     0.124 S 
ATOM     93  O   UNL A   1      46.264  26.265  39.362  1.00  0.00    -0.237 OA
ATOM     94  O   UNL A   1      43.824  26.678  39.356  1.00  0.00    -0.237 OA
ATOM     95  O   UNL A   1      44.782  24.914  37.927  1.00  0.00    -0.744 OA
ENDBRANCH  88  92
ENDBRANCH  62  85
ENDBRANCH  36  37
ENDBRANCH  28  31
ENDBRANCH  26  27
ENDBRANCH  25  26
ENDBRANCH  24  25
ENDBRANCH   1  24
TORSDOF 19
ENDMDL
MODEL 3
REMARK VINA RESULT:     -10.8      3.309      8.371
REMARK SMILES CCCc1nnsc1C(=O)NC[C@@H]1CC[C@@H](C(=O)NCCCCNC(=O)c2ccc(-c3c4nc(c(-c5cc(S(=O)(=O)[O-])ccc5F)c5ccc([nH]5)c(-c5cc(S(=O)(=O)[O-])ccc5F)c5nc(c(-c6cc(S(=O)(=O)[O-])ccc6F)c6ccc3[nH]6)C=C5)C=C4)cc2)O1
REMARK SMILES IDX 20 1 19 2 17 3 18 4 16 6 13 7 14 8 90 9 15 10 12 11 11 12
REMARK SMILES IDX 9 13 10 14 8 16 4 17 5 18 6 19 7 20 3 21 2 22 1 23 21 24
REMARK SMILES IDX 22 25 23 26 24 27 25 28 26 30 27 31 28 32 89 33 29 34 88 35
REMARK SMILES IDX 30 36 31 37 32 38 82 39 33 40 87 41 81 42 83 43 34 44 86 45
REMARK SMILES IDX 80 46 79 47 35 49 67 50 47 51 66 52 48 53 51 54 65 55 84 56
REMARK SMILES IDX 49 57 50 58 64 60 85 61 52 62 36 63 37 64 45 65 38 66 44 67
REMARK SMILES IDX 46 68 43 69 39 70 40 71 41 72 42 73 68 74 69 75 77 76 70 77
REMARK SMILES IDX 76 78 78 79 75 80 71 81 72 82 73 83 74 84 53 85 54 86 62 87
REMARK SMILES IDX 55 88 61 89 63 90 60 91 56 92 57 93 58 94 59 95
REMARK H PARENT 19 5 11 15 24 29 83 48 51 59
REMARK Flexibility Score: inf
ROOT
ATOM      1  C   UNL A   1      31.376  28.818  24.010  1.00  0.00     0.116 C 
ENDROOT
BRANCH   1   2
ATOM      2  N   UNL A   1      32.467  28.899  23.060  1.00  0.00    -0.354 N 
ATOM      3  C   UNL A   1      33.348  27.935  22.661  1.00  0.00     0.249 C 
ATOM      4  O   UNL A   1      34.159  28.215  21.775  1.00  0.00    -0.272 OA
ATOM      5  H   UNL A   1      32.593  29.781  22.640  1.00  0.00     0.163 HD
BRANCH   3   6
ATOM      6  C   UNL A   1      33.308  26.522  23.264  1.00  0.00     0.207 C 
ATOM      7  C   UNL A   1      34.826  24.743  23.410  1.00  0.00     0.138 C 
ATOM      8  C   UNL A   1      34.353  25.062  24.818  1.00  0.00     0.037 C 
ATOM      9  O   UNL A   1      34.057  25.560  22.513  1.00  0.00    -0.363 OA
ATOM     10  C   UNL A   1      33.788  26.458  24.705  1.00  0.00     0.045 C 
BRANCH   7  11
ATOM     11  C   UNL A   1      34.654  23.270  23.020  1.00  0.00     0.148 C 
BRANCH  11  12
ATOM     12  N   UNL A   1      35.490  22.414  23.839  1.00  0.00    -0.349 N 
ATOM     13  C   UNL A   1      35.298  21.335  24.657  1.00  0.00     0.265 C 
ATOM     14  O   UNL A   1      36.362  20.910  25.127  1.00  0.00    -0.268 OA
ATOM     15  H   UNL A   1      36.437  22.678  23.796  1.00  0.00     0.163 HD
BRANCH  13  16
ATOM     16  C   UNL A   1      34.024  20.699  24.953  1.00  0.00     0.136 A 
ATOM     17  C   UNL A   1      32.777  20.990  25.515  1.00  0.00     0.088 A 
ATOM     18  N   UNL A   1      31.875  19.920  25.522  1.00  0.00    -0.142 NA
ATOM     19  N   UNL A   1      32.391  18.812  25.042  1.00  0.00    -0.090 NA
ATOM     20  S   UNL A   1      33.957  19.001  24.541  1.00  0.00    -0.006 S 
BRANCH  17  21
ATOM     21  C   UNL A   1      32.254  22.261  26.100  1.00  0.00     0.060 C 
BRANCH  21  22
ATOM     22  C   UNL A   1      30.939  22.809  25.539  1.00  0.00     0.003 C 
ATOM     23  C   UNL A   1      31.080  23.450  24.168  1.00  0.00     0.004 C 
ENDBRANCH  21  22
ENDBRANCH  17  21
ENDBRANCH  13  16
ENDBRANCH  11  12
ENDBRANCH   7  11
ENDBRANCH   3   6
ENDBRANCH   1   2
BRANCH   1  24
ATOM     24  C   UNL A   1      31.609  29.650  25.267  1.00  0.00     0.023 C 
BRANCH  24  25
ATOM     25  C   UNL A   1      31.863  28.837  26.537  1.00  0.00     0.023 C 
BRANCH  25  26
ATOM     26  C   UNL A   1      33.110  29.221  27.327  1.00  0.00     0.116 C 
BRANCH  26  27
ATOM     27  N   UNL A   1      33.358  30.653  27.370  1.00  0.00    -0.352 N 
ATOM     28  C   UNL A   1      34.488  31.312  27.803  1.00  0.00     0.251 C 
ATOM     29  H   UNL A   1      32.625  31.225  27.048  1.00  0.00     0.163 HD
ATOM     30  O   UNL A   1      34.504  32.534  27.857  1.00  0.00    -0.269 OA
BRANCH  28  31
ATOM     31  C   UNL A   1      35.656  30.519  28.246  1.00  0.00     0.039 A 
ATOM     32  C   UNL A   1      36.789  30.476  27.430  1.00  0.00     0.014 A 
ATOM     33  C   UNL A   1      35.651  29.872  29.483  1.00  0.00     0.014 A 
ATOM     34  C   UNL A   1      37.949  29.850  27.894  1.00  0.00     0.010 A 
ATOM     35  C   UNL A   1      36.827  29.309  29.972  1.00  0.00     0.010 A 
ATOM     36  C   UNL A   1      37.991  29.299  29.185  1.00  0.00    -0.014 A 
BRANCH  36  37
ATOM     37  C   UNL A   1      39.241  28.714  29.737  1.00  0.00     0.031 A 
ATOM     38  C   UNL A   1      39.904  29.345  30.930  1.00  0.00     0.074 A 
ATOM     39  C   UNL A   1      39.817  27.665  29.117  1.00  0.00     0.049 A 
ATOM     40  N   UNL A   1      41.041  29.044  31.502  1.00  0.00    -0.248 NA
ATOM     41  C   UNL A   1      39.208  30.487  31.539  1.00  0.00     0.031 C 
ATOM     42  C   UNL A   1      39.294  26.995  27.923  1.00  0.00     0.029 A 
ATOM     43  N   UNL A   1      40.977  26.984  29.394  1.00  0.00    -0.354 N 
ATOM     44  C   UNL A   1      41.207  29.969  32.527  1.00  0.00     0.074 A 
ATOM     45  C   UNL A   1      40.080  30.876  32.456  1.00  0.00     0.031 C 
ATOM     46  C   UNL A   1      40.118  25.991  27.585  1.00  0.00     0.029 A 
ATOM     47  C   UNL A   1      41.250  25.970  28.506  1.00  0.00     0.049 A 
ATOM     48  H   UNL A   1      41.559  27.202  30.158  1.00  0.00     0.167 HD
ATOM     49  C   UNL A   1      42.193  30.040  33.456  1.00  0.00     0.034 A 
ATOM     50  C   UNL A   1      42.299  25.126  28.434  1.00  0.00     0.034 A 
ATOM     51  C   UNL A   1      43.300  29.118  33.521  1.00  0.00     0.049 A 
ATOM     52  C   UNL A   1      43.391  25.232  29.468  1.00  0.00     0.074 A 
ATOM     53  C   UNL A   1      44.321  29.059  34.454  1.00  0.00     0.029 A 
ATOM     54  N   UNL A   1      43.537  28.093  32.611  1.00  0.00    -0.354 N 
ATOM     55  N   UNL A   1      43.504  26.078  30.466  1.00  0.00    -0.248 NA
ATOM     56  C   UNL A   1      44.488  24.261  29.374  1.00  0.00     0.031 C 
ATOM     57  C   UNL A   1      45.207  28.046  34.074  1.00  0.00     0.029 A 
ATOM     58  C   UNL A   1      44.703  27.420  32.945  1.00  0.00     0.049 A 
ATOM     59  H   UNL A   1      42.962  27.878  31.843  1.00  0.00     0.167 HD
ATOM     60  C   UNL A   1      44.672  25.721  31.134  1.00  0.00     0.074 A 
ATOM     61  C   UNL A   1      45.217  24.576  30.435  1.00  0.00     0.031 C 
ATOM     62  C   UNL A   1      45.240  26.285  32.231  1.00  0.00     0.034 A 
BRANCH  49  63
ATOM     63  C   UNL A   1      42.123  31.171  34.455  1.00  0.00     0.023 A 
ATOM     64  C   UNL A   1      42.775  32.397  34.230  1.00  0.00     0.031 A 
ATOM     65  C   UNL A   1      41.426  31.011  35.666  1.00  0.00     0.131 A 
ATOM     66  C   UNL A   1      42.785  33.381  35.229  1.00  0.00     0.055 A 
ATOM     67  C   UNL A   1      41.368  32.028  36.622  1.00  0.00     0.041 A 
ATOM     68  F   UNL A   1      40.802  29.858  35.947  1.00  0.00    -0.206 F 
ATOM     69  C   UNL A   1      42.064  33.214  36.414  1.00  0.00     0.022 A 
BRANCH  66  70
ATOM     70  S   UNL A   1      43.878  34.813  35.023  1.00  0.00     0.124 S 
ATOM     71  O   UNL A   1      43.799  35.436  36.342  1.00  0.00    -0.237 OA
ATOM     72  O   UNL A   1      45.153  34.191  34.684  1.00  0.00    -0.237 OA
ATOM     73  O   UNL A   1      43.248  35.573  33.946  1.00  0.00    -0.744 OA
ENDBRANCH  66  70
ENDBRANCH  49  63
BRANCH  50  74
ATOM     74  C   UNL A   1      42.380  24.112  27.344  1.00  0.00     0.023 A 
ATOM     75  C   UNL A   1      41.749  22.864  27.468  1.00  0.00     0.031 A 
ATOM     76  C   UNL A   1      43.127  24.359  26.178  1.00  0.00     0.131 A 
ATOM     77  C   UNL A   1      41.912  21.894  26.466  1.00  0.00     0.055 A 
ATOM     78  C   UNL A   1      43.245  23.410  25.161  1.00  0.00     0.041 A 
ATOM     79  F   UNL A   1      43.746  25.538  26.007  1.00  0.00    -0.206 F 
ATOM     80  C   UNL A   1      42.645  22.163  25.309  1.00  0.00     0.022 A 
BRANCH  77  81
ATOM     81  S   UNL A   1      41.218  20.240  26.738  1.00  0.00     0.124 S 
ATOM     82  O   UNL A   1      40.024  20.278  25.903  1.00  0.00    -0.237 OA
ATOM     83  O   UNL A   1      42.299  19.379  26.273  1.00  0.00    -0.237 OA
ATOM     84  O   UNL A   1      40.973  20.207  28.179  1.00  0.00    -0.744 OA
ENDBRANCH  77  81
ENDBRANCH  50  74
BRANCH  62  85
ATOM     85  C   UNL A   1      46.494  25.635  32.764  1.00  0.00     0.023 A 
ATOM     86  C   UNL A   1      46.445  24.615  33.728  1.00  0.00     0.031 A 
ATOM     87  C   UNL A   1      47.755  26.052  32.303  1.00  0.00     0.131 A 
ATOM     88  C   UNL A   1      47.638  24.082  34.242  1.00  0.00     0.055 A 
ATOM     89  C   UNL A   1      48.936  25.479  32.774  1.00  0.00     0.041 A 
ATOM     90  F   UNL A   1      47.859  27.025  31.383  1.00  0.00    -0.206 F 
ATOM     91  C   UNL A   1      48.882  24.497  33.759  1.00  0.00     0.022 A 
BRANCH  88  92
ATOM     92  S   UNL A   1      47.546  22.900  35.614  1.00  0.00     0.124 S 
ATOM     93  O   UNL A   1      48.547  23.427  36.536  1.00  0.00    -0.237 OA
ATOM     94  O   UNL A   1      46.156  23.024  36.041  1.00  0.00    -0.237 OA
ATOM     95  O   UNL A   1      47.890  21.623  34.991  1.00  0.00    -0.744 OA
ENDBRANCH  88  92
ENDBRANCH  62  85
ENDBRANCH  36  37
ENDBRANCH  28  31
ENDBRANCH  26  27
ENDBRANCH  25  26
ENDBRANCH  24  25
ENDBRANCH   1  24
TORSDOF 19
ENDMDL
