MODEL 1
REMARK VINA RESULT:     -11.9      0.000      0.000
REMARK SMILES C[NH2+][C@]1(C(=O)NCCCCNC(=O)c2ccc(-c3c4nc(c(-c5cc(S(=O)(=O)[O-])ccc5F)c5ccc([nH]5)c(-c5cc(S(=O)(=O)[O-])ccc5F)c5nc(c(-c6cc(S(=O)(=O)[O-])ccc6F)c6ccc3[nH]6)C=C5)C=C4)cc2)CCC[C@@H]1CCSc1cccc(Cl)c1
REMARK SMILES IDX 8 1 7 2 6 3 4 4 5 5 3 7 77 8 80 9 78 10 79 11 2 12 1 13
REMARK SMILES IDX 81 16 82 17 83 18 84 19 85 20 90 21 86 22 88 23 87 24 89 25
REMARK SMILES IDX 9 26 10 27 11 28 12 29 13 31 14 32 15 33 76 34 16 35 75 36
REMARK SMILES IDX 17 37 18 38 19 39 69 40 20 41 74 42 68 43 70 44 21 45 73 46
REMARK SMILES IDX 67 47 66 48 22 50 54 51 34 52 53 53 35 54 38 55 52 56 71 57
REMARK SMILES IDX 36 58 37 59 51 61 72 62 39 63 23 64 24 65 32 66 25 67 31 68
REMARK SMILES IDX 33 69 30 70 26 71 27 72 28 73 29 74 55 75 56 76 64 77 57 78
REMARK SMILES IDX 63 79 65 80 62 81 58 82 59 83 60 84 61 85 40 86 41 87 49 88
REMARK SMILES IDX 42 89 48 90 50 91 47 92 43 93 44 94 45 95 46 96
REMARK H PARENT 6 6 2 14 2 15 11 30 70 49 38 60
REMARK Flexibility Score: inf
ROOT
ATOM      1  C   UNL A   1      32.478  27.758  27.184  1.00  0.00     0.023 C 
ENDROOT
BRANCH   1   2
ATOM      2  C   UNL A   1      32.486  26.470  26.368  1.00  0.00     0.116 C 
BRANCH   2   3
ATOM      3  N   UNL A   1      31.541  25.489  26.859  1.00  0.00    -0.351 N 
ATOM      4  C   UNL A   1      31.329  24.172  26.581  1.00  0.00     0.281 C 
ATOM      5  O   UNL A   1      30.417  23.670  27.249  1.00  0.00    -0.268 OA
ATOM      6  H   UNL A   1      30.923  25.848  27.535  1.00  0.00     0.163 HD
BRANCH   4   7
ATOM      7  C   UNL A   1      32.121  23.360  25.485  1.00  0.00     0.178 C 
ATOM      8  C   UNL A   1      31.886  21.841  25.706  1.00  0.00     0.079 C 
ATOM      9  C   UNL A   1      31.633  23.505  24.008  1.00  0.00     0.061 C 
ATOM     10  C   UNL A   1      32.152  21.159  24.359  1.00  0.00     0.008 C 
ATOM     11  C   UNL A   1      32.241  22.273  23.317  1.00  0.00     0.011 C 
BRANCH   7  12
ATOM     12  N   UNL A   1      33.608  23.507  25.618  1.00  0.00    -0.336 N 
ATOM     13  C   UNL A   1      34.239  22.972  26.812  1.00  0.00     0.331 C 
ATOM     14  H   UNL A   1      34.032  23.041  24.816  1.00  0.00     0.346 HD
ATOM     15  H   UNL A   1      33.761  24.513  25.676  1.00  0.00     0.346 HD
ENDBRANCH   7  12
BRANCH   9  16
ATOM     16  C   UNL A   1      31.916  24.828  23.293  1.00  0.00     0.022 C 
BRANCH  16  17
ATOM     17  C   UNL A   1      30.754  25.839  23.276  1.00  0.00     0.075 C 
BRANCH  17  18
ATOM     18  S   UNL A   1      31.213  27.598  22.986  1.00  0.00    -0.126 SA
BRANCH  18  19
ATOM     19  C   UNL A   1      29.666  28.495  22.999  1.00  0.00     0.009 A 
ATOM     20  C   UNL A   1      28.417  27.883  23.126  1.00  0.00     0.015 A 
ATOM     21  C   UNL A   1      29.710  29.890  22.880  1.00  0.00     0.035 A 
ATOM     22  C   UNL A   1      27.255  28.641  23.284  1.00  0.00     0.003 A 
ATOM     23  C   UNL A   1      28.542  30.646  23.019  1.00  0.00     0.042 A 
ATOM     24  C   UNL A   1      27.320  30.028  23.252  1.00  0.00     0.020 A 
ATOM     25  Cl  UNL A   1      28.578  32.361  22.945  1.00  0.00    -0.084 Cl
ENDBRANCH  18  19
ENDBRANCH  17  18
ENDBRANCH  16  17
ENDBRANCH   9  16
ENDBRANCH   4   7
ENDBRANCH   2   3
ENDBRANCH   1   2
BRANCH   1  26
ATOM     26  C   UNL A   1      31.712  28.935  26.583  1.00  0.00     0.023 C 
BRANCH  26  27
ATOM     27  C   UNL A   1      32.553  30.079  26.025  1.00  0.00     0.116 C 
BRANCH  27  28
ATOM     28  N   UNL A   1      32.234  31.382  26.589  1.00  0.00    -0.352 N 
ATOM     29  C   UNL A   1      33.013  32.248  27.320  1.00  0.00     0.251 C 
ATOM     30  H   UNL A   1      31.315  31.693  26.420  1.00  0.00     0.163 HD
ATOM     31  O   UNL A   1      32.598  33.364  27.620  1.00  0.00    -0.269 OA
BRANCH  29  32
ATOM     32  C   UNL A   1      34.315  31.800  27.827  1.00  0.00     0.039 A 
ATOM     33  C   UNL A   1      35.315  32.761  28.001  1.00  0.00     0.014 A 
ATOM     34  C   UNL A   1      34.519  30.473  28.202  1.00  0.00     0.014 A 
ATOM     35  C   UNL A   1      36.497  32.410  28.647  1.00  0.00     0.010 A 
ATOM     36  C   UNL A   1      35.661  30.145  28.916  1.00  0.00     0.010 A 
ATOM     37  C   UNL A   1      36.652  31.112  29.153  1.00  0.00    -0.014 A 
BRANCH  37  38
ATOM     38  C   UNL A   1      37.854  30.724  29.924  1.00  0.00     0.031 A 
ATOM     39  C   UNL A   1      38.844  29.788  29.296  1.00  0.00     0.074 A 
ATOM     40  C   UNL A   1      37.984  31.132  31.201  1.00  0.00     0.049 A 
ATOM     41  N   UNL A   1      39.859  29.171  29.834  1.00  0.00    -0.248 NA
ATOM     42  C   UNL A   1      38.623  29.468  27.876  1.00  0.00     0.031 C 
ATOM     43  C   UNL A   1      37.050  32.015  31.907  1.00  0.00     0.029 A 
ATOM     44  N   UNL A   1      38.939  30.844  32.140  1.00  0.00    -0.354 N 
ATOM     45  C   UNL A   1      40.377  28.358  28.832  1.00  0.00     0.074 A 
ATOM     46  C   UNL A   1      39.527  28.524  27.673  1.00  0.00     0.031 C 
ATOM     47  C   UNL A   1      37.488  32.206  33.162  1.00  0.00     0.029 A 
ATOM     48  C   UNL A   1      38.702  31.424  33.365  1.00  0.00     0.049 A 
ATOM     49  H   UNL A   1      39.721  30.275  31.956  1.00  0.00     0.167 HD
ATOM     50  C   UNL A   1      41.474  27.563  28.876  1.00  0.00     0.034 A 
ATOM     51  C   UNL A   1      39.383  31.318  34.523  1.00  0.00     0.034 A 
ATOM     52  C   UNL A   1      42.311  27.447  30.045  1.00  0.00     0.049 A 
ATOM     53  C   UNL A   1      40.615  30.449  34.541  1.00  0.00     0.074 A 
ATOM     54  C   UNL A   1      43.473  26.715  30.210  1.00  0.00     0.029 A 
ATOM     55  N   UNL A   1      42.071  28.091  31.255  1.00  0.00    -0.354 N 
ATOM     56  N   UNL A   1      41.115  29.706  33.579  1.00  0.00    -0.248 NA
ATOM     57  C   UNL A   1      41.379  30.412  35.792  1.00  0.00     0.031 C 
ATOM     58  C   UNL A   1      43.906  26.876  31.531  1.00  0.00     0.029 A 
ATOM     59  C   UNL A   1      43.054  27.761  32.173  1.00  0.00     0.049 A 
ATOM     60  H   UNL A   1      41.313  28.692  31.432  1.00  0.00     0.167 HD
ATOM     61  C   UNL A   1      42.268  29.133  34.102  1.00  0.00     0.074 A 
ATOM     62  C   UNL A   1      42.397  29.632  35.458  1.00  0.00     0.031 C 
ATOM     63  C   UNL A   1      43.146  28.274  33.521  1.00  0.00     0.034 A 
BRANCH  50  64
ATOM     64  C   UNL A   1      41.789  26.749  27.643  1.00  0.00     0.023 A 
ATOM     65  C   UNL A   1      41.415  25.397  27.532  1.00  0.00     0.031 A 
ATOM     66  C   UNL A   1      42.532  27.310  26.589  1.00  0.00     0.131 A 
ATOM     67  C   UNL A   1      41.865  24.631  26.447  1.00  0.00     0.055 A 
ATOM     68  C   UNL A   1      42.900  26.565  25.467  1.00  0.00     0.041 A 
ATOM     69  F   UNL A   1      42.938  28.589  26.644  1.00  0.00    -0.206 F 
ATOM     70  C   UNL A   1      42.583  25.210  25.399  1.00  0.00     0.022 A 
BRANCH  67  71
ATOM     71  S   UNL A   1      41.637  22.831  26.505  1.00  0.00     0.124 S 
ATOM     72  O   UNL A   1      40.180  22.721  26.499  1.00  0.00    -0.237 OA
ATOM     73  O   UNL A   1      42.317  22.387  25.295  1.00  0.00    -0.237 OA
ATOM     74  O   UNL A   1      42.279  22.444  27.760  1.00  0.00    -0.744 OA
ENDBRANCH  67  71
ENDBRANCH  50  64
BRANCH  51  75
ATOM     75  C   UNL A   1      38.926  32.041  35.743  1.00  0.00     0.023 A 
ATOM     76  C   UNL A   1      38.249  31.365  36.771  1.00  0.00     0.031 A 
ATOM     77  C   UNL A   1      39.141  33.422  35.896  1.00  0.00     0.131 A 
ATOM     78  C   UNL A   1      37.778  32.076  37.887  1.00  0.00     0.055 A 
ATOM     79  C   UNL A   1      38.712  34.117  37.029  1.00  0.00     0.041 A 
ATOM     80  F   UNL A   1      39.793  34.117  34.949  1.00  0.00    -0.206 F 
ATOM     81  C   UNL A   1      38.015  33.445  38.028  1.00  0.00     0.022 A 
BRANCH  78  82
ATOM     82  S   UNL A   1      36.788  31.194  39.125  1.00  0.00     0.124 S 
ATOM     83  O   UNL A   1      36.632  29.883  38.505  1.00  0.00    -0.237 OA
ATOM     84  O   UNL A   1      37.652  31.250  40.299  1.00  0.00    -0.237 OA
ATOM     85  O   UNL A   1      35.566  31.991  39.216  1.00  0.00    -0.744 OA
ENDBRANCH  78  82
ENDBRANCH  51  75
BRANCH  63  86
ATOM     86  C   UNL A   1      44.337  27.867  34.348  1.00  0.00     0.023 A 
ATOM     87  C   UNL A   1      44.325  26.702  35.132  1.00  0.00     0.031 A 
ATOM     88  C   UNL A   1      45.495  28.665  34.356  1.00  0.00     0.131 A 
ATOM     89  C   UNL A   1      45.431  26.395  35.939  1.00  0.00     0.055 A 
ATOM     90  C   UNL A   1      46.614  28.323  35.115  1.00  0.00     0.041 A 
ATOM     91  F   UNL A   1      45.555  29.789  33.623  1.00  0.00    -0.206 F 
ATOM     92  C   UNL A   1      46.581  27.190  35.923  1.00  0.00     0.022 A 
BRANCH  89  93
ATOM     93  S   UNL A   1      45.310  24.992  37.079  1.00  0.00     0.124 S 
ATOM     94  O   UNL A   1      45.331  23.854  36.164  1.00  0.00    -0.237 OA
ATOM     95  O   UNL A   1      46.498  25.162  37.910  1.00  0.00    -0.237 OA
ATOM     96  O   UNL A   1      44.039  25.214  37.764  1.00  0.00    -0.744 OA
ENDBRANCH  89  93
ENDBRANCH  63  86
ENDBRANCH  37  38
ENDBRANCH  29  32
ENDBRANCH  27  28
ENDBRANCH  26  27
ENDBRANCH   1  26
TORSDOF 19
ENDMDL
MODEL 2
REMARK VINA RESULT:     -11.2      5.112      7.736
REMARK SMILES C[NH2+][C@]1(C(=O)NCCCCNC(=O)c2ccc(-c3c4nc(c(-c5cc(S(=O)(=O)[O-])ccc5F)c5ccc([nH]5)c(-c5cc(S(=O)(=O)[O-])ccc5F)c5nc(c(-c6cc(S(=O)(=O)[O-])ccc6F)c6ccc3[nH]6)C=C5)C=C4)cc2)CCC[C@@H]1CCSc1cccc(Cl)c1
REMARK SMILES IDX 8 1 7 2 6 3 4 4 5 5 3 7 77 8 80 9 78 10 79 11 2 12 1 13
REMARK SMILES IDX 81 16 82 17 83 18 84 19 85 20 90 21 86 22 88 23 87 24 89 25
REMARK SMILES IDX 9 26 10 27 11 28 12 29 13 31 14 32 15 33 76 34 16 35 75 36
REMARK SMILES IDX 17 37 18 38 19 39 69 40 20 41 74 42 68 43 70 44 21 45 73 46
REMARK SMILES IDX 67 47 66 48 22 50 54 51 34 52 53 53 35 54 38 55 52 56 71 57
REMARK SMILES IDX 36 58 37 59 51 61 72 62 39 63 23 64 24 65 32 66 25 67 31 68
REMARK SMILES IDX 33 69 30 70 26 71 27 72 28 73 29 74 55 75 56 76 64 77 57 78
REMARK SMILES IDX 63 79 65 80 62 81 58 82 59 83 60 84 61 85 40 86 41 87 49 88
REMARK SMILES IDX 42 89 48 90 50 91 47 92 43 93 44 94 45 95 46 96
REMARK H PARENT 6 6 2 14 2 15 11 30 70 49 38 60
REMARK Flexibility Score: inf
ROOT
ATOM      1  C   UNL A   1      35.344  22.850  23.464  1.00  0.00     0.023 C 
ENDROOT
BRANCH   1   2
ATOM      2  C   UNL A   1      34.743  24.234  23.684  1.00  0.00     0.116 C 
BRANCH   2   3
ATOM      3  N   UNL A   1      33.659  24.526  22.769  1.00  0.00    -0.351 N 
ATOM      4  C   UNL A   1      32.728  25.520  22.707  1.00  0.00     0.281 C 
ATOM      5  O   UNL A   1      31.973  25.425  21.732  1.00  0.00    -0.268 OA
ATOM      6  H   UNL A   1      33.577  23.871  22.040  1.00  0.00     0.163 HD
BRANCH   4   7
ATOM      7  C   UNL A   1      32.577  26.660  23.786  1.00  0.00     0.178 C 
ATOM      8  C   UNL A   1      31.554  27.711  23.278  1.00  0.00     0.079 C 
ATOM      9  C   UNL A   1      31.916  26.263  25.145  1.00  0.00     0.061 C 
ATOM     10  C   UNL A   1      31.013  28.429  24.520  1.00  0.00     0.008 C 
ATOM     11  C   UNL A   1      31.477  27.617  25.728  1.00  0.00     0.011 C 
BRANCH   7  12
ATOM     12  N   UNL A   1      33.835  27.455  23.968  1.00  0.00    -0.336 N 
ATOM     13  C   UNL A   1      34.129  28.493  22.994  1.00  0.00     0.331 C 
ATOM     14  H   UNL A   1      33.783  27.903  24.883  1.00  0.00     0.346 HD
ATOM     15  H   UNL A   1      34.587  26.776  23.853  1.00  0.00     0.346 HD
ENDBRANCH   7  12
BRANCH   9  16
ATOM     16  C   UNL A   1      32.735  25.401  26.109  1.00  0.00     0.022 C 
BRANCH  16  17
ATOM     17  C   UNL A   1      32.019  24.154  26.660  1.00  0.00     0.075 C 
BRANCH  17  18
ATOM     18  S   UNL A   1      33.083  22.691  27.000  1.00  0.00    -0.126 SA
BRANCH  18  19
ATOM     19  C   UNL A   1      32.820  21.587  25.618  1.00  0.00     0.009 A 
ATOM     20  C   UNL A   1      31.970  21.875  24.549  1.00  0.00     0.015 A 
ATOM     21  C   UNL A   1      33.510  20.368  25.606  1.00  0.00     0.035 A 
ATOM     22  C   UNL A   1      31.919  21.047  23.425  1.00  0.00     0.003 A 
ATOM     23  C   UNL A   1      33.443  19.532  24.488  1.00  0.00     0.042 A 
ATOM     24  C   UNL A   1      32.675  19.883  23.385  1.00  0.00     0.020 A 
ATOM     25  Cl  UNL A   1      34.332  18.065  24.418  1.00  0.00    -0.084 Cl
ENDBRANCH  18  19
ENDBRANCH  17  18
ENDBRANCH  16  17
ENDBRANCH   9  16
ENDBRANCH   4   7
ENDBRANCH   2   3
ENDBRANCH   1   2
BRANCH   1  26
ATOM     26  C   UNL A   1      36.801  22.671  23.885  1.00  0.00     0.023 C 
BRANCH  26  27
ATOM     27  C   UNL A   1      37.045  22.235  25.327  1.00  0.00     0.116 C 
BRANCH  27  28
ATOM     28  N   UNL A   1      38.185  21.348  25.496  1.00  0.00    -0.352 N 
ATOM     29  C   UNL A   1      39.356  21.530  26.194  1.00  0.00     0.251 C 
ATOM     30  H   UNL A   1      38.106  20.480  25.038  1.00  0.00     0.163 HD
ATOM     31  O   UNL A   1      40.164  20.613  26.312  1.00  0.00    -0.269 OA
BRANCH  29  32
ATOM     32  C   UNL A   1      39.687  22.859  26.722  1.00  0.00     0.039 A 
ATOM     33  C   UNL A   1      40.676  22.944  27.706  1.00  0.00     0.014 A 
ATOM     34  C   UNL A   1      39.091  24.005  26.199  1.00  0.00     0.014 A 
ATOM     35  C   UNL A   1      41.144  24.194  28.100  1.00  0.00     0.010 A 
ATOM     36  C   UNL A   1      39.614  25.245  26.532  1.00  0.00     0.010 A 
ATOM     37  C   UNL A   1      40.649  25.348  27.475  1.00  0.00    -0.014 A 
BRANCH  37  38
ATOM     38  C   UNL A   1      41.185  26.689  27.801  1.00  0.00     0.031 A 
ATOM     39  C   UNL A   1      42.609  27.002  27.451  1.00  0.00     0.074 A 
ATOM     40  C   UNL A   1      40.421  27.559  28.491  1.00  0.00     0.049 A 
ATOM     41  N   UNL A   1      43.343  28.025  27.796  1.00  0.00    -0.248 NA
ATOM     42  C   UNL A   1      43.315  25.996  26.642  1.00  0.00     0.031 C 
ATOM     43  C   UNL A   1      39.035  27.325  28.905  1.00  0.00     0.029 A 
ATOM     44  N   UNL A   1      40.707  28.805  28.983  1.00  0.00    -0.354 N 
ATOM     45  C   UNL A   1      44.608  27.768  27.281  1.00  0.00     0.074 A 
ATOM     46  C   UNL A   1      44.551  26.468  26.649  1.00  0.00     0.031 C 
ATOM     47  C   UNL A   1      38.589  28.398  29.576  1.00  0.00     0.029 A 
ATOM     48  C   UNL A   1      39.668  29.374  29.682  1.00  0.00     0.049 A 
ATOM     49  H   UNL A   1      41.574  29.251  28.849  1.00  0.00     0.167 HD
ATOM     50  C   UNL A   1      45.709  28.559  27.320  1.00  0.00     0.034 A 
ATOM     51  C   UNL A   1      39.605  30.545  30.346  1.00  0.00     0.034 A 
ATOM     52  C   UNL A   1      45.716  29.862  27.937  1.00  0.00     0.049 A 
ATOM     53  C   UNL A   1      40.833  31.419  30.353  1.00  0.00     0.074 A 
ATOM     54  C   UNL A   1      46.746  30.782  28.007  1.00  0.00     0.029 A 
ATOM     55  N   UNL A   1      44.628  30.431  28.593  1.00  0.00    -0.354 N 
ATOM     56  N   UNL A   1      42.019  31.182  29.838  1.00  0.00    -0.248 NA
ATOM     57  C   UNL A   1      40.714  32.721  31.019  1.00  0.00     0.031 C 
ATOM     58  C   UNL A   1      46.298  31.882  28.747  1.00  0.00     0.029 A 
ATOM     59  C   UNL A   1      44.967  31.681  29.081  1.00  0.00     0.049 A 
ATOM     60  H   UNL A   1      43.747  30.006  28.694  1.00  0.00     0.167 HD
ATOM     61  C   UNL A   1      42.779  32.316  30.095  1.00  0.00     0.074 A 
ATOM     62  C   UNL A   1      41.910  33.243  30.795  1.00  0.00     0.031 C 
ATOM     63  C   UNL A   1      44.076  32.577  29.782  1.00  0.00     0.034 A 
BRANCH  50  64
ATOM     64  C   UNL A   1      46.977  28.009  26.710  1.00  0.00     0.023 A 
ATOM     65  C   UNL A   1      47.256  28.140  25.337  1.00  0.00     0.031 A 
ATOM     66  C   UNL A   1      47.890  27.284  27.495  1.00  0.00     0.131 A 
ATOM     67  C   UNL A   1      48.359  27.478  24.777  1.00  0.00     0.055 A 
ATOM     68  C   UNL A   1      49.036  26.702  26.948  1.00  0.00     0.041 A 
ATOM     69  F   UNL A   1      47.670  27.104  28.808  1.00  0.00    -0.206 F 
ATOM     70  C   UNL A   1      49.266  26.781  25.577  1.00  0.00     0.022 A 
BRANCH  67  71
ATOM     71  S   UNL A   1      48.498  27.406  22.970  1.00  0.00     0.124 S 
ATOM     72  O   UNL A   1      48.424  25.967  22.728  1.00  0.00    -0.237 OA
ATOM     73  O   UNL A   1      47.349  28.188  22.532  1.00  0.00    -0.237 OA
ATOM     74  O   UNL A   1      49.803  28.009  22.702  1.00  0.00    -0.744 OA
ENDBRANCH  67  71
ENDBRANCH  50  64
BRANCH  51  75
ATOM     75  C   UNL A   1      38.357  30.954  31.050  1.00  0.00     0.023 A 
ATOM     76  C   UNL A   1      37.339  31.644  30.373  1.00  0.00     0.031 A 
ATOM     77  C   UNL A   1      38.167  30.677  32.416  1.00  0.00     0.131 A 
ATOM     78  C   UNL A   1      36.195  32.068  31.069  1.00  0.00     0.055 A 
ATOM     79  C   UNL A   1      37.007  31.060  33.093  1.00  0.00     0.041 A 
ATOM     80  F   UNL A   1      39.103  30.011  33.111  1.00  0.00    -0.206 F 
ATOM     81  C   UNL A   1      36.017  31.771  32.421  1.00  0.00     0.022 A 
BRANCH  78  82
ATOM     82  S   UNL A   1      34.969  33.076  30.192  1.00  0.00     0.124 S 
ATOM     83  O   UNL A   1      34.367  32.100  29.291  1.00  0.00    -0.237 OA
ATOM     84  O   UNL A   1      34.125  33.545  31.286  1.00  0.00    -0.237 OA
ATOM     85  O   UNL A   1      35.776  34.109  29.545  1.00  0.00    -0.744 OA
ENDBRANCH  78  82
ENDBRANCH  51  75
BRANCH  63  86
ATOM     86  C   UNL A   1      44.600  33.936  30.164  1.00  0.00     0.023 A 
ATOM     87  C   UNL A   1      45.257  34.155  31.386  1.00  0.00     0.031 A 
ATOM     88  C   UNL A   1      44.431  35.026  29.293  1.00  0.00     0.131 A 
ATOM     89  C   UNL A   1      45.671  35.449  31.731  1.00  0.00     0.055 A 
ATOM     90  C   UNL A   1      44.897  36.300  29.616  1.00  0.00     0.041 A 
ATOM     91  F   UNL A   1      43.809  34.868  28.113  1.00  0.00    -0.206 F 
ATOM     92  C   UNL A   1      45.509  36.520  30.847  1.00  0.00     0.022 A 
BRANCH  89  93
ATOM     93  S   UNL A   1      46.342  35.733  33.390  1.00  0.00     0.124 S 
ATOM     94  O   UNL A   1      45.768  37.032  33.731  1.00  0.00    -0.237 OA
ATOM     95  O   UNL A   1      45.822  34.592  34.137  1.00  0.00    -0.237 OA
ATOM     96  O   UNL A   1      47.788  35.730  33.181  1.00  0.00    -0.744 OA
ENDBRANCH  89  93
ENDBRANCH  63  86
ENDBRANCH  37  38
ENDBRANCH  29  32
ENDBRANCH  27  28
ENDBRANCH  26  27
ENDBRANCH   1  26
TORSDOF 19
ENDMDL
MODEL 3
REMARK VINA RESULT:     -11.2      2.199      7.806
REMARK SMILES C[NH2+][C@]1(C(=O)NCCCCNC(=O)c2ccc(-c3c4nc(c(-c5cc(S(=O)(=O)[O-])ccc5F)c5ccc([nH]5)c(-c5cc(S(=O)(=O)[O-])ccc5F)c5nc(c(-c6cc(S(=O)(=O)[O-])ccc6F)c6ccc3[nH]6)C=C5)C=C4)cc2)CCC[C@@H]1CCSc1cccc(Cl)c1
REMARK SMILES IDX 8 1 7 2 6 3 4 4 5 5 3 7 77 8 80 9 78 10 79 11 2 12 1 13
REMARK SMILES IDX 81 16 82 17 83 18 84 19 85 20 90 21 86 22 88 23 87 24 89 25
REMARK SMILES IDX 9 26 10 27 11 28 12 29 13 31 14 32 15 33 76 34 16 35 75 36
REMARK SMILES IDX 17 37 18 38 19 39 69 40 20 41 74 42 68 43 70 44 21 45 73 46
REMARK SMILES IDX 67 47 66 48 22 50 54 51 34 52 53 53 35 54 38 55 52 56 71 57
REMARK SMILES IDX 36 58 37 59 51 61 72 62 39 63 23 64 24 65 32 66 25 67 31 68
REMARK SMILES IDX 33 69 30 70 26 71 27 72 28 73 29 74 55 75 56 76 64 77 57 78
REMARK SMILES IDX 63 79 65 80 62 81 58 82 59 83 60 84 61 85 40 86 41 87 49 88
REMARK SMILES IDX 42 89 48 90 50 91 47 92 43 93 44 94 45 95 46 96
REMARK H PARENT 6 6 2 14 2 15 11 30 70 49 38 60
REMARK Flexibility Score: inf
ROOT
ATOM      1  C   UNL A   1      31.695  27.731  26.982  1.00  0.00     0.023 C 
ENDROOT
BRANCH   1   2
ATOM      2  C   UNL A   1      32.350  26.364  26.808  1.00  0.00     0.116 C 
BRANCH   2   3
ATOM      3  N   UNL A   1      31.390  25.311  26.548  1.00  0.00    -0.351 N 
ATOM      4  C   UNL A   1      31.509  24.014  26.152  1.00  0.00     0.281 C 
ATOM      5  O   UNL A   1      30.424  23.425  26.066  1.00  0.00    -0.268 OA
ATOM      6  H   UNL A   1      30.458  25.592  26.688  1.00  0.00     0.163 HD
BRANCH   4   7
ATOM      7  C   UNL A   1      32.878  23.322  25.783  1.00  0.00     0.178 C 
ATOM      8  C   UNL A   1      32.613  21.844  25.389  1.00  0.00     0.079 C 
ATOM      9  C   UNL A   1      33.600  23.828  24.493  1.00  0.00     0.061 C 
ATOM     10  C   UNL A   1      33.794  21.408  24.514  1.00  0.00     0.008 C 
ATOM     11  C   UNL A   1      34.565  22.678  24.160  1.00  0.00     0.011 C 
BRANCH   7  12
ATOM     12  N   UNL A   1      33.805  23.211  26.957  1.00  0.00    -0.336 N 
ATOM     13  C   UNL A   1      33.456  22.274  28.011  1.00  0.00     0.331 C 
ATOM     14  H   UNL A   1      34.719  22.938  26.598  1.00  0.00     0.346 HD
ATOM     15  H   UNL A   1      33.762  24.127  27.404  1.00  0.00     0.346 HD
ENDBRANCH   7  12
BRANCH   9  16
ATOM     16  C   UNL A   1      34.262  25.207  24.545  1.00  0.00     0.022 C 
BRANCH  16  17
ATOM     17  C   UNL A   1      33.690  26.258  23.575  1.00  0.00     0.075 C 
BRANCH  17  18
ATOM     18  S   UNL A   1      32.479  25.642  22.333  1.00  0.00    -0.126 SA
BRANCH  18  19
ATOM     19  C   UNL A   1      30.949  26.489  22.708  1.00  0.00     0.009 A 
ATOM     20  C   UNL A   1      29.904  25.914  23.434  1.00  0.00     0.015 A 
ATOM     21  C   UNL A   1      30.794  27.804  22.252  1.00  0.00     0.035 A 
ATOM     22  C   UNL A   1      28.798  26.670  23.828  1.00  0.00     0.003 A 
ATOM     23  C   UNL A   1      29.677  28.553  22.632  1.00  0.00     0.042 A 
ATOM     24  C   UNL A   1      28.695  28.001  23.445  1.00  0.00     0.020 A 
ATOM     25  Cl  UNL A   1      29.494  30.190  22.144  1.00  0.00    -0.084 Cl
ENDBRANCH  18  19
ENDBRANCH  17  18
ENDBRANCH  16  17
ENDBRANCH   9  16
ENDBRANCH   4   7
ENDBRANCH   2   3
ENDBRANCH   1   2
BRANCH   1  26
ATOM     26  C   UNL A   1      31.760  28.670  25.779  1.00  0.00     0.023 C 
BRANCH  26  27
ATOM     27  C   UNL A   1      32.912  29.670  25.758  1.00  0.00     0.116 C 
BRANCH  27  28
ATOM     28  N   UNL A   1      32.616  30.933  26.415  1.00  0.00    -0.352 N 
ATOM     29  C   UNL A   1      33.392  31.705  27.247  1.00  0.00     0.251 C 
ATOM     30  H   UNL A   1      31.717  31.293  26.236  1.00  0.00     0.163 HD
ATOM     31  O   UNL A   1      33.004  32.809  27.622  1.00  0.00    -0.269 OA
BRANCH  29  32
ATOM     32  C   UNL A   1      34.654  31.167  27.768  1.00  0.00     0.039 A 
ATOM     33  C   UNL A   1      35.705  32.061  27.990  1.00  0.00     0.014 A 
ATOM     34  C   UNL A   1      34.770  29.820  28.108  1.00  0.00     0.014 A 
ATOM     35  C   UNL A   1      36.849  31.623  28.649  1.00  0.00     0.010 A 
ATOM     36  C   UNL A   1      35.875  29.405  28.836  1.00  0.00     0.010 A 
ATOM     37  C   UNL A   1      36.916  30.304  29.121  1.00  0.00    -0.014 A 
BRANCH  37  38
ATOM     38  C   UNL A   1      38.076  29.824  29.906  1.00  0.00     0.031 A 
ATOM     39  C   UNL A   1      38.289  30.370  31.286  1.00  0.00     0.074 A 
ATOM     40  C   UNL A   1      38.966  28.992  29.332  1.00  0.00     0.049 A 
ATOM     41  N   UNL A   1      39.318  30.243  32.079  1.00  0.00    -0.248 NA
ATOM     42  C   UNL A   1      37.213  31.219  31.822  1.00  0.00     0.031 C 
ATOM     43  C   UNL A   1      38.858  28.438  27.979  1.00  0.00     0.029 A 
ATOM     44  N   UNL A   1      40.147  28.482  29.804  1.00  0.00    -0.354 N 
ATOM     45  C   UNL A   1      39.032  31.026  33.192  1.00  0.00     0.074 A 
ATOM     46  C   UNL A   1      37.758  31.665  32.941  1.00  0.00     0.031 C 
ATOM     47  C   UNL A   1      39.921  27.655  27.737  1.00  0.00     0.029 A 
ATOM     48  C   UNL A   1      40.809  27.690  28.894  1.00  0.00     0.049 A 
ATOM     49  H   UNL A   1      40.490  28.666  30.708  1.00  0.00     0.167 HD
ATOM     50  C   UNL A   1      39.762  31.178  34.324  1.00  0.00     0.034 A 
ATOM     51  C   UNL A   1      42.005  27.076  28.985  1.00  0.00     0.034 A 
ATOM     52  C   UNL A   1      41.015  30.500  34.545  1.00  0.00     0.049 A 
ATOM     53  C   UNL A   1      42.788  27.239  30.263  1.00  0.00     0.074 A 
ATOM     54  C   UNL A   1      41.832  30.529  35.660  1.00  0.00     0.029 A 
ATOM     55  N   UNL A   1      41.633  29.661  33.621  1.00  0.00    -0.354 N 
ATOM     56  N   UNL A   1      42.496  27.959  31.323  1.00  0.00    -0.248 NA
ATOM     57  C   UNL A   1      44.051  26.500  30.364  1.00  0.00     0.031 C 
ATOM     58  C   UNL A   1      42.964  29.752  35.393  1.00  0.00     0.029 A 
ATOM     59  C   UNL A   1      42.825  29.181  34.137  1.00  0.00     0.049 A 
ATOM     60  H   UNL A   1      41.275  29.442  32.731  1.00  0.00     0.167 HD
ATOM     61  C   UNL A   1      43.528  27.738  32.228  1.00  0.00     0.074 A 
ATOM     62  C   UNL A   1      44.438  26.804  31.593  1.00  0.00     0.031 C 
ATOM     63  C   UNL A   1      43.712  28.254  33.471  1.00  0.00     0.034 A 
BRANCH  50  64
ATOM     64  C   UNL A   1      39.230  32.132  35.367  1.00  0.00     0.023 A 
ATOM     65  C   UNL A   1      39.625  33.481  35.408  1.00  0.00     0.031 A 
ATOM     66  C   UNL A   1      38.366  31.673  36.377  1.00  0.00     0.131 A 
ATOM     67  C   UNL A   1      39.240  34.294  36.484  1.00  0.00     0.055 A 
ATOM     68  C   UNL A   1      37.912  32.513  37.397  1.00  0.00     0.041 A 
ATOM     69  F   UNL A   1      37.969  30.391  36.408  1.00  0.00    -0.206 F 
ATOM     70  C   UNL A   1      38.364  33.828  37.466  1.00  0.00     0.022 A 
BRANCH  67  71
ATOM     71  S   UNL A   1      40.029  35.918  36.667  1.00  0.00     0.124 S 
ATOM     72  O   UNL A   1      41.436  35.547  36.792  1.00  0.00    -0.237 OA
ATOM     73  O   UNL A   1      39.653  36.594  35.431  1.00  0.00    -0.237 OA
ATOM     74  O   UNL A   1      39.424  36.459  37.883  1.00  0.00    -0.744 OA
ENDBRANCH  67  71
ENDBRANCH  50  64
BRANCH  51  75
ATOM     75  C   UNL A   1      42.532  26.266  27.850  1.00  0.00     0.023 A 
ATOM     76  C   UNL A   1      42.269  24.890  27.763  1.00  0.00     0.031 A 
ATOM     77  C   UNL A   1      43.321  26.850  26.843  1.00  0.00     0.131 A 
ATOM     78  C   UNL A   1      42.820  24.135  26.714  1.00  0.00     0.055 A 
ATOM     79  C   UNL A   1      43.829  26.104  25.777  1.00  0.00     0.041 A 
ATOM     80  F   UNL A   1      43.595  28.164  26.871  1.00  0.00    -0.206 F 
ATOM     81  C   UNL A   1      43.589  24.735  25.715  1.00  0.00     0.022 A 
BRANCH  78  82
ATOM     82  S   UNL A   1      42.573  22.338  26.714  1.00  0.00     0.124 S 
ATOM     83  O   UNL A   1      41.416  22.195  25.838  1.00  0.00    -0.237 OA
ATOM     84  O   UNL A   1      43.844  21.858  26.182  1.00  0.00    -0.237 OA
ATOM     85  O   UNL A   1      42.333  22.027  28.122  1.00  0.00    -0.744 OA
ENDBRANCH  78  82
ENDBRANCH  51  75
BRANCH  63  86
ATOM     86  C   UNL A   1      44.924  27.775  34.226  1.00  0.00     0.023 A 
ATOM     87  C   UNL A   1      46.153  28.452  34.151  1.00  0.00     0.031 A 
ATOM     88  C   UNL A   1      44.847  26.620  35.023  1.00  0.00     0.131 A 
ATOM     89  C   UNL A   1      47.273  27.935  34.817  1.00  0.00     0.055 A 
ATOM     90  C   UNL A   1      45.949  26.144  35.731  1.00  0.00     0.041 A 
ATOM     91  F   UNL A   1      43.694  25.938  35.127  1.00  0.00    -0.206 F 
ATOM     92  C   UNL A   1      47.175  26.794  35.619  1.00  0.00     0.022 A 
BRANCH  89  93
ATOM     93  S   UNL A   1      48.883  28.722  34.547  1.00  0.00     0.124 S 
ATOM     94  O   UNL A   1      49.010  28.663  33.095  1.00  0.00    -0.237 OA
ATOM     95  O   UNL A   1      48.680  30.052  35.115  1.00  0.00    -0.237 OA
ATOM     96  O   UNL A   1      49.811  27.869  35.287  1.00  0.00    -0.744 OA
ENDBRANCH  89  93
ENDBRANCH  63  86
ENDBRANCH  37  38
ENDBRANCH  29  32
ENDBRANCH  27  28
ENDBRANCH  26  27
ENDBRANCH   1  26
TORSDOF 19
ENDMDL
