MODEL 1
REMARK VINA RESULT:     -12.8      0.000      0.000
REMARK SMILES CC(=O)Nc1cccc(-c2cc(F)ccc2C(=O)NCCCCNC(=O)c2ccc(-c3c4nc(c(-c5cc(S(=O)(=O)[O-])ccc5F)c5ccc([nH]5)c(-c5cc(S(=O)(=O)[O-])ccc5F)c5nc(c(-c6cc(S(=O)(=O)[O-])ccc6F)c6ccc3[nH]6)C=C5)C=C4)cc2)c1
REMARK SMILES IDX 22 1 21 2 20 3 19 4 17 5 18 6 16 8 10 9 11 10 12 11 15 12
REMARK SMILES IDX 13 13 14 14 9 15 5 16 6 17 90 18 7 19 8 20 4 21 1 22 2 23
REMARK SMILES IDX 3 24 23 26 24 27 25 28 26 30 27 31 28 32 89 33 29 34 88 35
REMARK SMILES IDX 30 36 31 37 32 38 82 39 33 40 87 41 81 42 83 43 34 44 86 45
REMARK SMILES IDX 80 46 79 47 35 49 67 50 47 51 66 52 48 53 51 54 65 55 84 56
REMARK SMILES IDX 49 57 50 58 64 60 85 61 52 62 36 63 37 64 45 65 38 66 44 67
REMARK SMILES IDX 46 68 43 69 39 70 40 71 41 72 42 73 68 74 69 75 77 76 70 77
REMARK SMILES IDX 76 78 78 79 75 80 71 81 72 82 73 83 74 84 53 85 54 86 62 87
REMARK SMILES IDX 55 88 61 89 63 90 60 91 56 92 57 93 58 94 59 95
REMARK H PARENT 19 7 4 25 24 29 83 48 51 59
REMARK Flexibility Score: inf
ROOT
ATOM      1  C   UNL A   1      32.024  31.053  26.642  1.00  0.00     0.023 C 
ENDROOT
BRANCH   1   2
ATOM      2  C   UNL A   1      32.467  29.671  26.163  1.00  0.00     0.023 C 
BRANCH   2   3
ATOM      3  C   UNL A   1      32.412  28.521  27.155  1.00  0.00     0.116 C 
BRANCH   3   4
ATOM      4  N   UNL A   1      31.282  27.634  27.087  1.00  0.00    -0.352 N 
ATOM      5  C   UNL A   1      30.878  26.767  26.098  1.00  0.00     0.251 C 
ATOM      6  O   UNL A   1      29.953  26.005  26.401  1.00  0.00    -0.269 OA
ATOM      7  H   UNL A   1      30.701  27.651  27.880  1.00  0.00     0.163 HD
BRANCH   5   8
ATOM      8  C   UNL A   1      31.374  26.710  24.670  1.00  0.00     0.047 A 
ATOM      9  C   UNL A   1      30.877  27.329  23.492  1.00  0.00    -0.003 A 
ATOM     10  C   UNL A   1      31.604  27.158  22.283  1.00  0.00     0.048 A 
ATOM     11  C   UNL A   1      32.777  26.416  22.226  1.00  0.00     0.123 A 
ATOM     12  C   UNL A   1      32.584  25.966  24.565  1.00  0.00     0.017 A 
ATOM     13  F   UNL A   1      33.426  26.290  21.062  1.00  0.00    -0.207 F 
ATOM     14  C   UNL A   1      33.277  25.816  23.361  1.00  0.00     0.040 A 
BRANCH   9  15
ATOM     15  C   UNL A   1      29.657  28.148  23.371  1.00  0.00    -0.015 A 
ATOM     16  C   UNL A   1      28.524  30.304  23.332  1.00  0.00     0.041 A 
ATOM     17  C   UNL A   1      27.287  29.646  23.387  1.00  0.00     0.026 A 
ATOM     18  C   UNL A   1      29.703  29.548  23.286  1.00  0.00     0.034 A 
ATOM     19  C   UNL A   1      27.220  28.255  23.398  1.00  0.00     0.003 A 
ATOM     20  C   UNL A   1      28.396  27.514  23.387  1.00  0.00     0.009 A 
BRANCH  16  21
ATOM     21  N   UNL A   1      28.492  31.695  23.521  1.00  0.00    -0.326 N 
ATOM     22  C   UNL A   1      28.059  32.545  21.225  1.00  0.00     0.114 C 
ATOM     23  C   UNL A   1      28.529  32.735  22.640  1.00  0.00     0.221 C 
ATOM     24  O   UNL A   1      28.907  33.838  23.036  1.00  0.00    -0.275 OA
ATOM     25  H   UNL A   1      28.433  31.970  24.464  1.00  0.00     0.169 HD
ENDBRANCH  16  21
ENDBRANCH   9  15
ENDBRANCH   5   8
ENDBRANCH   3   4
ENDBRANCH   2   3
ENDBRANCH   1   2
BRANCH   1  26
ATOM     26  C   UNL A   1      33.038  31.933  27.372  1.00  0.00     0.116 C 
BRANCH  26  27
ATOM     27  N   UNL A   1      32.625  33.306  27.613  1.00  0.00    -0.352 N 
ATOM     28  C   UNL A   1      33.219  34.269  28.409  1.00  0.00     0.251 C 
ATOM     29  H   UNL A   1      31.808  33.590  27.143  1.00  0.00     0.163 HD
ATOM     30  O   UNL A   1      32.787  35.411  28.395  1.00  0.00    -0.269 OA
BRANCH  28  31
ATOM     31  C   UNL A   1      34.339  33.893  29.308  1.00  0.00     0.039 A 
ATOM     32  C   UNL A   1      34.076  33.048  30.391  1.00  0.00     0.014 A 
ATOM     33  C   UNL A   1      35.644  34.315  29.053  1.00  0.00     0.014 A 
ATOM     34  C   UNL A   1      35.138  32.542  31.149  1.00  0.00     0.010 A 
ATOM     35  C   UNL A   1      36.704  33.740  29.750  1.00  0.00     0.010 A 
ATOM     36  C   UNL A   1      36.466  32.839  30.801  1.00  0.00    -0.014 A 
BRANCH  36  37
ATOM     37  C   UNL A   1      37.612  32.219  31.523  1.00  0.00     0.031 A 
ATOM     38  C   UNL A   1      38.381  31.089  30.891  1.00  0.00     0.074 A 
ATOM     39  C   UNL A   1      37.922  32.631  32.769  1.00  0.00     0.049 A 
ATOM     40  N   UNL A   1      39.379  30.392  31.371  1.00  0.00    -0.248 NA
ATOM     41  C   UNL A   1      37.941  30.666  29.554  1.00  0.00     0.031 C 
ATOM     42  C   UNL A   1      37.219  33.678  33.513  1.00  0.00     0.029 A 
ATOM     43  N   UNL A   1      38.910  32.223  33.631  1.00  0.00    -0.354 N 
ATOM     44  C   UNL A   1      39.679  29.442  30.399  1.00  0.00     0.074 A 
ATOM     45  C   UNL A   1      38.699  29.602  29.347  1.00  0.00     0.031 C 
ATOM     46  C   UNL A   1      37.824  33.859  34.699  1.00  0.00     0.029 A 
ATOM     47  C   UNL A   1      38.934  32.920  34.819  1.00  0.00     0.049 A 
ATOM     48  H   UNL A   1      39.542  31.498  33.421  1.00  0.00     0.167 HD
ATOM     49  C   UNL A   1      40.696  28.542  30.369  1.00  0.00     0.034 A 
ATOM     50  C   UNL A   1      39.761  32.818  35.878  1.00  0.00     0.034 A 
ATOM     51  C   UNL A   1      41.663  28.394  31.431  1.00  0.00     0.049 A 
ATOM     52  C   UNL A   1      40.877  31.805  35.832  1.00  0.00     0.074 A 
ATOM     53  C   UNL A   1      42.744  27.533  31.505  1.00  0.00     0.029 A 
ATOM     54  N   UNL A   1      41.663  29.128  32.612  1.00  0.00    -0.354 N 
ATOM     55  N   UNL A   1      41.177  30.945  34.885  1.00  0.00    -0.248 NA
ATOM     56  C   UNL A   1      41.779  31.766  36.989  1.00  0.00     0.031 C 
ATOM     57  C   UNL A   1      43.362  27.708  32.750  1.00  0.00     0.029 A 
ATOM     58  C   UNL A   1      42.714  28.730  33.424  1.00  0.00     0.049 A 
ATOM     59  H   UNL A   1      41.010  29.829  32.838  1.00  0.00     0.167 HD
ATOM     60  C   UNL A   1      42.328  30.292  35.318  1.00  0.00     0.074 A 
ATOM     61  C   UNL A   1      42.673  30.869  36.602  1.00  0.00     0.031 C 
ATOM     62  C   UNL A   1      43.041  29.310  34.706  1.00  0.00     0.034 A 
BRANCH  49  63
ATOM     63  C   UNL A   1      40.779  27.646  29.152  1.00  0.00     0.023 A 
ATOM     64  C   UNL A   1      41.736  27.867  28.144  1.00  0.00     0.031 A 
ATOM     65  C   UNL A   1      39.850  26.611  28.955  1.00  0.00     0.131 A 
ATOM     66  C   UNL A   1      41.673  27.145  26.943  1.00  0.00     0.055 A 
ATOM     67  C   UNL A   1      39.854  25.828  27.796  1.00  0.00     0.041 A 
ATOM     68  F   UNL A   1      38.901  26.357  29.869  1.00  0.00    -0.206 F 
ATOM     69  C   UNL A   1      40.754  26.108  26.772  1.00  0.00     0.022 A 
BRANCH  66  70
ATOM     70  S   UNL A   1      42.683  27.706  25.544  1.00  0.00     0.124 S 
ATOM     71  O   UNL A   1      41.931  28.872  25.087  1.00  0.00    -0.237 OA
ATOM     72  O   UNL A   1      43.969  27.983  26.174  1.00  0.00    -0.237 OA
ATOM     73  O   UNL A   1      42.668  26.565  24.631  1.00  0.00    -0.744 OA
ENDBRANCH  66  70
ENDBRANCH  49  63
BRANCH  50  74
ATOM     74  C   UNL A   1      39.598  33.715  37.059  1.00  0.00     0.023 A 
ATOM     75  C   UNL A   1      38.965  33.258  38.226  1.00  0.00     0.031 A 
ATOM     76  C   UNL A   1      40.039  35.050  37.029  1.00  0.00     0.131 A 
ATOM     77  C   UNL A   1      38.747  34.138  39.298  1.00  0.00     0.055 A 
ATOM     78  C   UNL A   1      39.863  35.909  38.116  1.00  0.00     0.041 A 
ATOM     79  F   UNL A   1      40.659  35.535  35.942  1.00  0.00    -0.206 F 
ATOM     80  C   UNL A   1      39.202  35.457  39.255  1.00  0.00     0.022 A 
BRANCH  77  81
ATOM     81  S   UNL A   1      37.791  33.551  40.724  1.00  0.00     0.124 S 
ATOM     82  O   UNL A   1      37.614  34.780  41.489  1.00  0.00    -0.237 OA
ATOM     83  O   UNL A   1      36.595  33.013  40.085  1.00  0.00    -0.237 OA
ATOM     84  O   UNL A   1      38.670  32.556  41.334  1.00  0.00    -0.744 OA
ENDBRANCH  77  81
ENDBRANCH  50  74
BRANCH  62  85
ATOM     85  C   UNL A   1      44.300  28.850  35.402  1.00  0.00     0.023 A 
ATOM     86  C   UNL A   1      44.270  27.921  36.457  1.00  0.00     0.031 A 
ATOM     87  C   UNL A   1      45.547  29.381  35.024  1.00  0.00     0.131 A 
ATOM     88  C   UNL A   1      45.451  27.606  37.145  1.00  0.00     0.055 A 
ATOM     89  C   UNL A   1      46.728  29.014  35.669  1.00  0.00     0.041 A 
ATOM     90  F   UNL A   1      45.635  30.273  34.025  1.00  0.00    -0.206 F 
ATOM     91  C   UNL A   1      46.683  28.135  36.747  1.00  0.00     0.022 A 
BRANCH  88  92
ATOM     92  S   UNL A   1      45.342  26.589  38.642  1.00  0.00     0.124 S 
ATOM     93  O   UNL A   1      46.222  27.304  39.561  1.00  0.00    -0.237 OA
ATOM     94  O   UNL A   1      43.918  26.642  38.952  1.00  0.00    -0.237 OA
ATOM     95  O   UNL A   1      45.833  25.282  38.206  1.00  0.00    -0.744 OA
ENDBRANCH  88  92
ENDBRANCH  62  85
ENDBRANCH  36  37
ENDBRANCH  28  31
ENDBRANCH  26  27
ENDBRANCH   1  26
TORSDOF 16
ENDMDL
MODEL 2
REMARK VINA RESULT:     -12.8      5.688      8.369
REMARK SMILES CC(=O)Nc1cccc(-c2cc(F)ccc2C(=O)NCCCCNC(=O)c2ccc(-c3c4nc(c(-c5cc(S(=O)(=O)[O-])ccc5F)c5ccc([nH]5)c(-c5cc(S(=O)(=O)[O-])ccc5F)c5nc(c(-c6cc(S(=O)(=O)[O-])ccc6F)c6ccc3[nH]6)C=C5)C=C4)cc2)c1
REMARK SMILES IDX 22 1 21 2 20 3 19 4 17 5 18 6 16 8 10 9 11 10 12 11 15 12
REMARK SMILES IDX 13 13 14 14 9 15 5 16 6 17 90 18 7 19 8 20 4 21 1 22 2 23
REMARK SMILES IDX 3 24 23 26 24 27 25 28 26 30 27 31 28 32 89 33 29 34 88 35
REMARK SMILES IDX 30 36 31 37 32 38 82 39 33 40 87 41 81 42 83 43 34 44 86 45
REMARK SMILES IDX 80 46 79 47 35 49 67 50 47 51 66 52 48 53 51 54 65 55 84 56
REMARK SMILES IDX 49 57 50 58 64 60 85 61 52 62 36 63 37 64 45 65 38 66 44 67
REMARK SMILES IDX 46 68 43 69 39 70 40 71 41 72 42 73 68 74 69 75 77 76 70 77
REMARK SMILES IDX 76 78 78 79 75 80 71 81 72 82 73 83 74 84 53 85 54 86 62 87
REMARK SMILES IDX 55 88 61 89 63 90 60 91 56 92 57 93 58 94 59 95
REMARK H PARENT 19 7 4 25 24 29 83 48 51 59
REMARK Flexibility Score: inf
ROOT
ATOM      1  C   UNL A   1      36.709  22.340  24.086  1.00  0.00     0.023 C 
ENDROOT
BRANCH   1   2
ATOM      2  C   UNL A   1      35.235  22.690  23.886  1.00  0.00     0.023 C 
BRANCH   2   3
ATOM      3  C   UNL A   1      34.864  24.158  23.741  1.00  0.00     0.116 C 
BRANCH   3   4
ATOM      4  N   UNL A   1      33.793  24.489  22.839  1.00  0.00    -0.352 N 
ATOM      5  C   UNL A   1      32.461  24.738  23.079  1.00  0.00     0.251 C 
ATOM      6  O   UNL A   1      31.817  25.168  22.115  1.00  0.00    -0.269 OA
ATOM      7  H   UNL A   1      34.058  24.547  21.893  1.00  0.00     0.163 HD
BRANCH   5   8
ATOM      8  C   UNL A   1      31.691  24.458  24.350  1.00  0.00     0.047 A 
ATOM      9  C   UNL A   1      31.061  25.344  25.264  1.00  0.00    -0.003 A 
ATOM     10  C   UNL A   1      30.331  24.784  26.348  1.00  0.00     0.048 A 
ATOM     11  C   UNL A   1      30.215  23.412  26.530  1.00  0.00     0.123 A 
ATOM     12  C   UNL A   1      31.539  23.059  24.573  1.00  0.00     0.017 A 
ATOM     13  F   UNL A   1      29.512  22.938  27.566  1.00  0.00    -0.207 F 
ATOM     14  C   UNL A   1      30.814  22.540  25.648  1.00  0.00     0.040 A 
BRANCH   9  15
ATOM     15  C   UNL A   1      31.078  26.817  25.223  1.00  0.00    -0.015 A 
ATOM     16  C   UNL A   1      30.679  28.929  24.078  1.00  0.00     0.041 A 
ATOM     17  C   UNL A   1      31.365  29.602  25.098  1.00  0.00     0.026 A 
ATOM     18  C   UNL A   1      30.507  27.541  24.165  1.00  0.00     0.034 A 
ATOM     19  C   UNL A   1      31.875  28.909  26.192  1.00  0.00     0.003 A 
ATOM     20  C   UNL A   1      31.729  27.528  26.254  1.00  0.00     0.009 A 
BRANCH  16  21
ATOM     21  N   UNL A   1      30.378  29.685  22.933  1.00  0.00    -0.326 N 
ATOM     22  C   UNL A   1      27.899  29.862  23.037  1.00  0.00     0.114 C 
ATOM     23  C   UNL A   1      29.201  29.932  22.290  1.00  0.00     0.221 C 
ATOM     24  O   UNL A   1      29.229  30.259  21.103  1.00  0.00    -0.275 OA
ATOM     25  H   UNL A   1      31.160  30.114  22.518  1.00  0.00     0.169 HD
ENDBRANCH  16  21
ENDBRANCH   9  15
ENDBRANCH   5   8
ENDBRANCH   3   4
ENDBRANCH   2   3
ENDBRANCH   1   2
BRANCH   1  26
ATOM     26  C   UNL A   1      37.213  22.083  25.506  1.00  0.00     0.116 C 
BRANCH  26  27
ATOM     27  N   UNL A   1      38.377  21.219  25.615  1.00  0.00    -0.352 N 
ATOM     28  C   UNL A   1      39.571  21.444  26.277  1.00  0.00     0.251 C 
ATOM     29  H   UNL A   1      38.306  20.352  25.153  1.00  0.00     0.163 HD
ATOM     30  O   UNL A   1      40.394  20.546  26.354  1.00  0.00    -0.269 OA
BRANCH  28  31
ATOM     31  C   UNL A   1      39.860  22.787  26.840  1.00  0.00     0.039 A 
ATOM     32  C   UNL A   1      40.775  22.890  27.893  1.00  0.00     0.014 A 
ATOM     33  C   UNL A   1      39.288  23.937  26.297  1.00  0.00     0.014 A 
ATOM     34  C   UNL A   1      41.195  24.154  28.325  1.00  0.00     0.010 A 
ATOM     35  C   UNL A   1      39.774  25.190  26.666  1.00  0.00     0.010 A 
ATOM     36  C   UNL A   1      40.740  25.314  27.677  1.00  0.00    -0.014 A 
BRANCH  36  37
ATOM     37  C   UNL A   1      41.262  26.660  28.046  1.00  0.00     0.031 A 
ATOM     38  C   UNL A   1      42.686  27.030  27.730  1.00  0.00     0.074 A 
ATOM     39  C   UNL A   1      40.474  27.525  28.716  1.00  0.00     0.049 A 
ATOM     40  N   UNL A   1      43.339  28.131  28.003  1.00  0.00    -0.248 NA
ATOM     41  C   UNL A   1      43.491  26.009  27.047  1.00  0.00     0.031 C 
ATOM     42  C   UNL A   1      39.093  27.265  29.131  1.00  0.00     0.029 A 
ATOM     43  N   UNL A   1      40.717  28.799  29.167  1.00  0.00    -0.354 N 
ATOM     44  C   UNL A   1      44.634  27.929  27.534  1.00  0.00     0.074 A 
ATOM     45  C   UNL A   1      44.689  26.570  27.041  1.00  0.00     0.031 C 
ATOM     46  C   UNL A   1      38.599  28.359  29.733  1.00  0.00     0.029 A 
ATOM     47  C   UNL A   1      39.634  29.386  29.784  1.00  0.00     0.049 A 
ATOM     48  H   UNL A   1      41.585  29.251  29.061  1.00  0.00     0.167 HD
ATOM     49  C   UNL A   1      45.672  28.804  27.487  1.00  0.00     0.034 A 
ATOM     50  C   UNL A   1      39.491  30.614  30.320  1.00  0.00     0.034 A 
ATOM     51  C   UNL A   1      45.600  30.156  27.988  1.00  0.00     0.049 A 
ATOM     52  C   UNL A   1      40.658  31.569  30.270  1.00  0.00     0.074 A 
ATOM     53  C   UNL A   1      46.576  31.137  27.979  1.00  0.00     0.029 A 
ATOM     54  N   UNL A   1      44.482  30.719  28.593  1.00  0.00    -0.354 N 
ATOM     55  N   UNL A   1      41.863  31.378  29.781  1.00  0.00    -0.248 NA
ATOM     56  C   UNL A   1      40.437  32.909  30.824  1.00  0.00     0.031 C 
ATOM     57  C   UNL A   1      46.068  32.271  28.626  1.00  0.00     0.029 A 
ATOM     58  C   UNL A   1      44.749  32.026  28.974  1.00  0.00     0.049 A 
ATOM     59  H   UNL A   1      43.624  30.256  28.732  1.00  0.00     0.167 HD
ATOM     60  C   UNL A   1      42.528  32.592  29.933  1.00  0.00     0.074 A 
ATOM     61  C   UNL A   1      41.586  33.507  30.546  1.00  0.00     0.031 C 
ATOM     62  C   UNL A   1      43.801  32.924  29.590  1.00  0.00     0.034 A 
BRANCH  49  63
ATOM     63  C   UNL A   1      46.967  28.295  26.891  1.00  0.00     0.023 A 
ATOM     64  C   UNL A   1      47.196  28.324  25.503  1.00  0.00     0.031 A 
ATOM     65  C   UNL A   1      47.951  27.706  27.703  1.00  0.00     0.131 A 
ATOM     66  C   UNL A   1      48.317  27.679  24.960  1.00  0.00     0.055 A 
ATOM     67  C   UNL A   1      49.116  27.151  27.163  1.00  0.00     0.041 A 
ATOM     68  F   UNL A   1      47.790  27.632  29.033  1.00  0.00    -0.206 F 
ATOM     69  C   UNL A   1      49.292  27.114  25.783  1.00  0.00     0.022 A 
BRANCH  66  70
ATOM     70  S   UNL A   1      48.382  27.427  23.165  1.00  0.00     0.124 S 
ATOM     71  O   UNL A   1      47.194  28.152  22.722  1.00  0.00    -0.237 OA
ATOM     72  O   UNL A   1      49.664  28.024  22.808  1.00  0.00    -0.237 OA
ATOM     73  O   UNL A   1      48.308  25.975  23.019  1.00  0.00    -0.744 OA
ENDBRANCH  66  70
ENDBRANCH  49  63
BRANCH  50  74
ATOM     74  C   UNL A   1      38.193  31.036  30.921  1.00  0.00     0.023 A 
ATOM     75  C   UNL A   1      37.226  31.700  30.149  1.00  0.00     0.031 A 
ATOM     76  C   UNL A   1      37.910  30.815  32.281  1.00  0.00     0.131 A 
ATOM     77  C   UNL A   1      36.044  32.163  30.748  1.00  0.00     0.055 A 
ATOM     78  C   UNL A   1      36.712  31.233  32.862  1.00  0.00     0.041 A 
ATOM     79  F   UNL A   1      38.795  30.175  33.062  1.00  0.00    -0.206 F 
ATOM     80  C   UNL A   1      35.775  31.923  32.097  1.00  0.00     0.022 A 
BRANCH  77  81
ATOM     81  S   UNL A   1      34.891  33.149  29.752  1.00  0.00     0.124 S 
ATOM     82  O   UNL A   1      34.318  32.137  28.873  1.00  0.00    -0.237 OA
ATOM     83  O   UNL A   1      34.001  33.694  30.772  1.00  0.00    -0.237 OA
ATOM     84  O   UNL A   1      35.759  34.126  29.099  1.00  0.00    -0.744 OA
ENDBRANCH  77  81
ENDBRANCH  50  74
BRANCH  62  85
ATOM     85  C   UNL A   1      44.214  34.358  29.820  1.00  0.00     0.023 A 
ATOM     86  C   UNL A   1      43.964  35.367  28.874  1.00  0.00     0.031 A 
ATOM     87  C   UNL A   1      44.905  34.711  30.994  1.00  0.00     0.131 A 
ATOM     88  C   UNL A   1      44.462  36.661  29.082  1.00  0.00     0.055 A 
ATOM     89  C   UNL A   1      45.342  36.015  31.226  1.00  0.00     0.041 A 
ATOM     90  F   UNL A   1      45.174  33.788  31.931  1.00  0.00    -0.206 F 
ATOM     91  C   UNL A   1      45.136  36.995  30.260  1.00  0.00     0.022 A 
BRANCH  88  92
ATOM     92  S   UNL A   1      44.324  37.874  27.741  1.00  0.00     0.124 S 
ATOM     93  O   UNL A   1      43.329  37.254  26.871  1.00  0.00    -0.237 OA
ATOM     94  O   UNL A   1      43.891  39.074  28.450  1.00  0.00    -0.237 OA
ATOM     95  O   UNL A   1      45.677  37.934  27.191  1.00  0.00    -0.744 OA
ENDBRANCH  88  92
ENDBRANCH  62  85
ENDBRANCH  36  37
ENDBRANCH  28  31
ENDBRANCH  26  27
ENDBRANCH   1  26
TORSDOF 16
ENDMDL
MODEL 3
REMARK VINA RESULT:     -12.7      0.781      7.727
REMARK SMILES CC(=O)Nc1cccc(-c2cc(F)ccc2C(=O)NCCCCNC(=O)c2ccc(-c3c4nc(c(-c5cc(S(=O)(=O)[O-])ccc5F)c5ccc([nH]5)c(-c5cc(S(=O)(=O)[O-])ccc5F)c5nc(c(-c6cc(S(=O)(=O)[O-])ccc6F)c6ccc3[nH]6)C=C5)C=C4)cc2)c1
REMARK SMILES IDX 22 1 21 2 20 3 19 4 17 5 18 6 16 8 10 9 11 10 12 11 15 12
REMARK SMILES IDX 13 13 14 14 9 15 5 16 6 17 90 18 7 19 8 20 4 21 1 22 2 23
REMARK SMILES IDX 3 24 23 26 24 27 25 28 26 30 27 31 28 32 89 33 29 34 88 35
REMARK SMILES IDX 30 36 31 37 32 38 82 39 33 40 87 41 81 42 83 43 34 44 86 45
REMARK SMILES IDX 80 46 79 47 35 49 67 50 47 51 66 52 48 53 51 54 65 55 84 56
REMARK SMILES IDX 49 57 50 58 64 60 85 61 52 62 36 63 37 64 45 65 38 66 44 67
REMARK SMILES IDX 46 68 43 69 39 70 40 71 41 72 42 73 68 74 69 75 77 76 70 77
REMARK SMILES IDX 76 78 78 79 75 80 71 81 72 82 73 83 74 84 53 85 54 86 62 87
REMARK SMILES IDX 55 88 61 89 63 90 60 91 56 92 57 93 58 94 59 95
REMARK H PARENT 19 7 4 25 24 29 83 48 51 59
REMARK Flexibility Score: inf
ROOT
ATOM      1  C   UNL A   1      31.802  31.405  26.842  1.00  0.00     0.023 C 
ENDROOT
BRANCH   1   2
ATOM      2  C   UNL A   1      32.144  29.993  26.368  1.00  0.00     0.023 C 
BRANCH   2   3
ATOM      3  C   UNL A   1      32.153  28.878  27.401  1.00  0.00     0.116 C 
BRANCH   3   4
ATOM      4  N   UNL A   1      31.178  27.830  27.260  1.00  0.00    -0.352 N 
ATOM      5  C   UNL A   1      30.989  26.906  26.258  1.00  0.00     0.251 C 
ATOM      6  O   UNL A   1      30.168  26.015  26.502  1.00  0.00    -0.269 OA
ATOM      7  H   UNL A   1      30.538  27.763  28.005  1.00  0.00     0.163 HD
BRANCH   5   8
ATOM      8  C   UNL A   1      31.602  26.917  24.875  1.00  0.00     0.047 A 
ATOM      9  C   UNL A   1      31.154  27.520  23.669  1.00  0.00    -0.003 A 
ATOM     10  C   UNL A   1      31.988  27.429  22.522  1.00  0.00     0.048 A 
ATOM     11  C   UNL A   1      33.215  26.779  22.550  1.00  0.00     0.123 A 
ATOM     12  C   UNL A   1      32.869  26.268  24.859  1.00  0.00     0.017 A 
ATOM     13  F   UNL A   1      33.963  26.726  21.441  1.00  0.00    -0.207 F 
ATOM     14  C   UNL A   1      33.667  26.196  23.714  1.00  0.00     0.040 A 
BRANCH   9  15
ATOM     15  C   UNL A   1      29.889  28.246  23.461  1.00  0.00    -0.015 A 
ATOM     16  C   UNL A   1      28.608  30.313  23.317  1.00  0.00     0.041 A 
ATOM     17  C   UNL A   1      27.421  29.568  23.308  1.00  0.00     0.026 A 
ATOM     18  C   UNL A   1      29.839  29.645  23.356  1.00  0.00     0.034 A 
ATOM     19  C   UNL A   1      27.453  28.176  23.337  1.00  0.00     0.003 A 
ATOM     20  C   UNL A   1      28.678  27.523  23.410  1.00  0.00     0.009 A 
BRANCH  16  21
ATOM     21  N   UNL A   1      28.465  31.701  23.482  1.00  0.00    -0.326 N 
ATOM     22  C   UNL A   1      28.117  32.490  21.149  1.00  0.00     0.114 C 
ATOM     23  C   UNL A   1      28.482  32.730  22.588  1.00  0.00     0.221 C 
ATOM     24  O   UNL A   1      28.755  33.862  22.988  1.00  0.00    -0.275 OA
ATOM     25  H   UNL A   1      28.327  31.982  24.415  1.00  0.00     0.169 HD
ENDBRANCH  16  21
ENDBRANCH   9  15
ENDBRANCH   5   8
ENDBRANCH   3   4
ENDBRANCH   2   3
ENDBRANCH   1   2
BRANCH   1  26
ATOM     26  C   UNL A   1      32.930  32.293  27.366  1.00  0.00     0.116 C 
BRANCH  26  27
ATOM     27  N   UNL A   1      32.547  33.644  27.744  1.00  0.00    -0.352 N 
ATOM     28  C   UNL A   1      33.207  34.540  28.564  1.00  0.00     0.251 C 
ATOM     29  H   UNL A   1      31.698  33.965  27.361  1.00  0.00     0.163 HD
ATOM     30  O   UNL A   1      32.783  35.681  28.672  1.00  0.00    -0.269 OA
BRANCH  28  31
ATOM     31  C   UNL A   1      34.389  34.095  29.344  1.00  0.00     0.039 A 
ATOM     32  C   UNL A   1      34.195  33.215  30.414  1.00  0.00     0.014 A 
ATOM     33  C   UNL A   1      35.679  34.485  28.986  1.00  0.00     0.014 A 
ATOM     34  C   UNL A   1      35.302  32.646  31.053  1.00  0.00     0.010 A 
ATOM     35  C   UNL A   1      36.777  33.849  29.562  1.00  0.00     0.010 A 
ATOM     36  C   UNL A   1      36.603  32.915  30.596  1.00  0.00    -0.014 A 
BRANCH  36  37
ATOM     37  C   UNL A   1      37.787  32.230  31.187  1.00  0.00     0.031 A 
ATOM     38  C   UNL A   1      38.369  32.716  32.488  1.00  0.00     0.074 A 
ATOM     39  C   UNL A   1      38.374  31.212  30.525  1.00  0.00     0.049 A 
ATOM     40  N   UNL A   1      39.416  32.284  33.143  1.00  0.00    -0.248 NA
ATOM     41  C   UNL A   1      37.701  33.865  33.114  1.00  0.00     0.031 C 
ATOM     42  C   UNL A   1      37.940  30.684  29.229  1.00  0.00     0.029 A 
ATOM     43  N   UNL A   1      39.460  30.436  30.848  1.00  0.00    -0.354 N 
ATOM     44  C   UNL A   1      39.538  33.115  34.253  1.00  0.00     0.074 A 
ATOM     45  C   UNL A   1      38.509  34.125  34.128  1.00  0.00     0.031 C 
ATOM     46  C   UNL A   1      38.723  29.646  28.892  1.00  0.00     0.029 A 
ATOM     47  C   UNL A   1      39.736  29.454  29.924  1.00  0.00     0.049 A 
ATOM     48  H   UNL A   1      39.993  30.570  31.665  1.00  0.00     0.167 HD
ATOM     49  C   UNL A   1      40.403  33.027  35.295  1.00  0.00     0.034 A 
ATOM     50  C   UNL A   1      40.692  28.504  29.914  1.00  0.00     0.034 A 
ATOM     51  C   UNL A   1      41.427  32.014  35.401  1.00  0.00     0.049 A 
ATOM     52  C   UNL A   1      41.652  28.428  31.074  1.00  0.00     0.074 A 
ATOM     53  C   UNL A   1      42.347  31.813  36.415  1.00  0.00     0.029 A 
ATOM     54  N   UNL A   1      41.667  31.028  34.450  1.00  0.00    -0.354 N 
ATOM     55  N   UNL A   1      41.725  29.194  32.140  1.00  0.00    -0.248 NA
ATOM     56  C   UNL A   1      42.643  27.347  31.040  1.00  0.00     0.031 C 
ATOM     57  C   UNL A   1      43.176  30.744  36.052  1.00  0.00     0.029 A 
ATOM     58  C   UNL A   1      42.728  30.228  34.847  1.00  0.00     0.049 A 
ATOM     59  H   UNL A   1      41.157  30.915  33.616  1.00  0.00     0.167 HD
ATOM     60  C   UNL A   1      42.745  28.657  32.921  1.00  0.00     0.074 A 
ATOM     61  C   UNL A   1      43.246  27.499  32.209  1.00  0.00     0.031 C 
ATOM     62  C   UNL A   1      43.220  29.079  34.123  1.00  0.00     0.034 A 
BRANCH  49  63
ATOM     63  C   UNL A   1      40.276  34.076  36.379  1.00  0.00     0.023 A 
ATOM     64  C   UNL A   1      39.838  33.742  37.674  1.00  0.00     0.031 A 
ATOM     65  C   UNL A   1      40.518  35.433  36.101  1.00  0.00     0.131 A 
ATOM     66  C   UNL A   1      39.548  34.753  38.602  1.00  0.00     0.055 A 
ATOM     67  C   UNL A   1      40.321  36.428  37.063  1.00  0.00     0.041 A 
ATOM     68  F   UNL A   1      40.922  35.822  34.882  1.00  0.00    -0.206 F 
ATOM     69  C   UNL A   1      39.811  36.093  38.314  1.00  0.00     0.022 A 
BRANCH  66  70
ATOM     70  S   UNL A   1      38.651  34.306  40.114  1.00  0.00     0.124 S 
ATOM     71  O   UNL A   1      37.544  33.518  39.577  1.00  0.00    -0.237 OA
ATOM     72  O   UNL A   1      39.654  33.564  40.870  1.00  0.00    -0.237 OA
ATOM     73  O   UNL A   1      38.270  35.597  40.682  1.00  0.00    -0.744 OA
ENDBRANCH  66  70
ENDBRANCH  49  63
BRANCH  50  74
ATOM     74  C   UNL A   1      40.777  27.523  28.794  1.00  0.00     0.023 A 
ATOM     75  C   UNL A   1      41.749  27.660  27.790  1.00  0.00     0.031 A 
ATOM     76  C   UNL A   1      39.868  26.455  28.687  1.00  0.00     0.131 A 
ATOM     77  C   UNL A   1      41.765  26.775  26.700  1.00  0.00     0.055 A 
ATOM     78  C   UNL A   1      39.917  25.548  27.626  1.00  0.00     0.041 A 
ATOM     79  F   UNL A   1      38.925  26.271  29.625  1.00  0.00    -0.206 F 
ATOM     80  C   UNL A   1      40.862  25.713  26.617  1.00  0.00     0.022 A 
BRANCH  77  81
ATOM     81  S   UNL A   1      42.939  27.078  25.350  1.00  0.00     0.124 S 
ATOM     82  O   UNL A   1      42.295  28.175  24.637  1.00  0.00    -0.237 OA
ATOM     83  O   UNL A   1      44.158  27.412  26.079  1.00  0.00    -0.237 OA
ATOM     84  O   UNL A   1      42.972  25.803  24.638  1.00  0.00    -0.744 OA
ENDBRANCH  77  81
ENDBRANCH  50  74
BRANCH  62  85
ATOM     85  C   UNL A   1      44.299  28.236  34.761  1.00  0.00     0.023 A 
ATOM     86  C   UNL A   1      43.996  27.144  35.593  1.00  0.00     0.031 A 
ATOM     87  C   UNL A   1      45.653  28.557  34.559  1.00  0.00     0.131 A 
ATOM     88  C   UNL A   1      45.028  26.459  36.250  1.00  0.00     0.055 A 
ATOM     89  C   UNL A   1      46.679  27.830  35.163  1.00  0.00     0.041 A 
ATOM     90  F   UNL A   1      46.001  29.590  33.776  1.00  0.00    -0.206 F 
ATOM     91  C   UNL A   1      46.369  26.785  36.027  1.00  0.00     0.022 A 
BRANCH  88  92
ATOM     92  S   UNL A   1      44.593  25.211  37.492  1.00  0.00     0.124 S 
ATOM     93  O   UNL A   1      44.754  25.953  38.739  1.00  0.00    -0.237 OA
ATOM     94  O   UNL A   1      43.222  24.871  37.125  1.00  0.00    -0.237 OA
ATOM     95  O   UNL A   1      45.574  24.149  37.271  1.00  0.00    -0.744 OA
ENDBRANCH  88  92
ENDBRANCH  62  85
ENDBRANCH  36  37
ENDBRANCH  28  31
ENDBRANCH  26  27
ENDBRANCH   1  26
TORSDOF 16
ENDMDL
