MODEL 1
REMARK VINA RESULT:     -12.5      0.000      0.000
REMARK SMILES C[C@H]1[C@H](C(=O)NCCCCNC(=O)c2ccc(-c3c4nc(c(-c5cc(S(=O)(=O)[O-])ccc5F)c5ccc([nH]5)c(-c5cc(S(=O)(=O)[O-])ccc5F)c5nc(c(-c6cc(S(=O)(=O)[O-])ccc6F)c6ccc3[nH]6)C=C5)C=C4)cc2)CC[N@@H+]1[C@@H](c1ccccc1)c1ccco1
REMARK SMILES IDX 9 1 8 2 7 3 6 4 4 5 5 6 3 8 1 9 2 10 79 11 77 12 78 13 80 15
REMARK SMILES IDX 81 16 82 17 86 18 83 19 85 20 84 21 87 22 88 23 91 24 89 25
REMARK SMILES IDX 90 26 10 27 11 28 12 29 13 31 14 32 15 33 76 34 16 35 75 36
REMARK SMILES IDX 17 37 18 38 19 39 69 40 20 41 74 42 68 43 70 44 21 45 73 46
REMARK SMILES IDX 67 47 66 48 22 50 54 51 34 52 53 53 35 54 38 55 52 56 71 57
REMARK SMILES IDX 36 58 37 59 51 61 72 62 39 63 23 64 24 65 32 66 25 67 31 68
REMARK SMILES IDX 33 69 30 70 26 71 27 72 28 73 29 74 55 75 56 76 64 77 57 78
REMARK SMILES IDX 63 79 65 80 62 81 58 82 59 83 60 84 61 85 40 86 41 87 49 88
REMARK SMILES IDX 42 89 48 90 50 91 47 92 43 93 44 94 45 95 46 96
REMARK H PARENT 6 7 79 14 11 30 70 49 38 60
REMARK Flexibility Score: inf
ROOT
ATOM      1  C   UNL A   1      31.442  29.784  26.959  1.00  0.00     0.023 C 
ENDROOT
BRANCH   1   2
ATOM      2  C   UNL A   1      31.948  28.342  27.087  1.00  0.00     0.023 C 
BRANCH   2   3
ATOM      3  C   UNL A   1      31.553  27.407  25.939  1.00  0.00     0.116 C 
BRANCH   3   4
ATOM      4  N   UNL A   1      32.702  26.935  25.193  1.00  0.00    -0.356 N 
ATOM      5  C   UNL A   1      33.092  25.688  24.823  1.00  0.00     0.229 C 
ATOM      6  O   UNL A   1      34.108  25.625  24.118  1.00  0.00    -0.275 OA
ATOM      7  H   UNL A   1      33.313  27.650  24.901  1.00  0.00     0.163 HD
BRANCH   5   8
ATOM      8  C   UNL A   1      32.356  24.392  25.166  1.00  0.00     0.142 C 
ATOM      9  C   UNL A   1      31.605  22.963  23.242  1.00  0.00     0.076 C 
ATOM     10  C   UNL A   1      32.663  23.133  24.340  1.00  0.00     0.194 C 
ATOM     11  N   UNL A   1      32.572  21.976  25.268  1.00  0.00    -0.319 N 
ATOM     12  C   UNL A   1      32.471  23.941  26.610  1.00  0.00     0.081 C 
ATOM     13  C   UNL A   1      32.054  22.473  26.536  1.00  0.00     0.264 C 
ATOM     14  H   UNL A   1      31.903  21.287  24.926  1.00  0.00     0.349 HD
BRANCH  11  15
ATOM     15  C   UNL A   1      33.759  21.086  25.285  1.00  0.00     0.283 C 
BRANCH  15  16
ATOM     16  C   UNL A   1      33.748  19.755  24.522  1.00  0.00     0.017 A 
ATOM     17  C   UNL A   1      32.618  19.460  23.737  1.00  0.00     0.010 A 
ATOM     18  C   UNL A   1      34.693  18.730  24.694  1.00  0.00     0.010 A 
ATOM     19  C   UNL A   1      32.476  18.217  23.124  1.00  0.00     0.001 A 
ATOM     20  C   UNL A   1      34.593  17.517  24.007  1.00  0.00     0.001 A 
ATOM     21  C   UNL A   1      33.483  17.263  23.214  1.00  0.00     0.000 A 
ENDBRANCH  15  16
BRANCH  15  22
ATOM     22  C   UNL A   1      35.089  21.786  25.087  1.00  0.00     0.165 A 
ATOM     23  C   UNL A   1      35.798  22.141  23.953  1.00  0.00     0.052 A 
ATOM     24  O   UNL A   1      35.626  22.432  26.170  1.00  0.00    -0.463 OA
ATOM     25  C   UNL A   1      36.729  23.134  24.353  1.00  0.00     0.042 A 
ATOM     26  C   UNL A   1      36.576  23.279  25.711  1.00  0.00     0.195 A 
ENDBRANCH  15  22
ENDBRANCH  11  15
ENDBRANCH   5   8
ENDBRANCH   3   4
ENDBRANCH   2   3
ENDBRANCH   1   2
BRANCH   1  27
ATOM     27  C   UNL A   1      32.424  30.796  26.365  1.00  0.00     0.116 C 
BRANCH  27  28
ATOM     28  N   UNL A   1      32.363  32.110  26.987  1.00  0.00    -0.352 N 
ATOM     29  C   UNL A   1      33.333  32.820  27.663  1.00  0.00     0.251 C 
ATOM     30  H   UNL A   1      31.492  32.564  26.913  1.00  0.00     0.163 HD
ATOM     31  O   UNL A   1      33.086  33.931  28.109  1.00  0.00    -0.269 OA
BRANCH  29  32
ATOM     32  C   UNL A   1      34.645  32.196  27.926  1.00  0.00     0.039 A 
ATOM     33  C   UNL A   1      35.755  33.039  28.028  1.00  0.00     0.014 A 
ATOM     34  C   UNL A   1      34.764  30.830  28.180  1.00  0.00     0.014 A 
ATOM     35  C   UNL A   1      36.953  32.538  28.531  1.00  0.00     0.010 A 
ATOM     36  C   UNL A   1      35.932  30.349  28.757  1.00  0.00     0.010 A 
ATOM     37  C   UNL A   1      37.017  31.210  28.976  1.00  0.00    -0.014 A 
BRANCH  37  38
ATOM     38  C   UNL A   1      38.183  30.725  29.753  1.00  0.00     0.031 A 
ATOM     39  C   UNL A   1      39.117  29.719  29.151  1.00  0.00     0.074 A 
ATOM     40  C   UNL A   1      38.319  31.129  31.032  1.00  0.00     0.049 A 
ATOM     41  N   UNL A   1      40.132  29.105  29.696  1.00  0.00    -0.248 NA
ATOM     42  C   UNL A   1      38.841  29.319  27.764  1.00  0.00     0.031 C 
ATOM     43  C   UNL A   1      37.412  32.053  31.725  1.00  0.00     0.029 A 
ATOM     44  N   UNL A   1      39.255  30.816  31.983  1.00  0.00    -0.354 N 
ATOM     45  C   UNL A   1      40.610  28.233  28.725  1.00  0.00     0.074 A 
ATOM     46  C   UNL A   1      39.728  28.353  27.584  1.00  0.00     0.031 C 
ATOM     47  C   UNL A   1      37.857  32.254  32.976  1.00  0.00     0.029 A 
ATOM     48  C   UNL A   1      39.050  31.445  33.190  1.00  0.00     0.049 A 
ATOM     49  H   UNL A   1      40.003  30.199  31.817  1.00  0.00     0.167 HD
ATOM     50  C   UNL A   1      41.700  27.428  28.778  1.00  0.00     0.034 A 
ATOM     51  C   UNL A   1      39.748  31.372  34.340  1.00  0.00     0.034 A 
ATOM     52  C   UNL A   1      42.560  27.341  29.934  1.00  0.00     0.049 A 
ATOM     53  C   UNL A   1      40.968  30.488  34.369  1.00  0.00     0.074 A 
ATOM     54  C   UNL A   1      43.715  26.600  30.103  1.00  0.00     0.029 A 
ATOM     55  N   UNL A   1      42.349  28.025  31.127  1.00  0.00    -0.354 N 
ATOM     56  N   UNL A   1      41.446  29.713  33.419  1.00  0.00    -0.248 NA
ATOM     57  C   UNL A   1      41.751  30.478  35.608  1.00  0.00     0.031 C 
ATOM     58  C   UNL A   1      44.171  26.794  31.413  1.00  0.00     0.029 A 
ATOM     59  C   UNL A   1      43.341  27.707  32.042  1.00  0.00     0.049 A 
ATOM     60  H   UNL A   1      41.603  28.645  31.298  1.00  0.00     0.167 HD
ATOM     61  C   UNL A   1      42.601  29.143  33.942  1.00  0.00     0.074 A 
ATOM     62  C   UNL A   1      42.757  29.681  35.280  1.00  0.00     0.031 C 
ATOM     63  C   UNL A   1      43.458  28.256  33.374  1.00  0.00     0.034 A 
BRANCH  50  64
ATOM     64  C   UNL A   1      41.988  26.575  27.564  1.00  0.00     0.023 A 
ATOM     65  C   UNL A   1      41.526  25.249  27.472  1.00  0.00     0.031 A 
ATOM     66  C   UNL A   1      42.786  27.064  26.515  1.00  0.00     0.131 A 
ATOM     67  C   UNL A   1      41.945  24.431  26.412  1.00  0.00     0.055 A 
ATOM     68  C   UNL A   1      43.126  26.271  25.416  1.00  0.00     0.041 A 
ATOM     69  F   UNL A   1      43.275  28.313  26.552  1.00  0.00    -0.206 F 
ATOM     70  C   UNL A   1      42.721  24.940  25.369  1.00  0.00     0.022 A 
BRANCH  67  71
ATOM     71  S   UNL A   1      41.598  22.652  26.504  1.00  0.00     0.124 S 
ATOM     72  O   UNL A   1      42.306  22.155  25.327  1.00  0.00    -0.237 OA
ATOM     73  O   UNL A   1      42.167  22.285  27.795  1.00  0.00    -0.237 OA
ATOM     74  O   UNL A   1      40.140  22.583  26.420  1.00  0.00    -0.744 OA
ENDBRANCH  67  71
ENDBRANCH  50  64
BRANCH  51  75
ATOM     75  C   UNL A   1      39.330  32.157  35.537  1.00  0.00     0.023 A 
ATOM     76  C   UNL A   1      38.580  31.563  36.566  1.00  0.00     0.031 A 
ATOM     77  C   UNL A   1      39.658  33.518  35.668  1.00  0.00     0.131 A 
ATOM     78  C   UNL A   1      38.148  32.335  37.656  1.00  0.00     0.055 A 
ATOM     79  C   UNL A   1      39.267  34.271  36.777  1.00  0.00     0.041 A 
ATOM     80  F   UNL A   1      40.384  34.136  34.721  1.00  0.00    -0.206 F 
ATOM     81  C   UNL A   1      38.495  33.682  37.775  1.00  0.00     0.022 A 
BRANCH  78  82
ATOM     82  S   UNL A   1      37.057  31.567  38.887  1.00  0.00     0.124 S 
ATOM     83  O   UNL A   1      36.902  30.220  38.350  1.00  0.00    -0.237 OA
ATOM     84  O   UNL A   1      37.849  31.685  40.106  1.00  0.00    -0.237 OA
ATOM     85  O   UNL A   1      35.857  32.398  38.843  1.00  0.00    -0.744 OA
ENDBRANCH  78  82
ENDBRANCH  51  75
BRANCH  63  86
ATOM     86  C   UNL A   1      44.651  27.852  34.199  1.00  0.00     0.023 A 
ATOM     87  C   UNL A   1      44.612  26.733  35.048  1.00  0.00     0.031 A 
ATOM     88  C   UNL A   1      45.837  28.606  34.144  1.00  0.00     0.131 A 
ATOM     89  C   UNL A   1      45.719  26.432  35.855  1.00  0.00     0.055 A 
ATOM     90  C   UNL A   1      46.956  28.265  34.903  1.00  0.00     0.041 A 
ATOM     91  F   UNL A   1      45.923  29.684  33.349  1.00  0.00    -0.206 F 
ATOM     92  C   UNL A   1      46.896  27.181  35.774  1.00  0.00     0.022 A 
BRANCH  89  93
ATOM     93  S   UNL A   1      45.566  25.102  37.076  1.00  0.00     0.124 S 
ATOM     94  O   UNL A   1      46.124  23.963  36.355  1.00  0.00    -0.237 OA
ATOM     95  O   UNL A   1      46.367  25.606  38.188  1.00  0.00    -0.237 OA
ATOM     96  O   UNL A   1      44.129  25.033  37.330  1.00  0.00    -0.744 OA
ENDBRANCH  89  93
ENDBRANCH  63  86
ENDBRANCH  37  38
ENDBRANCH  29  32
ENDBRANCH  27  28
ENDBRANCH   1  27
TORSDOF 17
ENDMDL
MODEL 2
REMARK VINA RESULT:     -12.4      5.033     10.457
REMARK SMILES C[C@H]1[C@H](C(=O)NCCCCNC(=O)c2ccc(-c3c4nc(c(-c5cc(S(=O)(=O)[O-])ccc5F)c5ccc([nH]5)c(-c5cc(S(=O)(=O)[O-])ccc5F)c5nc(c(-c6cc(S(=O)(=O)[O-])ccc6F)c6ccc3[nH]6)C=C5)C=C4)cc2)CC[N@@H+]1[C@@H](c1ccccc1)c1ccco1
REMARK SMILES IDX 9 1 8 2 7 3 6 4 4 5 5 6 3 8 1 9 2 10 79 11 77 12 78 13 80 15
REMARK SMILES IDX 81 16 82 17 86 18 83 19 85 20 84 21 87 22 88 23 91 24 89 25
REMARK SMILES IDX 90 26 10 27 11 28 12 29 13 31 14 32 15 33 76 34 16 35 75 36
REMARK SMILES IDX 17 37 18 38 19 39 69 40 20 41 74 42 68 43 70 44 21 45 73 46
REMARK SMILES IDX 67 47 66 48 22 50 54 51 34 52 53 53 35 54 38 55 52 56 71 57
REMARK SMILES IDX 36 58 37 59 51 61 72 62 39 63 23 64 24 65 32 66 25 67 31 68
REMARK SMILES IDX 33 69 30 70 26 71 27 72 28 73 29 74 55 75 56 76 64 77 57 78
REMARK SMILES IDX 63 79 65 80 62 81 58 82 59 83 60 84 61 85 40 86 41 87 49 88
REMARK SMILES IDX 42 89 48 90 50 91 47 92 43 93 44 94 45 95 46 96
REMARK H PARENT 6 7 79 14 11 30 70 49 38 60
REMARK Flexibility Score: inf
ROOT
ATOM      1  C   UNL A   1      36.174  20.221  24.904  1.00  0.00     0.023 C 
ENDROOT
BRANCH   1   2
ATOM      2  C   UNL A   1      34.851  20.992  25.007  1.00  0.00     0.023 C 
BRANCH   2   3
ATOM      3  C   UNL A   1      34.751  22.236  24.118  1.00  0.00     0.116 C 
BRANCH   3   4
ATOM      4  N   UNL A   1      34.846  23.466  24.879  1.00  0.00    -0.356 N 
ATOM      5  C   UNL A   1      34.246  24.673  24.727  1.00  0.00     0.229 C 
ATOM      6  O   UNL A   1      34.489  25.514  25.603  1.00  0.00    -0.275 OA
ATOM      7  H   UNL A   1      35.459  23.416  25.648  1.00  0.00     0.163 HD
BRANCH   5   8
ATOM      8  C   UNL A   1      33.274  25.045  23.605  1.00  0.00     0.142 C 
ATOM      9  C   UNL A   1      31.103  23.785  23.511  1.00  0.00     0.076 C 
ATOM     10  C   UNL A   1      31.772  25.102  23.924  1.00  0.00     0.194 C 
ATOM     11  N   UNL A   1      31.200  26.201  23.103  1.00  0.00    -0.319 N 
ATOM     12  C   UNL A   1      33.567  26.355  22.898  1.00  0.00     0.081 C 
ATOM     13  C   UNL A   1      32.245  26.659  22.196  1.00  0.00     0.264 C 
ATOM     14  H   UNL A   1      30.434  25.860  22.522  1.00  0.00     0.349 HD
BRANCH  11  15
ATOM     15  C   UNL A   1      30.420  27.213  23.858  1.00  0.00     0.283 C 
BRANCH  15  16
ATOM     16  C   UNL A   1      31.087  28.054  24.954  1.00  0.00     0.017 A 
ATOM     17  C   UNL A   1      31.231  27.473  26.228  1.00  0.00     0.010 A 
ATOM     18  C   UNL A   1      31.394  29.420  24.836  1.00  0.00     0.010 A 
ATOM     19  C   UNL A   1      31.703  28.217  27.307  1.00  0.00     0.001 A 
ATOM     20  C   UNL A   1      31.951  30.140  25.896  1.00  0.00     0.001 A 
ATOM     21  C   UNL A   1      32.112  29.535  27.133  1.00  0.00     0.000 A 
ENDBRANCH  15  16
BRANCH  15  22
ATOM     22  C   UNL A   1      29.516  28.088  23.012  1.00  0.00     0.165 A 
ATOM     23  C   UNL A   1      28.204  28.499  23.164  1.00  0.00     0.052 A 
ATOM     24  O   UNL A   1      30.110  28.843  22.034  1.00  0.00    -0.463 OA
ATOM     25  C   UNL A   1      28.035  29.629  22.322  1.00  0.00     0.042 A 
ATOM     26  C   UNL A   1      29.228  29.800  21.664  1.00  0.00     0.195 A 
ENDBRANCH  15  22
ENDBRANCH  11  15
ENDBRANCH   5   8
ENDBRANCH   3   4
ENDBRANCH   2   3
ENDBRANCH   1   2
BRANCH   1  27
ATOM     27  C   UNL A   1      37.444  21.007  25.239  1.00  0.00     0.116 C 
BRANCH  27  28
ATOM     28  N   UNL A   1      38.624  20.174  25.410  1.00  0.00    -0.352 N 
ATOM     29  C   UNL A   1      39.790  20.415  26.105  1.00  0.00     0.251 C 
ATOM     30  H   UNL A   1      38.583  19.299  24.959  1.00  0.00     0.163 HD
ATOM     31  O   UNL A   1      40.674  19.571  26.139  1.00  0.00    -0.269 OA
BRANCH  29  32
ATOM     32  C   UNL A   1      40.007  21.734  26.733  1.00  0.00     0.039 A 
ATOM     33  C   UNL A   1      40.897  21.801  27.809  1.00  0.00     0.014 A 
ATOM     34  C   UNL A   1      39.438  22.893  26.207  1.00  0.00     0.014 A 
ATOM     35  C   UNL A   1      41.334  23.044  28.260  1.00  0.00     0.010 A 
ATOM     36  C   UNL A   1      39.935  24.129  26.601  1.00  0.00     0.010 A 
ATOM     37  C   UNL A   1      40.917  24.208  27.600  1.00  0.00    -0.014 A 
BRANCH  37  38
ATOM     38  C   UNL A   1      41.562  25.512  27.881  1.00  0.00     0.031 A 
ATOM     39  C   UNL A   1      40.788  26.599  28.564  1.00  0.00     0.074 A 
ATOM     40  C   UNL A   1      42.811  25.727  27.420  1.00  0.00     0.049 A 
ATOM     41  N   UNL A   1      41.138  27.832  28.814  1.00  0.00    -0.248 NA
ATOM     42  C   UNL A   1      39.418  26.263  28.980  1.00  0.00     0.031 C 
ATOM     43  C   UNL A   1      43.616  24.748  26.679  1.00  0.00     0.029 A 
ATOM     44  N   UNL A   1      43.623  26.829  27.492  1.00  0.00    -0.354 N 
ATOM     45  C   UNL A   1      40.029  28.426  29.403  1.00  0.00     0.074 A 
ATOM     46  C   UNL A   1      38.975  27.434  29.408  1.00  0.00     0.031 C 
ATOM     47  C   UNL A   1      44.814  25.284  26.396  1.00  0.00     0.029 A 
ATOM     48  C   UNL A   1      44.850  26.653  26.893  1.00  0.00     0.049 A 
ATOM     49  H   UNL A   1      43.354  27.667  27.931  1.00  0.00     0.167 HD
ATOM     50  C   UNL A   1      39.915  29.678  29.913  1.00  0.00     0.034 A 
ATOM     51  C   UNL A   1      45.885  27.506  26.760  1.00  0.00     0.034 A 
ATOM     52  C   UNL A   1      40.992  30.637  29.894  1.00  0.00     0.049 A 
ATOM     53  C   UNL A   1      45.743  28.883  27.354  1.00  0.00     0.074 A 
ATOM     54  C   UNL A   1      41.023  31.919  30.412  1.00  0.00     0.029 A 
ATOM     55  N   UNL A   1      42.239  30.413  29.317  1.00  0.00    -0.354 N 
ATOM     56  N   UNL A   1      44.707  29.414  27.966  1.00  0.00    -0.248 NA
ATOM     57  C   UNL A   1      46.908  29.769  27.258  1.00  0.00     0.031 C 
ATOM     58  C   UNL A   1      42.264  32.487  30.102  1.00  0.00     0.029 A 
ATOM     59  C   UNL A   1      43.036  31.539  29.450  1.00  0.00     0.049 A 
ATOM     60  H   UNL A   1      42.515  29.576  28.878  1.00  0.00     0.167 HD
ATOM     61  C   UNL A   1      45.106  30.689  28.349  1.00  0.00     0.074 A 
ATOM     62  C   UNL A   1      46.483  30.836  27.918  1.00  0.00     0.031 C 
ATOM     63  C   UNL A   1      44.404  31.653  28.997  1.00  0.00     0.034 A 
BRANCH  50  64
ATOM     64  C   UNL A   1      38.577  30.065  30.500  1.00  0.00     0.023 A 
ATOM     65  C   UNL A   1      37.626  30.782  29.750  1.00  0.00     0.031 A 
ATOM     66  C   UNL A   1      38.269  29.774  31.840  1.00  0.00     0.131 A 
ATOM     67  C   UNL A   1      36.465  31.268  30.368  1.00  0.00     0.055 A 
ATOM     68  C   UNL A   1      37.068  30.184  32.426  1.00  0.00     0.041 A 
ATOM     69  F   UNL A   1      39.141  29.111  32.614  1.00  0.00    -0.206 F 
ATOM     70  C   UNL A   1      36.166  30.953  31.695  1.00  0.00     0.022 A 
BRANCH  67  71
ATOM     71  S   UNL A   1      35.435  32.455  29.461  1.00  0.00     0.124 S 
ATOM     72  O   UNL A   1      36.299  33.632  29.435  1.00  0.00    -0.237 OA
ATOM     73  O   UNL A   1      35.230  31.784  28.183  1.00  0.00    -0.237 OA
ATOM     74  O   UNL A   1      34.243  32.584  30.297  1.00  0.00    -0.744 OA
ENDBRANCH  67  71
ENDBRANCH  50  64
BRANCH  51  75
ATOM     75  C   UNL A   1      47.133  27.086  26.060  1.00  0.00     0.023 A 
ATOM     76  C   UNL A   1      48.157  26.414  26.748  1.00  0.00     0.031 A 
ATOM     77  C   UNL A   1      47.332  27.364  24.696  1.00  0.00     0.131 A 
ATOM     78  C   UNL A   1      49.348  26.079  26.083  1.00  0.00     0.055 A 
ATOM     79  C   UNL A   1      48.499  26.987  24.026  1.00  0.00     0.041 A 
ATOM     80  F   UNL A   1      46.383  27.993  23.985  1.00  0.00    -0.206 F 
ATOM     81  C   UNL A   1      49.521  26.351  24.725  1.00  0.00     0.022 A 
BRANCH  78  82
ATOM     82  S   UNL A   1      50.703  25.346  27.042  1.00  0.00     0.124 S 
ATOM     83  O   UNL A   1      51.180  26.491  27.809  1.00  0.00    -0.237 OA
ATOM     84  O   UNL A   1      50.009  24.310  27.800  1.00  0.00    -0.237 OA
ATOM     85  O   UNL A   1      51.620  24.857  26.016  1.00  0.00    -0.744 OA
ENDBRANCH  78  82
ENDBRANCH  51  75
BRANCH  63  86
ATOM     86  C   UNL A   1      45.141  32.932  29.301  1.00  0.00     0.023 A 
ATOM     87  C   UNL A   1      45.163  34.001  28.389  1.00  0.00     0.031 A 
ATOM     88  C   UNL A   1      45.841  33.074  30.512  1.00  0.00     0.131 A 
ATOM     89  C   UNL A   1      45.920  35.145  28.677  1.00  0.00     0.055 A 
ATOM     90  C   UNL A   1      46.542  34.239  30.819  1.00  0.00     0.041 A 
ATOM     91  F   UNL A   1      45.851  32.080  31.414  1.00  0.00    -0.206 F 
ATOM     92  C   UNL A   1      46.595  35.278  29.894  1.00  0.00     0.022 A 
BRANCH  89  93
ATOM     93  S   UNL A   1      46.084  36.421  27.400  1.00  0.00     0.124 S 
ATOM     94  O   UNL A   1      44.941  37.283  27.685  1.00  0.00    -0.237 OA
ATOM     95  O   UNL A   1      47.398  36.987  27.692  1.00  0.00    -0.237 OA
ATOM     96  O   UNL A   1      45.998  35.669  26.151  1.00  0.00    -0.744 OA
ENDBRANCH  89  93
ENDBRANCH  63  86
ENDBRANCH  37  38
ENDBRANCH  29  32
ENDBRANCH  27  28
ENDBRANCH   1  27
TORSDOF 17
ENDMDL
MODEL 3
REMARK VINA RESULT:     -12.3      1.263      7.708
REMARK SMILES C[C@H]1[C@H](C(=O)NCCCCNC(=O)c2ccc(-c3c4nc(c(-c5cc(S(=O)(=O)[O-])ccc5F)c5ccc([nH]5)c(-c5cc(S(=O)(=O)[O-])ccc5F)c5nc(c(-c6cc(S(=O)(=O)[O-])ccc6F)c6ccc3[nH]6)C=C5)C=C4)cc2)CC[N@@H+]1[C@@H](c1ccccc1)c1ccco1
REMARK SMILES IDX 9 1 8 2 7 3 6 4 4 5 5 6 3 8 1 9 2 10 79 11 77 12 78 13 80 15
REMARK SMILES IDX 81 16 82 17 86 18 83 19 85 20 84 21 87 22 88 23 91 24 89 25
REMARK SMILES IDX 90 26 10 27 11 28 12 29 13 31 14 32 15 33 76 34 16 35 75 36
REMARK SMILES IDX 17 37 18 38 19 39 69 40 20 41 74 42 68 43 70 44 21 45 73 46
REMARK SMILES IDX 67 47 66 48 22 50 54 51 34 52 53 53 35 54 38 55 52 56 71 57
REMARK SMILES IDX 36 58 37 59 51 61 72 62 39 63 23 64 24 65 32 66 25 67 31 68
REMARK SMILES IDX 33 69 30 70 26 71 27 72 28 73 29 74 55 75 56 76 64 77 57 78
REMARK SMILES IDX 63 79 65 80 62 81 58 82 59 83 60 84 61 85 40 86 41 87 49 88
REMARK SMILES IDX 42 89 48 90 50 91 47 92 43 93 44 94 45 95 46 96
REMARK H PARENT 6 7 79 14 11 30 70 49 38 60
REMARK Flexibility Score: inf
ROOT
ATOM      1  C   UNL A   1      31.831  29.266  27.262  1.00  0.00     0.023 C 
ENDROOT
BRANCH   1   2
ATOM      2  C   UNL A   1      31.566  27.945  26.528  1.00  0.00     0.023 C 
BRANCH   2   3
ATOM      3  C   UNL A   1      31.365  28.069  25.015  1.00  0.00     0.116 C 
BRANCH   3   4
ATOM      4  N   UNL A   1      32.473  27.513  24.264  1.00  0.00    -0.356 N 
ATOM      5  C   UNL A   1      32.889  26.235  24.076  1.00  0.00     0.229 C 
ATOM      6  O   UNL A   1      33.849  26.085  23.309  1.00  0.00    -0.275 OA
ATOM      7  H   UNL A   1      33.027  28.187  23.808  1.00  0.00     0.163 HD
BRANCH   5   8
ATOM      8  C   UNL A   1      32.241  24.993  24.689  1.00  0.00     0.142 C 
ATOM      9  C   UNL A   1      30.438  23.867  23.351  1.00  0.00     0.076 C 
ATOM     10  C   UNL A   1      31.913  23.806  23.771  1.00  0.00     0.194 C 
ATOM     11  N   UNL A   1      32.127  22.571  24.569  1.00  0.00    -0.319 N 
ATOM     12  C   UNL A   1      32.989  24.379  25.858  1.00  0.00     0.081 C 
ATOM     13  C   UNL A   1      32.383  22.980  25.945  1.00  0.00     0.264 C 
ATOM     14  H   UNL A   1      31.285  21.997  24.584  1.00  0.00     0.349 HD
BRANCH  11  15
ATOM     15  C   UNL A   1      33.025  21.566  23.949  1.00  0.00     0.283 C 
BRANCH  15  16
ATOM     16  C   UNL A   1      34.549  21.703  24.062  1.00  0.00     0.017 A 
ATOM     17  C   UNL A   1      35.216  20.858  24.967  1.00  0.00     0.010 A 
ATOM     18  C   UNL A   1      35.302  22.732  23.472  1.00  0.00     0.010 A 
ATOM     19  C   UNL A   1      36.577  21.013  25.224  1.00  0.00     0.001 A 
ATOM     20  C   UNL A   1      36.683  22.830  23.662  1.00  0.00     0.001 A 
ATOM     21  C   UNL A   1      37.323  21.964  24.536  1.00  0.00     0.000 A 
ENDBRANCH  15  16
BRANCH  15  22
ATOM     22  C   UNL A   1      32.617  20.122  24.166  1.00  0.00     0.165 A 
ATOM     23  C   UNL A   1      32.565  19.028  23.321  1.00  0.00     0.052 A 
ATOM     24  O   UNL A   1      32.505  19.690  25.462  1.00  0.00    -0.463 OA
ATOM     25  C   UNL A   1      32.536  17.877  24.151  1.00  0.00     0.042 A 
ATOM     26  C   UNL A   1      32.509  18.337  25.444  1.00  0.00     0.195 A 
ENDBRANCH  15  22
ENDBRANCH  11  15
ENDBRANCH   5   8
ENDBRANCH   3   4
ENDBRANCH   2   3
ENDBRANCH   1   2
BRANCH   1  27
ATOM     27  C   UNL A   1      32.842  30.212  26.609  1.00  0.00     0.116 C 
BRANCH  27  28
ATOM     28  N   UNL A   1      32.932  31.512  27.255  1.00  0.00    -0.352 N 
ATOM     29  C   UNL A   1      33.991  32.112  27.904  1.00  0.00     0.251 C 
ATOM     30  H   UNL A   1      32.107  32.050  27.222  1.00  0.00     0.163 HD
ATOM     31  O   UNL A   1      33.869  33.232  28.378  1.00  0.00    -0.269 OA
BRANCH  29  32
ATOM     32  C   UNL A   1      35.244  31.359  28.107  1.00  0.00     0.039 A 
ATOM     33  C   UNL A   1      36.447  32.066  28.015  1.00  0.00     0.014 A 
ATOM     34  C   UNL A   1      35.235  30.018  28.488  1.00  0.00     0.014 A 
ATOM     35  C   UNL A   1      37.626  31.470  28.453  1.00  0.00     0.010 A 
ATOM     36  C   UNL A   1      36.395  29.453  29.000  1.00  0.00     0.010 A 
ATOM     37  C   UNL A   1      37.588  30.191  29.025  1.00  0.00    -0.014 A 
BRANCH  37  38
ATOM     38  C   UNL A   1      38.767  29.641  29.734  1.00  0.00     0.031 A 
ATOM     39  C   UNL A   1      39.140  30.167  31.088  1.00  0.00     0.074 A 
ATOM     40  C   UNL A   1      39.543  28.742  29.096  1.00  0.00     0.049 A 
ATOM     41  N   UNL A   1      40.179  29.886  31.826  1.00  0.00    -0.248 NA
ATOM     42  C   UNL A   1      38.242  31.179  31.664  1.00  0.00     0.031 C 
ATOM     43  C   UNL A   1      39.298  28.226  27.743  1.00  0.00     0.029 A 
ATOM     44  N   UNL A   1      40.696  28.109  29.481  1.00  0.00    -0.354 N 
ATOM     45  C   UNL A   1      40.071  30.697  32.950  1.00  0.00     0.074 A 
ATOM     46  C   UNL A   1      38.902  31.527  32.758  1.00  0.00     0.031 C 
ATOM     47  C   UNL A   1      40.251  27.334  27.430  1.00  0.00     0.029 A 
ATOM     48  C   UNL A   1      41.198  27.245  28.534  1.00  0.00     0.049 A 
ATOM     49  H   UNL A   1      41.125  28.258  30.354  1.00  0.00     0.167 HD
ATOM     50  C   UNL A   1      40.866  30.724  34.049  1.00  0.00     0.034 A 
ATOM     51  C   UNL A   1      42.300  26.470  28.558  1.00  0.00     0.034 A 
ATOM     52  C   UNL A   1      42.023  29.875  34.205  1.00  0.00     0.049 A 
ATOM     53  C   UNL A   1      43.156  26.501  29.798  1.00  0.00     0.074 A 
ATOM     54  C   UNL A   1      42.885  29.773  35.281  1.00  0.00     0.029 A 
ATOM     55  N   UNL A   1      42.480  28.979  33.244  1.00  0.00    -0.354 N 
ATOM     56  N   UNL A   1      43.008  27.229  30.883  1.00  0.00    -0.248 NA
ATOM     57  C   UNL A   1      44.311  25.598  29.827  1.00  0.00     0.031 C 
ATOM     58  C   UNL A   1      43.891  28.857  34.950  1.00  0.00     0.029 A 
ATOM     59  C   UNL A   1      43.621  28.335  33.695  1.00  0.00     0.049 A 
ATOM     60  H   UNL A   1      42.054  28.823  32.370  1.00  0.00     0.167 HD
ATOM     61  C   UNL A   1      44.040  26.853  31.734  1.00  0.00     0.074 A 
ATOM     62  C   UNL A   1      44.787  25.819  31.044  1.00  0.00     0.031 C 
ATOM     63  C   UNL A   1      44.347  27.315  32.973  1.00  0.00     0.034 A 
BRANCH  50  64
ATOM     64  C   UNL A   1      40.513  31.717  35.132  1.00  0.00     0.023 A 
ATOM     65  C   UNL A   1      39.577  31.407  36.136  1.00  0.00     0.031 A 
ATOM     66  C   UNL A   1      41.064  33.010  35.128  1.00  0.00     0.131 A 
ATOM     67  C   UNL A   1      39.148  32.401  37.029  1.00  0.00     0.055 A 
ATOM     68  C   UNL A   1      40.699  33.969  36.077  1.00  0.00     0.041 A 
ATOM     69  F   UNL A   1      41.946  33.375  34.186  1.00  0.00    -0.206 F 
ATOM     70  C   UNL A   1      39.722  33.674  37.023  1.00  0.00     0.022 A 
BRANCH  67  71
ATOM     71  S   UNL A   1      37.715  32.053  38.086  1.00  0.00     0.124 S 
ATOM     72  O   UNL A   1      36.772  33.078  37.646  1.00  0.00    -0.237 OA
ATOM     73  O   UNL A   1      37.381  30.680  37.724  1.00  0.00    -0.237 OA
ATOM     74  O   UNL A   1      38.235  32.234  39.440  1.00  0.00    -0.744 OA
ENDBRANCH  67  71
ENDBRANCH  50  64
BRANCH  51  75
ATOM     75  C   UNL A   1      42.647  25.603  27.396  1.00  0.00     0.023 A 
ATOM     76  C   UNL A   1      42.201  24.273  27.327  1.00  0.00     0.031 A 
ATOM     77  C   UNL A   1      43.444  26.082  26.340  1.00  0.00     0.131 A 
ATOM     78  C   UNL A   1      42.586  23.456  26.252  1.00  0.00     0.055 A 
ATOM     79  C   UNL A   1      43.787  25.280  25.248  1.00  0.00     0.041 A 
ATOM     80  F   UNL A   1      43.890  27.349  26.346  1.00  0.00    -0.206 F 
ATOM     81  C   UNL A   1      43.367  23.954  25.207  1.00  0.00     0.022 A 
BRANCH  78  82
ATOM     82  S   UNL A   1      42.112  21.705  26.276  1.00  0.00     0.124 S 
ATOM     83  O   UNL A   1      43.018  21.136  25.284  1.00  0.00    -0.237 OA
ATOM     84  O   UNL A   1      42.372  21.342  27.665  1.00  0.00    -0.237 OA
ATOM     85  O   UNL A   1      40.703  21.728  25.894  1.00  0.00    -0.744 OA
ENDBRANCH  78  82
ENDBRANCH  51  75
BRANCH  63  86
ATOM     86  C   UNL A   1      45.523  26.670  33.659  1.00  0.00     0.023 A 
ATOM     87  C   UNL A   1      45.395  25.450  34.345  1.00  0.00     0.031 A 
ATOM     88  C   UNL A   1      46.784  27.293  33.636  1.00  0.00     0.131 A 
ATOM     89  C   UNL A   1      46.496  24.919  35.031  1.00  0.00     0.055 A 
ATOM     90  C   UNL A   1      47.890  26.728  34.270  1.00  0.00     0.041 A 
ATOM     91  F   UNL A   1      46.957  28.460  32.996  1.00  0.00    -0.206 F 
ATOM     92  C   UNL A   1      47.746  25.541  34.983  1.00  0.00     0.022 A 
BRANCH  89  93
ATOM     93  S   UNL A   1      46.248  23.450  36.063  1.00  0.00     0.124 S 
ATOM     94  O   UNL A   1      44.797  23.293  36.024  1.00  0.00    -0.237 OA
ATOM     95  O   UNL A   1      47.018  22.435  35.350  1.00  0.00    -0.237 OA
ATOM     96  O   UNL A   1      46.795  23.844  37.359  1.00  0.00    -0.744 OA
ENDBRANCH  89  93
ENDBRANCH  63  86
ENDBRANCH  37  38
ENDBRANCH  29  32
ENDBRANCH  27  28
ENDBRANCH   1  27
TORSDOF 17
ENDMDL
