MODEL 1
REMARK VINA RESULT:     -12.4      0.000      0.000
REMARK SMILES Cc1ccc(O)c(C(=O)NCc2ccc(C(=O)NCCCCNC(=O)c3ccc(-c4c5nc(c(-c6cc(S(=O)(=O)[O-])ccc6F)c6ccc([nH]6)c(-c6cc(S(=O)(=O)[O-])ccc6F)c6nc(c(-c7cc(S(=O)(=O)[O-])ccc7F)c7ccc4[nH]7)C=C6)C=C5)cc3)o2)c1
REMARK SMILES IDX 20 1 19 2 18 3 16 4 17 5 15 7 12 8 13 9 89 10 14 11 11 12
REMARK SMILES IDX 10 13 8 14 9 15 7 17 1 18 2 19 3 20 90 21 4 22 5 23 6 24
REMARK SMILES IDX 21 26 22 27 23 28 24 29 25 31 26 32 27 33 88 34 28 35 87 36
REMARK SMILES IDX 29 37 30 38 31 39 81 40 32 41 86 42 80 43 82 44 33 45 85 46
REMARK SMILES IDX 79 47 78 48 34 50 66 51 46 52 65 53 47 54 50 55 64 56 83 57
REMARK SMILES IDX 48 58 49 59 63 61 84 62 51 63 35 64 36 65 44 66 37 67 43 68
REMARK SMILES IDX 45 69 42 70 38 71 39 72 40 73 41 74 67 75 68 76 76 77 69 78
REMARK SMILES IDX 75 79 77 80 74 81 70 82 71 83 72 84 73 85 52 86 53 87 61 88
REMARK SMILES IDX 54 89 60 90 62 91 59 92 55 93 56 94 57 95 58 96
REMARK H PARENT 18 6 10 16 6 25 23 30 82 49 50 60
REMARK Flexibility Score: inf
ROOT
ATOM      1  C   UNL A   1      32.170  30.516  26.573  1.00  0.00     0.023 C 
ENDROOT
BRANCH   1   2
ATOM      2  C   UNL A   1      31.453  29.960  25.344  1.00  0.00     0.116 C 
BRANCH   2   3
ATOM      3  N   UNL A   1      32.398  29.433  24.384  1.00  0.00    -0.349 N 
ATOM      4  C   UNL A   1      32.362  28.320  23.581  1.00  0.00     0.286 C 
ATOM      5  O   UNL A   1      33.341  28.168  22.842  1.00  0.00    -0.266 OA
ATOM      6  H   UNL A   1      33.216  29.971  24.288  1.00  0.00     0.163 HD
BRANCH   4   7
ATOM      7  C   UNL A   1      31.244  27.393  23.588  1.00  0.00     0.191 A 
ATOM      8  C   UNL A   1      30.413  25.340  23.784  1.00  0.00     0.124 A 
ATOM      9  C   UNL A   1      29.344  26.173  23.548  1.00  0.00     0.048 A 
ATOM     10  O   UNL A   1      31.562  26.069  23.790  1.00  0.00    -0.454 OA
ATOM     11  C   UNL A   1      29.868  27.484  23.466  1.00  0.00     0.056 A 
BRANCH   8  12
ATOM     12  C   UNL A   1      30.564  23.896  24.087  1.00  0.00     0.191 C 
BRANCH  12  13
ATOM     13  N   UNL A   1      30.616  23.745  25.526  1.00  0.00    -0.345 N 
ATOM     14  C   UNL A   1      31.531  23.274  26.424  1.00  0.00     0.255 C 
ATOM     15  O   UNL A   1      31.184  23.302  27.612  1.00  0.00    -0.269 OA
ATOM     16  H   UNL A   1      29.792  24.058  25.964  1.00  0.00     0.164 HD
BRANCH  14  17
ATOM     17  C   UNL A   1      32.895  22.740  26.116  1.00  0.00     0.081 A 
ATOM     18  C   UNL A   1      36.573  23.774  25.905  1.00  0.00     0.044 C 
ATOM     19  C   UNL A   1      35.329  22.936  25.847  1.00  0.00    -0.050 A 
ATOM     20  C   UNL A   1      35.403  21.606  25.433  1.00  0.00     0.007 A 
ATOM     21  C   UNL A   1      34.079  23.482  26.193  1.00  0.00     0.021 A 
ATOM     22  C   UNL A   1      34.243  20.841  25.350  1.00  0.00     0.047 A 
ATOM     23  C   UNL A   1      33.008  21.404  25.677  1.00  0.00     0.128 A 
BRANCH  23  24
ATOM     24  O   UNL A   1      31.936  20.558  25.528  1.00  0.00    -0.507 OA
ATOM     25  H   UNL A   1      31.746  19.920  26.188  1.00  0.00     0.293 HD
ENDBRANCH  23  24
ENDBRANCH  14  17
ENDBRANCH  12  13
ENDBRANCH   8  12
ENDBRANCH   4   7
ENDBRANCH   2   3
ENDBRANCH   1   2
BRANCH   1  26
ATOM     26  C   UNL A   1      31.845  31.986  26.859  1.00  0.00     0.023 C 
BRANCH  26  27
ATOM     27  C   UNL A   1      32.979  32.784  27.498  1.00  0.00     0.116 C 
BRANCH  27  28
ATOM     28  N   UNL A   1      32.622  34.170  27.766  1.00  0.00    -0.352 N 
ATOM     29  C   UNL A   1      33.161  35.022  28.701  1.00  0.00     0.251 C 
ATOM     30  H   UNL A   1      31.905  34.545  27.206  1.00  0.00     0.163 HD
ATOM     31  O   UNL A   1      32.656  36.123  28.892  1.00  0.00    -0.269 OA
BRANCH  29  32
ATOM     32  C   UNL A   1      34.322  34.572  29.494  1.00  0.00     0.039 A 
ATOM     33  C   UNL A   1      34.109  34.057  30.774  1.00  0.00     0.014 A 
ATOM     34  C   UNL A   1      35.608  34.601  28.946  1.00  0.00     0.014 A 
ATOM     35  C   UNL A   1      35.180  33.505  31.478  1.00  0.00     0.010 A 
ATOM     36  C   UNL A   1      36.655  33.977  29.616  1.00  0.00     0.010 A 
ATOM     37  C   UNL A   1      36.453  33.420  30.888  1.00  0.00    -0.014 A 
BRANCH  37  38
ATOM     38  C   UNL A   1      37.581  32.751  31.586  1.00  0.00     0.031 A 
ATOM     39  C   UNL A   1      38.286  31.591  30.939  1.00  0.00     0.074 A 
ATOM     40  C   UNL A   1      37.931  33.154  32.825  1.00  0.00     0.049 A 
ATOM     41  N   UNL A   1      39.249  30.842  31.409  1.00  0.00    -0.248 NA
ATOM     42  C   UNL A   1      37.826  31.205  29.596  1.00  0.00     0.031 C 
ATOM     43  C   UNL A   1      37.293  34.240  33.572  1.00  0.00     0.029 A 
ATOM     44  N   UNL A   1      38.906  32.696  33.677  1.00  0.00    -0.354 N 
ATOM     45  C   UNL A   1      39.505  29.892  30.426  1.00  0.00     0.074 A 
ATOM     46  C   UNL A   1      38.547  30.118  29.366  1.00  0.00     0.031 C 
ATOM     47  C   UNL A   1      37.914  34.385  34.754  1.00  0.00     0.029 A 
ATOM     48  C   UNL A   1      38.958  33.372  34.874  1.00  0.00     0.049 A 
ATOM     49  H   UNL A   1      39.511  31.953  33.452  1.00  0.00     0.167 HD
ATOM     50  C   UNL A   1      40.468  28.937  30.398  1.00  0.00     0.034 A 
ATOM     51  C   UNL A   1      39.747  33.190  35.953  1.00  0.00     0.034 A 
ATOM     52  C   UNL A   1      41.419  28.729  31.464  1.00  0.00     0.049 A 
ATOM     53  C   UNL A   1      40.782  32.094  35.914  1.00  0.00     0.074 A 
ATOM     54  C   UNL A   1      42.467  27.827  31.518  1.00  0.00     0.029 A 
ATOM     55  N   UNL A   1      41.433  29.425  32.667  1.00  0.00    -0.354 N 
ATOM     56  N   UNL A   1      41.049  31.240  34.953  1.00  0.00    -0.248 NA
ATOM     57  C   UNL A   1      41.631  31.945  37.104  1.00  0.00     0.031 C 
ATOM     58  C   UNL A   1      43.060  27.919  32.782  1.00  0.00     0.029 A 
ATOM     59  C   UNL A   1      42.445  28.944  33.483  1.00  0.00     0.049 A 
ATOM     60  H   UNL A   1      40.813  30.153  32.905  1.00  0.00     0.167 HD
ATOM     61  C   UNL A   1      42.119  30.475  35.410  1.00  0.00     0.074 A 
ATOM     62  C   UNL A   1      42.458  30.982  36.724  1.00  0.00     0.031 C 
ATOM     63  C   UNL A   1      42.767  29.450  34.798  1.00  0.00     0.034 A 
BRANCH  50  64
ATOM     64  C   UNL A   1      40.518  28.032  29.189  1.00  0.00     0.023 A 
ATOM     65  C   UNL A   1      41.467  28.214  28.169  1.00  0.00     0.031 A 
ATOM     66  C   UNL A   1      39.588  26.987  29.042  1.00  0.00     0.131 A 
ATOM     67  C   UNL A   1      41.417  27.420  27.014  1.00  0.00     0.055 A 
ATOM     68  C   UNL A   1      39.601  26.141  27.931  1.00  0.00     0.041 A 
ATOM     69  F   UNL A   1      38.642  26.777  29.970  1.00  0.00    -0.206 F 
ATOM     70  C   UNL A   1      40.508  26.365  26.900  1.00  0.00     0.022 A 
BRANCH  67  71
ATOM     71  S   UNL A   1      42.452  27.884  25.599  1.00  0.00     0.124 S 
ATOM     72  O   UNL A   1      43.723  28.190  26.251  1.00  0.00    -0.237 OA
ATOM     73  O   UNL A   1      42.427  26.678  24.780  1.00  0.00    -0.237 OA
ATOM     74  O   UNL A   1      41.759  29.039  25.031  1.00  0.00    -0.744 OA
ENDBRANCH  67  71
ENDBRANCH  50  64
BRANCH  51  75
ATOM     75  C   UNL A   1      39.587  34.047  37.164  1.00  0.00     0.023 A 
ATOM     76  C   UNL A   1      38.979  33.551  38.329  1.00  0.00     0.031 A 
ATOM     77  C   UNL A   1      39.994  35.394  37.158  1.00  0.00     0.131 A 
ATOM     78  C   UNL A   1      38.748  34.406  39.417  1.00  0.00     0.055 A 
ATOM     79  C   UNL A   1      39.817  36.224  38.266  1.00  0.00     0.041 A 
ATOM     80  F   UNL A   1      40.582  35.921  36.072  1.00  0.00    -0.206 F 
ATOM     81  C   UNL A   1      39.176  35.735  39.400  1.00  0.00     0.022 A 
BRANCH  78  82
ATOM     82  S   UNL A   1      37.783  33.782  40.821  1.00  0.00     0.124 S 
ATOM     83  O   UNL A   1      36.694  33.085  40.146  1.00  0.00    -0.237 OA
ATOM     84  O   UNL A   1      38.757  32.940  41.507  1.00  0.00    -0.237 OA
ATOM     85  O   UNL A   1      37.400  34.997  41.537  1.00  0.00    -0.744 OA
ENDBRANCH  78  82
ENDBRANCH  51  75
BRANCH  63  86
ATOM     86  C   UNL A   1      43.941  28.843  35.529  1.00  0.00     0.023 A 
ATOM     87  C   UNL A   1      43.795  27.723  36.367  1.00  0.00     0.031 A 
ATOM     88  C   UNL A   1      45.225  29.400  35.389  1.00  0.00     0.131 A 
ATOM     89  C   UNL A   1      44.902  27.236  37.080  1.00  0.00     0.055 A 
ATOM     90  C   UNL A   1      46.335  28.867  36.046  1.00  0.00     0.041 A 
ATOM     91  F   UNL A   1      45.423  30.472  34.606  1.00  0.00    -0.206 F 
ATOM     92  C   UNL A   1      46.173  27.787  36.909  1.00  0.00     0.022 A 
BRANCH  89  93
ATOM     93  S   UNL A   1      44.636  25.935  38.317  1.00  0.00     0.124 S 
ATOM     94  O   UNL A   1      43.703  25.049  37.628  1.00  0.00    -0.237 OA
ATOM     95  O   UNL A   1      45.983  25.412  38.515  1.00  0.00    -0.237 OA
ATOM     96  O   UNL A   1      44.078  26.657  39.459  1.00  0.00    -0.744 OA
ENDBRANCH  89  93
ENDBRANCH  63  86
ENDBRANCH  37  38
ENDBRANCH  29  32
ENDBRANCH  27  28
ENDBRANCH  26  27
ENDBRANCH   1  26
TORSDOF 18
ENDMDL
MODEL 2
REMARK VINA RESULT:     -12.4      3.210      8.470
REMARK SMILES Cc1ccc(O)c(C(=O)NCc2ccc(C(=O)NCCCCNC(=O)c3ccc(-c4c5nc(c(-c6cc(S(=O)(=O)[O-])ccc6F)c6ccc([nH]6)c(-c6cc(S(=O)(=O)[O-])ccc6F)c6nc(c(-c7cc(S(=O)(=O)[O-])ccc7F)c7ccc4[nH]7)C=C6)C=C5)cc3)o2)c1
REMARK SMILES IDX 20 1 19 2 18 3 16 4 17 5 15 7 12 8 13 9 89 10 14 11 11 12
REMARK SMILES IDX 10 13 8 14 9 15 7 17 1 18 2 19 3 20 90 21 4 22 5 23 6 24
REMARK SMILES IDX 21 26 22 27 23 28 24 29 25 31 26 32 27 33 88 34 28 35 87 36
REMARK SMILES IDX 29 37 30 38 31 39 81 40 32 41 86 42 80 43 82 44 33 45 85 46
REMARK SMILES IDX 79 47 78 48 34 50 66 51 46 52 65 53 47 54 50 55 64 56 83 57
REMARK SMILES IDX 48 58 49 59 63 61 84 62 51 63 35 64 36 65 44 66 37 67 43 68
REMARK SMILES IDX 45 69 42 70 38 71 39 72 40 73 41 74 67 75 68 76 76 77 69 78
REMARK SMILES IDX 75 79 77 80 74 81 70 82 71 83 72 84 73 85 52 86 53 87 61 88
REMARK SMILES IDX 54 89 60 90 62 91 59 92 55 93 56 94 57 95 58 96
REMARK H PARENT 18 6 10 16 6 25 23 30 82 49 50 60
REMARK Flexibility Score: inf
ROOT
ATOM      1  C   UNL A   1      32.916  29.123  24.483  1.00  0.00     0.023 C 
ENDROOT
BRANCH   1   2
ATOM      2  C   UNL A   1      32.921  28.718  23.010  1.00  0.00     0.116 C 
BRANCH   2   3
ATOM      3  N   UNL A   1      31.860  29.381  22.283  1.00  0.00    -0.349 N 
ATOM      4  C   UNL A   1      30.516  29.117  22.183  1.00  0.00     0.286 C 
ATOM      5  O   UNL A   1      29.872  29.909  21.485  1.00  0.00    -0.266 OA
ATOM      6  H   UNL A   1      32.156  30.165  21.767  1.00  0.00     0.163 HD
BRANCH   4   7
ATOM      7  C   UNL A   1      29.893  27.996  22.861  1.00  0.00     0.191 A 
ATOM      8  C   UNL A   1      29.921  25.894  23.586  1.00  0.00     0.124 A 
ATOM      9  C   UNL A   1      28.703  26.417  23.954  1.00  0.00     0.048 A 
ATOM     10  O   UNL A   1      30.633  26.836  22.910  1.00  0.00    -0.454 OA
ATOM     11  C   UNL A   1      28.703  27.766  23.531  1.00  0.00     0.056 A 
BRANCH   8  12
ATOM     12  C   UNL A   1      30.616  24.604  23.818  1.00  0.00     0.191 C 
BRANCH  12  13
ATOM     13  N   UNL A   1      30.428  24.239  25.207  1.00  0.00    -0.345 N 
ATOM     14  C   UNL A   1      31.162  23.578  26.149  1.00  0.00     0.255 C 
ATOM     15  O   UNL A   1      30.629  23.455  27.260  1.00  0.00    -0.269 OA
ATOM     16  H   UNL A   1      29.559  24.542  25.558  1.00  0.00     0.164 HD
BRANCH  14  17
ATOM     17  C   UNL A   1      32.531  23.000  25.973  1.00  0.00     0.081 A 
ATOM     18  C   UNL A   1      36.220  23.983  25.708  1.00  0.00     0.044 C 
ATOM     19  C   UNL A   1      34.973  23.148  25.750  1.00  0.00    -0.050 A 
ATOM     20  C   UNL A   1      35.052  21.768  25.559  1.00  0.00     0.007 A 
ATOM     21  C   UNL A   1      33.717  23.744  25.964  1.00  0.00     0.021 A 
ATOM     22  C   UNL A   1      33.890  21.001  25.567  1.00  0.00     0.047 A 
ATOM     23  C   UNL A   1      32.650  21.610  25.761  1.00  0.00     0.128 A 
BRANCH  23  24
ATOM     24  O   UNL A   1      31.578  20.752  25.719  1.00  0.00    -0.507 OA
ATOM     25  H   UNL A   1      31.250  20.451  24.894  1.00  0.00     0.293 HD
ENDBRANCH  23  24
ENDBRANCH  14  17
ENDBRANCH  12  13
ENDBRANCH   8  12
ENDBRANCH   4   7
ENDBRANCH   2   3
ENDBRANCH   1   2
BRANCH   1  26
ATOM     26  C   UNL A   1      33.967  28.391  25.323  1.00  0.00     0.023 C 
BRANCH  26  27
ATOM     27  C   UNL A   1      34.019  28.804  26.792  1.00  0.00     0.116 C 
BRANCH  27  28
ATOM     28  N   UNL A   1      33.693  30.207  27.003  1.00  0.00    -0.352 N 
ATOM     29  C   UNL A   1      34.359  31.129  27.776  1.00  0.00     0.251 C 
ATOM     30  H   UNL A   1      32.894  30.537  26.533  1.00  0.00     0.163 HD
ATOM     31  O   UNL A   1      33.877  32.242  27.956  1.00  0.00    -0.269 OA
BRANCH  29  32
ATOM     32  C   UNL A   1      35.633  30.741  28.414  1.00  0.00     0.039 A 
ATOM     33  C   UNL A   1      35.611  29.816  29.459  1.00  0.00     0.014 A 
ATOM     34  C   UNL A   1      36.846  31.244  27.936  1.00  0.00     0.014 A 
ATOM     35  C   UNL A   1      36.816  29.340  29.978  1.00  0.00     0.010 A 
ATOM     36  C   UNL A   1      38.043  30.708  28.400  1.00  0.00     0.010 A 
ATOM     37  C   UNL A   1      38.042  29.749  29.424  1.00  0.00    -0.014 A 
BRANCH  37  38
ATOM     38  C   UNL A   1      39.329  29.180  29.902  1.00  0.00     0.031 A 
ATOM     39  C   UNL A   1      40.048  29.815  31.060  1.00  0.00     0.074 A 
ATOM     40  C   UNL A   1      39.873  28.128  29.257  1.00  0.00     0.049 A 
ATOM     41  N   UNL A   1      41.205  29.504  31.585  1.00  0.00    -0.248 NA
ATOM     42  C   UNL A   1      39.393  30.971  31.691  1.00  0.00     0.031 C 
ATOM     43  C   UNL A   1      39.289  27.454  28.095  1.00  0.00     0.029 A 
ATOM     44  N   UNL A   1      41.040  27.442  29.483  1.00  0.00    -0.354 N 
ATOM     45  C   UNL A   1      41.421  30.428  32.602  1.00  0.00     0.074 A 
ATOM     46  C   UNL A   1      40.308  31.353  32.569  1.00  0.00     0.031 C 
ATOM     47  C   UNL A   1      40.082  26.434  27.733  1.00  0.00     0.029 A 
ATOM     48  C   UNL A   1      41.257  26.409  28.599  1.00  0.00     0.049 A 
ATOM     49  H   UNL A   1      41.665  27.667  30.210  1.00  0.00     0.167 HD
ATOM     50  C   UNL A   1      42.439  30.485  33.496  1.00  0.00     0.034 A 
ATOM     51  C   UNL A   1      42.290  25.550  28.488  1.00  0.00     0.034 A 
ATOM     52  C   UNL A   1      43.538  29.550  33.516  1.00  0.00     0.049 A 
ATOM     53  C   UNL A   1      43.431  25.659  29.469  1.00  0.00     0.074 A 
ATOM     54  C   UNL A   1      44.594  29.483  34.408  1.00  0.00     0.029 A 
ATOM     55  N   UNL A   1      43.730  28.526  32.597  1.00  0.00    -0.354 N 
ATOM     56  N   UNL A   1      43.592  26.505  30.460  1.00  0.00    -0.248 NA
ATOM     57  C   UNL A   1      44.524  24.689  29.322  1.00  0.00     0.031 C 
ATOM     58  C   UNL A   1      45.466  28.476  33.981  1.00  0.00     0.029 A 
ATOM     59  C   UNL A   1      44.908  27.849  32.878  1.00  0.00     0.049 A 
ATOM     60  H   UNL A   1      43.120  28.312  31.854  1.00  0.00     0.167 HD
ATOM     61  C   UNL A   1      44.789  26.146  31.075  1.00  0.00     0.074 A 
ATOM     62  C   UNL A   1      45.296  24.997  30.354  1.00  0.00     0.031 C 
ATOM     63  C   UNL A   1      45.410  26.711  32.142  1.00  0.00     0.034 A 
BRANCH  50  64
ATOM     64  C   UNL A   1      42.419  31.610  34.505  1.00  0.00     0.023 A 
ATOM     65  C   UNL A   1      41.561  31.589  35.618  1.00  0.00     0.031 A 
ATOM     66  C   UNL A   1      43.251  32.731  34.339  1.00  0.00     0.131 A 
ATOM     67  C   UNL A   1      41.496  32.697  36.476  1.00  0.00     0.055 A 
ATOM     68  C   UNL A   1      43.248  33.792  35.247  1.00  0.00     0.041 A 
ATOM     69  F   UNL A   1      44.075  32.822  33.283  1.00  0.00    -0.206 F 
ATOM     70  C   UNL A   1      42.355  33.787  36.314  1.00  0.00     0.022 A 
BRANCH  67  71
ATOM     71  S   UNL A   1      40.169  32.761  37.709  1.00  0.00     0.124 S 
ATOM     72  O   UNL A   1      39.238  31.761  37.192  1.00  0.00    -0.237 OA
ATOM     73  O   UNL A   1      40.865  32.410  38.941  1.00  0.00    -0.237 OA
ATOM     74  O   UNL A   1      39.694  34.141  37.631  1.00  0.00    -0.744 OA
ENDBRANCH  67  71
ENDBRANCH  50  64
BRANCH  51  75
ATOM     75  C   UNL A   1      42.308  24.521  27.408  1.00  0.00     0.023 A 
ATOM     76  C   UNL A   1      41.663  23.284  27.574  1.00  0.00     0.031 A 
ATOM     77  C   UNL A   1      43.016  24.737  26.212  1.00  0.00     0.131 A 
ATOM     78  C   UNL A   1      41.782  22.294  26.586  1.00  0.00     0.055 A 
ATOM     79  C   UNL A   1      43.079  23.771  25.206  1.00  0.00     0.041 A 
ATOM     80  F   UNL A   1      43.651  25.901  25.999  1.00  0.00    -0.206 F 
ATOM     81  C   UNL A   1      42.472  22.534  25.396  1.00  0.00     0.022 A 
BRANCH  78  82
ATOM     82  S   UNL A   1      41.104  20.645  26.924  1.00  0.00     0.124 S 
ATOM     83  O   UNL A   1      39.941  20.617  26.045  1.00  0.00    -0.237 OA
ATOM     84  O   UNL A   1      42.215  19.779  26.548  1.00  0.00    -0.237 OA
ATOM     85  O   UNL A   1      40.806  20.687  28.354  1.00  0.00    -0.744 OA
ENDBRANCH  78  82
ENDBRANCH  51  75
BRANCH  63  86
ATOM     86  C   UNL A   1      46.686  26.059  32.621  1.00  0.00     0.023 A 
ATOM     87  C   UNL A   1      46.682  25.043  33.593  1.00  0.00     0.031 A 
ATOM     88  C   UNL A   1      47.927  26.471  32.102  1.00  0.00     0.131 A 
ATOM     89  C   UNL A   1      47.897  24.516  34.058  1.00  0.00     0.055 A 
ATOM     90  C   UNL A   1      49.127  25.893  32.517  1.00  0.00     0.041 A 
ATOM     91  F   UNL A   1      47.992  27.439  31.175  1.00  0.00    -0.206 F 
ATOM     92  C   UNL A   1      49.117  24.920  33.512  1.00  0.00     0.022 A 
BRANCH  89  93
ATOM     93  S   UNL A   1      47.868  23.370  35.464  1.00  0.00     0.124 S 
ATOM     94  O   UNL A   1      48.092  24.268  36.592  1.00  0.00    -0.237 OA
ATOM     95  O   UNL A   1      46.533  22.791  35.366  1.00  0.00    -0.237 OA
ATOM     96  O   UNL A   1      48.965  22.447  35.177  1.00  0.00    -0.744 OA
ENDBRANCH  89  93
ENDBRANCH  63  86
ENDBRANCH  37  38
ENDBRANCH  29  32
ENDBRANCH  27  28
ENDBRANCH  26  27
ENDBRANCH   1  26
TORSDOF 18
ENDMDL
MODEL 3
REMARK VINA RESULT:     -12.3      6.818     11.400
REMARK SMILES Cc1ccc(O)c(C(=O)NCc2ccc(C(=O)NCCCCNC(=O)c3ccc(-c4c5nc(c(-c6cc(S(=O)(=O)[O-])ccc6F)c6ccc([nH]6)c(-c6cc(S(=O)(=O)[O-])ccc6F)c6nc(c(-c7cc(S(=O)(=O)[O-])ccc7F)c7ccc4[nH]7)C=C6)C=C5)cc3)o2)c1
REMARK SMILES IDX 20 1 19 2 18 3 16 4 17 5 15 7 12 8 13 9 89 10 14 11 11 12
REMARK SMILES IDX 10 13 8 14 9 15 7 17 1 18 2 19 3 20 90 21 4 22 5 23 6 24
REMARK SMILES IDX 21 26 22 27 23 28 24 29 25 31 26 32 27 33 88 34 28 35 87 36
REMARK SMILES IDX 29 37 30 38 31 39 81 40 32 41 86 42 80 43 82 44 33 45 85 46
REMARK SMILES IDX 79 47 78 48 34 50 66 51 46 52 65 53 47 54 50 55 64 56 83 57
REMARK SMILES IDX 48 58 49 59 63 61 84 62 51 63 35 64 36 65 44 66 37 67 43 68
REMARK SMILES IDX 45 69 42 70 38 71 39 72 40 73 41 74 67 75 68 76 76 77 69 78
REMARK SMILES IDX 75 79 77 80 74 81 70 82 71 83 72 84 73 85 52 86 53 87 61 88
REMARK SMILES IDX 54 89 60 90 62 91 59 92 55 93 56 94 57 95 58 96
REMARK H PARENT 18 6 10 16 6 25 23 30 82 49 50 60
REMARK Flexibility Score: inf
ROOT
ATOM      1  C   UNL A   1      44.588  22.357  25.489  1.00  0.00     0.023 C 
ENDROOT
BRANCH   1   2
ATOM      2  C   UNL A   1      44.294  23.676  24.778  1.00  0.00     0.116 C 
BRANCH   2   3
ATOM      3  N   UNL A   1      45.430  24.568  24.844  1.00  0.00    -0.349 N 
ATOM      4  C   UNL A   1      45.524  25.914  25.103  1.00  0.00     0.286 C 
ATOM      5  O   UNL A   1      46.672  26.374  25.107  1.00  0.00    -0.266 OA
ATOM      6  H   UNL A   1      46.295  24.132  24.671  1.00  0.00     0.163 HD
BRANCH   4   7
ATOM      7  C   UNL A   1      44.358  26.736  25.368  1.00  0.00     0.191 A 
ATOM      8  C   UNL A   1      43.401  28.539  26.252  1.00  0.00     0.124 A 
ATOM      9  C   UNL A   1      42.396  27.822  25.644  1.00  0.00     0.048 A 
ATOM     10  O   UNL A   1      44.581  27.878  26.104  1.00  0.00    -0.454 OA
ATOM     11  C   UNL A   1      43.012  26.698  25.046  1.00  0.00     0.056 A 
BRANCH   8  12
ATOM     12  C   UNL A   1      43.478  29.850  26.941  1.00  0.00     0.191 C 
BRANCH  12  13
ATOM     13  N   UNL A   1      44.738  30.468  26.585  1.00  0.00    -0.345 N 
ATOM     14  C   UNL A   1      45.169  31.744  26.360  1.00  0.00     0.255 C 
ATOM     15  O   UNL A   1      46.362  31.865  26.054  1.00  0.00    -0.269 OA
ATOM     16  H   UNL A   1      45.461  29.808  26.480  1.00  0.00     0.164 HD
BRANCH  14  17
ATOM     17  C   UNL A   1      44.350  32.994  26.450  1.00  0.00     0.081 A 
ATOM     18  C   UNL A   1      42.683  35.344  28.969  1.00  0.00     0.044 C 
ATOM     19  C   UNL A   1      43.134  34.748  27.667  1.00  0.00    -0.050 A 
ATOM     20  C   UNL A   1      42.740  35.328  26.460  1.00  0.00     0.007 A 
ATOM     21  C   UNL A   1      43.941  33.596  27.646  1.00  0.00     0.021 A 
ATOM     22  C   UNL A   1      43.133  34.755  25.255  1.00  0.00     0.047 A 
ATOM     23  C   UNL A   1      43.918  33.600  25.252  1.00  0.00     0.128 A 
BRANCH  23  24
ATOM     24  O   UNL A   1      44.217  33.115  24.002  1.00  0.00    -0.507 OA
ATOM     25  H   UNL A   1      44.836  33.564  23.460  1.00  0.00     0.293 HD
ENDBRANCH  23  24
ENDBRANCH  14  17
ENDBRANCH  12  13
ENDBRANCH   8  12
ENDBRANCH   4   7
ENDBRANCH   2   3
ENDBRANCH   1   2
BRANCH   1  26
ATOM     26  C   UNL A   1      43.911  21.146  24.840  1.00  0.00     0.023 C 
BRANCH  26  27
ATOM     27  C   UNL A   1      43.492  20.044  25.811  1.00  0.00     0.116 C 
BRANCH  27  28
ATOM     28  N   UNL A   1      42.079  19.708  25.717  1.00  0.00    -0.352 N 
ATOM     29  C   UNL A   1      41.004  20.394  26.230  1.00  0.00     0.251 C 
ATOM     30  H   UNL A   1      41.865  18.884  25.222  1.00  0.00     0.163 HD
ATOM     31  O   UNL A   1      39.881  19.905  26.179  1.00  0.00    -0.269 OA
BRANCH  29  32
ATOM     32  C   UNL A   1      41.234  21.701  26.878  1.00  0.00     0.039 A 
ATOM     33  C   UNL A   1      41.793  21.733  28.157  1.00  0.00     0.014 A 
ATOM     34  C   UNL A   1      40.955  22.889  26.196  1.00  0.00     0.014 A 
ATOM     35  C   UNL A   1      42.140  22.961  28.723  1.00  0.00     0.010 A 
ATOM     36  C   UNL A   1      41.375  24.103  26.729  1.00  0.00     0.010 A 
ATOM     37  C   UNL A   1      41.974  24.152  27.997  1.00  0.00    -0.014 A 
BRANCH  37  38
ATOM     38  C   UNL A   1      42.425  25.457  28.548  1.00  0.00     0.031 A 
ATOM     39  C   UNL A   1      43.890  25.723  28.751  1.00  0.00     0.074 A 
ATOM     40  C   UNL A   1      41.509  26.378  28.914  1.00  0.00     0.049 A 
ATOM     41  N   UNL A   1      44.477  26.770  29.271  1.00  0.00    -0.248 NA
ATOM     42  C   UNL A   1      44.817  24.656  28.343  1.00  0.00     0.031 C 
ATOM     43  C   UNL A   1      40.058  26.217  28.804  1.00  0.00     0.029 A 
ATOM     44  N   UNL A   1      41.662  27.629  29.457  1.00  0.00    -0.354 N 
ATOM     45  C   UNL A   1      45.838  26.487  29.260  1.00  0.00     0.074 A 
ATOM     46  C   UNL A   1      45.982  25.141  28.749  1.00  0.00     0.031 C 
ATOM     47  C   UNL A   1      39.456  27.338  29.233  1.00  0.00     0.029 A 
ATOM     48  C   UNL A   1      40.472  28.278  29.698  1.00  0.00     0.049 A 
ATOM     49  H   UNL A   1      42.540  28.026  29.656  1.00  0.00     0.167 HD
ATOM     50  C   UNL A   1      46.875  27.285  29.618  1.00  0.00     0.034 A 
ATOM     51  C   UNL A   1      40.225  29.486  30.244  1.00  0.00     0.034 A 
ATOM     52  C   UNL A   1      46.712  28.628  30.123  1.00  0.00     0.049 A 
ATOM     53  C   UNL A   1      41.392  30.338  30.674  1.00  0.00     0.074 A 
ATOM     54  C   UNL A   1      47.692  29.542  30.466  1.00  0.00     0.029 A 
ATOM     55  N   UNL A   1      45.492  29.246  30.365  1.00  0.00    -0.354 N 
ATOM     56  N   UNL A   1      42.677  30.078  30.604  1.00  0.00    -0.248 NA
ATOM     57  C   UNL A   1      41.075  31.654  31.245  1.00  0.00     0.031 C 
ATOM     58  C   UNL A   1      47.068  30.677  30.993  1.00  0.00     0.029 A 
ATOM     59  C   UNL A   1      45.696  30.513  30.891  1.00  0.00     0.049 A 
ATOM     60  H   UNL A   1      44.610  28.843  30.190  1.00  0.00     0.167 HD
ATOM     61  C   UNL A   1      43.322  31.212  31.092  1.00  0.00     0.074 A 
ATOM     62  C   UNL A   1      42.284  32.162  31.434  1.00  0.00     0.031 C 
ATOM     63  C   UNL A   1      44.651  31.449  31.240  1.00  0.00     0.034 A 
BRANCH  50  64
ATOM     64  C   UNL A   1      48.268  26.713  29.502  1.00  0.00     0.023 A 
ATOM     65  C   UNL A   1      49.011  26.814  28.312  1.00  0.00     0.031 A 
ATOM     66  C   UNL A   1      48.854  26.036  30.586  1.00  0.00     0.131 A 
ATOM     67  C   UNL A   1      50.259  26.182  28.208  1.00  0.00     0.055 A 
ATOM     68  C   UNL A   1      50.135  25.486  30.505  1.00  0.00     0.041 A 
ATOM     69  F   UNL A   1      48.187  25.885  31.740  1.00  0.00    -0.206 F 
ATOM     70  C   UNL A   1      50.839  25.542  29.306  1.00  0.00     0.022 A 
BRANCH  67  71
ATOM     71  S   UNL A   1      51.040  26.072  26.576  1.00  0.00     0.124 S 
ATOM     72  O   UNL A   1      51.875  24.883  26.728  1.00  0.00    -0.237 OA
ATOM     73  O   UNL A   1      49.894  25.939  25.684  1.00  0.00    -0.237 OA
ATOM     74  O   UNL A   1      51.777  27.330  26.463  1.00  0.00    -0.744 OA
ENDBRANCH  67  71
ENDBRANCH  50  64
BRANCH  51  75
ATOM     75  C   UNL A   1      38.823  29.961  30.431  1.00  0.00     0.023 A 
ATOM     76  C   UNL A   1      38.301  31.007  29.651  1.00  0.00     0.031 A 
ATOM     77  C   UNL A   1      37.998  29.412  31.430  1.00  0.00     0.131 A 
ATOM     78  C   UNL A   1      37.016  31.505  29.917  1.00  0.00     0.055 A 
ATOM     79  C   UNL A   1      36.697  29.871  31.648  1.00  0.00     0.041 A 
ATOM     80  F   UNL A   1      38.443  28.410  32.204  1.00  0.00    -0.206 F 
ATOM     81  C   UNL A   1      36.205  30.934  30.898  1.00  0.00     0.022 A 
BRANCH  78  82
ATOM     82  S   UNL A   1      36.458  32.983  29.024  1.00  0.00     0.124 S 
ATOM     83  O   UNL A   1      35.922  32.403  27.798  1.00  0.00    -0.237 OA
ATOM     84  O   UNL A   1      35.480  33.543  29.950  1.00  0.00    -0.237 OA
ATOM     85  O   UNL A   1      37.681  33.766  28.864  1.00  0.00    -0.744 OA
ENDBRANCH  78  82
ENDBRANCH  51  75
BRANCH  63  86
ATOM     86  C   UNL A   1      45.056  32.811  31.751  1.00  0.00     0.023 A 
ATOM     87  C   UNL A   1      45.352  33.874  30.880  1.00  0.00     0.031 A 
ATOM     88  C   UNL A   1      45.155  33.044  33.135  1.00  0.00     0.131 A 
ATOM     89  C   UNL A   1      45.791  35.102  31.399  1.00  0.00     0.055 A 
ATOM     90  C   UNL A   1      45.524  34.289  33.647  1.00  0.00     0.041 A 
ATOM     91  F   UNL A   1      44.889  32.066  34.014  1.00  0.00    -0.206 F 
ATOM     92  C   UNL A   1      45.859  35.322  32.777  1.00  0.00     0.022 A 
BRANCH  89  93
ATOM     93  S   UNL A   1      46.375  36.375  30.247  1.00  0.00     0.124 S 
ATOM     94  O   UNL A   1      45.333  37.391  30.366  1.00  0.00    -0.237 OA
ATOM     95  O   UNL A   1      47.675  36.728  30.804  1.00  0.00    -0.237 OA
ATOM     96  O   UNL A   1      46.419  35.680  28.961  1.00  0.00    -0.744 OA
ENDBRANCH  89  93
ENDBRANCH  63  86
ENDBRANCH  37  38
ENDBRANCH  29  32
ENDBRANCH  27  28
ENDBRANCH  26  27
ENDBRANCH   1  26
TORSDOF 18
ENDMDL
