MODEL 1
REMARK VINA RESULT:     -11.8      0.000      0.000
REMARK SMILES O=C(NCCCCNC(=O)[C@H]1C=C[C@H](NS(=O)(=O)c2ccc(F)c(F)c2F)C1)c1ccc(-c2c3nc(c(-c4cc(S(=O)(=O)[O-])ccc4F)c4ccc([nH]4)c(-c4cc(S(=O)(=O)[O-])ccc4F)c4nc(c(-c5cc(S(=O)(=O)[O-])ccc5F)c5ccc2[nH]5)C=C4)C=C3)cc1
REMARK SMILES IDX 5 1 4 2 3 3 1 4 2 5 29 7 30 8 91 9 31 10 90 11 32 12 33 13
REMARK SMILES IDX 34 14 84 15 35 16 89 17 83 18 85 19 36 20 88 21 82 22 81 23
REMARK SMILES IDX 37 25 69 26 49 27 68 28 50 29 53 30 67 31 86 32 51 33 52 34
REMARK SMILES IDX 66 36 87 37 54 38 38 39 39 40 47 41 40 42 46 43 48 44 45 45
REMARK SMILES IDX 41 46 42 47 43 48 44 49 70 50 71 51 79 52 72 53 78 54 80 55
REMARK SMILES IDX 77 56 73 57 74 58 75 59 76 60 55 61 56 62 64 63 57 64 63 65
REMARK SMILES IDX 65 66 62 67 58 68 59 69 60 70 61 71 6 72 7 73 8 74 9 75
REMARK SMILES IDX 10 77 11 78 12 79 28 80 13 81 14 82 15 83 16 85 17 86 18 87
REMARK SMILES IDX 19 88 20 89 26 90 21 91 24 92 27 93 22 94 25 95 23 96
REMARK H PARENT 3 6 85 24 53 35 8 76 15 84
REMARK Flexibility Score: inf
ROOT
ATOM      1  C   UNL A   1      31.711  31.787  26.761  1.00  0.00     0.023 C 
ENDROOT
BRANCH   1   2
ATOM      2  C   UNL A   1      32.965  32.523  27.209  1.00  0.00     0.116 C 
BRANCH   2   3
ATOM      3  N   UNL A   1      32.703  33.887  27.655  1.00  0.00    -0.352 N 
ATOM      4  O   UNL A   1      32.809  35.672  29.038  1.00  0.00    -0.269 OA
ATOM      5  C   UNL A   1      33.250  34.574  28.716  1.00  0.00     0.251 C 
ATOM      6  H   UNL A   1      32.042  34.386  27.123  1.00  0.00     0.163 HD
BRANCH   5   7
ATOM      7  C   UNL A   1      34.357  33.956  29.475  1.00  0.00     0.039 A 
ATOM      8  C   UNL A   1      35.676  34.264  29.142  1.00  0.00     0.014 A 
ATOM      9  C   UNL A   1      34.082  33.028  30.481  1.00  0.00     0.014 A 
ATOM     10  C   UNL A   1      36.708  33.502  29.668  1.00  0.00     0.010 A 
ATOM     11  C   UNL A   1      35.138  32.356  31.107  1.00  0.00     0.010 A 
ATOM     12  C   UNL A   1      36.459  32.563  30.682  1.00  0.00    -0.014 A 
BRANCH  12  13
ATOM     13  C   UNL A   1      37.619  31.895  31.328  1.00  0.00     0.031 A 
ATOM     14  C   UNL A   1      38.377  30.789  30.646  1.00  0.00     0.074 A 
ATOM     15  C   UNL A   1      38.013  32.347  32.536  1.00  0.00     0.049 A 
ATOM     16  N   UNL A   1      39.422  30.127  31.074  1.00  0.00    -0.248 NA
ATOM     17  C   UNL A   1      37.903  30.366  29.320  1.00  0.00     0.031 C 
ATOM     18  C   UNL A   1      37.348  33.417  33.289  1.00  0.00     0.029 A 
ATOM     19  N   UNL A   1      39.071  31.997  33.333  1.00  0.00    -0.354 N 
ATOM     20  C   UNL A   1      39.727  29.203  30.081  1.00  0.00     0.074 A 
ATOM     21  C   UNL A   1      38.732  29.367  29.042  1.00  0.00     0.031 C 
ATOM     22  C   UNL A   1      38.049  33.679  34.398  1.00  0.00     0.029 A 
ATOM     23  C   UNL A   1      39.151  32.733  34.493  1.00  0.00     0.049 A 
ATOM     24  H   UNL A   1      39.714  31.289  33.098  1.00  0.00     0.167 HD
ATOM     25  C   UNL A   1      40.748  28.308  30.042  1.00  0.00     0.034 A 
ATOM     26  C   UNL A   1      39.992  32.637  35.539  1.00  0.00     0.034 A 
ATOM     27  C   UNL A   1      41.727  28.160  31.096  1.00  0.00     0.049 A 
ATOM     28  C   UNL A   1      41.071  31.589  35.494  1.00  0.00     0.074 A 
ATOM     29  C   UNL A   1      42.811  27.298  31.148  1.00  0.00     0.029 A 
ATOM     30  N   UNL A   1      41.739  28.877  32.286  1.00  0.00    -0.354 N 
ATOM     31  N   UNL A   1      41.351  30.735  34.538  1.00  0.00    -0.248 NA
ATOM     32  C   UNL A   1      41.946  31.495  36.667  1.00  0.00     0.031 C 
ATOM     33  C   UNL A   1      43.425  27.437  32.397  1.00  0.00     0.029 A 
ATOM     34  C   UNL A   1      42.787  28.451  33.091  1.00  0.00     0.049 A 
ATOM     35  H   UNL A   1      41.098  29.585  32.523  1.00  0.00     0.167 HD
ATOM     36  C   UNL A   1      42.454  30.017  34.988  1.00  0.00     0.074 A 
ATOM     37  C   UNL A   1      42.803  30.564  36.283  1.00  0.00     0.031 C 
ATOM     38  C   UNL A   1      43.116  28.994  34.389  1.00  0.00     0.034 A 
BRANCH  25  39
ATOM     39  C   UNL A   1      40.838  27.391  28.845  1.00  0.00     0.023 A 
ATOM     40  C   UNL A   1      41.818  27.560  27.851  1.00  0.00     0.031 A 
ATOM     41  C   UNL A   1      39.941  26.317  28.705  1.00  0.00     0.131 A 
ATOM     42  C   UNL A   1      41.845  26.703  26.739  1.00  0.00     0.055 A 
ATOM     43  C   UNL A   1      40.021  25.421  27.635  1.00  0.00     0.041 A 
ATOM     44  F   UNL A   1      38.969  26.115  29.609  1.00  0.00    -0.206 F 
ATOM     45  C   UNL A   1      40.970  25.618  26.638  1.00  0.00     0.022 A 
BRANCH  42  46
ATOM     46  S   UNL A   1      42.959  27.099  25.364  1.00  0.00     0.124 S 
ATOM     47  O   UNL A   1      44.171  27.506  26.071  1.00  0.00    -0.237 OA
ATOM     48  O   UNL A   1      43.036  25.834  24.643  1.00  0.00    -0.237 OA
ATOM     49  O   UNL A   1      42.267  28.176  24.660  1.00  0.00    -0.744 OA
ENDBRANCH  42  46
ENDBRANCH  25  39
BRANCH  26  50
ATOM     50  C   UNL A   1      39.817  33.511  36.734  1.00  0.00     0.023 A 
ATOM     51  C   UNL A   1      39.213  33.028  37.904  1.00  0.00     0.031 A 
ATOM     52  C   UNL A   1      40.198  34.866  36.703  1.00  0.00     0.131 A 
ATOM     53  C   UNL A   1      38.948  33.905  38.966  1.00  0.00     0.055 A 
ATOM     54  C   UNL A   1      40.003  35.716  37.791  1.00  0.00     0.041 A 
ATOM     55  F   UNL A   1      40.779  35.384  35.608  1.00  0.00    -0.206 F 
ATOM     56  C   UNL A   1      39.356  35.241  38.925  1.00  0.00     0.022 A 
BRANCH  53  57
ATOM     57  S   UNL A   1      37.942  33.304  40.350  1.00  0.00     0.124 S 
ATOM     58  O   UNL A   1      37.935  34.463  41.235  1.00  0.00    -0.237 OA
ATOM     59  O   UNL A   1      36.678  32.992  39.691  1.00  0.00    -0.237 OA
ATOM     60  O   UNL A   1      38.692  32.150  40.837  1.00  0.00    -0.744 OA
ENDBRANCH  53  57
ENDBRANCH  26  50
BRANCH  38  61
ATOM     61  C   UNL A   1      44.312  28.438  35.124  1.00  0.00     0.023 A 
ATOM     62  C   UNL A   1      44.196  27.341  35.998  1.00  0.00     0.031 A 
ATOM     63  C   UNL A   1      45.574  29.039  34.982  1.00  0.00     0.131 A 
ATOM     64  C   UNL A   1      45.305  26.931  36.755  1.00  0.00     0.055 A 
ATOM     65  C   UNL A   1      46.692  28.575  35.679  1.00  0.00     0.041 A 
ATOM     66  F   UNL A   1      45.744  30.092  34.167  1.00  0.00    -0.206 F 
ATOM     67  C   UNL A   1      46.556  27.528  36.585  1.00  0.00     0.022 A 
BRANCH  64  68
ATOM     68  S   UNL A   1      45.056  25.692  38.055  1.00  0.00     0.124 S 
ATOM     69  O   UNL A   1      43.775  25.105  37.673  1.00  0.00    -0.237 OA
ATOM     70  O   UNL A   1      46.224  24.832  37.895  1.00  0.00    -0.237 OA
ATOM     71  O   UNL A   1      45.034  26.485  39.283  1.00  0.00    -0.744 OA
ENDBRANCH  64  68
ENDBRANCH  38  61
ENDBRANCH  12  13
ENDBRANCH   5   7
ENDBRANCH   2   3
ENDBRANCH   1   2
BRANCH   1  72
ATOM     72  C   UNL A   1      31.821  30.268  26.776  1.00  0.00     0.023 C 
BRANCH  72  73
ATOM     73  C   UNL A   1      33.122  29.721  26.214  1.00  0.00     0.116 C 
BRANCH  73  74
ATOM     74  N   UNL A   1      33.209  29.797  24.768  1.00  0.00    -0.356 N 
ATOM     75  C   UNL A   1      32.981  28.781  23.874  1.00  0.00     0.226 C 
ATOM     76  H   UNL A   1      33.458  30.670  24.387  1.00  0.00     0.163 HD
ATOM     77  O   UNL A   1      33.000  29.028  22.670  1.00  0.00    -0.274 OA
BRANCH  75  78
ATOM     78  C   UNL A   1      32.744  27.379  24.439  1.00  0.00     0.103 C 
ATOM     79  C   UNL A   1      31.509  26.762  23.848  1.00  0.00    -0.016 C 
ATOM     80  C   UNL A   1      33.832  26.362  24.059  1.00  0.00     0.042 C 
ATOM     81  C   UNL A   1      31.709  25.499  23.476  1.00  0.00    -0.011 C 
ATOM     82  C   UNL A   1      33.098  25.052  23.737  1.00  0.00     0.093 C 
BRANCH  82  83
ATOM     83  N   UNL A   1      33.140  24.154  24.897  1.00  0.00    -0.204 NA
ATOM     84  H   UNL A   1      32.219  24.187  25.334  1.00  0.00     0.142 HD
BRANCH  83  85
ATOM     85  S   UNL A   1      33.516  22.523  24.669  1.00  0.00     0.244 S 
ATOM     86  O   UNL A   1      32.772  21.799  25.681  1.00  0.00    -0.207 OA
ATOM     87  O   UNL A   1      33.351  22.191  23.277  1.00  0.00    -0.207 OA
BRANCH  85  88
ATOM     88  C   UNL A   1      35.217  22.456  25.114  1.00  0.00     0.121 A 
ATOM     89  C   UNL A   1      35.865  23.624  25.537  1.00  0.00     0.028 A 
ATOM     90  C   UNL A   1      35.918  21.259  24.998  1.00  0.00     0.181 A 
ATOM     91  C   UNL A   1      37.231  23.587  25.814  1.00  0.00     0.044 A 
ATOM     92  C   UNL A   1      37.278  21.231  25.269  1.00  0.00     0.195 A 
ATOM     93  F   UNL A   1      35.329  20.139  24.560  1.00  0.00    -0.202 F 
ATOM     94  C   UNL A   1      37.930  22.390  25.673  1.00  0.00     0.161 A 
ATOM     95  F   UNL A   1      37.967  20.091  25.117  1.00  0.00    -0.200 F 
ATOM     96  F   UNL A   1      39.246  22.369  25.918  1.00  0.00    -0.204 F 
ENDBRANCH  85  88
ENDBRANCH  83  85
ENDBRANCH  82  83
ENDBRANCH  75  78
ENDBRANCH  73  74
ENDBRANCH  72  73
ENDBRANCH   1  72
TORSDOF 17
ENDMDL
MODEL 2
REMARK VINA RESULT:     -11.7      3.353      8.490
REMARK SMILES O=C(NCCCCNC(=O)[C@H]1C=C[C@H](NS(=O)(=O)c2ccc(F)c(F)c2F)C1)c1ccc(-c2c3nc(c(-c4cc(S(=O)(=O)[O-])ccc4F)c4ccc([nH]4)c(-c4cc(S(=O)(=O)[O-])ccc4F)c4nc(c(-c5cc(S(=O)(=O)[O-])ccc5F)c5ccc2[nH]5)C=C4)C=C3)cc1
REMARK SMILES IDX 5 1 4 2 3 3 1 4 2 5 29 7 30 8 91 9 31 10 90 11 32 12 33 13
REMARK SMILES IDX 34 14 84 15 35 16 89 17 83 18 85 19 36 20 88 21 82 22 81 23
REMARK SMILES IDX 37 25 69 26 49 27 68 28 50 29 53 30 67 31 86 32 51 33 52 34
REMARK SMILES IDX 66 36 87 37 54 38 38 39 39 40 47 41 40 42 46 43 48 44 45 45
REMARK SMILES IDX 41 46 42 47 43 48 44 49 70 50 71 51 79 52 72 53 78 54 80 55
REMARK SMILES IDX 77 56 73 57 74 58 75 59 76 60 55 61 56 62 64 63 57 64 63 65
REMARK SMILES IDX 65 66 62 67 58 68 59 69 60 70 61 71 6 72 7 73 8 74 9 75
REMARK SMILES IDX 10 77 11 78 12 79 28 80 13 81 14 82 15 83 16 85 17 86 18 87
REMARK SMILES IDX 19 88 20 89 26 90 21 91 24 92 27 93 22 94 25 95 23 96
REMARK H PARENT 3 6 85 24 53 35 8 76 15 84
REMARK Flexibility Score: inf
ROOT
ATOM      1  C   UNL A   1      33.321  28.293  25.110  1.00  0.00     0.023 C 
ENDROOT
BRANCH   1   2
ATOM      2  C   UNL A   1      34.308  28.927  26.081  1.00  0.00     0.116 C 
BRANCH   2   3
ATOM      3  N   UNL A   1      33.874  30.231  26.570  1.00  0.00    -0.352 N 
ATOM      4  O   UNL A   1      33.834  32.015  27.958  1.00  0.00    -0.269 OA
ATOM      5  C   UNL A   1      34.413  31.004  27.575  1.00  0.00     0.251 C 
ATOM      6  H   UNL A   1      33.087  30.611  26.120  1.00  0.00     0.163 HD
BRANCH   5   7
ATOM      7  C   UNL A   1      35.683  30.581  28.202  1.00  0.00     0.039 A 
ATOM      8  C   UNL A   1      36.895  30.986  27.644  1.00  0.00     0.014 A 
ATOM      9  C   UNL A   1      35.666  29.735  29.313  1.00  0.00     0.014 A 
ATOM     10  C   UNL A   1      38.073  30.390  28.065  1.00  0.00     0.010 A 
ATOM     11  C   UNL A   1      36.872  29.240  29.822  1.00  0.00     0.010 A 
ATOM     12  C   UNL A   1      38.084  29.537  29.180  1.00  0.00    -0.014 A 
BRANCH  12  13
ATOM     13  C   UNL A   1      39.395  29.058  29.692  1.00  0.00     0.031 A 
ATOM     14  C   UNL A   1      40.079  29.717  30.859  1.00  0.00     0.074 A 
ATOM     15  C   UNL A   1      39.939  27.970  29.109  1.00  0.00     0.049 A 
ATOM     16  N   UNL A   1      41.212  29.398  31.431  1.00  0.00    -0.248 NA
ATOM     17  C   UNL A   1      39.414  30.883  31.458  1.00  0.00     0.031 C 
ATOM     18  C   UNL A   1      39.359  27.252  27.968  1.00  0.00     0.029 A 
ATOM     19  N   UNL A   1      41.072  27.258  29.401  1.00  0.00    -0.354 N 
ATOM     20  C   UNL A   1      41.405  30.325  32.449  1.00  0.00     0.074 A 
ATOM     21  C   UNL A   1      40.285  31.243  32.392  1.00  0.00     0.031 C 
ATOM     22  C   UNL A   1      40.101  26.170  27.704  1.00  0.00     0.029 A 
ATOM     23  C   UNL A   1      41.263  26.170  28.580  1.00  0.00     0.049 A 
ATOM     24  H   UNL A   1      41.690  27.500  30.129  1.00  0.00     0.167 HD
ATOM     25  C   UNL A   1      42.420  30.396  33.349  1.00  0.00     0.034 A 
ATOM     26  C   UNL A   1      42.276  25.288  28.510  1.00  0.00     0.034 A 
ATOM     27  C   UNL A   1      43.530  29.470  33.382  1.00  0.00     0.049 A 
ATOM     28  C   UNL A   1      43.419  25.435  29.478  1.00  0.00     0.074 A 
ATOM     29  C   UNL A   1      44.599  29.441  34.263  1.00  0.00     0.029 A 
ATOM     30  N   UNL A   1      43.724  28.419  32.495  1.00  0.00    -0.354 N 
ATOM     31  N   UNL A   1      43.574  26.311  30.443  1.00  0.00    -0.248 NA
ATOM     32  C   UNL A   1      44.519  24.474  29.348  1.00  0.00     0.031 C 
ATOM     33  C   UNL A   1      45.476  28.428  33.858  1.00  0.00     0.029 A 
ATOM     34  C   UNL A   1      44.912  27.761  32.784  1.00  0.00     0.049 A 
ATOM     35  H   UNL A   1      43.108  28.175  31.767  1.00  0.00     0.167 HD
ATOM     36  C   UNL A   1      44.783  25.988  31.051  1.00  0.00     0.074 A 
ATOM     37  C   UNL A   1      45.292  24.820  30.365  1.00  0.00     0.031 C 
ATOM     38  C   UNL A   1      45.418  26.605  32.081  1.00  0.00     0.034 A 
BRANCH  25  39
ATOM     39  C   UNL A   1      42.404  31.532  34.344  1.00  0.00     0.023 A 
ATOM     40  C   UNL A   1      41.549  31.530  35.462  1.00  0.00     0.031 A 
ATOM     41  C   UNL A   1      43.271  32.628  34.185  1.00  0.00     0.131 A 
ATOM     42  C   UNL A   1      41.545  32.623  36.343  1.00  0.00     0.055 A 
ATOM     43  C   UNL A   1      43.316  33.676  35.108  1.00  0.00     0.041 A 
ATOM     44  F   UNL A   1      44.095  32.699  33.127  1.00  0.00    -0.206 F 
ATOM     45  C   UNL A   1      42.442  33.683  36.190  1.00  0.00     0.022 A 
BRANCH  42  46
ATOM     46  S   UNL A   1      40.264  32.698  37.626  1.00  0.00     0.124 S 
ATOM     47  O   UNL A   1      41.016  32.314  38.818  1.00  0.00    -0.237 OA
ATOM     48  O   UNL A   1      39.834  34.090  37.563  1.00  0.00    -0.237 OA
ATOM     49  O   UNL A   1      39.275  31.719  37.181  1.00  0.00    -0.744 OA
ENDBRANCH  42  46
ENDBRANCH  25  39
BRANCH  26  50
ATOM     50  C   UNL A   1      42.288  24.229  27.460  1.00  0.00     0.023 A 
ATOM     51  C   UNL A   1      41.720  22.969  27.696  1.00  0.00     0.031 A 
ATOM     52  C   UNL A   1      42.922  24.444  26.222  1.00  0.00     0.131 A 
ATOM     53  C   UNL A   1      41.855  21.953  26.737  1.00  0.00     0.055 A 
ATOM     54  C   UNL A   1      42.986  23.455  25.241  1.00  0.00     0.041 A 
ATOM     55  F   UNL A   1      43.485  25.631  25.942  1.00  0.00    -0.206 F 
ATOM     56  C   UNL A   1      42.467  22.192  25.505  1.00  0.00     0.022 A 
BRANCH  53  57
ATOM     57  S   UNL A   1      41.335  20.274  27.182  1.00  0.00     0.124 S 
ATOM     58  O   UNL A   1      40.385  19.967  26.119  1.00  0.00    -0.237 OA
ATOM     59  O   UNL A   1      42.599  19.546  27.143  1.00  0.00    -0.237 OA
ATOM     60  O   UNL A   1      40.753  20.441  28.511  1.00  0.00    -0.744 OA
ENDBRANCH  53  57
ENDBRANCH  26  50
BRANCH  38  61
ATOM     61  C   UNL A   1      46.716  25.988  32.543  1.00  0.00     0.023 A 
ATOM     62  C   UNL A   1      47.938  26.274  31.907  1.00  0.00     0.031 A 
ATOM     63  C   UNL A   1      46.725  25.068  33.606  1.00  0.00     0.131 A 
ATOM     64  C   UNL A   1      49.101  25.588  32.288  1.00  0.00     0.055 A 
ATOM     65  C   UNL A   1      47.901  24.448  34.033  1.00  0.00     0.041 A 
ATOM     66  F   UNL A   1      45.588  24.751  34.247  1.00  0.00    -0.206 F 
ATOM     67  C   UNL A   1      49.094  24.692  33.359  1.00  0.00     0.022 A 
BRANCH  64  68
ATOM     68  S   UNL A   1      50.595  25.789  31.280  1.00  0.00     0.124 S 
ATOM     69  O   UNL A   1      51.256  24.500  31.459  1.00  0.00    -0.237 OA
ATOM     70  O   UNL A   1      50.045  26.044  29.952  1.00  0.00    -0.237 OA
ATOM     71  O   UNL A   1      51.275  26.926  31.898  1.00  0.00    -0.744 OA
ENDBRANCH  64  68
ENDBRANCH  38  61
ENDBRANCH  12  13
ENDBRANCH   5   7
ENDBRANCH   2   3
ENDBRANCH   1   2
BRANCH   1  72
ATOM     72  C   UNL A   1      33.335  28.884  23.707  1.00  0.00     0.023 C 
BRANCH  72  73
ATOM     73  C   UNL A   1      32.252  28.352  22.784  1.00  0.00     0.116 C 
BRANCH  73  74
ATOM     74  N   UNL A   1      32.757  27.506  21.719  1.00  0.00    -0.356 N 
ATOM     75  C   UNL A   1      32.822  26.135  21.716  1.00  0.00     0.226 C 
ATOM     76  H   UNL A   1      33.088  27.964  20.913  1.00  0.00     0.163 HD
ATOM     77  O   UNL A   1      33.187  25.556  20.696  1.00  0.00    -0.274 OA
BRANCH  75  78
ATOM     78  C   UNL A   1      32.459  25.406  23.011  1.00  0.00     0.103 C 
ATOM     79  C   UNL A   1      31.083  24.811  22.925  1.00  0.00    -0.016 C 
ATOM     80  C   UNL A   1      33.331  24.173  23.297  1.00  0.00     0.042 C 
ATOM     81  C   UNL A   1      31.049  23.559  23.378  1.00  0.00    -0.011 C 
ATOM     82  C   UNL A   1      32.381  23.092  23.833  1.00  0.00     0.093 C 
BRANCH  82  83
ATOM     83  N   UNL A   1      32.439  23.053  25.299  1.00  0.00    -0.204 NA
ATOM     84  H   UNL A   1      31.482  23.142  25.638  1.00  0.00     0.142 HD
BRANCH  83  85
ATOM     85  S   UNL A   1      33.109  21.705  26.066  1.00  0.00     0.244 S 
ATOM     86  O   UNL A   1      32.913  21.919  27.487  1.00  0.00    -0.207 OA
ATOM     87  O   UNL A   1      32.606  20.509  25.441  1.00  0.00    -0.207 OA
BRANCH  85  88
ATOM     88  C   UNL A   1      34.827  21.890  25.734  1.00  0.00     0.121 A 
ATOM     89  C   UNL A   1      35.541  20.817  25.186  1.00  0.00     0.028 A 
ATOM     90  C   UNL A   1      35.473  23.079  26.060  1.00  0.00     0.181 A 
ATOM     91  C   UNL A   1      36.918  20.936  24.996  1.00  0.00     0.044 A 
ATOM     92  C   UNL A   1      36.844  23.188  25.875  1.00  0.00     0.195 A 
ATOM     93  F   UNL A   1      34.818  24.104  26.620  1.00  0.00    -0.202 F 
ATOM     94  C   UNL A   1      37.561  22.121  25.347  1.00  0.00     0.161 A 
ATOM     95  F   UNL A   1      37.479  24.315  26.228  1.00  0.00    -0.200 F 
ATOM     96  F   UNL A   1      38.886  22.219  25.183  1.00  0.00    -0.204 F 
ENDBRANCH  85  88
ENDBRANCH  83  85
ENDBRANCH  82  83
ENDBRANCH  75  78
ENDBRANCH  73  74
ENDBRANCH  72  73
ENDBRANCH   1  72
TORSDOF 17
ENDMDL
MODEL 3
REMARK VINA RESULT:     -11.7      1.092      7.738
REMARK SMILES O=C(NCCCCNC(=O)[C@H]1C=C[C@H](NS(=O)(=O)c2ccc(F)c(F)c2F)C1)c1ccc(-c2c3nc(c(-c4cc(S(=O)(=O)[O-])ccc4F)c4ccc([nH]4)c(-c4cc(S(=O)(=O)[O-])ccc4F)c4nc(c(-c5cc(S(=O)(=O)[O-])ccc5F)c5ccc2[nH]5)C=C4)C=C3)cc1
REMARK SMILES IDX 5 1 4 2 3 3 1 4 2 5 29 7 30 8 91 9 31 10 90 11 32 12 33 13
REMARK SMILES IDX 34 14 84 15 35 16 89 17 83 18 85 19 36 20 88 21 82 22 81 23
REMARK SMILES IDX 37 25 69 26 49 27 68 28 50 29 53 30 67 31 86 32 51 33 52 34
REMARK SMILES IDX 66 36 87 37 54 38 38 39 39 40 47 41 40 42 46 43 48 44 45 45
REMARK SMILES IDX 41 46 42 47 43 48 44 49 70 50 71 51 79 52 72 53 78 54 80 55
REMARK SMILES IDX 77 56 73 57 74 58 75 59 76 60 55 61 56 62 64 63 57 64 63 65
REMARK SMILES IDX 65 66 62 67 58 68 59 69 60 70 61 71 6 72 7 73 8 74 9 75
REMARK SMILES IDX 10 77 11 78 12 79 28 80 13 81 14 82 15 83 16 85 17 86 18 87
REMARK SMILES IDX 19 88 20 89 26 90 21 91 24 92 27 93 22 94 25 95 23 96
REMARK H PARENT 3 6 85 24 53 35 8 76 15 84
REMARK Flexibility Score: inf
ROOT
ATOM      1  C   UNL A   1      33.481  32.198  27.742  1.00  0.00     0.023 C 
ENDROOT
BRANCH   1   2
ATOM      2  C   UNL A   1      33.904  33.659  27.690  1.00  0.00     0.116 C 
BRANCH   2   3
ATOM      3  N   UNL A   1      33.184  34.500  28.640  1.00  0.00    -0.352 N 
ATOM      4  O   UNL A   1      32.598  35.297  30.673  1.00  0.00    -0.269 OA
ATOM      5  C   UNL A   1      33.392  34.655  29.993  1.00  0.00     0.251 C 
ATOM      6  H   UNL A   1      32.446  35.030  28.262  1.00  0.00     0.163 HD
BRANCH   5   7
ATOM      7  C   UNL A   1      34.569  34.015  30.615  1.00  0.00     0.039 A 
ATOM      8  C   UNL A   1      35.849  34.459  30.286  1.00  0.00     0.014 A 
ATOM      9  C   UNL A   1      34.400  32.935  31.485  1.00  0.00     0.014 A 
ATOM     10  C   UNL A   1      36.951  33.705  30.659  1.00  0.00     0.010 A 
ATOM     11  C   UNL A   1      35.523  32.256  31.969  1.00  0.00     0.010 A 
ATOM     12  C   UNL A   1      36.808  32.615  31.534  1.00  0.00    -0.014 A 
BRANCH  12  13
ATOM     13  C   UNL A   1      38.037  31.945  32.035  1.00  0.00     0.031 A 
ATOM     14  C   UNL A   1      38.647  32.300  33.363  1.00  0.00     0.074 A 
ATOM     15  C   UNL A   1      38.567  30.959  31.282  1.00  0.00     0.049 A 
ATOM     16  N   UNL A   1      39.702  31.787  33.943  1.00  0.00    -0.248 NA
ATOM     17  C   UNL A   1      37.998  33.368  34.138  1.00  0.00     0.031 C 
ATOM     18  C   UNL A   1      38.054  30.534  29.975  1.00  0.00     0.029 A 
ATOM     19  N   UNL A   1      39.626  30.119  31.507  1.00  0.00    -0.354 N 
ATOM     20  C   UNL A   1      39.854  32.471  35.144  1.00  0.00     0.074 A 
ATOM     21  C   UNL A   1      38.800  33.463  35.192  1.00  0.00     0.031 C 
ATOM     22  C   UNL A   1      38.753  29.475  29.550  1.00  0.00     0.029 A 
ATOM     23  C   UNL A   1      39.828  29.209  30.495  1.00  0.00     0.049 A 
ATOM     24  H   UNL A   1      40.187  30.161  32.315  1.00  0.00     0.167 HD
ATOM     25  C   UNL A   1      40.784  32.281  36.115  1.00  0.00     0.034 A 
ATOM     26  C   UNL A   1      40.791  28.285  30.322  1.00  0.00     0.034 A 
ATOM     27  C   UNL A   1      41.831  31.286  36.041  1.00  0.00     0.049 A 
ATOM     28  C   UNL A   1      41.846  28.146  31.385  1.00  0.00     0.074 A 
ATOM     29  C   UNL A   1      42.811  30.998  36.977  1.00  0.00     0.029 A 
ATOM     30  N   UNL A   1      42.044  30.425  34.972  1.00  0.00    -0.354 N 
ATOM     31  N   UNL A   1      41.963  28.795  32.521  1.00  0.00    -0.248 NA
ATOM     32  C   UNL A   1      42.896  27.151  31.144  1.00  0.00     0.031 C 
ATOM     33  C   UNL A   1      43.661  30.026  36.440  1.00  0.00     0.029 A 
ATOM     34  C   UNL A   1      43.161  29.634  35.209  1.00  0.00     0.049 A 
ATOM     35  H   UNL A   1      41.485  30.381  34.163  1.00  0.00     0.167 HD
ATOM     36  C   UNL A   1      43.090  28.265  33.141  1.00  0.00     0.074 A 
ATOM     37  C   UNL A   1      43.592  27.224  32.268  1.00  0.00     0.031 C 
ATOM     38  C   UNL A   1      43.662  28.610  34.322  1.00  0.00     0.034 A 
BRANCH  25  39
ATOM     39  C   UNL A   1      40.742  33.190  37.321  1.00  0.00     0.023 A 
ATOM     40  C   UNL A   1      40.145  32.793  38.531  1.00  0.00     0.031 A 
ATOM     41  C   UNL A   1      41.327  34.468  37.268  1.00  0.00     0.131 A 
ATOM     42  C   UNL A   1      40.101  33.683  39.616  1.00  0.00     0.055 A 
ATOM     43  C   UNL A   1      41.347  35.319  38.375  1.00  0.00     0.041 A 
ATOM     44  F   UNL A   1      41.894  34.913  36.135  1.00  0.00    -0.206 F 
ATOM     45  C   UNL A   1      40.722  34.933  39.556  1.00  0.00     0.022 A 
BRANCH  42  46
ATOM     46  S   UNL A   1      39.112  33.231  41.068  1.00  0.00     0.124 S 
ATOM     47  O   UNL A   1      39.076  31.775  40.962  1.00  0.00    -0.237 OA
ATOM     48  O   UNL A   1      39.901  33.771  42.169  1.00  0.00    -0.237 OA
ATOM     49  O   UNL A   1      37.833  33.897  40.834  1.00  0.00    -0.744 OA
ENDBRANCH  42  46
ENDBRANCH  25  39
BRANCH  26  50
ATOM     50  C   UNL A   1      40.838  27.464  29.078  1.00  0.00     0.023 A 
ATOM     51  C   UNL A   1      41.759  27.744  28.059  1.00  0.00     0.031 A 
ATOM     52  C   UNL A   1      39.918  26.420  28.865  1.00  0.00     0.131 A 
ATOM     53  C   UNL A   1      41.698  27.035  26.850  1.00  0.00     0.055 A 
ATOM     54  C   UNL A   1      39.912  25.667  27.691  1.00  0.00     0.041 A 
ATOM     55  F   UNL A   1      39.010  26.109  29.805  1.00  0.00    -0.206 F 
ATOM     56  C   UNL A   1      40.794  25.987  26.665  1.00  0.00     0.022 A 
BRANCH  53  57
ATOM     57  S   UNL A   1      42.733  27.595  25.470  1.00  0.00     0.124 S 
ATOM     58  O   UNL A   1      44.010  27.829  26.134  1.00  0.00    -0.237 OA
ATOM     59  O   UNL A   1      42.679  26.450  24.567  1.00  0.00    -0.237 OA
ATOM     60  O   UNL A   1      42.046  28.794  24.997  1.00  0.00    -0.744 OA
ENDBRANCH  53  57
ENDBRANCH  26  50
BRANCH  38  61
ATOM     61  C   UNL A   1      44.874  27.815  34.746  1.00  0.00     0.023 A 
ATOM     62  C   UNL A   1      44.756  26.638  35.508  1.00  0.00     0.031 A 
ATOM     63  C   UNL A   1      46.165  28.264  34.422  1.00  0.00     0.131 A 
ATOM     64  C   UNL A   1      45.908  25.996  35.984  1.00  0.00     0.055 A 
ATOM     65  C   UNL A   1      47.309  27.577  34.833  1.00  0.00     0.041 A 
ATOM     66  F   UNL A   1      46.341  29.385  33.702  1.00  0.00    -0.206 F 
ATOM     67  C   UNL A   1      47.183  26.446  35.635  1.00  0.00     0.022 A 
BRANCH  64  68
ATOM     68  S   UNL A   1      45.717  24.640  37.173  1.00  0.00     0.124 S 
ATOM     69  O   UNL A   1      46.016  23.472  36.350  1.00  0.00    -0.237 OA
ATOM     70  O   UNL A   1      46.708  24.973  38.191  1.00  0.00    -0.237 OA
ATOM     71  O   UNL A   1      44.324  24.755  37.602  1.00  0.00    -0.744 OA
ENDBRANCH  64  68
ENDBRANCH  38  61
ENDBRANCH  12  13
ENDBRANCH   5   7
ENDBRANCH   2   3
ENDBRANCH   1   2
BRANCH   1  72
ATOM     72  C   UNL A   1      34.566  31.234  28.204  1.00  0.00     0.023 C 
BRANCH  72  73
ATOM     73  C   UNL A   1      34.592  29.907  27.465  1.00  0.00     0.116 C 
BRANCH  73  74
ATOM     74  N   UNL A   1      34.024  29.972  26.131  1.00  0.00    -0.356 N 
ATOM     75  C   UNL A   1      33.441  28.944  25.432  1.00  0.00     0.226 C 
ATOM     76  H   UNL A   1      34.059  30.846  25.680  1.00  0.00     0.163 HD
ATOM     77  O   UNL A   1      32.916  29.181  24.347  1.00  0.00    -0.274 OA
BRANCH  75  78
ATOM     78  C   UNL A   1      33.509  27.544  26.044  1.00  0.00     0.103 C 
ATOM     79  C   UNL A   1      32.207  27.178  26.697  1.00  0.00    -0.016 C 
ATOM     80  C   UNL A   1      33.683  26.420  25.009  1.00  0.00     0.042 C 
ATOM     81  C   UNL A   1      31.819  25.943  26.385  1.00  0.00    -0.011 C 
ATOM     82  C   UNL A   1      32.772  25.272  25.469  1.00  0.00     0.093 C 
BRANCH  82  83
ATOM     83  N   UNL A   1      33.558  24.265  26.193  1.00  0.00    -0.204 NA
ATOM     84  H   UNL A   1      33.114  24.137  27.102  1.00  0.00     0.142 HD
BRANCH  83  85
ATOM     85  S   UNL A   1      33.756  22.728  25.521  1.00  0.00     0.244 S 
ATOM     86  O   UNL A   1      33.129  21.806  26.448  1.00  0.00    -0.207 OA
ATOM     87  O   UNL A   1      33.340  22.759  24.142  1.00  0.00    -0.207 OA
BRANCH  85  88
ATOM     88  C   UNL A   1      35.496  22.484  25.627  1.00  0.00     0.121 A 
ATOM     89  C   UNL A   1      36.316  23.544  26.031  1.00  0.00     0.028 A 
ATOM     90  C   UNL A   1      36.047  21.258  25.265  1.00  0.00     0.181 A 
ATOM     91  C   UNL A   1      37.700  23.374  26.040  1.00  0.00     0.044 A 
ATOM     92  C   UNL A   1      37.425  21.098  25.270  1.00  0.00     0.195 A 
ATOM     93  F   UNL A   1      35.285  20.242  24.840  1.00  0.00    -0.202 F 
ATOM     94  C   UNL A   1      38.246  22.151  25.653  1.00  0.00     0.161 A 
ATOM     95  F   UNL A   1      37.964  19.934  24.880  1.00  0.00    -0.200 F 
ATOM     96  F   UNL A   1      39.577  22.004  25.642  1.00  0.00    -0.204 F 
ENDBRANCH  85  88
ENDBRANCH  83  85
ENDBRANCH  82  83
ENDBRANCH  75  78
ENDBRANCH  73  74
ENDBRANCH  72  73
ENDBRANCH   1  72
TORSDOF 17
ENDMDL
