MODEL 1
REMARK VINA RESULT:      -9.0      0.000      0.000
REMARK SMILES CC[C@@H](C)[C@H](NC(=O)[C@H](C)N1C(=O)N2CCC3=c4cc(OC)ccc4=N[C@H]3[C@@]2(C)C1=O)C(=O)NCCCCNC(=O)c1ccc(-c2c3nc(c(-c4cc(S(=O)(=O)[O-])ccc4F)c4ccc([nH]4)c(-c4cc(S(=O)(=O)[O-])ccc4F)c4nc(c(-c5cc(S(=O)(=O)[O-])ccc5F)c5ccc2[nH]5)C=C4)C=C3)cc1
REMARK SMILES IDX 36 1 35 2 34 3 32 4 33 5 5 7 3 8 4 9 2 10 1 11 6 12 7 13
REMARK SMILES IDX 8 15 9 16 10 17 11 18 12 19 30 20 14 21 13 22 28 23 31 24
REMARK SMILES IDX 15 25 27 26 29 27 16 28 17 29 26 30 18 31 25 32 19 33 24 34
REMARK SMILES IDX 20 35 23 36 21 37 22 38 37 39 38 40 39 41 40 42 41 44 42 45
REMARK SMILES IDX 43 46 104 47 44 48 103 49 45 50 46 51 47 52 97 53 48 54
REMARK SMILES IDX 102 55 96 56 98 57 49 58 101 59 95 60 94 61 50 63 82 64
REMARK SMILES IDX 62 65 81 66 63 67 66 68 80 69 99 70 64 71 65 72 79 74 100 75
REMARK SMILES IDX 67 76 51 77 52 78 60 79 53 80 59 81 61 82 58 83 54 84 55 85
REMARK SMILES IDX 56 86 57 87 83 88 84 89 92 90 85 91 91 92 93 93 90 94 86 95
REMARK SMILES IDX 87 96 88 97 89 98 68 99 69 100 77 101 70 102 76 103 78 104
REMARK SMILES IDX 75 105 71 106 72 107 73 108 74 109
REMARK H PARENT 34 6 6 14 39 43 98 62 66 73
REMARK Flexibility Score: inf
ROOT
ATOM      1  C   UNL A   1      50.651  26.536  30.723  1.00  0.00     0.023 C 
ENDROOT
BRANCH   1   2
ATOM      2  C   UNL A   1      49.787  26.825  29.503  1.00  0.00     0.116 C 
BRANCH   2   3
ATOM      3  N   UNL A   1      49.219  25.641  28.907  1.00  0.00    -0.354 N 
ATOM      4  C   UNL A   1      48.690  25.391  27.687  1.00  0.00     0.242 C 
ATOM      5  O   UNL A   1      48.513  24.193  27.434  1.00  0.00    -0.273 OA
ATOM      6  H   UNL A   1      49.217  24.859  29.506  1.00  0.00     0.163 HD
BRANCH   4   7
ATOM      7  C   UNL A   1      48.551  26.433  26.537  1.00  0.00     0.174 C 
BRANCH   7   8
ATOM      8  C   UNL A   1      49.966  26.314  25.787  1.00  0.00     0.018 C 
ATOM      9  C   UNL A   1      51.047  27.172  26.437  1.00  0.00     0.010 C 
BRANCH   8  10
ATOM     10  C   UNL A   1      49.837  26.704  24.265  1.00  0.00     0.002 C 
ATOM     11  C   UNL A   1      48.569  26.301  23.524  1.00  0.00     0.004 C 
ENDBRANCH   8  10
ENDBRANCH   7   8
BRANCH   7  12
ATOM     12  N   UNL A   1      48.029  27.862  26.791  1.00  0.00    -0.342 N 
ATOM     13  C   UNL A   1      47.014  28.663  26.154  1.00  0.00     0.243 C 
ATOM     14  H   UNL A   1      48.478  28.319  27.539  1.00  0.00     0.164 HD
ATOM     15  O   UNL A   1      47.310  29.844  25.937  1.00  0.00    -0.273 OA
BRANCH  13  16
ATOM     16  C   UNL A   1      45.464  28.172  26.065  1.00  0.00     0.181 C 
ATOM     17  C   UNL A   1      45.495  27.143  24.982  1.00  0.00     0.042 C 
BRANCH  16  18
ATOM     18  N   UNL A   1      43.946  28.271  26.423  1.00  0.00    -0.250 N 
ATOM     19  C   UNL A   1      42.651  28.052  25.800  1.00  0.00     0.328 C 
ATOM     20  C   UNL A   1      43.813  27.902  27.735  1.00  0.00     0.259 C 
ATOM     21  N   UNL A   1      41.653  27.732  26.927  1.00  0.00    -0.307 N 
ATOM     22  O   UNL A   1      42.411  27.969  24.607  1.00  0.00    -0.248 OA
ATOM     23  C   UNL A   1      42.532  27.210  27.875  1.00  0.00     0.147 C 
ATOM     24  O   UNL A   1      44.649  27.899  28.610  1.00  0.00    -0.271 OA
ATOM     25  C   UNL A   1      40.268  26.812  27.153  1.00  0.00     0.127 C 
ATOM     26  C   UNL A   1      42.659  25.719  27.323  1.00  0.00     0.168 C 
ATOM     27  C   UNL A   1      42.049  27.664  29.272  1.00  0.00     0.048 C 
ATOM     28  C   UNL A   1      40.587  25.330  28.245  1.00  0.00     0.055 C 
ATOM     29  C   UNL A   1      42.139  24.736  28.244  1.00  0.00    -0.032 C 
ATOM     30  N   UNL A   1      42.774  24.987  25.946  1.00  0.00    -0.274 NA
ATOM     31  C   UNL A   1      42.849  23.632  27.824  1.00  0.00     0.005 A 
ATOM     32  C   UNL A   1      42.516  23.749  26.370  1.00  0.00     0.066 A 
ATOM     33  C   UNL A   1      44.453  23.636  27.600  1.00  0.00     0.056 A 
ATOM     34  C   UNL A   1      42.738  22.476  25.645  1.00  0.00     0.032 A 
ATOM     35  C   UNL A   1      44.890  23.202  26.354  1.00  0.00     0.119 A 
ATOM     36  C   UNL A   1      44.059  22.238  25.654  1.00  0.00     0.048 A 
BRANCH  35  37
ATOM     37  O   UNL A   1      45.664  23.992  25.505  1.00  0.00    -0.497 OA
ATOM     38  C   UNL A   1      46.410  23.369  24.413  1.00  0.00     0.278 C 
ENDBRANCH  35  37
ENDBRANCH  16  18
ENDBRANCH  13  16
ENDBRANCH   7  12
ENDBRANCH   4   7
ENDBRANCH   2   3
ENDBRANCH   1   2
BRANCH   1  39
ATOM     39  C   UNL A   1      50.374  25.219  31.451  1.00  0.00     0.023 C 
BRANCH  39  40
ATOM     40  C   UNL A   1      50.470  25.217  32.966  1.00  0.00     0.116 C 
BRANCH  40  41
ATOM     41  N   UNL A   1      49.505  24.339  33.597  1.00  0.00    -0.352 N 
ATOM     42  C   UNL A   1      48.159  24.538  33.802  1.00  0.00     0.251 C 
ATOM     43  H   UNL A   1      49.862  23.483  33.926  1.00  0.00     0.163 HD
ATOM     44  O   UNL A   1      47.527  23.735  34.483  1.00  0.00    -0.269 OA
BRANCH  42  45
ATOM     45  C   UNL A   1      47.488  25.737  33.240  1.00  0.00     0.039 A 
ATOM     46  C   UNL A   1      46.822  25.686  32.015  1.00  0.00     0.014 A 
ATOM     47  C   UNL A   1      47.544  26.941  33.948  1.00  0.00     0.014 A 
ATOM     48  C   UNL A   1      46.373  26.861  31.422  1.00  0.00     0.010 A 
ATOM     49  C   UNL A   1      46.995  28.104  33.396  1.00  0.00     0.010 A 
ATOM     50  C   UNL A   1      46.446  28.087  32.105  1.00  0.00    -0.014 A 
BRANCH  50  51
ATOM     51  C   UNL A   1      45.923  29.319  31.450  1.00  0.00     0.031 A 
ATOM     52  C   UNL A   1      44.503  29.773  31.668  1.00  0.00     0.074 A 
ATOM     53  C   UNL A   1      46.760  30.064  30.698  1.00  0.00     0.049 A 
ATOM     54  N   UNL A   1      43.913  30.855  31.230  1.00  0.00    -0.248 NA
ATOM     55  C   UNL A   1      43.628  28.903  32.472  1.00  0.00     0.031 C 
ATOM     56  C   UNL A   1      48.154  29.716  30.414  1.00  0.00     0.029 A 
ATOM     57  N   UNL A   1      46.588  31.272  30.068  1.00  0.00    -0.354 N 
ATOM     58  C   UNL A   1      42.598  30.786  31.679  1.00  0.00     0.074 A 
ATOM     59  C   UNL A   1      42.466  29.539  32.399  1.00  0.00     0.031 C 
ATOM     60  C   UNL A   1      48.731  30.719  29.740  1.00  0.00     0.029 A 
ATOM     61  C   UNL A   1      47.732  31.749  29.467  1.00  0.00     0.049 A 
ATOM     62  H   UNL A   1      45.728  31.751  30.049  1.00  0.00     0.167 HD
ATOM     63  C   UNL A   1      41.601  31.687  31.517  1.00  0.00     0.034 A 
ATOM     64  C   UNL A   1      47.957  32.882  28.770  1.00  0.00     0.034 A 
ATOM     65  C   UNL A   1      41.761  32.941  30.822  1.00  0.00     0.049 A 
ATOM     66  C   UNL A   1      46.826  33.863  28.599  1.00  0.00     0.074 A 
ATOM     67  C   UNL A   1      40.820  33.940  30.643  1.00  0.00     0.029 A 
ATOM     68  N   UNL A   1      42.923  33.373  30.200  1.00  0.00    -0.354 N 
ATOM     69  N   UNL A   1      45.608  33.806  29.084  1.00  0.00    -0.248 NA
ATOM     70  C   UNL A   1      47.094  35.061  27.793  1.00  0.00     0.031 C 
ATOM     71  C   UNL A   1      41.386  34.936  29.850  1.00  0.00     0.029 A 
ATOM     72  C   UNL A   1      42.711  34.609  29.613  1.00  0.00     0.049 A 
ATOM     73  H   UNL A   1      43.772  32.874  30.179  1.00  0.00     0.167 HD
ATOM     74  C   UNL A   1      44.975  34.974  28.667  1.00  0.00     0.074 A 
ATOM     75  C   UNL A   1      45.952  35.728  27.912  1.00  0.00     0.031 C 
ATOM     76  C   UNL A   1      43.699  35.376  28.888  1.00  0.00     0.034 A 
BRANCH  63  77
ATOM     77  C   UNL A   1      40.237  31.391  32.095  1.00  0.00     0.023 A 
ATOM     78  C   UNL A   1      39.963  31.723  33.437  1.00  0.00     0.031 A 
ATOM     79  C   UNL A   1      39.281  30.642  31.389  1.00  0.00     0.131 A 
ATOM     80  C   UNL A   1      38.789  31.261  34.044  1.00  0.00     0.055 A 
ATOM     81  C   UNL A   1      38.089  30.224  31.985  1.00  0.00     0.041 A 
ATOM     82  F   UNL A   1      39.491  30.299  30.107  1.00  0.00    -0.206 F 
ATOM     83  C   UNL A   1      37.847  30.519  33.324  1.00  0.00     0.022 A 
BRANCH  80  84
ATOM     84  S   UNL A   1      38.478  31.529  35.812  1.00  0.00     0.124 S 
ATOM     85  O   UNL A   1      39.692  32.230  36.224  1.00  0.00    -0.237 OA
ATOM     86  O   UNL A   1      37.266  32.342  35.787  1.00  0.00    -0.237 OA
ATOM     87  O   UNL A   1      38.326  30.182  36.349  1.00  0.00    -0.744 OA
ENDBRANCH  80  84
ENDBRANCH  63  77
BRANCH  64  88
ATOM     88  C   UNL A   1      49.328  33.159  28.243  1.00  0.00     0.023 A 
ATOM     89  C   UNL A   1      49.789  32.552  27.061  1.00  0.00     0.031 A 
ATOM     90  C   UNL A   1      50.232  33.954  28.969  1.00  0.00     0.131 A 
ATOM     91  C   UNL A   1      51.131  32.684  26.683  1.00  0.00     0.055 A 
ATOM     92  C   UNL A   1      51.548  34.150  28.544  1.00  0.00     0.041 A 
ATOM     93  F   UNL A   1      49.850  34.544  30.112  1.00  0.00    -0.206 F 
ATOM     94  C   UNL A   1      52.009  33.497  27.406  1.00  0.00     0.022 A 
BRANCH  91  95
ATOM     95  S   UNL A   1      51.817  31.686  25.331  1.00  0.00     0.124 S 
ATOM     96  O   UNL A   1      51.544  32.524  24.167  1.00  0.00    -0.237 OA
ATOM     97  O   UNL A   1      53.221  31.582  25.720  1.00  0.00    -0.237 OA
ATOM     98  O   UNL A   1      51.060  30.441  25.405  1.00  0.00    -0.744 OA
ENDBRANCH  91  95
ENDBRANCH  64  88
BRANCH  76  99
ATOM     99  C   UNL A   1      43.251  36.713  28.345  1.00  0.00     0.023 A 
ATOM    100  C   UNL A   1      43.389  37.868  29.140  1.00  0.00     0.031 A 
ATOM    101  C   UNL A   1      42.538  36.819  27.139  1.00  0.00     0.131 A 
ATOM    102  C   UNL A   1      42.778  39.063  28.748  1.00  0.00     0.055 A 
ATOM    103  C   UNL A   1      41.980  38.028  26.723  1.00  0.00     0.041 A 
ATOM    104  F   UNL A   1      42.367  35.745  26.352  1.00  0.00    -0.206 F 
ATOM    105  C   UNL A   1      42.082  39.152  27.538  1.00  0.00     0.022 A 
BRANCH 102 106
ATOM    106  S   UNL A   1      42.766  40.510  29.843  1.00  0.00     0.124 S 
ATOM    107  O   UNL A   1      43.672  41.421  29.147  1.00  0.00    -0.237 OA
ATOM    108  O   UNL A   1      41.358  40.897  29.825  1.00  0.00    -0.237 OA
ATOM    109  O   UNL A   1      43.260  39.994  31.114  1.00  0.00    -0.744 OA
ENDBRANCH 102 106
ENDBRANCH  76  99
ENDBRANCH  50  51
ENDBRANCH  42  45
ENDBRANCH  40  41
ENDBRANCH  39  40
ENDBRANCH   1  39
TORSDOF 20
ENDMDL
MODEL 2
REMARK VINA RESULT:      -8.7      4.385      8.683
REMARK SMILES CC[C@@H](C)[C@H](NC(=O)[C@H](C)N1C(=O)N2CCC3=c4cc(OC)ccc4=N[C@H]3[C@@]2(C)C1=O)C(=O)NCCCCNC(=O)c1ccc(-c2c3nc(c(-c4cc(S(=O)(=O)[O-])ccc4F)c4ccc([nH]4)c(-c4cc(S(=O)(=O)[O-])ccc4F)c4nc(c(-c5cc(S(=O)(=O)[O-])ccc5F)c5ccc2[nH]5)C=C4)C=C3)cc1
REMARK SMILES IDX 36 1 35 2 34 3 32 4 33 5 5 7 3 8 4 9 2 10 1 11 6 12 7 13
REMARK SMILES IDX 8 15 9 16 10 17 11 18 12 19 30 20 14 21 13 22 28 23 31 24
REMARK SMILES IDX 15 25 27 26 29 27 16 28 17 29 26 30 18 31 25 32 19 33 24 34
REMARK SMILES IDX 20 35 23 36 21 37 22 38 37 39 38 40 39 41 40 42 41 44 42 45
REMARK SMILES IDX 43 46 104 47 44 48 103 49 45 50 46 51 47 52 97 53 48 54
REMARK SMILES IDX 102 55 96 56 98 57 49 58 101 59 95 60 94 61 50 63 82 64
REMARK SMILES IDX 62 65 81 66 63 67 66 68 80 69 99 70 64 71 65 72 79 74 100 75
REMARK SMILES IDX 67 76 51 77 52 78 60 79 53 80 59 81 61 82 58 83 54 84 55 85
REMARK SMILES IDX 56 86 57 87 83 88 84 89 92 90 85 91 91 92 93 93 90 94 86 95
REMARK SMILES IDX 87 96 88 97 89 98 68 99 69 100 77 101 70 102 76 103 78 104
REMARK SMILES IDX 75 105 71 106 72 107 73 108 74 109
REMARK H PARENT 34 6 6 14 39 43 98 62 66 73
REMARK Flexibility Score: inf
ROOT
ATOM      1  C   UNL A   1      48.401  31.728  27.227  1.00  0.00     0.023 C 
ENDROOT
BRANCH   1   2
ATOM      2  C   UNL A   1      47.762  30.351  27.114  1.00  0.00     0.116 C 
BRANCH   2   3
ATOM      3  N   UNL A   1      47.909  29.549  28.304  1.00  0.00    -0.354 N 
ATOM      4  C   UNL A   1      47.015  28.974  29.140  1.00  0.00     0.242 C 
ATOM      5  O   UNL A   1      47.497  28.155  29.931  1.00  0.00    -0.273 OA
ATOM      6  H   UNL A   1      48.847  29.387  28.558  1.00  0.00     0.163 HD
BRANCH   4   7
ATOM      7  C   UNL A   1      45.466  29.064  28.999  1.00  0.00     0.174 C 
BRANCH   7   8
ATOM      8  C   UNL A   1      44.953  28.402  30.368  1.00  0.00     0.018 C 
ATOM      9  C   UNL A   1      43.758  27.477  30.159  1.00  0.00     0.010 C 
BRANCH   8  10
ATOM     10  C   UNL A   1      44.577  29.507  31.428  1.00  0.00     0.002 C 
ATOM     11  C   UNL A   1      45.095  29.346  32.850  1.00  0.00     0.004 C 
ENDBRANCH   8  10
ENDBRANCH   7   8
BRANCH   7  12
ATOM     12  N   UNL A   1      44.738  28.624  27.711  1.00  0.00    -0.342 N 
ATOM     13  C   UNL A   1      45.082  27.703  26.657  1.00  0.00     0.243 C 
ATOM     14  H   UNL A   1      43.865  29.059  27.583  1.00  0.00     0.164 HD
ATOM     15  O   UNL A   1      44.858  28.089  25.504  1.00  0.00    -0.273 OA
BRANCH  13  16
ATOM     16  C   UNL A   1      45.386  26.132  26.956  1.00  0.00     0.181 C 
ATOM     17  C   UNL A   1      46.862  26.026  26.753  1.00  0.00     0.042 C 
BRANCH  16  18
ATOM     18  N   UNL A   1      44.955  24.655  27.235  1.00  0.00    -0.250 N 
ATOM     19  C   UNL A   1      44.483  23.836  28.339  1.00  0.00     0.328 C 
ATOM     20  C   UNL A   1      44.319  24.198  26.113  1.00  0.00     0.259 C 
ATOM     21  N   UNL A   1      43.668  22.680  27.731  1.00  0.00    -0.307 N 
ATOM     22  O   UNL A   1      44.561  24.087  29.531  1.00  0.00    -0.248 OA
ATOM     23  C   UNL A   1      43.262  23.283  26.541  1.00  0.00     0.147 C 
ATOM     24  O   UNL A   1      44.399  24.607  24.976  1.00  0.00    -0.271 OA
ATOM     25  C   UNL A   1      42.350  21.725  28.136  1.00  0.00     0.127 C 
ATOM     26  C   UNL A   1      42.012  24.114  27.081  1.00  0.00     0.168 C 
ATOM     27  C   UNL A   1      43.273  22.204  25.434  1.00  0.00     0.048 C 
ATOM     28  C   UNL A   1      40.851  22.129  27.097  1.00  0.00     0.055 C 
ATOM     29  C   UNL A   1      40.761  23.679  26.507  1.00  0.00    -0.032 C 
ATOM     30  N   UNL A   1      41.627  24.966  28.335  1.00  0.00    -0.274 NA
ATOM     31  C   UNL A   1      40.023  24.831  26.668  1.00  0.00     0.005 A 
ATOM     32  C   UNL A   1      40.312  25.025  28.124  1.00  0.00     0.066 A 
ATOM     33  C   UNL A   1      40.551  26.298  26.226  1.00  0.00     0.056 A 
ATOM     34  C   UNL A   1      39.327  25.925  28.770  1.00  0.00     0.032 A 
ATOM     35  C   UNL A   1      40.514  27.275  27.212  1.00  0.00     0.119 A 
ATOM     36  C   UNL A   1      39.499  27.147  28.243  1.00  0.00     0.048 A 
BRANCH  35  37
ATOM     37  O   UNL A   1      41.648  27.972  27.630  1.00  0.00    -0.497 OA
ATOM     38  C   UNL A   1      41.806  29.381  27.272  1.00  0.00     0.278 C 
ENDBRANCH  35  37
ENDBRANCH  16  18
ENDBRANCH  13  16
ENDBRANCH   7  12
ENDBRANCH   4   7
ENDBRANCH   2   3
ENDBRANCH   1   2
BRANCH   1  39
ATOM     39  C   UNL A   1      47.654  32.753  28.082  1.00  0.00     0.023 C 
BRANCH  39  40
ATOM     40  C   UNL A   1      47.129  33.999  27.394  1.00  0.00     0.116 C 
BRANCH  40  41
ATOM     41  N   UNL A   1      46.306  33.708  26.237  1.00  0.00    -0.352 N 
ATOM     42  C   UNL A   1      44.968  33.388  26.187  1.00  0.00     0.251 C 
ATOM     43  H   UNL A   1      46.766  33.744  25.368  1.00  0.00     0.163 HD
ATOM     44  O   UNL A   1      44.472  33.037  25.120  1.00  0.00    -0.269 OA
BRANCH  42  45
ATOM     45  C   UNL A   1      44.146  33.424  27.421  1.00  0.00     0.039 A 
ATOM     46  C   UNL A   1      43.662  34.629  27.934  1.00  0.00     0.014 A 
ATOM     47  C   UNL A   1      43.869  32.227  28.089  1.00  0.00     0.014 A 
ATOM     48  C   UNL A   1      43.063  34.657  29.188  1.00  0.00     0.010 A 
ATOM     49  C   UNL A   1      43.170  32.247  29.302  1.00  0.00     0.010 A 
ATOM     50  C   UNL A   1      42.802  33.467  29.889  1.00  0.00    -0.014 A 
BRANCH  50  51
ATOM     51  C   UNL A   1      42.128  33.535  31.217  1.00  0.00     0.031 A 
ATOM     52  C   UNL A   1      40.639  33.738  31.323  1.00  0.00     0.074 A 
ATOM     53  C   UNL A   1      42.865  33.354  32.333  1.00  0.00     0.049 A 
ATOM     54  N   UNL A   1      39.889  33.752  32.395  1.00  0.00    -0.248 NA
ATOM     55  C   UNL A   1      39.893  33.961  30.073  1.00  0.00     0.031 C 
ATOM     56  C   UNL A   1      44.315  33.157  32.348  1.00  0.00     0.029 A 
ATOM     57  N   UNL A   1      42.507  33.268  33.656  1.00  0.00    -0.354 N 
ATOM     58  C   UNL A   1      38.594  34.009  31.956  1.00  0.00     0.074 A 
ATOM     59  C   UNL A   1      38.664  34.178  30.522  1.00  0.00     0.031 C 
ATOM     60  C   UNL A   1      44.712  32.893  33.600  1.00  0.00     0.029 A 
ATOM     61  C   UNL A   1      43.562  32.984  34.495  1.00  0.00     0.049 A 
ATOM     62  H   UNL A   1      41.585  33.397  33.973  1.00  0.00     0.167 HD
ATOM     63  C   UNL A   1      37.455  34.084  32.684  1.00  0.00     0.034 A 
ATOM     64  C   UNL A   1      43.607  32.818  35.833  1.00  0.00     0.034 A 
ATOM     65  C   UNL A   1      37.401  33.882  34.110  1.00  0.00     0.049 A 
ATOM     66  C   UNL A   1      42.323  32.915  36.617  1.00  0.00     0.074 A 
ATOM     67  C   UNL A   1      36.286  33.895  34.930  1.00  0.00     0.029 A 
ATOM     68  N   UNL A   1      38.493  33.629  34.928  1.00  0.00    -0.354 N 
ATOM     69  N   UNL A   1      41.102  33.099  36.175  1.00  0.00    -0.248 NA
ATOM     70  C   UNL A   1      42.417  32.779  38.077  1.00  0.00     0.031 C 
ATOM     71  C   UNL A   1      36.710  33.727  36.247  1.00  0.00     0.029 A 
ATOM     72  C   UNL A   1      38.079  33.513  36.245  1.00  0.00     0.049 A 
ATOM     73  H   UNL A   1      39.424  33.545  34.618  1.00  0.00     0.167 HD
ATOM     74  C   UNL A   1      40.280  33.070  37.298  1.00  0.00     0.074 A 
ATOM     75  C   UNL A   1      41.141  32.827  38.435  1.00  0.00     0.031 C 
ATOM     76  C   UNL A   1      38.936  33.236  37.375  1.00  0.00     0.034 A 
BRANCH  63  77
ATOM     77  C   UNL A   1      36.150  34.384  31.983  1.00  0.00     0.023 A 
ATOM     78  C   UNL A   1      35.470  35.586  32.263  1.00  0.00     0.031 A 
ATOM     79  C   UNL A   1      35.503  33.427  31.182  1.00  0.00     0.131 A 
ATOM     80  C   UNL A   1      34.165  35.776  31.792  1.00  0.00     0.055 A 
ATOM     81  C   UNL A   1      34.220  33.643  30.675  1.00  0.00     0.041 A 
ATOM     82  F   UNL A   1      36.106  32.265  30.884  1.00  0.00    -0.206 F 
ATOM     83  C   UNL A   1      33.539  34.814  30.994  1.00  0.00     0.022 A 
BRANCH  80  84
ATOM     84  S   UNL A   1      33.199  37.237  32.267  1.00  0.00     0.124 S 
ATOM     85  O   UNL A   1      32.945  37.861  30.970  1.00  0.00    -0.237 OA
ATOM     86  O   UNL A   1      32.035  36.634  32.909  1.00  0.00    -0.237 OA
ATOM     87  O   UNL A   1      34.095  37.978  33.148  1.00  0.00    -0.744 OA
ENDBRANCH  80  84
ENDBRANCH  63  77
BRANCH  64  88
ATOM     88  C   UNL A   1      44.909  32.487  36.489  1.00  0.00     0.023 A 
ATOM     89  C   UNL A   1      45.270  31.152  36.753  1.00  0.00     0.031 A 
ATOM     90  C   UNL A   1      45.761  33.503  36.954  1.00  0.00     0.131 A 
ATOM     91  C   UNL A   1      46.405  30.875  37.525  1.00  0.00     0.055 A 
ATOM     92  C   UNL A   1      46.936  33.217  37.652  1.00  0.00     0.041 A 
ATOM     93  F   UNL A   1      45.456  34.792  36.742  1.00  0.00    -0.206 F 
ATOM     94  C   UNL A   1      47.253  31.898  37.959  1.00  0.00     0.022 A 
BRANCH  91  95
ATOM     95  S   UNL A   1      46.734  29.192  38.118  1.00  0.00     0.124 S 
ATOM     96  O   UNL A   1      46.784  29.384  39.564  1.00  0.00    -0.237 OA
ATOM     97  O   UNL A   1      45.570  28.466  37.616  1.00  0.00    -0.237 OA
ATOM     98  O   UNL A   1      48.001  28.845  37.482  1.00  0.00    -0.744 OA
ENDBRANCH  91  95
ENDBRANCH  64  88
BRANCH  76  99
ATOM     99  C   UNL A   1      38.264  33.136  38.724  1.00  0.00     0.023 A 
ATOM    100  C   UNL A   1      38.468  34.153  39.679  1.00  0.00     0.031 A 
ATOM    101  C   UNL A   1      37.582  31.976  39.126  1.00  0.00     0.131 A 
ATOM    102  C   UNL A   1      38.044  33.967  40.998  1.00  0.00     0.055 A 
ATOM    103  C   UNL A   1      37.109  31.820  40.429  1.00  0.00     0.041 A 
ATOM    104  F   UNL A   1      37.374  30.972  38.258  1.00  0.00    -0.206 F 
ATOM    105  C   UNL A   1      37.355  32.810  41.377  1.00  0.00     0.022 A 
BRANCH 102 106
ATOM    106  S   UNL A   1      38.467  35.165  42.293  1.00  0.00     0.124 S 
ATOM    107  O   UNL A   1      37.253  35.169  43.108  1.00  0.00    -0.237 OA
ATOM    108  O   UNL A   1      39.634  34.545  42.916  1.00  0.00    -0.237 OA
ATOM    109  O   UNL A   1      38.727  36.399  41.561  1.00  0.00    -0.744 OA
ENDBRANCH 102 106
ENDBRANCH  76  99
ENDBRANCH  50  51
ENDBRANCH  42  45
ENDBRANCH  40  41
ENDBRANCH  39  40
ENDBRANCH   1  39
TORSDOF 20
ENDMDL
MODEL 3
REMARK VINA RESULT:      -8.4      6.073     11.909
REMARK SMILES CC[C@@H](C)[C@H](NC(=O)[C@H](C)N1C(=O)N2CCC3=c4cc(OC)ccc4=N[C@H]3[C@@]2(C)C1=O)C(=O)NCCCCNC(=O)c1ccc(-c2c3nc(c(-c4cc(S(=O)(=O)[O-])ccc4F)c4ccc([nH]4)c(-c4cc(S(=O)(=O)[O-])ccc4F)c4nc(c(-c5cc(S(=O)(=O)[O-])ccc5F)c5ccc2[nH]5)C=C4)C=C3)cc1
REMARK SMILES IDX 36 1 35 2 34 3 32 4 33 5 5 7 3 8 4 9 2 10 1 11 6 12 7 13
REMARK SMILES IDX 8 15 9 16 10 17 11 18 12 19 30 20 14 21 13 22 28 23 31 24
REMARK SMILES IDX 15 25 27 26 29 27 16 28 17 29 26 30 18 31 25 32 19 33 24 34
REMARK SMILES IDX 20 35 23 36 21 37 22 38 37 39 38 40 39 41 40 42 41 44 42 45
REMARK SMILES IDX 43 46 104 47 44 48 103 49 45 50 46 51 47 52 97 53 48 54
REMARK SMILES IDX 102 55 96 56 98 57 49 58 101 59 95 60 94 61 50 63 82 64
REMARK SMILES IDX 62 65 81 66 63 67 66 68 80 69 99 70 64 71 65 72 79 74 100 75
REMARK SMILES IDX 67 76 51 77 52 78 60 79 53 80 59 81 61 82 58 83 54 84 55 85
REMARK SMILES IDX 56 86 57 87 83 88 84 89 92 90 85 91 91 92 93 93 90 94 86 95
REMARK SMILES IDX 87 96 88 97 89 98 68 99 69 100 77 101 70 102 76 103 78 104
REMARK SMILES IDX 75 105 71 106 72 107 73 108 74 109
REMARK H PARENT 34 6 6 14 39 43 98 62 66 73
REMARK Flexibility Score: inf
ROOT
ATOM      1  C   UNL A   1      44.905  23.896  39.218  1.00  0.00     0.023 C 
ENDROOT
BRANCH   1   2
ATOM      2  C   UNL A   1      46.080  23.341  40.011  1.00  0.00     0.116 C 
BRANCH   2   3
ATOM      3  N   UNL A   1      45.878  21.987  40.467  1.00  0.00    -0.354 N 
ATOM      4  C   UNL A   1      46.282  20.788  39.988  1.00  0.00     0.242 C 
ATOM      5  O   UNL A   1      46.126  19.840  40.767  1.00  0.00    -0.273 OA
ATOM      6  H   UNL A   1      45.341  21.923  41.290  1.00  0.00     0.163 HD
BRANCH   4   7
ATOM      7  C   UNL A   1      47.133  20.574  38.701  1.00  0.00     0.174 C 
BRANCH   7   8
ATOM      8  C   UNL A   1      46.106  19.816  37.727  1.00  0.00     0.018 C 
ATOM      9  C   UNL A   1      45.929  18.346  38.093  1.00  0.00     0.010 C 
BRANCH   8  10
ATOM     10  C   UNL A   1      46.564  19.926  36.221  1.00  0.00     0.002 C 
ATOM     11  C   UNL A   1      45.507  20.232  35.169  1.00  0.00     0.004 C 
ENDBRANCH   8  10
ENDBRANCH   7   8
BRANCH   7  12
ATOM     12  N   UNL A   1      48.567  20.009  38.757  1.00  0.00    -0.342 N 
ATOM     13  C   UNL A   1      49.781  20.344  38.056  1.00  0.00     0.243 C 
ATOM     14  H   UNL A   1      48.676  19.273  39.402  1.00  0.00     0.164 HD
ATOM     15  O   UNL A   1      50.452  19.389  37.645  1.00  0.00    -0.273 OA
BRANCH  13  16
ATOM     16  C   UNL A   1      50.426  21.837  38.121  1.00  0.00     0.181 C 
ATOM     17  C   UNL A   1      51.081  21.867  39.463  1.00  0.00     0.042 C 
BRANCH  16  18
ATOM     18  N   UNL A   1      50.638  23.290  37.584  1.00  0.00    -0.250 N 
ATOM     19  C   UNL A   1      51.727  24.206  37.289  1.00  0.00     0.328 C 
ATOM     20  C   UNL A   1      49.670  23.522  36.645  1.00  0.00     0.259 C 
ATOM     21  N   UNL A   1      51.220  25.182  36.213  1.00  0.00    -0.307 N 
ATOM     22  O   UNL A   1      52.880  24.134  37.682  1.00  0.00    -0.248 OA
ATOM     23  C   UNL A   1      50.247  24.383  35.614  1.00  0.00     0.147 C 
ATOM     24  O   UNL A   1      48.603  22.968  36.503  1.00  0.00    -0.271 OA
ATOM     25  C   UNL A   1      51.837  26.055  34.919  1.00  0.00     0.127 C 
ATOM     26  C   UNL A   1      51.175  23.520  34.646  1.00  0.00     0.168 C 
ATOM     27  C   UNL A   1      49.060  25.293  35.223  1.00  0.00     0.048 C 
ATOM     28  C   UNL A   1      51.263  25.368  33.279  1.00  0.00     0.055 C 
ATOM     29  C   UNL A   1      50.893  23.749  33.249  1.00  0.00    -0.032 C 
ATOM     30  N   UNL A   1      52.573  22.819  34.683  1.00  0.00    -0.274 NA
ATOM     31  C   UNL A   1      51.363  22.565  32.723  1.00  0.00     0.005 A 
ATOM     32  C   UNL A   1      52.710  22.606  33.374  1.00  0.00     0.066 A 
ATOM     33  C   UNL A   1      50.968  21.109  33.312  1.00  0.00     0.056 A 
ATOM     34  C   UNL A   1      53.682  21.715  32.695  1.00  0.00     0.032 A 
ATOM     35  C   UNL A   1      52.034  20.280  33.638  1.00  0.00     0.119 A 
ATOM     36  C   UNL A   1      53.268  20.453  32.890  1.00  0.00     0.048 A 
BRANCH  35  37
ATOM     37  O   UNL A   1      52.227  19.760  34.917  1.00  0.00    -0.497 OA
ATOM     38  C   UNL A   1      53.578  19.440  35.375  1.00  0.00     0.278 C 
ENDBRANCH  35  37
ENDBRANCH  16  18
ENDBRANCH  13  16
ENDBRANCH   7  12
ENDBRANCH   4   7
ENDBRANCH   2   3
ENDBRANCH   1   2
BRANCH   1  39
ATOM     39  C   UNL A   1      44.881  25.411  39.014  1.00  0.00     0.023 C 
BRANCH  39  40
ATOM     40  C   UNL A   1      44.158  25.947  37.793  1.00  0.00     0.116 C 
BRANCH  40  41
ATOM     41  N   UNL A   1      43.148  25.041  37.283  1.00  0.00    -0.352 N 
ATOM     42  C   UNL A   1      42.919  24.645  35.984  1.00  0.00     0.251 C 
ATOM     43  H   UNL A   1      42.544  24.656  37.957  1.00  0.00     0.163 HD
ATOM     44  O   UNL A   1      41.924  23.974  35.725  1.00  0.00    -0.269 OA
BRANCH  42  45
ATOM     45  C   UNL A   1      43.843  25.065  34.902  1.00  0.00     0.039 A 
ATOM     46  C   UNL A   1      43.616  26.230  34.168  1.00  0.00     0.014 A 
ATOM     47  C   UNL A   1      44.951  24.265  34.606  1.00  0.00     0.014 A 
ATOM     48  C   UNL A   1      44.382  26.497  33.039  1.00  0.00     0.010 A 
ATOM     49  C   UNL A   1      45.786  24.595  33.532  1.00  0.00     0.010 A 
ATOM     50  C   UNL A   1      45.482  25.688  32.706  1.00  0.00    -0.014 A 
BRANCH  50  51
ATOM     51  C   UNL A   1      46.300  26.026  31.507  1.00  0.00     0.031 A 
ATOM     52  C   UNL A   1      47.526  26.895  31.621  1.00  0.00     0.074 A 
ATOM     53  C   UNL A   1      45.963  25.492  30.315  1.00  0.00     0.049 A 
ATOM     54  N   UNL A   1      48.384  27.227  30.692  1.00  0.00    -0.248 NA
ATOM     55  C   UNL A   1      47.827  27.474  32.942  1.00  0.00     0.031 C 
ATOM     56  C   UNL A   1      44.792  24.642  30.087  1.00  0.00     0.029 A 
ATOM     57  N   UNL A   1      46.574  25.546  29.087  1.00  0.00    -0.354 N 
ATOM     58  C   UNL A   1      49.307  28.069  31.302  1.00  0.00     0.074 A 
ATOM     59  C   UNL A   1      48.887  28.226  32.677  1.00  0.00     0.031 C 
ATOM     60  C   UNL A   1      44.814  24.190  28.827  1.00  0.00     0.029 A 
ATOM     61  C   UNL A   1      45.950  24.781  28.126  1.00  0.00     0.049 A 
ATOM     62  H   UNL A   1      47.381  26.081  28.911  1.00  0.00     0.167 HD
ATOM     63  C   UNL A   1      50.409  28.646  30.766  1.00  0.00     0.034 A 
ATOM     64  C   UNL A   1      46.251  24.577  26.826  1.00  0.00     0.034 A 
ATOM     65  C   UNL A   1      50.829  28.454  29.400  1.00  0.00     0.049 A 
ATOM     66  C   UNL A   1      47.479  25.238  26.256  1.00  0.00     0.074 A 
ATOM     67  C   UNL A   1      51.955  28.961  28.776  1.00  0.00     0.029 A 
ATOM     68  N   UNL A   1      50.155  27.699  28.451  1.00  0.00    -0.354 N 
ATOM     69  N   UNL A   1      48.371  25.981  26.866  1.00  0.00    -0.248 NA
ATOM     70  C   UNL A   1      47.747  25.035  24.826  1.00  0.00     0.031 C 
ATOM     71  C   UNL A   1      51.922  28.580  27.437  1.00  0.00     0.029 A 
ATOM     72  C   UNL A   1      50.828  27.754  27.241  1.00  0.00     0.049 A 
ATOM     73  H   UNL A   1      49.322  27.200  28.613  1.00  0.00     0.167 HD
ATOM     74  C   UNL A   1      49.321  26.308  25.903  1.00  0.00     0.074 A 
ATOM     75  C   UNL A   1      48.907  25.661  24.676  1.00  0.00     0.031 C 
ATOM     76  C   UNL A   1      50.431  27.078  26.027  1.00  0.00     0.034 A 
BRANCH  63  77
ATOM     77  C   UNL A   1      51.270  29.538  31.630  1.00  0.00     0.023 A 
ATOM     78  C   UNL A   1      50.930  30.897  31.783  1.00  0.00     0.031 A 
ATOM     79  C   UNL A   1      52.497  29.099  32.155  1.00  0.00     0.131 A 
ATOM     80  C   UNL A   1      51.831  31.777  32.395  1.00  0.00     0.055 A 
ATOM     81  C   UNL A   1      53.370  29.971  32.808  1.00  0.00     0.041 A 
ATOM     82  F   UNL A   1      52.870  27.813  32.037  1.00  0.00    -0.206 F 
ATOM     83  C   UNL A   1      53.046  31.320  32.915  1.00  0.00     0.022 A 
BRANCH  80  84
ATOM     84  S   UNL A   1      51.501  33.560  32.465  1.00  0.00     0.124 S 
ATOM     85  O   UNL A   1      51.450  33.798  33.906  1.00  0.00    -0.237 OA
ATOM     86  O   UNL A   1      52.667  34.111  31.781  1.00  0.00    -0.237 OA
ATOM     87  O   UNL A   1      50.229  33.708  31.766  1.00  0.00    -0.744 OA
ENDBRANCH  80  84
ENDBRANCH  63  77
BRANCH  64  88
ATOM     88  C   UNL A   1      45.397  23.659  26.011  1.00  0.00     0.023 A 
ATOM     89  C   UNL A   1      45.716  22.295  25.882  1.00  0.00     0.031 A 
ATOM     90  C   UNL A   1      44.313  24.155  25.267  1.00  0.00     0.131 A 
ATOM     91  C   UNL A   1      45.010  21.495  24.973  1.00  0.00     0.055 A 
ATOM     92  C   UNL A   1      43.560  23.334  24.424  1.00  0.00     0.041 A 
ATOM     93  F   UNL A   1      43.976  25.452  25.342  1.00  0.00    -0.206 F 
ATOM     94  C   UNL A   1      43.920  22.001  24.259  1.00  0.00     0.022 A 
BRANCH  91  95
ATOM     95  S   UNL A   1      45.579  19.818  24.578  1.00  0.00     0.124 S 
ATOM     96  O   UNL A   1      44.851  19.534  23.345  1.00  0.00    -0.237 OA
ATOM     97  O   UNL A   1      47.018  20.018  24.430  1.00  0.00    -0.237 OA
ATOM     98  O   UNL A   1      45.179  19.036  25.743  1.00  0.00    -0.744 OA
ENDBRANCH  91  95
ENDBRANCH  64  88
BRANCH  76  99
ATOM     99  C   UNL A   1      51.327  27.266  24.826  1.00  0.00     0.023 A 
ATOM    100  C   UNL A   1      51.032  28.278  23.890  1.00  0.00     0.031 A 
ATOM    101  C   UNL A   1      52.348  26.352  24.515  1.00  0.00     0.131 A 
ATOM    102  C   UNL A   1      51.711  28.317  22.667  1.00  0.00     0.055 A 
ATOM    103  C   UNL A   1      53.062  26.431  23.319  1.00  0.00     0.041 A 
ATOM    104  F   UNL A   1      52.658  25.361  25.367  1.00  0.00    -0.206 F 
ATOM    105  C   UNL A   1      52.732  27.405  22.381  1.00  0.00     0.022 A 
BRANCH 102 106
ATOM    106  S   UNL A   1      51.219  29.478  21.363  1.00  0.00     0.124 S 
ATOM    107  O   UNL A   1      49.807  29.148  21.183  1.00  0.00    -0.237 OA
ATOM    108  O   UNL A   1      51.482  30.772  21.988  1.00  0.00    -0.237 OA
ATOM    109  O   UNL A   1      52.085  29.136  20.241  1.00  0.00    -0.744 OA
ENDBRANCH 102 106
ENDBRANCH  76  99
ENDBRANCH  50  51
ENDBRANCH  42  45
ENDBRANCH  40  41
ENDBRANCH  39  40
ENDBRANCH   1  39
TORSDOF 20
ENDMDL
