MODEL 1
REMARK VINA RESULT:     -10.4      0.000      0.000
REMARK SMILES CCC[N@H+](CC)[C@H]1CC[C@]([NH2+]C)(C(=O)NCCCCNC(=O)c2ccc(-c3c4nc(c(-c5cc(S(=O)(=O)[O-])ccc5F)c5ccc([nH]5)c(-c5cc(S(=O)(=O)[O-])ccc5F)c5nc(c(-c6cc(S(=O)(=O)[O-])ccc6F)c6ccc3[nH]6)C=C5)C=C4)cc2)C1
REMARK SMILES IDX 17 1 16 2 15 3 13 4 14 5 10 7 7 8 8 9 86 10 9 11 4 12 3 14
REMARK SMILES IDX 2 15 1 16 5 17 6 18 11 19 12 20 18 23 19 24 20 25 21 26
REMARK SMILES IDX 22 28 23 29 24 30 85 31 25 32 84 33 26 34 27 35 28 36 78 37
REMARK SMILES IDX 29 38 83 39 77 40 79 41 30 42 82 43 76 44 75 45 31 47 63 48
REMARK SMILES IDX 43 49 62 50 44 51 47 52 61 53 80 54 45 55 46 56 60 58 81 59
REMARK SMILES IDX 48 60 32 61 33 62 41 63 34 64 40 65 42 66 39 67 35 68 36 69
REMARK SMILES IDX 37 70 38 71 64 72 65 73 73 74 66 75 72 76 74 77 71 78 67 79
REMARK SMILES IDX 68 80 69 81 70 82 49 83 50 84 58 85 51 86 57 87 59 88 56 89
REMARK SMILES IDX 52 90 53 91 54 92 55 93
REMARK H PARENT 15 6 4 13 11 21 11 22 20 27 79 46 47 57
REMARK Flexibility Score: inf
ROOT
ATOM      1  C   UNL A   1      34.794  22.185  24.165  1.00  0.00     0.023 C 
ENDROOT
BRANCH   1   2
ATOM      2  C   UNL A   1      34.524  23.396  25.053  1.00  0.00     0.116 C 
BRANCH   2   3
ATOM      3  N   UNL A   1      33.566  23.156  26.112  1.00  0.00    -0.351 N 
ATOM      4  C   UNL A   1      32.394  23.810  26.371  1.00  0.00     0.281 C 
ATOM      5  O   UNL A   1      31.661  23.311  27.234  1.00  0.00    -0.268 OA
ATOM      6  H   UNL A   1      33.789  22.423  26.730  1.00  0.00     0.163 HD
BRANCH   4   7
ATOM      7  C   UNL A   1      32.033  25.165  25.682  1.00  0.00     0.181 C 
ATOM      8  C   UNL A   1      32.274  27.608  26.015  1.00  0.00     0.191 C 
ATOM      9  C   UNL A   1      30.931  27.165  26.628  1.00  0.00     0.072 C 
ATOM     10  C   UNL A   1      33.023  26.271  26.130  1.00  0.00     0.144 C 
ATOM     11  C   UNL A   1      30.673  25.741  26.146  1.00  0.00     0.085 C 
BRANCH   8  12
ATOM     12  N   UNL A   1      32.282  28.184  24.627  1.00  0.00    -0.333 N 
ATOM     13  H   UNL A   1      31.951  27.472  23.975  1.00  0.00     0.348 HD
BRANCH  12  14
ATOM     14  C   UNL A   1      33.675  28.593  24.270  1.00  0.00     0.262 C 
BRANCH  14  15
ATOM     15  C   UNL A   1      34.028  28.556  22.777  1.00  0.00     0.058 C 
ATOM     16  C   UNL A   1      33.566  27.290  22.074  1.00  0.00     0.010 C 
ENDBRANCH  14  15
ENDBRANCH  12  14
BRANCH  12  17
ATOM     17  C   UNL A   1      31.377  29.357  24.538  1.00  0.00     0.258 C 
ATOM     18  C   UNL A   1      31.583  30.443  25.597  1.00  0.00     0.071 C 
ENDBRANCH  12  17
ENDBRANCH   8  12
BRANCH   7  19
ATOM     19  N   UNL A   1      31.982  24.992  24.202  1.00  0.00    -0.336 N 
ATOM     20  C   UNL A   1      30.903  24.121  23.741  1.00  0.00     0.331 C 
ATOM     21  H   UNL A   1      32.869  24.592  23.895  1.00  0.00     0.346 HD
ATOM     22  H   UNL A   1      31.806  25.914  23.804  1.00  0.00     0.346 HD
ENDBRANCH   7  19
ENDBRANCH   4   7
ENDBRANCH   2   3
ENDBRANCH   1   2
BRANCH   1  23
ATOM     23  C   UNL A   1      35.789  21.151  24.696  1.00  0.00     0.023 C 
BRANCH  23  24
ATOM     24  C   UNL A   1      37.041  21.695  25.374  1.00  0.00     0.116 C 
BRANCH  24  25
ATOM     25  N   UNL A   1      38.076  20.694  25.580  1.00  0.00    -0.352 N 
ATOM     26  C   UNL A   1      39.336  20.819  26.116  1.00  0.00     0.251 C 
ATOM     27  H   UNL A   1      37.837  19.784  25.289  1.00  0.00     0.163 HD
ATOM     28  O   UNL A   1      40.096  19.853  26.111  1.00  0.00    -0.269 OA
BRANCH  26  29
ATOM     29  C   UNL A   1      39.794  22.122  26.648  1.00  0.00     0.039 A 
ATOM     30  C   UNL A   1      40.775  22.136  27.643  1.00  0.00     0.014 A 
ATOM     31  C   UNL A   1      39.288  23.324  26.148  1.00  0.00     0.014 A 
ATOM     32  C   UNL A   1      41.320  23.353  28.061  1.00  0.00     0.010 A 
ATOM     33  C   UNL A   1      39.894  24.527  26.500  1.00  0.00     0.010 A 
ATOM     34  C   UNL A   1      40.923  24.556  27.454  1.00  0.00    -0.014 A 
BRANCH  34  35
ATOM     35  C   UNL A   1      41.579  25.849  27.790  1.00  0.00     0.031 A 
ATOM     36  C   UNL A   1      40.807  26.921  28.510  1.00  0.00     0.074 A 
ATOM     37  C   UNL A   1      42.837  26.089  27.369  1.00  0.00     0.049 A 
ATOM     38  N   UNL A   1      41.161  28.148  28.798  1.00  0.00    -0.248 NA
ATOM     39  C   UNL A   1      39.439  26.577  28.926  1.00  0.00     0.031 C 
ATOM     40  C   UNL A   1      43.669  25.153  26.607  1.00  0.00     0.029 A 
ATOM     41  N   UNL A   1      43.633  27.200  27.503  1.00  0.00    -0.354 N 
ATOM     42  C   UNL A   1      40.054  28.729  29.406  1.00  0.00     0.074 A 
ATOM     43  C   UNL A   1      38.998  27.738  29.385  1.00  0.00     0.031 C 
ATOM     44  C   UNL A   1      44.859  25.722  26.359  1.00  0.00     0.029 A 
ATOM     45  C   UNL A   1      44.865  27.077  26.902  1.00  0.00     0.049 A 
ATOM     46  H   UNL A   1      43.348  28.010  27.986  1.00  0.00     0.167 HD
ATOM     47  C   UNL A   1      39.936  29.964  29.954  1.00  0.00     0.034 A 
ATOM     48  C   UNL A   1      45.877  27.958  26.784  1.00  0.00     0.034 A 
ATOM     49  C   UNL A   1      41.006  30.931  29.986  1.00  0.00     0.049 A 
ATOM     50  C   UNL A   1      45.729  29.323  27.405  1.00  0.00     0.074 A 
ATOM     51  C   UNL A   1      41.023  32.183  30.577  1.00  0.00     0.029 A 
ATOM     52  N   UNL A   1      42.251  30.759  29.391  1.00  0.00    -0.354 N 
ATOM     53  N   UNL A   1      44.697  29.835  28.036  1.00  0.00    -0.248 NA
ATOM     54  C   UNL A   1      46.886  30.223  27.310  1.00  0.00     0.031 C 
ATOM     55  C   UNL A   1      42.249  32.790  30.288  1.00  0.00     0.029 A 
ATOM     56  C   UNL A   1      43.030  31.892  29.577  1.00  0.00     0.049 A 
ATOM     57  H   UNL A   1      42.538  29.951  28.909  1.00  0.00     0.167 HD
ATOM     58  C   UNL A   1      45.091  31.109  28.434  1.00  0.00     0.074 A 
ATOM     59  C   UNL A   1      46.459  31.280  27.986  1.00  0.00     0.031 C 
ATOM     60  C   UNL A   1      44.388  32.052  29.111  1.00  0.00     0.034 A 
BRANCH  47  61
ATOM     61  C   UNL A   1      38.593  30.335  30.541  1.00  0.00     0.023 A 
ATOM     62  C   UNL A   1      37.611  30.995  29.780  1.00  0.00     0.031 A 
ATOM     63  C   UNL A   1      38.306  30.068  31.892  1.00  0.00     0.131 A 
ATOM     64  C   UNL A   1      36.434  31.449  30.394  1.00  0.00     0.055 A 
ATOM     65  C   UNL A   1      37.093  30.444  32.475  1.00  0.00     0.041 A 
ATOM     66  F   UNL A   1      39.208  29.458  32.676  1.00  0.00    -0.206 F 
ATOM     67  C   UNL A   1      36.156  31.155  31.730  1.00  0.00     0.022 A 
BRANCH  64  68
ATOM     68  S   UNL A   1      35.352  32.569  29.465  1.00  0.00     0.124 S 
ATOM     69  O   UNL A   1      36.160  33.785  29.416  1.00  0.00    -0.237 OA
ATOM     70  O   UNL A   1      35.181  31.864  28.199  1.00  0.00    -0.237 OA
ATOM     71  O   UNL A   1      34.154  32.658  30.297  1.00  0.00    -0.744 OA
ENDBRANCH  64  68
ENDBRANCH  47  61
BRANCH  48  72
ATOM     72  C   UNL A   1      47.115  27.588  26.040  1.00  0.00     0.023 A 
ATOM     73  C   UNL A   1      47.252  27.867  24.671  1.00  0.00     0.031 A 
ATOM     74  C   UNL A   1      48.173  26.921  26.686  1.00  0.00     0.131 A 
ATOM     75  C   UNL A   1      48.401  27.447  23.982  1.00  0.00     0.055 A 
ATOM     76  C   UNL A   1      49.334  26.548  26.007  1.00  0.00     0.041 A 
ATOM     77  F   UNL A   1      48.096  26.637  27.996  1.00  0.00    -0.206 F 
ATOM     78  C   UNL A   1      49.448  26.800  24.644  1.00  0.00     0.022 A 
BRANCH  75  79
ATOM     79  S   UNL A   1      48.478  27.695  22.187  1.00  0.00     0.124 S 
ATOM     80  O   UNL A   1      48.592  26.325  21.701  1.00  0.00    -0.237 OA
ATOM     81  O   UNL A   1      47.210  28.368  21.920  1.00  0.00    -0.237 OA
ATOM     82  O   UNL A   1      49.670  28.523  22.008  1.00  0.00    -0.744 OA
ENDBRANCH  75  79
ENDBRANCH  48  72
BRANCH  60  83
ATOM     83  C   UNL A   1      45.108  33.337  29.442  1.00  0.00     0.023 A 
ATOM     84  C   UNL A   1      45.090  34.440  28.571  1.00  0.00     0.031 A 
ATOM     85  C   UNL A   1      45.830  33.452  30.643  1.00  0.00     0.131 A 
ATOM     86  C   UNL A   1      45.825  35.592  28.889  1.00  0.00     0.055 A 
ATOM     87  C   UNL A   1      46.511  34.622  30.981  1.00  0.00     0.041 A 
ATOM     88  F   UNL A   1      45.882  32.428  31.509  1.00  0.00    -0.206 F 
ATOM     89  C   UNL A   1      46.522  35.696  30.097  1.00  0.00     0.022 A 
BRANCH  86  90
ATOM     90  S   UNL A   1      45.930  36.926  27.664  1.00  0.00     0.124 S 
ATOM     91  O   UNL A   1      46.247  38.080  28.499  1.00  0.00    -0.237 OA
ATOM     92  O   UNL A   1      46.999  36.461  26.786  1.00  0.00    -0.237 OA
ATOM     93  O   UNL A   1      44.598  36.944  27.062  1.00  0.00    -0.744 OA
ENDBRANCH  86  90
ENDBRANCH  60  83
ENDBRANCH  34  35
ENDBRANCH  26  29
ENDBRANCH  24  25
ENDBRANCH  23  24
ENDBRANCH   1  23
TORSDOF 19
ENDMDL
MODEL 2
REMARK VINA RESULT:     -10.4      1.716      7.880
REMARK SMILES CCC[N@H+](CC)[C@H]1CC[C@]([NH2+]C)(C(=O)NCCCCNC(=O)c2ccc(-c3c4nc(c(-c5cc(S(=O)(=O)[O-])ccc5F)c5ccc([nH]5)c(-c5cc(S(=O)(=O)[O-])ccc5F)c5nc(c(-c6cc(S(=O)(=O)[O-])ccc6F)c6ccc3[nH]6)C=C5)C=C4)cc2)C1
REMARK SMILES IDX 17 1 16 2 15 3 13 4 14 5 10 7 7 8 8 9 86 10 9 11 4 12 3 14
REMARK SMILES IDX 2 15 1 16 5 17 6 18 11 19 12 20 18 23 19 24 20 25 21 26
REMARK SMILES IDX 22 28 23 29 24 30 85 31 25 32 84 33 26 34 27 35 28 36 78 37
REMARK SMILES IDX 29 38 83 39 77 40 79 41 30 42 82 43 76 44 75 45 31 47 63 48
REMARK SMILES IDX 43 49 62 50 44 51 47 52 61 53 80 54 45 55 46 56 60 58 81 59
REMARK SMILES IDX 48 60 32 61 33 62 41 63 34 64 40 65 42 66 39 67 35 68 36 69
REMARK SMILES IDX 37 70 38 71 64 72 65 73 73 74 66 75 72 76 74 77 71 78 67 79
REMARK SMILES IDX 68 80 69 81 70 82 49 83 50 84 58 85 51 86 57 87 59 88 56 89
REMARK SMILES IDX 52 90 53 91 54 92 55 93
REMARK H PARENT 15 6 4 13 11 21 11 22 20 27 79 46 47 57
REMARK Flexibility Score: inf
ROOT
ATOM      1  C   UNL A   1      35.569  22.525  26.322  1.00  0.00     0.023 C 
ENDROOT
BRANCH   1   2
ATOM      2  C   UNL A   1      34.423  23.406  25.834  1.00  0.00     0.116 C 
BRANCH   2   3
ATOM      3  N   UNL A   1      34.362  23.563  24.396  1.00  0.00    -0.351 N 
ATOM      4  C   UNL A   1      33.928  24.635  23.668  1.00  0.00     0.281 C 
ATOM      5  O   UNL A   1      34.131  24.595  22.448  1.00  0.00    -0.268 OA
ATOM      6  H   UNL A   1      34.675  22.791  23.870  1.00  0.00     0.163 HD
BRANCH   4   7
ATOM      7  C   UNL A   1      33.137  25.813  24.323  1.00  0.00     0.181 C 
ATOM      8  C   UNL A   1      32.868  28.270  24.151  1.00  0.00     0.191 C 
ATOM      9  C   UNL A   1      33.967  27.974  25.190  1.00  0.00     0.072 C 
ATOM     10  C   UNL A   1      32.998  26.985  23.317  1.00  0.00     0.144 C 
ATOM     11  C   UNL A   1      33.897  26.480  25.494  1.00  0.00     0.085 C 
BRANCH   8  12
ATOM     12  N   UNL A   1      31.469  28.535  24.632  1.00  0.00    -0.333 N 
ATOM     13  H   UNL A   1      30.984  27.644  24.738  1.00  0.00     0.348 HD
BRANCH  12  14
ATOM     14  C   UNL A   1      30.756  29.387  23.630  1.00  0.00     0.262 C 
BRANCH  14  15
ATOM     15  C   UNL A   1      29.577  28.728  22.902  1.00  0.00     0.058 C 
ATOM     16  C   UNL A   1      29.196  27.368  23.466  1.00  0.00     0.010 C 
ENDBRANCH  14  15
ENDBRANCH  12  14
BRANCH  12  17
ATOM     17  C   UNL A   1      31.485  29.219  25.949  1.00  0.00     0.258 C 
ATOM     18  C   UNL A   1      31.504  30.749  25.908  1.00  0.00     0.071 C 
ENDBRANCH  12  17
ENDBRANCH   8  12
BRANCH   7  19
ATOM     19  N   UNL A   1      31.825  25.328  24.838  1.00  0.00    -0.336 N 
ATOM     20  C   UNL A   1      31.682  25.426  26.289  1.00  0.00     0.331 C 
ATOM     21  H   UNL A   1      31.718  24.348  24.572  1.00  0.00     0.346 HD
ATOM     22  H   UNL A   1      31.108  25.928  24.431  1.00  0.00     0.346 HD
ENDBRANCH   7  19
ENDBRANCH   4   7
ENDBRANCH   2   3
ENDBRANCH   1   2
BRANCH   1  23
ATOM     23  C   UNL A   1      35.968  21.355  25.421  1.00  0.00     0.023 C 
BRANCH  23  24
ATOM     24  C   UNL A   1      37.351  21.425  24.783  1.00  0.00     0.116 C 
BRANCH  24  25
ATOM     25  N   UNL A   1      38.284  20.436  25.299  1.00  0.00    -0.352 N 
ATOM     26  C   UNL A   1      39.412  20.598  26.068  1.00  0.00     0.251 C 
ATOM     27  H   UNL A   1      38.075  19.504  25.059  1.00  0.00     0.163 HD
ATOM     28  O   UNL A   1      40.120  19.625  26.319  1.00  0.00    -0.269 OA
BRANCH  26  29
ATOM     29  C   UNL A   1      39.801  21.943  26.547  1.00  0.00     0.039 A 
ATOM     30  C   UNL A   1      40.811  22.051  27.507  1.00  0.00     0.014 A 
ATOM     31  C   UNL A   1      39.201  23.094  26.031  1.00  0.00     0.014 A 
ATOM     32  C   UNL A   1      41.288  23.312  27.872  1.00  0.00     0.010 A 
ATOM     33  C   UNL A   1      39.738  24.344  26.328  1.00  0.00     0.010 A 
ATOM     34  C   UNL A   1      40.794  24.468  27.245  1.00  0.00    -0.014 A 
BRANCH  34  35
ATOM     35  C   UNL A   1      41.374  25.810  27.522  1.00  0.00     0.031 A 
ATOM     36  C   UNL A   1      42.774  26.134  27.077  1.00  0.00     0.074 A 
ATOM     37  C   UNL A   1      40.674  26.702  28.252  1.00  0.00     0.049 A 
ATOM     38  N   UNL A   1      43.495  27.200  27.314  1.00  0.00    -0.248 NA
ATOM     39  C   UNL A   1      43.468  25.101  26.294  1.00  0.00     0.031 C 
ATOM     40  C   UNL A   1      39.331  26.484  28.796  1.00  0.00     0.029 A 
ATOM     41  N   UNL A   1      41.000  27.966  28.681  1.00  0.00    -0.354 N 
ATOM     42  C   UNL A   1      44.734  26.957  26.730  1.00  0.00     0.074 A 
ATOM     43  C   UNL A   1      44.683  25.616  26.186  1.00  0.00     0.031 C 
ATOM     44  C   UNL A   1      38.943  27.580  29.467  1.00  0.00     0.029 A 
ATOM     45  C   UNL A   1      40.022  28.563  29.443  1.00  0.00     0.049 A 
ATOM     46  H   UNL A   1      41.854  28.404  28.462  1.00  0.00     0.167 HD
ATOM     47  C   UNL A   1      45.805  27.784  26.633  1.00  0.00     0.034 A 
ATOM     48  C   UNL A   1      40.000  29.757  30.067  1.00  0.00     0.034 A 
ATOM     49  C   UNL A   1      45.831  29.126  27.162  1.00  0.00     0.049 A 
ATOM     50  C   UNL A   1      41.198  30.664  29.942  1.00  0.00     0.074 A 
ATOM     51  C   UNL A   1      46.831  30.076  27.060  1.00  0.00     0.029 A 
ATOM     52  N   UNL A   1      44.808  29.707  27.904  1.00  0.00    -0.354 N 
ATOM     53  N   UNL A   1      42.339  30.445  29.330  1.00  0.00    -0.248 NA
ATOM     54  C   UNL A   1      41.100  31.982  30.582  1.00  0.00     0.031 C 
ATOM     55  C   UNL A   1      46.443  31.205  27.790  1.00  0.00     0.029 A 
ATOM     56  C   UNL A   1      45.168  30.990  28.290  1.00  0.00     0.049 A 
ATOM     57  H   UNL A   1      43.954  29.271  28.124  1.00  0.00     0.167 HD
ATOM     58  C   UNL A   1      43.084  31.609  29.490  1.00  0.00     0.074 A 
ATOM     59  C   UNL A   1      42.257  32.531  30.242  1.00  0.00     0.031 C 
ATOM     60  C   UNL A   1      44.338  31.893  29.053  1.00  0.00     0.034 A 
BRANCH  47  61
ATOM     61  C   UNL A   1      47.038  27.241  25.947  1.00  0.00     0.023 A 
ATOM     62  C   UNL A   1      48.017  26.516  26.651  1.00  0.00     0.031 A 
ATOM     63  C   UNL A   1      47.264  27.491  24.581  1.00  0.00     0.131 A 
ATOM     64  C   UNL A   1      49.213  26.150  26.016  1.00  0.00     0.055 A 
ATOM     65  C   UNL A   1      48.417  27.045  23.932  1.00  0.00     0.041 A 
ATOM     66  F   UNL A   1      46.377  28.193  23.859  1.00  0.00    -0.206 F 
ATOM     67  C   UNL A   1      49.410  26.387  24.654  1.00  0.00     0.022 A 
BRANCH  64  68
ATOM     68  S   UNL A   1      50.571  25.511  27.033  1.00  0.00     0.124 S 
ATOM     69  O   UNL A   1      49.972  24.305  27.601  1.00  0.00    -0.237 OA
ATOM     70  O   UNL A   1      51.628  25.298  26.051  1.00  0.00    -0.237 OA
ATOM     71  O   UNL A   1      50.816  26.586  27.993  1.00  0.00    -0.744 OA
ENDBRANCH  64  68
ENDBRANCH  47  61
BRANCH  48  72
ATOM     72  C   UNL A   1      38.815  30.164  30.874  1.00  0.00     0.023 A 
ATOM     73  C   UNL A   1      37.774  30.917  30.309  1.00  0.00     0.031 A 
ATOM     74  C   UNL A   1      38.721  29.826  32.237  1.00  0.00     0.131 A 
ATOM     75  C   UNL A   1      36.704  31.344  31.111  1.00  0.00     0.055 A 
ATOM     76  C   UNL A   1      37.630  30.212  33.019  1.00  0.00     0.041 A 
ATOM     77  F   UNL A   1      39.685  29.100  32.825  1.00  0.00    -0.206 F 
ATOM     78  C   UNL A   1      36.619  30.985  32.459  1.00  0.00     0.022 A 
BRANCH  75  79
ATOM     79  S   UNL A   1      35.453  32.437  30.382  1.00  0.00     0.124 S 
ATOM     80  O   UNL A   1      36.178  33.698  30.288  1.00  0.00    -0.237 OA
ATOM     81  O   UNL A   1      35.164  31.766  29.119  1.00  0.00    -0.237 OA
ATOM     82  O   UNL A   1      34.367  32.412  31.361  1.00  0.00    -0.744 OA
ENDBRANCH  75  79
ENDBRANCH  48  72
BRANCH  60  83
ATOM     83  C   UNL A   1      44.868  33.275  29.346  1.00  0.00     0.023 A 
ATOM     84  C   UNL A   1      44.696  34.340  28.446  1.00  0.00     0.031 A 
ATOM     85  C   UNL A   1      45.564  33.523  30.543  1.00  0.00     0.131 A 
ATOM     86  C   UNL A   1      45.260  35.593  28.731  1.00  0.00     0.055 A 
ATOM     87  C   UNL A   1      46.073  34.787  30.848  1.00  0.00     0.041 A 
ATOM     88  F   UNL A   1      45.760  32.541  31.436  1.00  0.00    -0.206 F 
ATOM     89  C   UNL A   1      45.932  35.827  29.934  1.00  0.00     0.022 A 
BRANCH  86  90
ATOM     90  S   UNL A   1      45.177  36.895  27.470  1.00  0.00     0.124 S 
ATOM     91  O   UNL A   1      43.807  36.760  26.986  1.00  0.00    -0.237 OA
ATOM     92  O   UNL A   1      45.466  38.098  28.245  1.00  0.00    -0.237 OA
ATOM     93  O   UNL A   1      46.213  36.511  26.513  1.00  0.00    -0.744 OA
ENDBRANCH  86  90
ENDBRANCH  60  83
ENDBRANCH  34  35
ENDBRANCH  26  29
ENDBRANCH  24  25
ENDBRANCH  23  24
ENDBRANCH   1  23
TORSDOF 19
ENDMDL
MODEL 3
REMARK VINA RESULT:     -10.0      2.253      2.716
REMARK SMILES CCC[N@H+](CC)[C@H]1CC[C@]([NH2+]C)(C(=O)NCCCCNC(=O)c2ccc(-c3c4nc(c(-c5cc(S(=O)(=O)[O-])ccc5F)c5ccc([nH]5)c(-c5cc(S(=O)(=O)[O-])ccc5F)c5nc(c(-c6cc(S(=O)(=O)[O-])ccc6F)c6ccc3[nH]6)C=C5)C=C4)cc2)C1
REMARK SMILES IDX 17 1 16 2 15 3 13 4 14 5 10 7 7 8 8 9 86 10 9 11 4 12 3 14
REMARK SMILES IDX 2 15 1 16 5 17 6 18 11 19 12 20 18 23 19 24 20 25 21 26
REMARK SMILES IDX 22 28 23 29 24 30 85 31 25 32 84 33 26 34 27 35 28 36 78 37
REMARK SMILES IDX 29 38 83 39 77 40 79 41 30 42 82 43 76 44 75 45 31 47 63 48
REMARK SMILES IDX 43 49 62 50 44 51 47 52 61 53 80 54 45 55 46 56 60 58 81 59
REMARK SMILES IDX 48 60 32 61 33 62 41 63 34 64 40 65 42 66 39 67 35 68 36 69
REMARK SMILES IDX 37 70 38 71 64 72 65 73 73 74 66 75 72 76 74 77 71 78 67 79
REMARK SMILES IDX 68 80 69 81 70 82 49 83 50 84 58 85 51 86 57 87 59 88 56 89
REMARK SMILES IDX 52 90 53 91 54 92 55 93
REMARK H PARENT 15 6 4 13 11 21 11 22 20 27 79 46 47 57
REMARK Flexibility Score: inf
ROOT
ATOM      1  C   UNL A   1      35.784  22.716  26.266  1.00  0.00     0.023 C 
ENDROOT
BRANCH   1   2
ATOM      2  C   UNL A   1      34.685  23.650  25.768  1.00  0.00     0.116 C 
BRANCH   2   3
ATOM      3  N   UNL A   1      34.487  23.625  24.334  1.00  0.00    -0.351 N 
ATOM      4  C   UNL A   1      33.917  24.572  23.530  1.00  0.00     0.281 C 
ATOM      5  O   UNL A   1      34.015  24.395  22.310  1.00  0.00    -0.268 OA
ATOM      6  H   UNL A   1      34.806  22.814  23.874  1.00  0.00     0.163 HD
BRANCH   4   7
ATOM      7  C   UNL A   1      33.106  25.773  24.115  1.00  0.00     0.181 C 
ATOM      8  C   UNL A   1      32.577  28.145  23.633  1.00  0.00     0.191 C 
ATOM      9  C   UNL A   1      33.826  28.100  24.535  1.00  0.00     0.072 C 
ATOM     10  C   UNL A   1      32.723  26.760  22.983  1.00  0.00     0.144 C 
ATOM     11  C   UNL A   1      33.943  26.672  25.057  1.00  0.00     0.085 C 
BRANCH   8  12
ATOM     12  N   UNL A   1      31.233  28.373  24.267  1.00  0.00    -0.333 N 
ATOM     13  H   UNL A   1      30.757  27.475  24.359  1.00  0.00     0.348 HD
BRANCH  12  14
ATOM     14  C   UNL A   1      30.428  29.288  23.400  1.00  0.00     0.262 C 
BRANCH  14  15
ATOM     15  C   UNL A   1      29.118  28.714  22.846  1.00  0.00     0.058 C 
ATOM     16  C   UNL A   1      28.749  27.361  23.435  1.00  0.00     0.010 C 
ENDBRANCH  14  15
ENDBRANCH  12  14
BRANCH  12  17
ATOM     17  C   UNL A   1      31.382  28.965  25.619  1.00  0.00     0.258 C 
ATOM     18  C   UNL A   1      31.600  30.480  25.665  1.00  0.00     0.071 C 
ENDBRANCH  12  17
ENDBRANCH   8  12
BRANCH   7  19
ATOM     19  N   UNL A   1      31.927  25.274  24.878  1.00  0.00    -0.336 N 
ATOM     20  C   UNL A   1      30.966  24.527  24.069  1.00  0.00     0.331 C 
ATOM     21  H   UNL A   1      31.446  26.076  25.287  1.00  0.00     0.346 HD
ATOM     22  H   UNL A   1      32.284  24.627  25.582  1.00  0.00     0.346 HD
ENDBRANCH   7  19
ENDBRANCH   4   7
ENDBRANCH   2   3
ENDBRANCH   1   2
BRANCH   1  23
ATOM     23  C   UNL A   1      36.027  21.445  25.452  1.00  0.00     0.023 C 
BRANCH  23  24
ATOM     24  C   UNL A   1      37.341  21.368  24.682  1.00  0.00     0.116 C 
BRANCH  24  25
ATOM     25  N   UNL A   1      38.213  20.289  25.119  1.00  0.00    -0.352 N 
ATOM     26  C   UNL A   1      39.351  20.325  25.890  1.00  0.00     0.251 C 
ATOM     27  H   UNL A   1      37.946  19.391  24.814  1.00  0.00     0.163 HD
ATOM     28  O   UNL A   1      39.998  19.295  26.065  1.00  0.00    -0.269 OA
BRANCH  26  29
ATOM     29  C   UNL A   1      39.822  21.606  26.462  1.00  0.00     0.039 A 
ATOM     30  C   UNL A   1      40.861  21.583  27.397  1.00  0.00     0.014 A 
ATOM     31  C   UNL A   1      39.273  22.824  26.057  1.00  0.00     0.014 A 
ATOM     32  C   UNL A   1      41.414  22.785  27.847  1.00  0.00     0.010 A 
ATOM     33  C   UNL A   1      39.883  24.016  26.436  1.00  0.00     0.010 A 
ATOM     34  C   UNL A   1      40.967  24.012  27.328  1.00  0.00    -0.014 A 
BRANCH  34  35
ATOM     35  C   UNL A   1      41.625  25.295  27.694  1.00  0.00     0.031 A 
ATOM     36  C   UNL A   1      40.844  26.368  28.402  1.00  0.00     0.074 A 
ATOM     37  C   UNL A   1      42.896  25.527  27.308  1.00  0.00     0.049 A 
ATOM     38  N   UNL A   1      41.202  27.589  28.709  1.00  0.00    -0.248 NA
ATOM     39  C   UNL A   1      39.462  26.034  28.777  1.00  0.00     0.031 C 
ATOM     40  C   UNL A   1      43.740  24.590  26.562  1.00  0.00     0.029 A 
ATOM     41  N   UNL A   1      43.699  26.630  27.474  1.00  0.00    -0.354 N 
ATOM     42  C   UNL A   1      40.083  28.176  29.292  1.00  0.00     0.074 A 
ATOM     43  C   UNL A   1      39.020  27.195  29.234  1.00  0.00     0.031 C 
ATOM     44  C   UNL A   1      44.942  25.149  26.351  1.00  0.00     0.029 A 
ATOM     45  C   UNL A   1      44.945  26.499  26.905  1.00  0.00     0.049 A 
ATOM     46  H   UNL A   1      43.409  27.438  27.956  1.00  0.00     0.167 HD
ATOM     47  C   UNL A   1      39.962  29.407  29.848  1.00  0.00     0.034 A 
ATOM     48  C   UNL A   1      45.969  27.372  26.823  1.00  0.00     0.034 A 
ATOM     49  C   UNL A   1      41.039  30.364  29.917  1.00  0.00     0.049 A 
ATOM     50  C   UNL A   1      45.816  28.734  27.452  1.00  0.00     0.074 A 
ATOM     51  C   UNL A   1      41.052  31.610  30.520  1.00  0.00     0.029 A 
ATOM     52  N   UNL A   1      42.299  30.185  29.355  1.00  0.00    -0.354 N 
ATOM     53  N   UNL A   1      44.772  29.250  28.059  1.00  0.00    -0.248 NA
ATOM     54  C   UNL A   1      46.983  29.623  27.396  1.00  0.00     0.031 C 
ATOM     55  C   UNL A   1      42.291  32.208  30.269  1.00  0.00     0.029 A 
ATOM     56  C   UNL A   1      43.083  31.309  29.572  1.00  0.00     0.049 A 
ATOM     57  H   UNL A   1      42.591  29.378  28.874  1.00  0.00     0.167 HD
ATOM     58  C   UNL A   1      45.167  30.517  28.478  1.00  0.00     0.074 A 
ATOM     59  C   UNL A   1      46.548  30.678  28.070  1.00  0.00     0.031 C 
ATOM     60  C   UNL A   1      44.454  31.461  29.145  1.00  0.00     0.034 A 
BRANCH  47  61
ATOM     61  C   UNL A   1      38.607  29.786  30.401  1.00  0.00     0.023 A 
ATOM     62  C   UNL A   1      37.641  30.434  29.611  1.00  0.00     0.031 A 
ATOM     63  C   UNL A   1      38.292  29.539  31.750  1.00  0.00     0.131 A 
ATOM     64  C   UNL A   1      36.451  30.896  30.193  1.00  0.00     0.055 A 
ATOM     65  C   UNL A   1      37.067  29.922  32.302  1.00  0.00     0.041 A 
ATOM     66  F   UNL A   1      39.178  28.940  32.561  1.00  0.00    -0.206 F 
ATOM     67  C   UNL A   1      36.146  30.622  31.528  1.00  0.00     0.022 A 
BRANCH  64  68
ATOM     68  S   UNL A   1      35.388  32.002  29.226  1.00  0.00     0.124 S 
ATOM     69  O   UNL A   1      34.690  31.056  28.358  1.00  0.00    -0.237 OA
ATOM     70  O   UNL A   1      34.578  32.642  30.256  1.00  0.00    -0.237 OA
ATOM     71  O   UNL A   1      36.337  32.879  28.543  1.00  0.00    -0.744 OA
ENDBRANCH  64  68
ENDBRANCH  47  61
BRANCH  48  72
ATOM     72  C   UNL A   1      47.223  26.997  26.110  1.00  0.00     0.023 A 
ATOM     73  C   UNL A   1      48.268  26.338  26.776  1.00  0.00     0.031 A 
ATOM     74  C   UNL A   1      47.405  27.319  24.752  1.00  0.00     0.131 A 
ATOM     75  C   UNL A   1      49.465  26.057  26.097  1.00  0.00     0.055 A 
ATOM     76  C   UNL A   1      48.578  26.994  24.068  1.00  0.00     0.041 A 
ATOM     77  F   UNL A   1      46.434  27.942  24.067  1.00  0.00    -0.206 F 
ATOM     78  C   UNL A   1      49.622  26.370  24.744  1.00  0.00     0.022 A 
BRANCH  75  79
ATOM     79  S   UNL A   1      50.845  25.338  27.028  1.00  0.00     0.124 S 
ATOM     80  O   UNL A   1      51.290  26.474  27.827  1.00  0.00    -0.237 OA
ATOM     81  O   UNL A   1      50.188  24.258  27.758  1.00  0.00    -0.237 OA
ATOM     82  O   UNL A   1      51.773  24.907  25.983  1.00  0.00    -0.744 OA
ENDBRANCH  75  79
ENDBRANCH  48  72
BRANCH  60  83
ATOM     83  C   UNL A   1      45.177  32.735  29.506  1.00  0.00     0.023 A 
ATOM     84  C   UNL A   1      45.930  32.850  30.687  1.00  0.00     0.031 A 
ATOM     85  C   UNL A   1      45.101  33.853  28.656  1.00  0.00     0.131 A 
ATOM     86  C   UNL A   1      46.534  34.074  31.014  1.00  0.00     0.055 A 
ATOM     87  C   UNL A   1      45.753  35.051  28.958  1.00  0.00     0.041 A 
ATOM     88  F   UNL A   1      44.394  33.800  27.517  1.00  0.00    -0.206 F 
ATOM     89  C   UNL A   1      46.464  35.169  30.148  1.00  0.00     0.022 A 
BRANCH  86  90
ATOM     90  S   UNL A   1      47.344  34.243  32.628  1.00  0.00     0.124 S 
ATOM     91  O   UNL A   1      47.237  35.678  32.871  1.00  0.00    -0.237 OA
ATOM     92  O   UNL A   1      46.524  33.388  33.480  1.00  0.00    -0.237 OA
ATOM     93  O   UNL A   1      48.701  33.756  32.384  1.00  0.00    -0.744 OA
ENDBRANCH  86  90
ENDBRANCH  60  83
ENDBRANCH  34  35
ENDBRANCH  26  29
ENDBRANCH  24  25
ENDBRANCH  23  24
ENDBRANCH   1  23
TORSDOF 19
ENDMDL
