MODEL 1
REMARK VINA RESULT:     -11.4      0.000      0.000
REMARK SMILES COc1cccc(C(=O)NNC(=O)[C@H]2CC(C)=C(C)C[C@@H]2C(=O)NCCCCNC(=O)c2ccc(-c3c4nc(c(-c5cc(S(=O)(=O)[O-])ccc5F)c5ccc([nH]5)c(-c5cc(S(=O)(=O)[O-])ccc5F)c5nc(c(-c6cc(S(=O)(=O)[O-])ccc6F)c6ccc3[nH]6)C=C5)C=C4)cc2)c1
REMARK SMILES IDX 26 1 25 2 24 3 22 4 23 5 21 7 14 8 15 9 16 10 20 11 17 12
REMARK SMILES IDX 18 13 19 14 12 15 11 16 13 18 10 19 8 20 9 21 7 23 3 24 4 25
REMARK SMILES IDX 95 26 5 27 6 28 2 29 1 30 27 31 28 32 29 33 30 34 31 36
REMARK SMILES IDX 32 37 33 38 94 39 34 40 93 41 35 42 36 43 37 44 87 45 38 46
REMARK SMILES IDX 92 47 86 48 88 49 39 50 91 51 85 52 84 53 40 55 72 56 52 57
REMARK SMILES IDX 71 58 53 59 56 60 70 61 89 62 54 63 55 64 69 66 90 67 57 68
REMARK SMILES IDX 41 69 42 70 50 71 43 72 49 73 51 74 48 75 44 76 45 77 46 78
REMARK SMILES IDX 47 79 73 80 74 81 82 82 75 83 81 84 83 85 80 86 76 87 77 88
REMARK SMILES IDX 78 89 79 90 58 91 59 92 67 93 60 94 66 95 68 96 65 97 61 98
REMARK SMILES IDX 62 99 63 100 64 101
REMARK H PARENT 24 6 11 17 10 22 29 35 88 54 56 65
REMARK Flexibility Score: inf
ROOT
ATOM      1  C   UNL A   1      32.696  29.004  26.693  1.00  0.00     0.023 C 
ENDROOT
BRANCH   1   2
ATOM      2  C   UNL A   1      31.346  28.300  26.684  1.00  0.00     0.116 C 
BRANCH   2   3
ATOM      3  N   UNL A   1      31.393  26.957  27.234  1.00  0.00    -0.356 N 
ATOM      4  C   UNL A   1      31.608  25.765  26.599  1.00  0.00     0.224 C 
ATOM      5  O   UNL A   1      31.704  24.756  27.296  1.00  0.00    -0.275 OA
ATOM      6  H   UNL A   1      31.250  26.895  28.206  1.00  0.00     0.163 HD
BRANCH   4   7
ATOM      7  C   UNL A   1      31.692  25.734  25.067  1.00  0.00     0.095 C 
ATOM      8  C   UNL A   1      30.511  24.921  24.471  1.00  0.00     0.097 C 
ATOM      9  C   UNL A   1      30.842  23.842  23.430  1.00  0.00     0.045 C 
ATOM     10  C   UNL A   1      32.285  23.465  23.208  1.00  0.00    -0.074 C 
ATOM     11  C   UNL A   1      33.110  25.333  24.639  1.00  0.00     0.045 C 
ATOM     12  C   UNL A   1      32.476  22.250  22.334  1.00  0.00     0.039 C 
ATOM     13  C   UNL A   1      33.308  24.156  23.738  1.00  0.00    -0.074 C 
ATOM     14  C   UNL A   1      34.759  23.843  23.465  1.00  0.00     0.039 C 
BRANCH   8  15
ATOM     15  C   UNL A   1      29.471  25.915  23.925  1.00  0.00     0.242 C 
ATOM     16  N   UNL A   1      29.856  26.809  22.956  1.00  0.00    -0.267 N 
ATOM     17  H   UNL A   1      29.204  27.057  22.262  1.00  0.00     0.191 HD
ATOM     18  O   UNL A   1      28.292  25.928  24.285  1.00  0.00    -0.273 OA
BRANCH  16  19
ATOM     19  N   UNL A   1      31.119  27.380  22.909  1.00  0.00    -0.263 N 
ATOM     20  C   UNL A   1      31.380  28.741  22.884  1.00  0.00     0.269 C 
ATOM     21  O   UNL A   1      32.548  29.125  22.845  1.00  0.00    -0.267 OA
ATOM     22  H   UNL A   1      31.891  26.770  22.891  1.00  0.00     0.191 HD
BRANCH  20  23
ATOM     23  C   UNL A   1      30.285  29.756  22.813  1.00  0.00     0.045 A 
ATOM     24  C   UNL A   1      28.582  31.042  21.658  1.00  0.00     0.119 A 
ATOM     25  C   UNL A   1      28.369  31.794  22.815  1.00  0.00     0.046 A 
ATOM     26  C   UNL A   1      29.500  29.987  21.674  1.00  0.00     0.060 A 
ATOM     27  C   UNL A   1      29.087  31.521  23.977  1.00  0.00     0.005 A 
ATOM     28  C   UNL A   1      30.049  30.512  23.972  1.00  0.00     0.014 A 
BRANCH  24  29
ATOM     29  O   UNL A   1      27.832  31.426  20.580  1.00  0.00    -0.497 OA
ATOM     30  C   UNL A   1      27.834  32.817  20.268  1.00  0.00     0.278 C 
ENDBRANCH  24  29
ENDBRANCH  20  23
ENDBRANCH  16  19
ENDBRANCH   8  15
ENDBRANCH   4   7
ENDBRANCH   2   3
ENDBRANCH   1   2
BRANCH   1  31
ATOM     31  C   UNL A   1      32.642  30.525  26.805  1.00  0.00     0.023 C 
BRANCH  31  32
ATOM     32  C   UNL A   1      33.597  31.147  27.819  1.00  0.00     0.116 C 
BRANCH  32  33
ATOM     33  N   UNL A   1      33.787  32.576  27.626  1.00  0.00    -0.352 N 
ATOM     34  C   UNL A   1      34.776  33.400  28.118  1.00  0.00     0.251 C 
ATOM     35  H   UNL A   1      33.111  33.018  27.064  1.00  0.00     0.163 HD
ATOM     36  O   UNL A   1      34.701  34.608  27.948  1.00  0.00    -0.269 OA
BRANCH  34  37
ATOM     37  C   UNL A   1      35.899  32.815  28.886  1.00  0.00     0.039 A 
ATOM     38  C   UNL A   1      35.644  31.735  29.733  1.00  0.00     0.014 A 
ATOM     39  C   UNL A   1      37.200  33.302  28.737  1.00  0.00     0.014 A 
ATOM     40  C   UNL A   1      36.709  31.084  30.361  1.00  0.00     0.010 A 
ATOM     41  C   UNL A   1      38.265  32.605  29.301  1.00  0.00     0.010 A 
ATOM     42  C   UNL A   1      38.032  31.482  30.109  1.00  0.00    -0.014 A 
BRANCH  42  43
ATOM     43  C   UNL A   1      39.185  30.723  30.665  1.00  0.00     0.031 A 
ATOM     44  C   UNL A   1      39.795  31.130  31.979  1.00  0.00     0.074 A 
ATOM     45  C   UNL A   1      39.727  29.716  29.950  1.00  0.00     0.049 A 
ATOM     46  N   UNL A   1      40.853  30.655  32.583  1.00  0.00    -0.248 NA
ATOM     47  C   UNL A   1      39.144  32.240  32.691  1.00  0.00     0.031 C 
ATOM     48  C   UNL A   1      39.253  29.258  28.643  1.00  0.00     0.029 A 
ATOM     49  N   UNL A   1      40.802  28.904  30.214  1.00  0.00    -0.354 N 
ATOM     50  C   UNL A   1      41.003  31.414  33.739  1.00  0.00     0.074 A 
ATOM     51  C   UNL A   1      39.962  32.420  33.716  1.00  0.00     0.031 C 
ATOM     52  C   UNL A   1      40.018  28.233  28.230  1.00  0.00     0.029 A 
ATOM     53  C   UNL A   1      41.067  27.992  29.217  1.00  0.00     0.049 A 
ATOM     54  H   UNL A   1      41.335  28.967  31.039  1.00  0.00     0.167 HD
ATOM     55  C   UNL A   1      41.912  31.271  34.736  1.00  0.00     0.034 A 
ATOM     56  C   UNL A   1      42.050  27.077  29.101  1.00  0.00     0.034 A 
ATOM     57  C   UNL A   1      42.935  30.255  34.749  1.00  0.00     0.049 A 
ATOM     58  C   UNL A   1      43.063  26.954  30.211  1.00  0.00     0.074 A 
ATOM     59  C   UNL A   1      43.866  29.981  35.737  1.00  0.00     0.029 A 
ATOM     60  N   UNL A   1      43.171  29.348  33.723  1.00  0.00    -0.354 N 
ATOM     61  N   UNL A   1      43.157  27.644  31.325  1.00  0.00    -0.248 NA
ATOM     62  C   UNL A   1      44.097  25.924  30.052  1.00  0.00     0.031 C 
ATOM     63  C   UNL A   1      44.706  28.959  35.280  1.00  0.00     0.029 A 
ATOM     64  C   UNL A   1      44.253  28.539  34.040  1.00  0.00     0.049 A 
ATOM     65  H   UNL A   1      42.647  29.289  32.892  1.00  0.00     0.167 HD
ATOM     66  C   UNL A   1      44.243  27.110  32.011  1.00  0.00     0.074 A 
ATOM     67  C   UNL A   1      44.760  26.030  31.195  1.00  0.00     0.031 C 
ATOM     68  C   UNL A   1      44.765  27.475  33.209  1.00  0.00     0.034 A 
BRANCH  55  69
ATOM     69  C   UNL A   1      41.848  32.254  35.881  1.00  0.00     0.023 A 
ATOM     70  C   UNL A   1      40.825  32.200  36.845  1.00  0.00     0.031 A 
ATOM     71  C   UNL A   1      42.811  33.271  36.001  1.00  0.00     0.131 A 
ATOM     72  C   UNL A   1      40.747  33.187  37.839  1.00  0.00     0.055 A 
ATOM     73  C   UNL A   1      42.774  34.201  37.042  1.00  0.00     0.041 A 
ATOM     74  F   UNL A   1      43.800  33.387  35.100  1.00  0.00    -0.206 F 
ATOM     75  C   UNL A   1      41.728  34.172  37.960  1.00  0.00     0.022 A 
BRANCH  72  76
ATOM     76  S   UNL A   1      39.266  33.244  38.885  1.00  0.00     0.124 S 
ATOM     77  O   UNL A   1      38.563  32.032  38.468  1.00  0.00    -0.237 OA
ATOM     78  O   UNL A   1      39.828  33.227  40.230  1.00  0.00    -0.237 OA
ATOM     79  O   UNL A   1      38.619  34.495  38.494  1.00  0.00    -0.744 OA
ENDBRANCH  72  76
ENDBRANCH  55  69
BRANCH  56  80
ATOM     80  C   UNL A   1      42.143  26.213  27.888  1.00  0.00     0.023 A 
ATOM     81  C   UNL A   1      41.663  24.894  27.901  1.00  0.00     0.031 A 
ATOM     82  C   UNL A   1      42.762  26.677  26.713  1.00  0.00     0.131 A 
ATOM     83  C   UNL A   1      41.853  24.068  26.782  1.00  0.00     0.055 A 
ATOM     84  C   UNL A   1      42.898  25.870  25.583  1.00  0.00     0.041 A 
ATOM     85  F   UNL A   1      43.235  27.931  26.645  1.00  0.00    -0.206 F 
ATOM     86  C   UNL A   1      42.456  24.551  25.619  1.00  0.00     0.022 A 
BRANCH  83  87
ATOM     87  S   UNL A   1      41.381  22.321  26.902  1.00  0.00     0.124 S 
ATOM     88  O   UNL A   1      42.215  21.863  28.008  1.00  0.00    -0.237 OA
ATOM     89  O   UNL A   1      39.949  22.412  27.173  1.00  0.00    -0.237 OA
ATOM     90  O   UNL A   1      41.731  21.783  25.590  1.00  0.00    -0.744 OA
ENDBRANCH  83  87
ENDBRANCH  56  80
BRANCH  68  91
ATOM     91  C   UNL A   1      45.932  26.666  33.723  1.00  0.00     0.023 A 
ATOM     92  C   UNL A   1      45.745  25.486  34.464  1.00  0.00     0.031 A 
ATOM     93  C   UNL A   1      47.249  27.091  33.477  1.00  0.00     0.131 A 
ATOM     94  C   UNL A   1      46.856  24.802  34.980  1.00  0.00     0.055 A 
ATOM     95  C   UNL A   1      48.352  26.374  33.940  1.00  0.00     0.041 A 
ATOM     96  F   UNL A   1      47.486  28.213  32.777  1.00  0.00    -0.206 F 
ATOM     97  C   UNL A   1      48.159  25.229  34.708  1.00  0.00     0.022 A 
BRANCH  94  98
ATOM     98  S   UNL A   1      46.575  23.394  36.088  1.00  0.00     0.124 S 
ATOM     99  O   UNL A   1      45.832  22.477  35.231  1.00  0.00    -0.237 OA
ATOM    100  O   UNL A   1      47.935  22.988  36.429  1.00  0.00    -0.237 OA
ATOM    101  O   UNL A   1      45.808  23.973  37.190  1.00  0.00    -0.744 OA
ENDBRANCH  94  98
ENDBRANCH  68  91
ENDBRANCH  42  43
ENDBRANCH  34  37
ENDBRANCH  32  33
ENDBRANCH  31  32
ENDBRANCH   1  31
TORSDOF 18
ENDMDL
MODEL 2
REMARK VINA RESULT:     -11.1      4.595      8.319
REMARK SMILES COc1cccc(C(=O)NNC(=O)[C@H]2CC(C)=C(C)C[C@@H]2C(=O)NCCCCNC(=O)c2ccc(-c3c4nc(c(-c5cc(S(=O)(=O)[O-])ccc5F)c5ccc([nH]5)c(-c5cc(S(=O)(=O)[O-])ccc5F)c5nc(c(-c6cc(S(=O)(=O)[O-])ccc6F)c6ccc3[nH]6)C=C5)C=C4)cc2)c1
REMARK SMILES IDX 26 1 25 2 24 3 22 4 23 5 21 7 14 8 15 9 16 10 20 11 17 12
REMARK SMILES IDX 18 13 19 14 12 15 11 16 13 18 10 19 8 20 9 21 7 23 3 24 4 25
REMARK SMILES IDX 95 26 5 27 6 28 2 29 1 30 27 31 28 32 29 33 30 34 31 36
REMARK SMILES IDX 32 37 33 38 94 39 34 40 93 41 35 42 36 43 37 44 87 45 38 46
REMARK SMILES IDX 92 47 86 48 88 49 39 50 91 51 85 52 84 53 40 55 72 56 52 57
REMARK SMILES IDX 71 58 53 59 56 60 70 61 89 62 54 63 55 64 69 66 90 67 57 68
REMARK SMILES IDX 41 69 42 70 50 71 43 72 49 73 51 74 48 75 44 76 45 77 46 78
REMARK SMILES IDX 47 79 73 80 74 81 82 82 75 83 81 84 83 85 80 86 76 87 77 88
REMARK SMILES IDX 78 89 79 90 58 91 59 92 67 93 60 94 66 95 68 96 65 97 61 98
REMARK SMILES IDX 62 99 63 100 64 101
REMARK H PARENT 24 6 11 17 10 22 29 35 88 54 56 65
REMARK Flexibility Score: inf
ROOT
ATOM      1  C   UNL A   1      40.129  29.079  28.633  1.00  0.00     0.023 C 
ENDROOT
BRANCH   1   2
ATOM      2  C   UNL A   1      39.424  30.228  29.341  1.00  0.00     0.116 C 
BRANCH   2   3
ATOM      3  N   UNL A   1      38.353  29.793  30.218  1.00  0.00    -0.356 N 
ATOM      4  C   UNL A   1      37.002  29.961  30.089  1.00  0.00     0.224 C 
ATOM      5  O   UNL A   1      36.276  29.412  30.917  1.00  0.00    -0.275 OA
ATOM      6  H   UNL A   1      38.640  29.306  31.024  1.00  0.00     0.163 HD
BRANCH   4   7
ATOM      7  C   UNL A   1      36.458  30.834  28.949  1.00  0.00     0.095 C 
ATOM      8  C   UNL A   1      35.361  31.799  29.475  1.00  0.00     0.097 C 
ATOM      9  C   UNL A   1      34.036  31.860  28.701  1.00  0.00     0.045 C 
ATOM     10  C   UNL A   1      33.774  30.837  27.626  1.00  0.00    -0.074 C 
ATOM     11  C   UNL A   1      36.101  29.948  27.749  1.00  0.00     0.045 C 
ATOM     12  C   UNL A   1      32.364  30.855  27.089  1.00  0.00     0.039 C 
ATOM     13  C   UNL A   1      34.718  29.990  27.182  1.00  0.00    -0.074 C 
ATOM     14  C   UNL A   1      34.499  29.011  26.053  1.00  0.00     0.039 C 
BRANCH   8  15
ATOM     15  C   UNL A   1      35.982  33.198  29.623  1.00  0.00     0.242 C 
ATOM     16  N   UNL A   1      36.670  33.498  30.772  1.00  0.00    -0.267 N 
ATOM     17  H   UNL A   1      37.456  34.088  30.708  1.00  0.00     0.191 HD
ATOM     18  O   UNL A   1      35.928  34.060  28.742  1.00  0.00    -0.273 OA
BRANCH  16  19
ATOM     19  N   UNL A   1      36.312  33.011  32.020  1.00  0.00    -0.263 N 
ATOM     20  C   UNL A   1      35.315  33.536  32.827  1.00  0.00     0.269 C 
ATOM     21  O   UNL A   1      35.088  33.012  33.916  1.00  0.00    -0.267 OA
ATOM     22  H   UNL A   1      36.806  32.232  32.362  1.00  0.00     0.191 HD
BRANCH  20  23
ATOM     23  C   UNL A   1      34.564  34.774  32.453  1.00  0.00     0.045 A 
ATOM     24  C   UNL A   1      33.165  36.112  30.990  1.00  0.00     0.119 A 
ATOM     25  C   UNL A   1      33.345  37.213  31.829  1.00  0.00     0.046 A 
ATOM     26  C   UNL A   1      33.729  34.879  31.331  1.00  0.00     0.060 A 
ATOM     27  C   UNL A   1      34.108  37.100  32.989  1.00  0.00     0.005 A 
ATOM     28  C   UNL A   1      34.724  35.887  33.294  1.00  0.00     0.014 A 
BRANCH  24  29
ATOM     29  O   UNL A   1      32.416  36.360  29.872  1.00  0.00    -0.497 OA
ATOM     30  C   UNL A   1      32.915  35.837  28.644  1.00  0.00     0.278 C 
ENDBRANCH  24  29
ENDBRANCH  20  23
ENDBRANCH  16  19
ENDBRANCH   8  15
ENDBRANCH   4   7
ENDBRANCH   2   3
ENDBRANCH   1   2
BRANCH   1  31
ATOM     31  C   UNL A   1      39.870  28.974  27.132  1.00  0.00     0.023 C 
BRANCH  31  32
ATOM     32  C   UNL A   1      41.100  29.106  26.240  1.00  0.00     0.116 C 
BRANCH  32  33
ATOM     33  N   UNL A   1      41.408  27.890  25.505  1.00  0.00    -0.352 N 
ATOM     34  C   UNL A   1      42.112  26.777  25.911  1.00  0.00     0.251 C 
ATOM     35  H   UNL A   1      41.065  27.857  24.583  1.00  0.00     0.163 HD
ATOM     36  O   UNL A   1      42.377  25.897  25.106  1.00  0.00    -0.269 OA
BRANCH  34  37
ATOM     37  C   UNL A   1      42.580  26.681  27.313  1.00  0.00     0.039 A 
ATOM     38  C   UNL A   1      43.785  27.293  27.663  1.00  0.00     0.014 A 
ATOM     39  C   UNL A   1      41.813  26.030  28.282  1.00  0.00     0.014 A 
ATOM     40  C   UNL A   1      44.177  27.331  29.004  1.00  0.00     0.010 A 
ATOM     41  C   UNL A   1      42.165  26.137  29.625  1.00  0.00     0.010 A 
ATOM     42  C   UNL A   1      43.344  26.798  30.001  1.00  0.00    -0.014 A 
BRANCH  42  43
ATOM     43  C   UNL A   1      43.679  26.941  31.444  1.00  0.00     0.031 A 
ATOM     44  C   UNL A   1      43.390  28.231  32.162  1.00  0.00     0.074 A 
ATOM     45  C   UNL A   1      44.309  25.936  32.085  1.00  0.00     0.049 A 
ATOM     46  N   UNL A   1      43.686  28.582  33.386  1.00  0.00    -0.248 NA
ATOM     47  C   UNL A   1      42.704  29.276  31.387  1.00  0.00     0.031 C 
ATOM     48  C   UNL A   1      44.683  24.654  31.485  1.00  0.00     0.029 A 
ATOM     49  N   UNL A   1      44.758  25.837  33.379  1.00  0.00    -0.354 N 
ATOM     50  C   UNL A   1      43.236  29.890  33.527  1.00  0.00     0.074 A 
ATOM     51  C   UNL A   1      42.701  30.288  32.241  1.00  0.00     0.031 C 
ATOM     52  C   UNL A   1      45.283  23.890  32.413  1.00  0.00     0.029 A 
ATOM     53  C   UNL A   1      45.383  24.643  33.660  1.00  0.00     0.049 A 
ATOM     54  H   UNL A   1      44.645  26.554  34.044  1.00  0.00     0.167 HD
ATOM     55  C   UNL A   1      43.246  30.678  34.632  1.00  0.00     0.034 A 
ATOM     56  C   UNL A   1      45.981  24.208  34.787  1.00  0.00     0.034 A 
ATOM     57  C   UNL A   1      43.770  30.260  35.909  1.00  0.00     0.049 A 
ATOM     58  C   UNL A   1      46.002  25.111  35.994  1.00  0.00     0.074 A 
ATOM     59  C   UNL A   1      43.775  30.954  37.107  1.00  0.00     0.029 A 
ATOM     60  N   UNL A   1      44.393  29.043  36.156  1.00  0.00    -0.354 N 
ATOM     61  N   UNL A   1      45.521  26.326  36.125  1.00  0.00    -0.248 NA
ATOM     62  C   UNL A   1      46.640  24.582  37.206  1.00  0.00     0.031 C 
ATOM     63  C   UNL A   1      44.459  30.188  38.057  1.00  0.00     0.029 A 
ATOM     64  C   UNL A   1      44.815  28.981  37.476  1.00  0.00     0.049 A 
ATOM     65  H   UNL A   1      44.517  28.329  35.491  1.00  0.00     0.167 HD
ATOM     66  C   UNL A   1      45.773  26.693  37.445  1.00  0.00     0.074 A 
ATOM     67  C   UNL A   1      46.432  25.564  38.070  1.00  0.00     0.031 C 
ATOM     68  C   UNL A   1      45.483  27.855  38.083  1.00  0.00     0.034 A 
BRANCH  55  69
ATOM     69  C   UNL A   1      42.693  32.076  34.494  1.00  0.00     0.023 A 
ATOM     70  C   UNL A   1      41.314  32.337  34.580  1.00  0.00     0.031 A 
ATOM     71  C   UNL A   1      43.553  33.161  34.254  1.00  0.00     0.131 A 
ATOM     72  C   UNL A   1      40.830  33.635  34.353  1.00  0.00     0.055 A 
ATOM     73  C   UNL A   1      43.072  34.465  34.111  1.00  0.00     0.041 A 
ATOM     74  F   UNL A   1      44.878  32.973  34.141  1.00  0.00    -0.206 F 
ATOM     75  C   UNL A   1      41.701  34.705  34.146  1.00  0.00     0.022 A 
BRANCH  72  76
ATOM     76  S   UNL A   1      39.040  33.875  34.197  1.00  0.00     0.124 S 
ATOM     77  O   UNL A   1      38.749  34.700  35.368  1.00  0.00    -0.237 OA
ATOM     78  O   UNL A   1      38.921  34.536  32.903  1.00  0.00    -0.237 OA
ATOM     79  O   UNL A   1      38.506  32.516  34.256  1.00  0.00    -0.744 OA
ENDBRANCH  72  76
ENDBRANCH  55  69
BRANCH  56  80
ATOM     80  C   UNL A   1      46.626  22.863  34.833  1.00  0.00     0.023 A 
ATOM     81  C   UNL A   1      48.020  22.726  34.746  1.00  0.00     0.031 A 
ATOM     82  C   UNL A   1      45.852  21.691  34.914  1.00  0.00     0.131 A 
ATOM     83  C   UNL A   1      48.595  21.447  34.691  1.00  0.00     0.055 A 
ATOM     84  C   UNL A   1      46.433  20.422  34.915  1.00  0.00     0.041 A 
ATOM     85  F   UNL A   1      44.515  21.764  35.003  1.00  0.00    -0.206 F 
ATOM     86  C   UNL A   1      47.813  20.294  34.787  1.00  0.00     0.022 A 
BRANCH  83  87
ATOM     87  S   UNL A   1      50.380  21.310  34.397  1.00  0.00     0.124 S 
ATOM     88  O   UNL A   1      50.662  19.969  34.899  1.00  0.00    -0.237 OA
ATOM     89  O   UNL A   1      50.463  21.485  32.951  1.00  0.00    -0.237 OA
ATOM     90  O   UNL A   1      50.940  22.404  35.188  1.00  0.00    -0.744 OA
ENDBRANCH  83  87
ENDBRANCH  56  80
BRANCH  68  91
ATOM     91  C   UNL A   1      45.843  27.941  39.547  1.00  0.00     0.023 A 
ATOM     92  C   UNL A   1      46.985  28.631  39.988  1.00  0.00     0.031 A 
ATOM     93  C   UNL A   1      45.035  27.312  40.511  1.00  0.00     0.131 A 
ATOM     94  C   UNL A   1      47.319  28.628  41.351  1.00  0.00     0.055 A 
ATOM     95  C   UNL A   1      45.339  27.365  41.871  1.00  0.00     0.041 A 
ATOM     96  F   UNL A   1      43.934  26.637  40.144  1.00  0.00    -0.206 F 
ATOM     97  C   UNL A   1      46.494  28.015  42.297  1.00  0.00     0.022 A 
BRANCH  94  98
ATOM     98  S   UNL A   1      48.896  29.364  41.863  1.00  0.00     0.124 S 
ATOM     99  O   UNL A   1      49.578  29.540  40.585  1.00  0.00    -0.237 OA
ATOM    100  O   UNL A   1      48.468  30.588  42.531  1.00  0.00    -0.237 OA
ATOM    101  O   UNL A   1      49.478  28.350  42.741  1.00  0.00    -0.744 OA
ENDBRANCH  94  98
ENDBRANCH  68  91
ENDBRANCH  42  43
ENDBRANCH  34  37
ENDBRANCH  32  33
ENDBRANCH  31  32
ENDBRANCH   1  31
TORSDOF 18
ENDMDL
MODEL 3
REMARK VINA RESULT:     -11.1      4.530      9.987
REMARK SMILES COc1cccc(C(=O)NNC(=O)[C@H]2CC(C)=C(C)C[C@@H]2C(=O)NCCCCNC(=O)c2ccc(-c3c4nc(c(-c5cc(S(=O)(=O)[O-])ccc5F)c5ccc([nH]5)c(-c5cc(S(=O)(=O)[O-])ccc5F)c5nc(c(-c6cc(S(=O)(=O)[O-])ccc6F)c6ccc3[nH]6)C=C5)C=C4)cc2)c1
REMARK SMILES IDX 26 1 25 2 24 3 22 4 23 5 21 7 14 8 15 9 16 10 20 11 17 12
REMARK SMILES IDX 18 13 19 14 12 15 11 16 13 18 10 19 8 20 9 21 7 23 3 24 4 25
REMARK SMILES IDX 95 26 5 27 6 28 2 29 1 30 27 31 28 32 29 33 30 34 31 36
REMARK SMILES IDX 32 37 33 38 94 39 34 40 93 41 35 42 36 43 37 44 87 45 38 46
REMARK SMILES IDX 92 47 86 48 88 49 39 50 91 51 85 52 84 53 40 55 72 56 52 57
REMARK SMILES IDX 71 58 53 59 56 60 70 61 89 62 54 63 55 64 69 66 90 67 57 68
REMARK SMILES IDX 41 69 42 70 50 71 43 72 49 73 51 74 48 75 44 76 45 77 46 78
REMARK SMILES IDX 47 79 73 80 74 81 82 82 75 83 81 84 83 85 80 86 76 87 77 88
REMARK SMILES IDX 78 89 79 90 58 91 59 92 67 93 60 94 66 95 68 96 65 97 61 98
REMARK SMILES IDX 62 99 63 100 64 101
REMARK H PARENT 24 6 11 17 10 22 29 35 88 54 56 65
REMARK Flexibility Score: inf
ROOT
ATOM      1  C   UNL A   1      40.104  29.072  28.668  1.00  0.00     0.023 C 
ENDROOT
BRANCH   1   2
ATOM      2  C   UNL A   1      39.383  30.232  29.342  1.00  0.00     0.116 C 
BRANCH   2   3
ATOM      3  N   UNL A   1      38.306  29.809  30.219  1.00  0.00    -0.356 N 
ATOM      4  C   UNL A   1      36.956  29.971  30.077  1.00  0.00     0.224 C 
ATOM      5  O   UNL A   1      36.226  29.435  30.909  1.00  0.00    -0.275 OA
ATOM      6  H   UNL A   1      38.589  29.337  31.034  1.00  0.00     0.163 HD
BRANCH   4   7
ATOM      7  C   UNL A   1      36.418  30.823  28.919  1.00  0.00     0.095 C 
ATOM      8  C   UNL A   1      35.290  31.768  29.414  1.00  0.00     0.097 C 
ATOM      9  C   UNL A   1      33.981  31.796  28.612  1.00  0.00     0.045 C 
ATOM     10  C   UNL A   1      33.763  30.759  27.540  1.00  0.00    -0.074 C 
ATOM     11  C   UNL A   1      36.106  29.921  27.719  1.00  0.00     0.045 C 
ATOM     12  C   UNL A   1      32.365  30.743  26.973  1.00  0.00     0.039 C 
ATOM     13  C   UNL A   1      34.734  29.929  27.123  1.00  0.00    -0.074 C 
ATOM     14  C   UNL A   1      34.560  28.937  25.997  1.00  0.00     0.039 C 
BRANCH   8  15
ATOM     15  C   UNL A   1      35.878  33.182  29.563  1.00  0.00     0.242 C 
ATOM     16  N   UNL A   1      36.566  33.494  30.710  1.00  0.00    -0.267 N 
ATOM     17  H   UNL A   1      37.337  34.103  30.643  1.00  0.00     0.191 HD
ATOM     18  O   UNL A   1      35.797  34.045  28.686  1.00  0.00    -0.273 OA
BRANCH  16  19
ATOM     19  N   UNL A   1      36.228  32.994  31.958  1.00  0.00    -0.263 N 
ATOM     20  C   UNL A   1      35.270  33.534  32.802  1.00  0.00     0.269 C 
ATOM     21  O   UNL A   1      35.058  32.996  33.888  1.00  0.00    -0.267 OA
ATOM     22  H   UNL A   1      36.707  32.193  32.270  1.00  0.00     0.191 HD
BRANCH  20  23
ATOM     23  C   UNL A   1      34.549  34.802  32.473  1.00  0.00     0.045 A 
ATOM     24  C   UNL A   1      33.192  36.227  31.054  1.00  0.00     0.119 A 
ATOM     25  C   UNL A   1      33.386  37.289  31.940  1.00  0.00     0.046 A 
ATOM     26  C   UNL A   1      33.727  34.970  31.349  1.00  0.00     0.060 A 
ATOM     27  C   UNL A   1      34.134  37.113  33.101  1.00  0.00     0.005 A 
ATOM     28  C   UNL A   1      34.723  35.875  33.361  1.00  0.00     0.014 A 
BRANCH  24  29
ATOM     29  O   UNL A   1      32.459  36.537  29.940  1.00  0.00    -0.497 OA
ATOM     30  C   UNL A   1      32.958  36.052  28.697  1.00  0.00     0.278 C 
ENDBRANCH  24  29
ENDBRANCH  20  23
ENDBRANCH  16  19
ENDBRANCH   8  15
ENDBRANCH   4   7
ENDBRANCH   2   3
ENDBRANCH   1   2
BRANCH   1  31
ATOM     31  C   UNL A   1      39.826  28.904  27.177  1.00  0.00     0.023 C 
BRANCH  31  32
ATOM     32  C   UNL A   1      41.055  28.887  26.274  1.00  0.00     0.116 C 
BRANCH  32  33
ATOM     33  N   UNL A   1      41.315  27.585  25.682  1.00  0.00    -0.352 N 
ATOM     34  C   UNL A   1      42.045  26.528  26.181  1.00  0.00     0.251 C 
ATOM     35  H   UNL A   1      40.912  27.437  24.797  1.00  0.00     0.163 HD
ATOM     36  O   UNL A   1      42.256  25.550  25.479  1.00  0.00    -0.269 OA
BRANCH  34  37
ATOM     37  C   UNL A   1      42.604  26.608  27.549  1.00  0.00     0.039 A 
ATOM     38  C   UNL A   1      43.849  27.211  27.732  1.00  0.00     0.014 A 
ATOM     39  C   UNL A   1      41.884  26.131  28.647  1.00  0.00     0.014 A 
ATOM     40  C   UNL A   1      44.333  27.419  29.028  1.00  0.00     0.010 A 
ATOM     41  C   UNL A   1      42.330  26.408  29.937  1.00  0.00     0.010 A 
ATOM     42  C   UNL A   1      43.553  27.065  30.141  1.00  0.00    -0.014 A 
BRANCH  42  43
ATOM     43  C   UNL A   1      43.990  27.393  31.525  1.00  0.00     0.031 A 
ATOM     44  C   UNL A   1      44.651  26.344  32.377  1.00  0.00     0.074 A 
ATOM     45  C   UNL A   1      43.725  28.612  32.037  1.00  0.00     0.049 A 
ATOM     46  N   UNL A   1      45.021  26.407  33.629  1.00  0.00    -0.248 NA
ATOM     47  C   UNL A   1      44.901  25.041  31.742  1.00  0.00     0.031 C 
ATOM     48  C   UNL A   1      43.049  29.699  31.324  1.00  0.00     0.029 A 
ATOM     49  N   UNL A   1      43.978  29.140  33.278  1.00  0.00    -0.354 N 
ATOM     50  C   UNL A   1      45.534  25.152  33.938  1.00  0.00     0.074 A 
ATOM     51  C   UNL A   1      45.370  24.331  32.756  1.00  0.00     0.031 C 
ATOM     52  C   UNL A   1      42.963  30.769  32.131  1.00  0.00     0.029 A 
ATOM     53  C   UNL A   1      43.530  30.433  33.433  1.00  0.00     0.049 A 
ATOM     54  H   UNL A   1      44.438  28.642  33.992  1.00  0.00     0.167 HD
ATOM     55  C   UNL A   1      46.109  24.729  35.092  1.00  0.00     0.034 A 
ATOM     56  C   UNL A   1      43.558  31.249  34.505  1.00  0.00     0.034 A 
ATOM     57  C   UNL A   1      46.277  25.565  36.257  1.00  0.00     0.049 A 
ATOM     58  C   UNL A   1      44.179  30.749  35.785  1.00  0.00     0.074 A 
ATOM     59  C   UNL A   1      46.900  25.258  37.455  1.00  0.00     0.029 A 
ATOM     60  N   UNL A   1      45.812  26.869  36.376  1.00  0.00    -0.354 N 
ATOM     61  N   UNL A   1      44.711  29.576  36.042  1.00  0.00    -0.248 NA
ATOM     62  C   UNL A   1      44.211  31.685  36.915  1.00  0.00     0.031 C 
ATOM     63  C   UNL A   1      46.752  26.348  38.319  1.00  0.00     0.029 A 
ATOM     64  C   UNL A   1      46.105  27.366  37.638  1.00  0.00     0.049 A 
ATOM     65  H   UNL A   1      45.343  27.366  35.669  1.00  0.00     0.167 HD
ATOM     66  C   UNL A   1      45.167  29.646  37.355  1.00  0.00     0.074 A 
ATOM     67  C   UNL A   1      44.863  30.981  37.829  1.00  0.00     0.031 C 
ATOM     68  C   UNL A   1      45.784  28.695  38.101  1.00  0.00     0.034 A 
BRANCH  55  69
ATOM     69  C   UNL A   1      46.576  23.295  35.153  1.00  0.00     0.023 A 
ATOM     70  C   UNL A   1      47.866  22.919  34.738  1.00  0.00     0.031 A 
ATOM     71  C   UNL A   1      45.713  22.285  35.613  1.00  0.00     0.131 A 
ATOM     72  C   UNL A   1      48.230  21.564  34.721  1.00  0.00     0.055 A 
ATOM     73  C   UNL A   1      46.111  20.947  35.671  1.00  0.00     0.041 A 
ATOM     74  F   UNL A   1      44.463  22.577  36.004  1.00  0.00    -0.206 F 
ATOM     75  C   UNL A   1      47.372  20.578  35.209  1.00  0.00     0.022 A 
BRANCH  72  76
ATOM     76  S   UNL A   1      49.790  21.098  33.922  1.00  0.00     0.124 S 
ATOM     77  O   UNL A   1      50.603  20.700  35.069  1.00  0.00    -0.237 OA
ATOM     78  O   UNL A   1      49.378  20.024  33.026  1.00  0.00    -0.237 OA
ATOM     79  O   UNL A   1      50.218  22.330  33.263  1.00  0.00    -0.744 OA
ENDBRANCH  72  76
ENDBRANCH  55  69
BRANCH  56  80
ATOM     80  C   UNL A   1      42.969  32.619  34.432  1.00  0.00     0.023 A 
ATOM     81  C   UNL A   1      41.612  32.838  34.716  1.00  0.00     0.031 A 
ATOM     82  C   UNL A   1      43.744  33.720  34.026  1.00  0.00     0.131 A 
ATOM     83  C   UNL A   1      41.058  34.116  34.542  1.00  0.00     0.055 A 
ATOM     84  C   UNL A   1      43.201  35.001  33.909  1.00  0.00     0.041 A 
ATOM     85  F   UNL A   1      45.047  33.567  33.746  1.00  0.00    -0.206 F 
ATOM     86  C   UNL A   1      41.846  35.202  34.153  1.00  0.00     0.022 A 
BRANCH  83  87
ATOM     87  S   UNL A   1      39.267  34.321  34.744  1.00  0.00     0.124 S 
ATOM     88  O   UNL A   1      39.163  35.746  35.043  1.00  0.00    -0.237 OA
ATOM     89  O   UNL A   1      38.765  33.900  33.440  1.00  0.00    -0.237 OA
ATOM     90  O   UNL A   1      38.945  33.425  35.852  1.00  0.00    -0.744 OA
ENDBRANCH  83  87
ENDBRANCH  56  80
BRANCH  68  91
ATOM     91  C   UNL A   1      46.207  29.087  39.496  1.00  0.00     0.023 A 
ATOM     92  C   UNL A   1      45.358  28.914  40.603  1.00  0.00     0.031 A 
ATOM     93  C   UNL A   1      47.476  29.653  39.717  1.00  0.00     0.131 A 
ATOM     94  C   UNL A   1      45.766  29.354  41.871  1.00  0.00     0.055 A 
ATOM     95  C   UNL A   1      47.899  30.032  40.991  1.00  0.00     0.041 A 
ATOM     96  F   UNL A   1      48.326  29.843  38.696  1.00  0.00    -0.206 F 
ATOM     97  C   UNL A   1      47.037  29.896  42.075  1.00  0.00     0.022 A 
BRANCH  94  98
ATOM     98  S   UNL A   1      44.576  29.291  43.239  1.00  0.00     0.124 S 
ATOM     99  O   UNL A   1      43.313  29.098  42.535  1.00  0.00    -0.237 OA
ATOM    100  O   UNL A   1      45.053  28.152  44.016  1.00  0.00    -0.237 OA
ATOM    101  O   UNL A   1      44.731  30.592  43.889  1.00  0.00    -0.744 OA
ENDBRANCH  94  98
ENDBRANCH  68  91
ENDBRANCH  42  43
ENDBRANCH  34  37
ENDBRANCH  32  33
ENDBRANCH  31  32
ENDBRANCH   1  31
TORSDOF 18
ENDMDL
