MODEL 1
REMARK VINA RESULT:     -13.7      0.000      0.000
REMARK SMILES Cc1nn([C@H]2CCS(=O)(=O)C2)c(C)c1/C=C(\CC(=O)NCCCCNC(=O)c1ccc(-c2c3nc(c(-c4cc(S(=O)(=O)[O-])ccc4F)c4ccc([nH]4)c(-c4cc(S(=O)(=O)[O-])ccc4F)c4nc(c(-c5cc(S(=O)(=O)[O-])ccc5F)c5ccc2[nH]5)C=C4)C=C3)cc1)c1nc2ccccc2s1
REMARK SMILES IDX 22 1 21 2 20 3 18 4 19 5 17 7 16 8 15 9 14 10 1 11 2 12 3 13
REMARK SMILES IDX 4 14 12 15 13 16 5 17 6 18 11 19 7 20 8 21 9 22 10 23 91 24
REMARK SMILES IDX 92 25 99 26 93 27 98 28 94 29 97 30 95 31 96 32 23 33 24 34
REMARK SMILES IDX 25 35 26 36 27 38 28 39 29 40 90 41 30 42 89 43 31 44 32 45
REMARK SMILES IDX 33 46 83 47 34 48 88 49 82 50 84 51 35 52 87 53 81 54 80 55
REMARK SMILES IDX 36 57 68 58 48 59 67 60 49 61 52 62 66 63 85 64 50 65 51 66
REMARK SMILES IDX 65 68 86 69 53 70 37 71 38 72 46 73 39 74 45 75 47 76 44 77
REMARK SMILES IDX 40 78 41 79 42 80 43 81 69 82 70 83 78 84 71 85 77 86 79 87
REMARK SMILES IDX 76 88 72 89 73 90 74 91 75 92 54 93 55 94 63 95 56 96 62 97
REMARK SMILES IDX 64 98 61 99 57 100 58 101 59 102 60 103
REMARK H PARENT 20 6 25 37 84 56 52 67
REMARK Flexibility Score: inf
ROOT
ATOM      1  C   UNL A   1      36.094  20.020  25.029  1.00  0.00     0.023 C 
ENDROOT
BRANCH   1   2
ATOM      2  C   UNL A   1      35.949  21.510  25.353  1.00  0.00     0.116 C 
BRANCH   2   3
ATOM      3  N   UNL A   1      35.954  22.312  24.145  1.00  0.00    -0.356 N 
ATOM      4  C   UNL A   1      34.893  22.904  23.521  1.00  0.00     0.224 C 
ATOM      5  O   UNL A   1      35.031  23.328  22.372  1.00  0.00    -0.275 OA
ATOM      6  H   UNL A   1      36.832  22.448  23.723  1.00  0.00     0.163 HD
BRANCH   4   7
ATOM      7  C   UNL A   1      33.616  23.155  24.313  1.00  0.00     0.138 C 
BRANCH   7   8
ATOM      8  C   UNL A   1      32.320  22.589  23.750  1.00  0.00    -0.002 C 
ATOM      9  C   UNL A   1      31.325  23.347  23.220  1.00  0.00     0.019 C 
BRANCH   9  10
ATOM     10  C   UNL A   1      31.273  24.782  23.160  1.00  0.00     0.019 A 
ATOM     11  C   UNL A   1      32.804  25.327  21.089  1.00  0.00     0.069 C 
ATOM     12  C   UNL A   1      31.842  25.635  22.177  1.00  0.00     0.067 A 
ATOM     13  N   UNL A   1      31.412  26.894  22.320  1.00  0.00    -0.177 NA
ATOM     14  N   UNL A   1      30.593  26.852  23.387  1.00  0.00    -0.265 N 
ATOM     15  C   UNL A   1      30.724  25.663  24.081  1.00  0.00     0.043 A 
ATOM     16  C   UNL A   1      30.324  25.462  25.501  1.00  0.00     0.067 C 
BRANCH  14  17
ATOM     17  C   UNL A   1      29.737  28.007  23.656  1.00  0.00     0.123 C 
ATOM     18  C   UNL A   1      30.513  29.345  23.787  1.00  0.00     0.044 C 
ATOM     19  C   UNL A   1      28.738  28.266  22.545  1.00  0.00     0.164 C 
ATOM     20  C   UNL A   1      29.485  30.476  23.797  1.00  0.00     0.139 C 
ATOM     21  S   UNL A   1      28.134  29.890  22.792  1.00  0.00     0.152 S 
ATOM     22  O   UNL A   1      26.940  29.779  23.588  1.00  0.00    -0.229 OA
ATOM     23  O   UNL A   1      28.165  30.501  21.476  1.00  0.00    -0.229 OA
ENDBRANCH  14  17
ENDBRANCH   9  10
BRANCH   8  24
ATOM     24  C   UNL A   1      32.117  21.169  23.844  1.00  0.00     0.121 A 
ATOM     25  N   UNL A   1      32.082  20.511  24.984  1.00  0.00    -0.236 NA
ATOM     26  S   UNL A   1      32.171  20.156  22.448  1.00  0.00    -0.114 S 
ATOM     27  C   UNL A   1      32.458  19.201  24.788  1.00  0.00     0.082 A 
ATOM     28  C   UNL A   1      32.573  18.811  23.454  1.00  0.00     0.055 A 
ATOM     29  C   UNL A   1      32.789  18.285  25.805  1.00  0.00     0.030 A 
ATOM     30  C   UNL A   1      33.003  17.523  23.098  1.00  0.00     0.021 A 
ATOM     31  C   UNL A   1      33.290  17.027  25.460  1.00  0.00     0.002 A 
ATOM     32  C   UNL A   1      33.394  16.654  24.123  1.00  0.00     0.002 A 
ENDBRANCH   8  24
ENDBRANCH   7   8
ENDBRANCH   4   7
ENDBRANCH   2   3
ENDBRANCH   1   2
BRANCH   1  33
ATOM     33  C   UNL A   1      37.504  19.592  24.597  1.00  0.00     0.023 C 
BRANCH  33  34
ATOM     34  C   UNL A   1      38.593  20.104  25.523  1.00  0.00     0.116 C 
BRANCH  34  35
ATOM     35  N   UNL A   1      39.632  19.097  25.754  1.00  0.00    -0.352 N 
ATOM     36  C   UNL A   1      40.989  19.294  25.933  1.00  0.00     0.251 C 
ATOM     37  H   UNL A   1      39.327  18.162  25.784  1.00  0.00     0.163 HD
ATOM     38  O   UNL A   1      41.791  18.388  25.739  1.00  0.00    -0.269 OA
BRANCH  36  39
ATOM     39  C   UNL A   1      41.431  20.619  26.395  1.00  0.00     0.039 A 
ATOM     40  C   UNL A   1      42.053  21.548  25.555  1.00  0.00     0.014 A 
ATOM     41  C   UNL A   1      41.143  20.925  27.720  1.00  0.00     0.014 A 
ATOM     42  C   UNL A   1      42.324  22.823  26.052  1.00  0.00     0.010 A 
ATOM     43  C   UNL A   1      41.226  22.221  28.138  1.00  0.00     0.010 A 
ATOM     44  C   UNL A   1      41.901  23.147  27.346  1.00  0.00    -0.014 A 
BRANCH  44  45
ATOM     45  C   UNL A   1      42.095  24.458  27.955  1.00  0.00     0.031 A 
ATOM     46  C   UNL A   1      40.868  25.292  28.071  1.00  0.00     0.074 A 
ATOM     47  C   UNL A   1      43.209  24.686  28.689  1.00  0.00     0.049 A 
ATOM     48  N   UNL A   1      40.610  26.431  27.519  1.00  0.00    -0.248 NA
ATOM     49  C   UNL A   1      39.712  24.715  28.779  1.00  0.00     0.031 C 
ATOM     50  C   UNL A   1      44.319  23.755  28.957  1.00  0.00     0.029 A 
ATOM     51  N   UNL A   1      43.516  25.737  29.492  1.00  0.00    -0.354 N 
ATOM     52  C   UNL A   1      39.362  26.825  28.005  1.00  0.00     0.074 A 
ATOM     53  C   UNL A   1      38.773  25.635  28.553  1.00  0.00     0.031 C 
ATOM     54  C   UNL A   1      45.025  24.180  30.029  1.00  0.00     0.029 A 
ATOM     55  C   UNL A   1      44.542  25.496  30.406  1.00  0.00     0.049 A 
ATOM     56  H   UNL A   1      43.050  26.601  29.433  1.00  0.00     0.167 HD
ATOM     57  C   UNL A   1      39.034  28.142  28.151  1.00  0.00     0.034 A 
ATOM     58  C   UNL A   1      44.945  26.306  31.422  1.00  0.00     0.034 A 
ATOM     59  C   UNL A   1      40.002  28.977  27.468  1.00  0.00     0.049 A 
ATOM     60  C   UNL A   1      44.397  27.652  31.129  1.00  0.00     0.074 A 
ATOM     61  C   UNL A   1      40.419  29.112  26.158  1.00  0.00     0.029 A 
ATOM     62  N   UNL A   1      40.993  29.560  28.232  1.00  0.00    -0.354 N 
ATOM     63  N   UNL A   1      44.770  28.362  30.101  1.00  0.00    -0.248 NA
ATOM     64  C   UNL A   1      43.090  27.995  31.674  1.00  0.00     0.031 C 
ATOM     65  C   UNL A   1      41.833  29.297  26.241  1.00  0.00     0.029 A 
ATOM     66  C   UNL A   1      42.190  29.356  27.591  1.00  0.00     0.049 A 
ATOM     67  H   UNL A   1      40.864  30.037  29.083  1.00  0.00     0.167 HD
ATOM     68  C   UNL A   1      43.601  28.917  29.603  1.00  0.00     0.074 A 
ATOM     69  C   UNL A   1      42.620  28.752  30.677  1.00  0.00     0.031 C 
ATOM     70  C   UNL A   1      43.459  29.181  28.270  1.00  0.00     0.034 A 
BRANCH  57  71
ATOM     71  C   UNL A   1      38.101  28.725  29.205  1.00  0.00     0.023 A 
ATOM     72  C   UNL A   1      37.055  29.548  28.734  1.00  0.00     0.031 A 
ATOM     73  C   UNL A   1      38.307  28.763  30.602  1.00  0.00     0.131 A 
ATOM     74  C   UNL A   1      36.395  30.453  29.583  1.00  0.00     0.055 A 
ATOM     75  C   UNL A   1      37.604  29.623  31.455  1.00  0.00     0.041 A 
ATOM     76  F   UNL A   1      39.234  28.034  31.226  1.00  0.00    -0.206 F 
ATOM     77  C   UNL A   1      36.671  30.505  30.943  1.00  0.00     0.022 A 
BRANCH  74  78
ATOM     78  S   UNL A   1      35.314  31.696  28.830  1.00  0.00     0.124 S 
ATOM     79  O   UNL A   1      34.735  32.331  30.008  1.00  0.00    -0.237 OA
ATOM     80  O   UNL A   1      36.267  32.496  28.067  1.00  0.00    -0.237 OA
ATOM     81  O   UNL A   1      34.387  30.896  28.032  1.00  0.00    -0.744 OA
ENDBRANCH  74  78
ENDBRANCH  57  71
BRANCH  58  82
ATOM     82  C   UNL A   1      45.405  25.898  32.777  1.00  0.00     0.023 A 
ATOM     83  C   UNL A   1      44.611  25.183  33.700  1.00  0.00     0.031 A 
ATOM     84  C   UNL A   1      46.781  25.997  33.067  1.00  0.00     0.131 A 
ATOM     85  C   UNL A   1      45.199  24.614  34.858  1.00  0.00     0.055 A 
ATOM     86  C   UNL A   1      47.355  25.406  34.193  1.00  0.00     0.041 A 
ATOM     87  F   UNL A   1      47.618  26.605  32.211  1.00  0.00    -0.206 F 
ATOM     88  C   UNL A   1      46.567  24.726  35.105  1.00  0.00     0.022 A 
BRANCH  85  89
ATOM     89  S   UNL A   1      44.206  23.639  36.035  1.00  0.00     0.124 S 
ATOM     90  O   UNL A   1      44.954  22.391  36.125  1.00  0.00    -0.237 OA
ATOM     91  O   UNL A   1      44.215  24.488  37.221  1.00  0.00    -0.237 OA
ATOM     92  O   UNL A   1      42.903  23.523  35.377  1.00  0.00    -0.744 OA
ENDBRANCH  85  89
ENDBRANCH  58  82
BRANCH  70  93
ATOM     93  C   UNL A   1      44.694  29.079  27.393  1.00  0.00     0.023 A 
ATOM     94  C   UNL A   1      45.116  27.906  26.722  1.00  0.00     0.031 A 
ATOM     95  C   UNL A   1      45.392  30.267  27.126  1.00  0.00     0.131 A 
ATOM     96  C   UNL A   1      46.204  27.955  25.828  1.00  0.00     0.055 A 
ATOM     97  C   UNL A   1      46.454  30.316  26.224  1.00  0.00     0.041 A 
ATOM     98  F   UNL A   1      45.020  31.420  27.708  1.00  0.00    -0.206 F 
ATOM     99  C   UNL A   1      46.868  29.159  25.575  1.00  0.00     0.022 A 
BRANCH  96 100
ATOM    100  S   UNL A   1      46.783  26.448  24.978  1.00  0.00     0.124 S 
ATOM    101  O   UNL A   1      47.775  25.896  25.893  1.00  0.00    -0.237 OA
ATOM    102  O   UNL A   1      45.553  25.675  24.829  1.00  0.00    -0.237 OA
ATOM    103  O   UNL A   1      47.333  26.957  23.720  1.00  0.00    -0.744 OA
ENDBRANCH  96 100
ENDBRANCH  70  93
ENDBRANCH  44  45
ENDBRANCH  36  39
ENDBRANCH  34  35
ENDBRANCH  33  34
ENDBRANCH   1  33
TORSDOF 18
ENDMDL
MODEL 2
REMARK VINA RESULT:     -13.2      2.909      8.586
REMARK SMILES Cc1nn([C@H]2CCS(=O)(=O)C2)c(C)c1/C=C(\CC(=O)NCCCCNC(=O)c1ccc(-c2c3nc(c(-c4cc(S(=O)(=O)[O-])ccc4F)c4ccc([nH]4)c(-c4cc(S(=O)(=O)[O-])ccc4F)c4nc(c(-c5cc(S(=O)(=O)[O-])ccc5F)c5ccc2[nH]5)C=C4)C=C3)cc1)c1nc2ccccc2s1
REMARK SMILES IDX 22 1 21 2 20 3 18 4 19 5 17 7 16 8 15 9 14 10 1 11 2 12 3 13
REMARK SMILES IDX 4 14 12 15 13 16 5 17 6 18 11 19 7 20 8 21 9 22 10 23 91 24
REMARK SMILES IDX 92 25 99 26 93 27 98 28 94 29 97 30 95 31 96 32 23 33 24 34
REMARK SMILES IDX 25 35 26 36 27 38 28 39 29 40 90 41 30 42 89 43 31 44 32 45
REMARK SMILES IDX 33 46 83 47 34 48 88 49 82 50 84 51 35 52 87 53 81 54 80 55
REMARK SMILES IDX 36 57 68 58 48 59 67 60 49 61 52 62 66 63 85 64 50 65 51 66
REMARK SMILES IDX 65 68 86 69 53 70 37 71 38 72 46 73 39 74 45 75 47 76 44 77
REMARK SMILES IDX 40 78 41 79 42 80 43 81 69 82 70 83 78 84 71 85 77 86 79 87
REMARK SMILES IDX 76 88 72 89 73 90 74 91 75 92 54 93 55 94 63 95 56 96 62 97
REMARK SMILES IDX 64 98 61 99 57 100 58 101 59 102 60 103
REMARK H PARENT 20 6 25 37 84 56 52 67
REMARK Flexibility Score: inf
ROOT
ATOM      1  C   UNL A   1      32.643  29.679  26.765  1.00  0.00     0.023 C 
ENDROOT
BRANCH   1   2
ATOM      2  C   UNL A   1      31.922  29.124  25.533  1.00  0.00     0.116 C 
BRANCH   2   3
ATOM      3  N   UNL A   1      32.802  28.287  24.741  1.00  0.00    -0.356 N 
ATOM      4  C   UNL A   1      32.860  26.923  24.704  1.00  0.00     0.224 C 
ATOM      5  O   UNL A   1      33.832  26.376  24.179  1.00  0.00    -0.275 OA
ATOM      6  H   UNL A   1      33.437  28.761  24.158  1.00  0.00     0.163 HD
BRANCH   4   7
ATOM      7  C   UNL A   1      31.656  26.119  25.177  1.00  0.00     0.138 C 
BRANCH   7   8
ATOM      8  C   UNL A   1      30.685  25.621  24.116  1.00  0.00    -0.002 C 
ATOM      9  C   UNL A   1      30.546  24.317  23.763  1.00  0.00     0.019 C 
BRANCH   9  10
ATOM     10  C   UNL A   1      31.315  23.205  24.252  1.00  0.00     0.019 A 
ATOM     11  C   UNL A   1      30.396  22.903  26.701  1.00  0.00     0.069 C 
ATOM     12  C   UNL A   1      31.183  22.534  25.498  1.00  0.00     0.067 A 
ATOM     13  N   UNL A   1      31.914  21.413  25.524  1.00  0.00    -0.177 NA
ATOM     14  N   UNL A   1      32.517  21.375  24.322  1.00  0.00    -0.265 N 
ATOM     15  C   UNL A   1      32.404  22.583  23.658  1.00  0.00     0.043 A 
ATOM     16  C   UNL A   1      33.294  23.029  22.551  1.00  0.00     0.067 C 
BRANCH  14  17
ATOM     17  C   UNL A   1      33.181  20.137  23.913  1.00  0.00     0.123 C 
ATOM     18  C   UNL A   1      34.342  19.710  24.850  1.00  0.00     0.044 C 
ATOM     19  C   UNL A   1      32.245  18.944  23.915  1.00  0.00     0.164 C 
ATOM     20  C   UNL A   1      34.752  18.290  24.458  1.00  0.00     0.139 C 
ATOM     21  S   UNL A   1      33.261  17.519  23.860  1.00  0.00     0.152 S 
ATOM     22  O   UNL A   1      33.412  17.164  22.474  1.00  0.00    -0.229 OA
ATOM     23  O   UNL A   1      32.702  16.627  24.859  1.00  0.00    -0.229 OA
ENDBRANCH  14  17
ENDBRANCH   9  10
BRANCH   8  24
ATOM     24  C   UNL A   1      29.915  26.604  23.404  1.00  0.00     0.121 A 
ATOM     25  N   UNL A   1      30.443  27.498  22.594  1.00  0.00    -0.236 NA
ATOM     26  S   UNL A   1      28.248  26.873  23.759  1.00  0.00    -0.114 S 
ATOM     27  C   UNL A   1      29.636  28.611  22.524  1.00  0.00     0.082 A 
ATOM     28  C   UNL A   1      28.383  28.472  23.119  1.00  0.00     0.055 A 
ATOM     29  C   UNL A   1      30.005  29.855  21.976  1.00  0.00     0.030 A 
ATOM     30  C   UNL A   1      27.473  29.540  23.178  1.00  0.00     0.021 A 
ATOM     31  C   UNL A   1      29.137  30.943  22.096  1.00  0.00     0.002 A 
ATOM     32  C   UNL A   1      27.888  30.784  22.690  1.00  0.00     0.002 A 
ENDBRANCH   8  24
ENDBRANCH   7   8
ENDBRANCH   4   7
ENDBRANCH   2   3
ENDBRANCH   1   2
BRANCH   1  33
ATOM     33  C   UNL A   1      33.760  28.779  27.314  1.00  0.00     0.023 C 
BRANCH  33  34
ATOM     34  C   UNL A   1      35.133  29.426  27.251  1.00  0.00     0.116 C 
BRANCH  34  35
ATOM     35  N   UNL A   1      35.061  30.878  27.436  1.00  0.00    -0.352 N 
ATOM     36  C   UNL A   1      35.880  31.683  28.207  1.00  0.00     0.251 C 
ATOM     37  H   UNL A   1      34.338  31.339  26.952  1.00  0.00     0.163 HD
ATOM     38  O   UNL A   1      35.508  32.788  28.583  1.00  0.00    -0.269 OA
BRANCH  36  39
ATOM     39  C   UNL A   1      37.223  31.178  28.531  1.00  0.00     0.039 A 
ATOM     40  C   UNL A   1      38.132  31.889  29.321  1.00  0.00     0.014 A 
ATOM     41  C   UNL A   1      37.526  29.911  28.047  1.00  0.00     0.014 A 
ATOM     42  C   UNL A   1      39.334  31.274  29.675  1.00  0.00     0.010 A 
ATOM     43  C   UNL A   1      38.602  29.243  28.554  1.00  0.00     0.010 A 
ATOM     44  C   UNL A   1      39.553  29.948  29.287  1.00  0.00    -0.014 A 
BRANCH  44  45
ATOM     45  C   UNL A   1      40.753  29.194  29.633  1.00  0.00     0.031 A 
ATOM     46  C   UNL A   1      40.962  28.967  31.089  1.00  0.00     0.074 A 
ATOM     47  C   UNL A   1      41.365  28.452  28.680  1.00  0.00     0.049 A 
ATOM     48  N   UNL A   1      41.928  29.380  31.841  1.00  0.00    -0.248 NA
ATOM     49  C   UNL A   1      39.877  28.315  31.844  1.00  0.00     0.031 C 
ATOM     50  C   UNL A   1      40.980  28.308  27.265  1.00  0.00     0.029 A 
ATOM     51  N   UNL A   1      42.360  27.538  28.802  1.00  0.00    -0.354 N 
ATOM     52  C   UNL A   1      41.696  28.836  33.106  1.00  0.00     0.074 A 
ATOM     53  C   UNL A   1      40.321  28.423  33.097  1.00  0.00     0.031 C 
ATOM     54  C   UNL A   1      41.559  27.203  26.744  1.00  0.00     0.029 A 
ATOM     55  C   UNL A   1      42.494  26.670  27.717  1.00  0.00     0.049 A 
ATOM     56  H   UNL A   1      42.941  27.490  29.594  1.00  0.00     0.167 HD
ATOM     57  C   UNL A   1      42.723  28.535  33.954  1.00  0.00     0.034 A 
ATOM     58  C   UNL A   1      43.294  25.572  27.637  1.00  0.00     0.034 A 
ATOM     59  C   UNL A   1      43.956  29.129  33.477  1.00  0.00     0.049 A 
ATOM     60  C   UNL A   1      44.295  25.701  28.723  1.00  0.00     0.074 A 
ATOM     61  C   UNL A   1      44.386  30.419  33.238  1.00  0.00     0.029 A 
ATOM     62  N   UNL A   1      44.829  28.315  32.785  1.00  0.00    -0.354 N 
ATOM     63  N   UNL A   1      45.195  26.645  28.751  1.00  0.00    -0.248 NA
ATOM     64  C   UNL A   1      43.987  25.104  30.015  1.00  0.00     0.031 C 
ATOM     65  C   UNL A   1      45.152  30.333  32.037  1.00  0.00     0.029 A 
ATOM     66  C   UNL A   1      45.225  28.990  31.657  1.00  0.00     0.049 A 
ATOM     67  H   UNL A   1      45.118  27.413  33.053  1.00  0.00     0.167 HD
ATOM     68  C   UNL A   1      45.239  27.060  30.074  1.00  0.00     0.074 A 
ATOM     69  C   UNL A   1      44.563  26.000  30.823  1.00  0.00     0.031 C 
ATOM     70  C   UNL A   1      45.547  28.352  30.395  1.00  0.00     0.034 A 
BRANCH  57  71
ATOM     71  C   UNL A   1      42.740  27.409  34.981  1.00  0.00     0.023 A 
ATOM     72  C   UNL A   1      43.535  26.286  34.670  1.00  0.00     0.031 A 
ATOM     73  C   UNL A   1      41.859  27.232  36.071  1.00  0.00     0.131 A 
ATOM     74  C   UNL A   1      43.331  25.045  35.298  1.00  0.00     0.055 A 
ATOM     75  C   UNL A   1      41.701  26.010  36.736  1.00  0.00     0.041 A 
ATOM     76  F   UNL A   1      41.049  28.193  36.521  1.00  0.00    -0.206 F 
ATOM     77  C   UNL A   1      42.408  24.895  36.324  1.00  0.00     0.022 A 
BRANCH  74  78
ATOM     78  S   UNL A   1      44.156  23.590  34.603  1.00  0.00     0.124 S 
ATOM     79  O   UNL A   1      43.093  23.011  33.791  1.00  0.00    -0.237 OA
ATOM     80  O   UNL A   1      45.267  24.197  33.876  1.00  0.00    -0.237 OA
ATOM     81  O   UNL A   1      44.530  22.819  35.787  1.00  0.00    -0.744 OA
ENDBRANCH  74  78
ENDBRANCH  57  71
BRANCH  58  82
ATOM     82  C   UNL A   1      42.992  24.280  26.965  1.00  0.00     0.023 A 
ATOM     83  C   UNL A   1      43.863  23.638  26.057  1.00  0.00     0.031 A 
ATOM     84  C   UNL A   1      41.905  23.521  27.445  1.00  0.00     0.131 A 
ATOM     85  C   UNL A   1      43.619  22.298  25.660  1.00  0.00     0.055 A 
ATOM     86  C   UNL A   1      41.692  22.193  27.072  1.00  0.00     0.041 A 
ATOM     87  F   UNL A   1      41.065  24.034  28.359  1.00  0.00    -0.206 F 
ATOM     88  C   UNL A   1      42.536  21.579  26.164  1.00  0.00     0.022 A 
BRANCH  85  89
ATOM     89  S   UNL A   1      44.758  21.430  24.532  1.00  0.00     0.124 S 
ATOM     90  O   UNL A   1      44.689  22.244  23.324  1.00  0.00    -0.237 OA
ATOM     91  O   UNL A   1      46.013  21.472  25.272  1.00  0.00    -0.237 OA
ATOM     92  O   UNL A   1      44.168  20.096  24.403  1.00  0.00    -0.744 OA
ENDBRANCH  85  89
ENDBRANCH  58  82
BRANCH  70  93
ATOM     93  C   UNL A   1      46.074  29.250  29.291  1.00  0.00     0.023 A 
ATOM     94  C   UNL A   1      45.283  30.140  28.524  1.00  0.00     0.031 A 
ATOM     95  C   UNL A   1      47.465  29.295  29.107  1.00  0.00     0.131 A 
ATOM     96  C   UNL A   1      45.894  31.024  27.613  1.00  0.00     0.055 A 
ATOM     97  C   UNL A   1      48.067  30.186  28.221  1.00  0.00     0.041 A 
ATOM     98  F   UNL A   1      48.271  28.497  29.828  1.00  0.00    -0.206 F 
ATOM     99  C   UNL A   1      47.284  31.051  27.466  1.00  0.00     0.022 A 
BRANCH  96 100
ATOM    100  S   UNL A   1      44.889  32.155  26.594  1.00  0.00     0.124 S 
ATOM    101  O   UNL A   1      45.840  32.677  25.618  1.00  0.00    -0.237 OA
ATOM    102  O   UNL A   1      43.854  31.272  26.065  1.00  0.00    -0.237 OA
ATOM    103  O   UNL A   1      44.406  33.144  27.559  1.00  0.00    -0.744 OA
ENDBRANCH  96 100
ENDBRANCH  70  93
ENDBRANCH  44  45
ENDBRANCH  36  39
ENDBRANCH  34  35
ENDBRANCH  33  34
ENDBRANCH   1  33
TORSDOF 18
ENDMDL
MODEL 3
REMARK VINA RESULT:     -13.2      2.368      5.418
REMARK SMILES Cc1nn([C@H]2CCS(=O)(=O)C2)c(C)c1/C=C(\CC(=O)NCCCCNC(=O)c1ccc(-c2c3nc(c(-c4cc(S(=O)(=O)[O-])ccc4F)c4ccc([nH]4)c(-c4cc(S(=O)(=O)[O-])ccc4F)c4nc(c(-c5cc(S(=O)(=O)[O-])ccc5F)c5ccc2[nH]5)C=C4)C=C3)cc1)c1nc2ccccc2s1
REMARK SMILES IDX 22 1 21 2 20 3 18 4 19 5 17 7 16 8 15 9 14 10 1 11 2 12 3 13
REMARK SMILES IDX 4 14 12 15 13 16 5 17 6 18 11 19 7 20 8 21 9 22 10 23 91 24
REMARK SMILES IDX 92 25 99 26 93 27 98 28 94 29 97 30 95 31 96 32 23 33 24 34
REMARK SMILES IDX 25 35 26 36 27 38 28 39 29 40 90 41 30 42 89 43 31 44 32 45
REMARK SMILES IDX 33 46 83 47 34 48 88 49 82 50 84 51 35 52 87 53 81 54 80 55
REMARK SMILES IDX 36 57 68 58 48 59 67 60 49 61 52 62 66 63 85 64 50 65 51 66
REMARK SMILES IDX 65 68 86 69 53 70 37 71 38 72 46 73 39 74 45 75 47 76 44 77
REMARK SMILES IDX 40 78 41 79 42 80 43 81 69 82 70 83 78 84 71 85 77 86 79 87
REMARK SMILES IDX 76 88 72 89 73 90 74 91 75 92 54 93 55 94 63 95 56 96 62 97
REMARK SMILES IDX 64 98 61 99 57 100 58 101 59 102 60 103
REMARK H PARENT 20 6 25 37 84 56 52 67
REMARK Flexibility Score: inf
ROOT
ATOM      1  C   UNL A   1      37.061  21.381  23.861  1.00  0.00     0.023 C 
ENDROOT
BRANCH   1   2
ATOM      2  C   UNL A   1      36.084  22.374  24.498  1.00  0.00     0.116 C 
BRANCH   2   3
ATOM      3  N   UNL A   1      35.556  23.297  23.512  1.00  0.00    -0.356 N 
ATOM      4  C   UNL A   1      34.512  24.167  23.646  1.00  0.00     0.224 C 
ATOM      5  O   UNL A   1      34.029  24.688  22.639  1.00  0.00    -0.275 OA
ATOM      6  H   UNL A   1      36.006  23.296  22.637  1.00  0.00     0.163 HD
BRANCH   4   7
ATOM      7  C   UNL A   1      34.070  24.582  25.044  1.00  0.00     0.138 C 
BRANCH   7   8
ATOM      8  C   UNL A   1      32.596  24.428  25.387  1.00  0.00    -0.002 C 
ATOM      9  C   UNL A   1      32.003  23.242  25.684  1.00  0.00     0.019 C 
BRANCH   9  10
ATOM     10  C   UNL A   1      32.616  21.942  25.657  1.00  0.00     0.019 A 
ATOM     11  C   UNL A   1      34.104  21.963  27.829  1.00  0.00     0.069 C 
ATOM     12  C   UNL A   1      33.456  21.354  26.639  1.00  0.00     0.067 A 
ATOM     13  N   UNL A   1      33.664  20.056  26.385  1.00  0.00    -0.177 NA
ATOM     14  N   UNL A   1      32.981  19.820  25.251  1.00  0.00    -0.265 N 
ATOM     15  C   UNL A   1      32.588  20.999  24.640  1.00  0.00     0.043 A 
ATOM     16  C   UNL A   1      32.222  21.127  23.203  1.00  0.00     0.067 C 
BRANCH  14  17
ATOM     17  C   UNL A   1      32.771  18.433  24.838  1.00  0.00     0.123 C 
ATOM     18  C   UNL A   1      33.547  18.037  23.554  1.00  0.00     0.044 C 
ATOM     19  C   UNL A   1      33.242  17.436  25.878  1.00  0.00     0.164 C 
ATOM     20  C   UNL A   1      33.445  16.519  23.403  1.00  0.00     0.139 C 
ATOM     21  S   UNL A   1      33.347  15.888  25.067  1.00  0.00     0.152 S 
ATOM     22  O   UNL A   1      32.088  15.221  25.268  1.00  0.00    -0.229 OA
ATOM     23  O   UNL A   1      34.622  15.336  25.487  1.00  0.00    -0.229 OA
ENDBRANCH  14  17
ENDBRANCH   9  10
BRANCH   8  24
ATOM     24  C   UNL A   1      31.772  25.605  25.332  1.00  0.00     0.121 A 
ATOM     25  N   UNL A   1      30.643  25.674  24.658  1.00  0.00    -0.236 NA
ATOM     26  S   UNL A   1      32.330  27.125  25.928  1.00  0.00    -0.114 S 
ATOM     27  C   UNL A   1      30.386  26.978  24.295  1.00  0.00     0.082 A 
ATOM     28  C   UNL A   1      31.217  27.931  24.882  1.00  0.00     0.055 A 
ATOM     29  C   UNL A   1      29.423  27.389  23.353  1.00  0.00     0.030 A 
ATOM     30  C   UNL A   1      31.113  29.294  24.565  1.00  0.00     0.021 A 
ATOM     31  C   UNL A   1      29.363  28.732  22.975  1.00  0.00     0.002 A 
ATOM     32  C   UNL A   1      30.198  29.671  23.575  1.00  0.00     0.002 A 
ENDBRANCH   8  24
ENDBRANCH   7   8
ENDBRANCH   4   7
ENDBRANCH   2   3
ENDBRANCH   1   2
BRANCH   1  33
ATOM     33  C   UNL A   1      37.455  20.201  24.761  1.00  0.00     0.023 C 
BRANCH  33  34
ATOM     34  C   UNL A   1      38.535  20.554  25.768  1.00  0.00     0.116 C 
BRANCH  34  35
ATOM     35  N   UNL A   1      39.523  19.480  25.908  1.00  0.00    -0.352 N 
ATOM     36  C   UNL A   1      40.893  19.593  26.056  1.00  0.00     0.251 C 
ATOM     37  H   UNL A   1      39.166  18.563  25.894  1.00  0.00     0.163 HD
ATOM     38  O   UNL A   1      41.637  18.658  25.786  1.00  0.00    -0.269 OA
BRANCH  36  39
ATOM     39  C   UNL A   1      41.421  20.862  26.579  1.00  0.00     0.039 A 
ATOM     40  C   UNL A   1      42.227  21.719  25.823  1.00  0.00     0.014 A 
ATOM     41  C   UNL A   1      41.024  21.197  27.869  1.00  0.00     0.014 A 
ATOM     42  C   UNL A   1      42.576  22.958  26.362  1.00  0.00     0.010 A 
ATOM     43  C   UNL A   1      41.199  22.476  28.309  1.00  0.00     0.010 A 
ATOM     44  C   UNL A   1      42.051  23.324  27.607  1.00  0.00    -0.014 A 
BRANCH  44  45
ATOM     45  C   UNL A   1      42.317  24.606  28.248  1.00  0.00     0.031 A 
ATOM     46  C   UNL A   1      41.284  25.655  28.026  1.00  0.00     0.074 A 
ATOM     47  C   UNL A   1      43.214  24.665  29.261  1.00  0.00     0.049 A 
ATOM     48  N   UNL A   1      41.403  26.793  27.426  1.00  0.00    -0.248 NA
ATOM     49  C   UNL A   1      39.892  25.332  28.388  1.00  0.00     0.031 C 
ATOM     50  C   UNL A   1      44.014  23.562  29.820  1.00  0.00     0.029 A 
ATOM     51  N   UNL A   1      43.484  25.681  30.119  1.00  0.00    -0.354 N 
ATOM     52  C   UNL A   1      40.167  27.430  27.553  1.00  0.00     0.074 A 
ATOM     53  C   UNL A   1      39.240  26.395  27.915  1.00  0.00     0.031 C 
ATOM     54  C   UNL A   1      44.472  23.904  31.045  1.00  0.00     0.029 A 
ATOM     55  C   UNL A   1      44.162  25.303  31.279  1.00  0.00     0.049 A 
ATOM     56  H   UNL A   1      43.223  26.612  29.937  1.00  0.00     0.167 HD
ATOM     57  C   UNL A   1      40.066  28.791  27.606  1.00  0.00     0.034 A 
ATOM     58  C   UNL A   1      44.420  26.076  32.369  1.00  0.00     0.034 A 
ATOM     59  C   UNL A   1      41.321  29.401  27.217  1.00  0.00     0.049 A 
ATOM     60  C   UNL A   1      44.235  27.483  31.940  1.00  0.00     0.074 A 
ATOM     61  C   UNL A   1      42.094  29.394  26.072  1.00  0.00     0.029 A 
ATOM     62  N   UNL A   1      42.160  29.832  28.225  1.00  0.00    -0.354 N 
ATOM     63  N   UNL A   1      44.998  28.062  31.055  1.00  0.00    -0.248 NA
ATOM     64  C   UNL A   1      42.918  28.083  32.106  1.00  0.00     0.031 C 
ATOM     65  C   UNL A   1      43.441  29.323  26.540  1.00  0.00     0.029 A 
ATOM     66  C   UNL A   1      43.425  29.382  27.936  1.00  0.00     0.049 A 
ATOM     67  H   UNL A   1      41.899  30.365  29.009  1.00  0.00     0.167 HD
ATOM     68  C   UNL A   1      44.132  28.795  30.257  1.00  0.00     0.074 A 
ATOM     69  C   UNL A   1      42.885  28.863  31.020  1.00  0.00     0.031 C 
ATOM     70  C   UNL A   1      44.408  29.014  28.937  1.00  0.00     0.034 A 
BRANCH  57  71
ATOM     71  C   UNL A   1      39.010  29.584  28.365  1.00  0.00     0.023 A 
ATOM     72  C   UNL A   1      39.151  29.639  29.768  1.00  0.00     0.031 A 
ATOM     73  C   UNL A   1      37.769  30.046  27.872  1.00  0.00     0.131 A 
ATOM     74  C   UNL A   1      38.069  29.969  30.603  1.00  0.00     0.055 A 
ATOM     75  C   UNL A   1      36.712  30.434  28.705  1.00  0.00     0.041 A 
ATOM     76  F   UNL A   1      37.467  30.090  26.573  1.00  0.00    -0.206 F 
ATOM     77  C   UNL A   1      36.842  30.357  30.080  1.00  0.00     0.022 A 
BRANCH  74  78
ATOM     78  S   UNL A   1      38.245  29.685  32.382  1.00  0.00     0.124 S 
ATOM     79  O   UNL A   1      37.887  30.992  32.923  1.00  0.00    -0.237 OA
ATOM     80  O   UNL A   1      37.288  28.608  32.608  1.00  0.00    -0.237 OA
ATOM     81  O   UNL A   1      39.651  29.313  32.526  1.00  0.00    -0.744 OA
ENDBRANCH  74  78
ENDBRANCH  57  71
BRANCH  58  82
ATOM     82  C   UNL A   1      44.413  25.659  33.797  1.00  0.00     0.023 A 
ATOM     83  C   UNL A   1      43.409  26.021  34.721  1.00  0.00     0.031 A 
ATOM     84  C   UNL A   1      45.304  24.641  34.195  1.00  0.00     0.131 A 
ATOM     85  C   UNL A   1      43.336  25.380  35.985  1.00  0.00     0.055 A 
ATOM     86  C   UNL A   1      45.204  23.995  35.428  1.00  0.00     0.041 A 
ATOM     87  F   UNL A   1      46.248  24.193  33.352  1.00  0.00    -0.206 F 
ATOM     88  C   UNL A   1      44.233  24.372  36.338  1.00  0.00     0.022 A 
BRANCH  85  89
ATOM     89  S   UNL A   1      42.017  25.791  37.173  1.00  0.00     0.124 S 
ATOM     90  O   UNL A   1      42.767  26.102  38.385  1.00  0.00    -0.237 OA
ATOM     91  O   UNL A   1      41.351  26.910  36.518  1.00  0.00    -0.237 OA
ATOM     92  O   UNL A   1      41.222  24.564  37.247  1.00  0.00    -0.744 OA
ENDBRANCH  85  89
ENDBRANCH  58  82
BRANCH  70  93
ATOM     93  C   UNL A   1      45.791  28.647  28.432  1.00  0.00     0.023 A 
ATOM     94  C   UNL A   1      46.161  27.373  27.936  1.00  0.00     0.031 A 
ATOM     95  C   UNL A   1      46.734  29.682  28.329  1.00  0.00     0.131 A 
ATOM     96  C   UNL A   1      47.436  27.177  27.370  1.00  0.00     0.055 A 
ATOM     97  C   UNL A   1      47.986  29.490  27.749  1.00  0.00     0.041 A 
ATOM     98  F   UNL A   1      46.431  30.921  28.753  1.00  0.00    -0.206 F 
ATOM     99  C   UNL A   1      48.345  28.235  27.272  1.00  0.00     0.022 A 
BRANCH  96 100
ATOM    100  S   UNL A   1      47.942  25.536  26.755  1.00  0.00     0.124 S 
ATOM    101  O   UNL A   1      49.052  25.831  25.856  1.00  0.00    -0.237 OA
ATOM    102  O   UNL A   1      48.290  24.829  27.985  1.00  0.00    -0.237 OA
ATOM    103  O   UNL A   1      46.737  25.035  26.090  1.00  0.00    -0.744 OA
ENDBRANCH  96 100
ENDBRANCH  70  93
ENDBRANCH  44  45
ENDBRANCH  36  39
ENDBRANCH  34  35
ENDBRANCH  33  34
ENDBRANCH   1  33
TORSDOF 18
ENDMDL
