MODEL 1
REMARK VINA RESULT:     -11.2      0.000      0.000
REMARK SMILES CC1(C)C[C@@H]([NH2+]C[C@@H]2CCCC[C@@H]2C(=O)NCCCCNC(=O)c2ccc(-c3c4nc(c(-c5cc(S(=O)(=O)[O-])ccc5F)c5ccc([nH]5)c(-c5cc(S(=O)(=O)[O-])ccc5F)c5nc(c(-c6cc(S(=O)(=O)[O-])ccc6F)c6ccc3[nH]6)C=C5)C=C4)cc2)C(C)(C)O1
REMARK SMILES IDX 18 1 17 2 16 3 14 4 15 5 13 7 8 8 9 9 10 10 12 11 11 12 7 13
REMARK SMILES IDX 6 14 5 17 1 18 2 19 3 20 4 21 90 22 87 23 88 24 89 25 19 26
REMARK SMILES IDX 20 27 21 28 22 29 23 31 24 32 25 33 86 34 26 35 85 36 27 37
REMARK SMILES IDX 28 38 29 39 79 40 30 41 84 42 78 43 80 44 31 45 83 46 77 47
REMARK SMILES IDX 76 48 32 50 64 51 44 52 63 53 45 54 48 55 62 56 81 57 46 58
REMARK SMILES IDX 47 59 61 61 82 62 49 63 33 64 34 65 42 66 35 67 41 68 43 69
REMARK SMILES IDX 40 70 36 71 37 72 38 73 39 74 65 75 66 76 74 77 67 78 73 79
REMARK SMILES IDX 75 80 72 81 68 82 69 83 70 84 71 85 50 86 51 87 59 88 52 89
REMARK SMILES IDX 58 90 60 91 57 92 53 93 54 94 55 95 56 96
REMARK H PARENT 16 6 6 15 6 16 21 30 80 49 48 60
REMARK Flexibility Score: inf
ROOT
ATOM      1  C   UNL A   1      34.320  30.533  27.680  1.00  0.00     0.023 C 
ENDROOT
BRANCH   1   2
ATOM      2  C   UNL A   1      33.974  29.199  27.022  1.00  0.00     0.116 C 
BRANCH   2   3
ATOM      3  N   UNL A   1      34.025  29.278  25.575  1.00  0.00    -0.356 N 
ATOM      4  C   UNL A   1      33.079  29.050  24.626  1.00  0.00     0.223 C 
ATOM      5  O   UNL A   1      33.417  29.171  23.447  1.00  0.00    -0.275 OA
ATOM      6  H   UNL A   1      34.902  29.545  25.215  1.00  0.00     0.163 HD
BRANCH   4   7
ATOM      7  C   UNL A   1      31.657  28.669  25.025  1.00  0.00     0.087 C 
ATOM      8  C   UNL A   1      31.264  27.247  24.578  1.00  0.00     0.056 C 
ATOM      9  C   UNL A   1      31.074  27.131  23.060  1.00  0.00     0.010 C 
ATOM     10  C   UNL A   1      29.998  28.112  22.597  1.00  0.00     0.001 C 
ATOM     11  C   UNL A   1      30.659  29.706  24.469  1.00  0.00     0.014 C 
ATOM     12  C   UNL A   1      30.337  29.548  22.982  1.00  0.00     0.001 C 
BRANCH   8  13
ATOM     13  C   UNL A   1      32.146  26.106  25.131  1.00  0.00     0.265 C 
BRANCH  13  14
ATOM     14  N   UNL A   1      31.879  24.781  24.553  1.00  0.00    -0.341 N 
ATOM     15  H   UNL A   1      30.908  24.537  24.750  1.00  0.00     0.346 HD
ATOM     16  H   UNL A   1      32.079  24.854  23.555  1.00  0.00     0.346 HD
BRANCH  14  17
ATOM     17  C   UNL A   1      32.736  23.700  25.071  1.00  0.00     0.217 C 
ATOM     18  C   UNL A   1      36.324  23.470  25.991  1.00  0.00     0.042 C 
ATOM     19  C   UNL A   1      34.879  22.991  25.869  1.00  0.00     0.069 C 
ATOM     20  C   UNL A   1      34.557  21.992  26.984  1.00  0.00     0.042 C 
ATOM     21  C   UNL A   1      33.927  24.172  25.886  1.00  0.00     0.103 C 
ATOM     22  O   UNL A   1      34.686  22.345  24.604  1.00  0.00    -0.363 OA
ATOM     23  C   UNL A   1      33.436  22.794  24.014  1.00  0.00     0.115 C 
ATOM     24  C   UNL A   1      33.810  23.521  22.716  1.00  0.00     0.048 C 
ATOM     25  C   UNL A   1      32.606  21.553  23.685  1.00  0.00     0.048 C 
ENDBRANCH  14  17
ENDBRANCH  13  14
ENDBRANCH   8  13
ENDBRANCH   4   7
ENDBRANCH   2   3
ENDBRANCH   1   2
BRANCH   1  26
ATOM     26  C   UNL A   1      33.193  31.568  27.669  1.00  0.00     0.023 C 
BRANCH  26  27
ATOM     27  C   UNL A   1      33.530  32.892  26.994  1.00  0.00     0.116 C 
BRANCH  27  28
ATOM     28  N   UNL A   1      32.912  34.033  27.648  1.00  0.00    -0.352 N 
ATOM     29  C   UNL A   1      33.195  34.587  28.873  1.00  0.00     0.251 C 
ATOM     30  H   UNL A   1      32.189  34.470  27.143  1.00  0.00     0.163 HD
ATOM     31  O   UNL A   1      32.464  35.465  29.324  1.00  0.00    -0.269 OA
BRANCH  29  32
ATOM     32  C   UNL A   1      34.352  34.098  29.655  1.00  0.00     0.039 A 
ATOM     33  C   UNL A   1      34.119  33.262  30.749  1.00  0.00     0.014 A 
ATOM     34  C   UNL A   1      35.659  34.442  29.300  1.00  0.00     0.014 A 
ATOM     35  C   UNL A   1      35.200  32.719  31.446  1.00  0.00     0.010 A 
ATOM     36  C   UNL A   1      36.734  33.834  29.943  1.00  0.00     0.010 A 
ATOM     37  C   UNL A   1      36.517  32.970  31.027  1.00  0.00    -0.014 A 
BRANCH  37  38
ATOM     38  C   UNL A   1      37.672  32.332  31.713  1.00  0.00     0.031 A 
ATOM     39  C   UNL A   1      38.418  31.203  31.057  1.00  0.00     0.074 A 
ATOM     40  C   UNL A   1      38.014  32.736  32.952  1.00  0.00     0.049 A 
ATOM     41  N   UNL A   1      39.428  30.504  31.507  1.00  0.00    -0.248 NA
ATOM     42  C   UNL A   1      37.939  30.784  29.732  1.00  0.00     0.031 C 
ATOM     43  C   UNL A   1      37.328  33.778  33.720  1.00  0.00     0.029 A 
ATOM     44  N   UNL A   1      39.018  32.316  33.788  1.00  0.00    -0.354 N 
ATOM     45  C   UNL A   1      39.701  29.556  30.526  1.00  0.00     0.074 A 
ATOM     46  C   UNL A   1      38.696  29.725  29.497  1.00  0.00     0.031 C 
ATOM     47  C   UNL A   1      37.948  33.936  34.899  1.00  0.00     0.029 A 
ATOM     48  C   UNL A   1      39.047  32.981  34.992  1.00  0.00     0.049 A 
ATOM     49  H   UNL A   1      39.656  31.607  33.548  1.00  0.00     0.167 HD
ATOM     50  C   UNL A   1      40.710  28.650  30.474  1.00  0.00     0.034 A 
ATOM     51  C   UNL A   1      39.862  32.833  36.055  1.00  0.00     0.034 A 
ATOM     52  C   UNL A   1      41.699  28.496  31.515  1.00  0.00     0.049 A 
ATOM     53  C   UNL A   1      40.969  31.815  35.987  1.00  0.00     0.074 A 
ATOM     54  C   UNL A   1      42.799  27.656  31.544  1.00  0.00     0.029 A 
ATOM     55  N   UNL A   1      41.701  29.187  32.722  1.00  0.00    -0.354 N 
ATOM     56  N   UNL A   1      41.261  30.973  35.021  1.00  0.00    -0.248 NA
ATOM     57  C   UNL A   1      41.864  31.738  37.146  1.00  0.00     0.031 C 
ATOM     58  C   UNL A   1      43.416  27.781  32.794  1.00  0.00     0.029 A 
ATOM     59  C   UNL A   1      42.758  28.764  33.517  1.00  0.00     0.049 A 
ATOM     60  H   UNL A   1      41.047  29.877  32.976  1.00  0.00     0.167 HD
ATOM     61  C   UNL A   1      42.388  30.279  35.451  1.00  0.00     0.074 A 
ATOM     62  C   UNL A   1      42.735  30.822  36.750  1.00  0.00     0.031 C 
ATOM     63  C   UNL A   1      43.076  29.286  34.827  1.00  0.00     0.034 A 
BRANCH  50  64
ATOM     64  C   UNL A   1      40.759  27.744  29.263  1.00  0.00     0.023 A 
ATOM     65  C   UNL A   1      41.692  27.944  28.228  1.00  0.00     0.031 A 
ATOM     66  C   UNL A   1      39.823  26.706  29.105  1.00  0.00     0.131 A 
ATOM     67  C   UNL A   1      41.599  27.198  27.042  1.00  0.00     0.055 A 
ATOM     68  C   UNL A   1      39.800  25.901  27.964  1.00  0.00     0.041 A 
ATOM     69  F   UNL A   1      38.894  26.473  30.045  1.00  0.00    -0.206 F 
ATOM     70  C   UNL A   1      40.676  26.160  26.913  1.00  0.00     0.022 A 
BRANCH  67  71
ATOM     71  S   UNL A   1      42.567  27.739  25.606  1.00  0.00     0.124 S 
ATOM     72  O   UNL A   1      42.546  26.543  24.768  1.00  0.00    -0.237 OA
ATOM     73  O   UNL A   1      41.798  28.877  25.117  1.00  0.00    -0.237 OA
ATOM     74  O   UNL A   1      43.873  28.066  26.177  1.00  0.00    -0.744 OA
ENDBRANCH  67  71
ENDBRANCH  50  64
BRANCH  51  75
ATOM     75  C   UNL A   1      39.657  33.668  37.272  1.00  0.00     0.023 A 
ATOM     76  C   UNL A   1      38.904  33.199  38.361  1.00  0.00     0.031 A 
ATOM     77  C   UNL A   1      40.212  34.957  37.361  1.00  0.00     0.131 A 
ATOM     78  C   UNL A   1      38.700  34.025  39.478  1.00  0.00     0.055 A 
ATOM     79  C   UNL A   1      40.047  35.755  38.494  1.00  0.00     0.041 A 
ATOM     80  F   UNL A   1      40.948  35.449  36.353  1.00  0.00    -0.206 F 
ATOM     81  C   UNL A   1      39.279  35.294  39.557  1.00  0.00     0.022 A 
BRANCH  78  82
ATOM     82  S   UNL A   1      37.621  33.435  40.811  1.00  0.00     0.124 S 
ATOM     83  O   UNL A   1      36.656  32.624  40.077  1.00  0.00    -0.237 OA
ATOM     84  O   UNL A   1      38.557  32.708  41.661  1.00  0.00    -0.237 OA
ATOM     85  O   UNL A   1      37.090  34.669  41.389  1.00  0.00    -0.744 OA
ENDBRANCH  78  82
ENDBRANCH  51  75
BRANCH  63  86
ATOM     86  C   UNL A   1      44.289  28.742  35.548  1.00  0.00     0.023 A 
ATOM     87  C   UNL A   1      44.194  27.668  36.450  1.00  0.00     0.031 A 
ATOM     88  C   UNL A   1      45.552  29.331  35.356  1.00  0.00     0.131 A 
ATOM     89  C   UNL A   1      45.321  27.264  37.181  1.00  0.00     0.055 A 
ATOM     90  C   UNL A   1      46.686  28.875  36.032  1.00  0.00     0.041 A 
ATOM     91  F   UNL A   1      45.705  30.362  34.511  1.00  0.00    -0.206 F 
ATOM     92  C   UNL A   1      46.571  27.848  36.963  1.00  0.00     0.022 A 
BRANCH  89  93
ATOM     93  S   UNL A   1      45.107  26.049  38.511  1.00  0.00     0.124 S 
ATOM     94  O   UNL A   1      44.563  26.872  39.586  1.00  0.00    -0.237 OA
ATOM     95  O   UNL A   1      44.185  25.090  37.913  1.00  0.00    -0.237 OA
ATOM     96  O   UNL A   1      46.461  25.548  38.739  1.00  0.00    -0.744 OA
ENDBRANCH  89  93
ENDBRANCH  63  86
ENDBRANCH  37  38
ENDBRANCH  29  32
ENDBRANCH  27  28
ENDBRANCH  26  27
ENDBRANCH   1  26
TORSDOF 17
ENDMDL
MODEL 2
REMARK VINA RESULT:     -11.2      5.723     11.680
REMARK SMILES CC1(C)C[C@@H]([NH2+]C[C@@H]2CCCC[C@@H]2C(=O)NCCCCNC(=O)c2ccc(-c3c4nc(c(-c5cc(S(=O)(=O)[O-])ccc5F)c5ccc([nH]5)c(-c5cc(S(=O)(=O)[O-])ccc5F)c5nc(c(-c6cc(S(=O)(=O)[O-])ccc6F)c6ccc3[nH]6)C=C5)C=C4)cc2)C(C)(C)O1
REMARK SMILES IDX 18 1 17 2 16 3 14 4 15 5 13 7 8 8 9 9 10 10 12 11 11 12 7 13
REMARK SMILES IDX 6 14 5 17 1 18 2 19 3 20 4 21 90 22 87 23 88 24 89 25 19 26
REMARK SMILES IDX 20 27 21 28 22 29 23 31 24 32 25 33 86 34 26 35 85 36 27 37
REMARK SMILES IDX 28 38 29 39 79 40 30 41 84 42 78 43 80 44 31 45 83 46 77 47
REMARK SMILES IDX 76 48 32 50 64 51 44 52 63 53 45 54 48 55 62 56 81 57 46 58
REMARK SMILES IDX 47 59 61 61 82 62 49 63 33 64 34 65 42 66 35 67 41 68 43 69
REMARK SMILES IDX 40 70 36 71 37 72 38 73 39 74 65 75 66 76 74 77 67 78 73 79
REMARK SMILES IDX 75 80 72 81 68 82 69 83 70 84 71 85 50 86 51 87 59 88 52 89
REMARK SMILES IDX 58 90 60 91 57 92 53 93 54 94 55 95 56 96
REMARK H PARENT 16 6 6 15 6 16 21 30 80 49 48 60
REMARK Flexibility Score: inf
ROOT
ATOM      1  C   UNL A   1      38.749  23.188  26.139  1.00  0.00     0.023 C 
ENDROOT
BRANCH   1   2
ATOM      2  C   UNL A   1      37.337  23.619  25.746  1.00  0.00     0.116 C 
BRANCH   2   3
ATOM      3  N   UNL A   1      36.328  22.991  26.577  1.00  0.00    -0.356 N 
ATOM      4  C   UNL A   1      35.295  22.163  26.269  1.00  0.00     0.223 C 
ATOM      5  O   UNL A   1      34.566  21.797  27.193  1.00  0.00    -0.275 OA
ATOM      6  H   UNL A   1      36.404  23.203  27.535  1.00  0.00     0.163 HD
BRANCH   4   7
ATOM      7  C   UNL A   1      35.068  21.707  24.831  1.00  0.00     0.087 C 
ATOM      8  C   UNL A   1      33.840  22.368  24.174  1.00  0.00     0.056 C 
ATOM      9  C   UNL A   1      32.512  21.857  24.747  1.00  0.00     0.010 C 
ATOM     10  C   UNL A   1      32.418  20.343  24.567  1.00  0.00     0.001 C 
ATOM     11  C   UNL A   1      34.948  20.170  24.779  1.00  0.00     0.014 C 
ATOM     12  C   UNL A   1      33.590  19.621  25.219  1.00  0.00     0.001 C 
BRANCH   8  13
ATOM     13  C   UNL A   1      33.872  23.909  24.097  1.00  0.00     0.265 C 
BRANCH  13  14
ATOM     14  N   UNL A   1      32.633  24.532  23.608  1.00  0.00    -0.341 N 
ATOM     15  H   UNL A   1      32.578  24.382  22.600  1.00  0.00     0.346 HD
ATOM     16  H   UNL A   1      31.868  24.094  24.121  1.00  0.00     0.346 HD
BRANCH  14  17
ATOM     17  C   UNL A   1      32.531  25.979  23.863  1.00  0.00     0.217 C 
ATOM     18  C   UNL A   1      34.066  28.279  26.338  1.00  0.00     0.042 C 
ATOM     19  C   UNL A   1      33.243  27.894  25.111  1.00  0.00     0.069 C 
ATOM     20  C   UNL A   1      33.262  29.030  24.084  1.00  0.00     0.042 C 
ATOM     21  C   UNL A   1      33.755  26.596  24.515  1.00  0.00     0.103 C 
ATOM     22  O   UNL A   1      31.885  27.645  25.495  1.00  0.00    -0.363 OA
ATOM     23  C   UNL A   1      31.405  26.440  24.838  1.00  0.00     0.115 C 
ATOM     24  C   UNL A   1      31.096  25.436  25.955  1.00  0.00     0.048 C 
ATOM     25  C   UNL A   1      30.117  26.797  24.097  1.00  0.00     0.048 C 
ENDBRANCH  14  17
ENDBRANCH  13  14
ENDBRANCH   8  13
ENDBRANCH   4   7
ENDBRANCH   2   3
ENDBRANCH   1   2
BRANCH   1  26
ATOM     26  C   UNL A   1      38.887  21.717  26.535  1.00  0.00     0.023 C 
BRANCH  26  27
ATOM     27  C   UNL A   1      39.213  20.761  25.394  1.00  0.00     0.116 C 
BRANCH  27  28
ATOM     28  N   UNL A   1      40.077  19.666  25.802  1.00  0.00    -0.352 N 
ATOM     29  C   UNL A   1      41.374  19.707  26.252  1.00  0.00     0.251 C 
ATOM     30  H   UNL A   1      39.676  18.769  25.749  1.00  0.00     0.163 HD
ATOM     31  O   UNL A   1      41.993  18.659  26.413  1.00  0.00    -0.269 OA
BRANCH  29  32
ATOM     32  C   UNL A   1      42.027  21.011  26.502  1.00  0.00     0.039 A 
ATOM     33  C   UNL A   1      42.356  21.819  25.411  1.00  0.00     0.014 A 
ATOM     34  C   UNL A   1      42.294  21.446  27.803  1.00  0.00     0.014 A 
ATOM     35  C   UNL A   1      42.892  23.089  25.630  1.00  0.00     0.010 A 
ATOM     36  C   UNL A   1      42.750  22.743  28.021  1.00  0.00     0.010 A 
ATOM     37  C   UNL A   1      43.059  23.578  26.936  1.00  0.00    -0.014 A 
BRANCH  37  38
ATOM     38  C   UNL A   1      43.555  24.959  27.178  1.00  0.00     0.031 A 
ATOM     39  C   UNL A   1      42.627  26.017  27.712  1.00  0.00     0.074 A 
ATOM     40  C   UNL A   1      44.827  25.273  26.865  1.00  0.00     0.049 A 
ATOM     41  N   UNL A   1      42.865  27.279  27.958  1.00  0.00    -0.248 NA
ATOM     42  C   UNL A   1      41.241  25.604  27.966  1.00  0.00     0.031 C 
ATOM     43  C   UNL A   1      45.805  24.352  26.283  1.00  0.00     0.029 A 
ATOM     44  N   UNL A   1      45.515  26.454  26.986  1.00  0.00    -0.354 N 
ATOM     45  C   UNL A   1      41.655  27.816  28.390  1.00  0.00     0.074 A 
ATOM     46  C   UNL A   1      40.674  26.755  28.291  1.00  0.00     0.031 C 
ATOM     47  C   UNL A   1      46.973  24.992  26.125  1.00  0.00     0.029 A 
ATOM     48  C   UNL A   1      46.819  26.378  26.553  1.00  0.00     0.049 A 
ATOM     49  H   UNL A   1      45.115  27.276  27.349  1.00  0.00     0.167 HD
ATOM     50  C   UNL A   1      41.394  29.064  28.851  1.00  0.00     0.034 A 
ATOM     51  C   UNL A   1      47.781  27.321  26.499  1.00  0.00     0.034 A 
ATOM     52  C   UNL A   1      42.387  30.109  28.937  1.00  0.00     0.049 A 
ATOM     53  C   UNL A   1      47.471  28.706  27.002  1.00  0.00     0.074 A 
ATOM     54  C   UNL A   1      42.253  31.391  29.443  1.00  0.00     0.029 A 
ATOM     55  N   UNL A   1      43.700  29.999  28.491  1.00  0.00    -0.354 N 
ATOM     56  N   UNL A   1      46.341  29.181  27.476  1.00  0.00    -0.248 NA
ATOM     57  C   UNL A   1      48.570  29.676  26.978  1.00  0.00     0.031 C 
ATOM     58  C   UNL A   1      43.455  32.076  29.230  1.00  0.00     0.029 A 
ATOM     59  C   UNL A   1      44.373  31.200  28.672  1.00  0.00     0.049 A 
ATOM     60  H   UNL A   1      44.096  29.186  28.101  1.00  0.00     0.167 HD
ATOM     61  C   UNL A   1      46.602  30.503  27.824  1.00  0.00     0.074 A 
ATOM     62  C   UNL A   1      48.002  30.738  27.529  1.00  0.00     0.031 C 
ATOM     63  C   UNL A   1      45.761  31.436  28.343  1.00  0.00     0.034 A 
BRANCH  50  64
ATOM     64  C   UNL A   1      39.968  29.362  29.263  1.00  0.00     0.023 A 
ATOM     65  C   UNL A   1      39.594  29.458  30.616  1.00  0.00     0.031 A 
ATOM     66  C   UNL A   1      38.954  29.485  28.296  1.00  0.00     0.131 A 
ATOM     67  C   UNL A   1      38.239  29.560  30.967  1.00  0.00     0.055 A 
ATOM     68  C   UNL A   1      37.618  29.686  28.650  1.00  0.00     0.041 A 
ATOM     69  F   UNL A   1      39.238  29.384  26.988  1.00  0.00    -0.206 F 
ATOM     70  C   UNL A   1      37.250  29.702  29.993  1.00  0.00     0.022 A 
BRANCH  67  71
ATOM     71  S   UNL A   1      37.776  29.304  32.703  1.00  0.00     0.124 S 
ATOM     72  O   UNL A   1      36.515  30.037  32.784  1.00  0.00    -0.237 OA
ATOM     73  O   UNL A   1      37.680  27.853  32.793  1.00  0.00    -0.237 OA
ATOM     74  O   UNL A   1      38.884  29.905  33.444  1.00  0.00    -0.744 OA
ENDBRANCH  67  71
ENDBRANCH  50  64
BRANCH  51  75
ATOM     75  C   UNL A   1      49.122  26.986  25.943  1.00  0.00     0.023 A 
ATOM     76  C   UNL A   1      49.502  27.396  24.655  1.00  0.00     0.031 A 
ATOM     77  C   UNL A   1      50.046  26.241  26.698  1.00  0.00     0.131 A 
ATOM     78  C   UNL A   1      50.760  27.033  24.148  1.00  0.00     0.055 A 
ATOM     79  C   UNL A   1      51.313  25.923  26.208  1.00  0.00     0.041 A 
ATOM     80  F   UNL A   1      49.736  25.832  27.938  1.00  0.00    -0.206 F 
ATOM     81  C   UNL A   1      51.673  26.312  24.922  1.00  0.00     0.022 A 
BRANCH  78  82
ATOM     82  S   UNL A   1      51.170  27.474  22.438  1.00  0.00     0.124 S 
ATOM     83  O   UNL A   1      52.550  27.014  22.334  1.00  0.00    -0.237 OA
ATOM     84  O   UNL A   1      50.181  26.713  21.682  1.00  0.00    -0.237 OA
ATOM     85  O   UNL A   1      50.991  28.924  22.408  1.00  0.00    -0.744 OA
ENDBRANCH  78  82
ENDBRANCH  51  75
BRANCH  63  86
ATOM     86  C   UNL A   1      46.354  32.795  28.642  1.00  0.00     0.023 A 
ATOM     87  C   UNL A   1      46.405  33.809  27.669  1.00  0.00     0.031 A 
ATOM     88  C   UNL A   1      46.907  33.066  29.905  1.00  0.00     0.131 A 
ATOM     89  C   UNL A   1      47.061  35.017  27.950  1.00  0.00     0.055 A 
ATOM     90  C   UNL A   1      47.494  34.298  30.203  1.00  0.00     0.041 A 
ATOM     91  F   UNL A   1      46.893  32.136  30.873  1.00  0.00    -0.206 F 
ATOM     92  C   UNL A   1      47.589  35.276  29.217  1.00  0.00     0.022 A 
BRANCH  89  93
ATOM     93  S   UNL A   1      47.327  36.198  26.599  1.00  0.00     0.124 S 
ATOM     94  O   UNL A   1      47.627  35.313  25.478  1.00  0.00    -0.237 OA
ATOM     95  O   UNL A   1      46.047  36.895  26.537  1.00  0.00    -0.237 OA
ATOM     96  O   UNL A   1      48.451  37.008  27.067  1.00  0.00    -0.744 OA
ENDBRANCH  89  93
ENDBRANCH  63  86
ENDBRANCH  37  38
ENDBRANCH  29  32
ENDBRANCH  27  28
ENDBRANCH  26  27
ENDBRANCH   1  26
TORSDOF 17
ENDMDL
MODEL 3
REMARK VINA RESULT:     -11.1      6.180      9.801
REMARK SMILES CC1(C)C[C@@H]([NH2+]C[C@@H]2CCCC[C@@H]2C(=O)NCCCCNC(=O)c2ccc(-c3c4nc(c(-c5cc(S(=O)(=O)[O-])ccc5F)c5ccc([nH]5)c(-c5cc(S(=O)(=O)[O-])ccc5F)c5nc(c(-c6cc(S(=O)(=O)[O-])ccc6F)c6ccc3[nH]6)C=C5)C=C4)cc2)C(C)(C)O1
REMARK SMILES IDX 18 1 17 2 16 3 14 4 15 5 13 7 8 8 9 9 10 10 12 11 11 12 7 13
REMARK SMILES IDX 6 14 5 17 1 18 2 19 3 20 4 21 90 22 87 23 88 24 89 25 19 26
REMARK SMILES IDX 20 27 21 28 22 29 23 31 24 32 25 33 86 34 26 35 85 36 27 37
REMARK SMILES IDX 28 38 29 39 79 40 30 41 84 42 78 43 80 44 31 45 83 46 77 47
REMARK SMILES IDX 76 48 32 50 64 51 44 52 63 53 45 54 48 55 62 56 81 57 46 58
REMARK SMILES IDX 47 59 61 61 82 62 49 63 33 64 34 65 42 66 35 67 41 68 43 69
REMARK SMILES IDX 40 70 36 71 37 72 38 73 39 74 65 75 66 76 74 77 67 78 73 79
REMARK SMILES IDX 75 80 72 81 68 82 69 83 70 84 71 85 50 86 51 87 59 88 52 89
REMARK SMILES IDX 58 90 60 91 57 92 53 93 54 94 55 95 56 96
REMARK H PARENT 16 6 6 15 6 16 21 30 80 49 48 60
REMARK Flexibility Score: inf
ROOT
ATOM      1  C   UNL A   1      39.285  22.995  26.712  1.00  0.00     0.023 C 
ENDROOT
BRANCH   1   2
ATOM      2  C   UNL A   1      38.221  23.896  26.088  1.00  0.00     0.116 C 
BRANCH   2   3
ATOM      3  N   UNL A   1      36.906  23.654  26.650  1.00  0.00    -0.356 N 
ATOM      4  C   UNL A   1      35.787  23.098  26.116  1.00  0.00     0.223 C 
ATOM      5  O   UNL A   1      34.785  23.042  26.831  1.00  0.00    -0.275 OA
ATOM      6  H   UNL A   1      36.807  23.943  27.586  1.00  0.00     0.163 HD
BRANCH   4   7
ATOM      7  C   UNL A   1      35.792  22.562  24.688  1.00  0.00     0.087 C 
ATOM      8  C   UNL A   1      34.574  23.026  23.863  1.00  0.00     0.056 C 
ATOM      9  C   UNL A   1      33.266  22.362  24.310  1.00  0.00     0.010 C 
ATOM     10  C   UNL A   1      33.391  20.844  24.201  1.00  0.00     0.001 C 
ATOM     11  C   UNL A   1      35.880  21.022  24.704  1.00  0.00     0.014 C 
ATOM     12  C   UNL A   1      34.562  20.312  25.018  1.00  0.00     0.001 C 
BRANCH   8  13
ATOM     13  C   UNL A   1      34.416  24.554  23.709  1.00  0.00     0.265 C 
BRANCH  13  14
ATOM     14  N   UNL A   1      34.171  25.282  24.963  1.00  0.00    -0.341 N 
ATOM     15  H   UNL A   1      33.934  24.601  25.685  1.00  0.00     0.346 HD
ATOM     16  H   UNL A   1      35.024  25.802  25.166  1.00  0.00     0.346 HD
BRANCH  14  17
ATOM     17  C   UNL A   1      33.084  26.274  24.895  1.00  0.00     0.217 C 
ATOM     18  C   UNL A   1      31.790  28.847  27.235  1.00  0.00     0.042 C 
ATOM     19  C   UNL A   1      31.906  28.093  25.913  1.00  0.00     0.069 C 
ATOM     20  C   UNL A   1      31.552  29.017  24.744  1.00  0.00     0.042 C 
ATOM     21  C   UNL A   1      33.296  27.505  25.758  1.00  0.00     0.103 C 
ATOM     22  O   UNL A   1      31.002  26.980  25.908  1.00  0.00    -0.363 OA
ATOM     23  C   UNL A   1      31.677  25.807  25.378  1.00  0.00     0.115 C 
ATOM     24  C   UNL A   1      31.717  24.782  26.518  1.00  0.00     0.048 C 
ATOM     25  C   UNL A   1      30.830  25.263  24.228  1.00  0.00     0.048 C 
ENDBRANCH  14  17
ENDBRANCH  13  14
ENDBRANCH   8  13
ENDBRANCH   4   7
ENDBRANCH   2   3
ENDBRANCH   1   2
BRANCH   1  26
ATOM     26  C   UNL A   1      39.441  21.627  26.047  1.00  0.00     0.023 C 
BRANCH  26  27
ATOM     27  C   UNL A   1      40.197  20.587  26.865  1.00  0.00     0.116 C 
BRANCH  27  28
ATOM     28  N   UNL A   1      41.309  19.996  26.139  1.00  0.00    -0.352 N 
ATOM     29  C   UNL A   1      42.498  20.570  25.758  1.00  0.00     0.251 C 
ATOM     30  H   UNL A   1      41.194  19.052  25.884  1.00  0.00     0.163 HD
ATOM     31  O   UNL A   1      43.260  19.952  25.019  1.00  0.00    -0.269 OA
BRANCH  29  32
ATOM     32  C   UNL A   1      42.834  21.939  26.208  1.00  0.00     0.039 A 
ATOM     33  C   UNL A   1      42.782  22.983  25.281  1.00  0.00     0.014 A 
ATOM     34  C   UNL A   1      43.176  22.197  27.538  1.00  0.00     0.014 A 
ATOM     35  C   UNL A   1      43.010  24.293  25.704  1.00  0.00     0.010 A 
ATOM     36  C   UNL A   1      43.320  23.512  27.974  1.00  0.00     0.010 A 
ATOM     37  C   UNL A   1      43.243  24.575  27.061  1.00  0.00    -0.014 A 
BRANCH  37  38
ATOM     38  C   UNL A   1      43.407  25.975  27.534  1.00  0.00     0.031 A 
ATOM     39  C   UNL A   1      44.769  26.614  27.559  1.00  0.00     0.074 A 
ATOM     40  C   UNL A   1      42.336  26.651  27.991  1.00  0.00     0.049 A 
ATOM     41  N   UNL A   1      45.116  27.809  27.963  1.00  0.00    -0.248 NA
ATOM     42  C   UNL A   1      45.891  25.784  27.102  1.00  0.00     0.031 C 
ATOM     43  C   UNL A   1      40.974  26.119  28.077  1.00  0.00     0.029 A 
ATOM     44  N   UNL A   1      42.222  27.930  28.477  1.00  0.00    -0.354 N 
ATOM     45  C   UNL A   1      46.498  27.872  27.818  1.00  0.00     0.074 A 
ATOM     46  C   UNL A   1      46.926  26.565  27.364  1.00  0.00     0.031 C 
ATOM     47  C   UNL A   1      40.159  27.070  28.555  1.00  0.00     0.029 A 
ATOM     48  C   UNL A   1      40.942  28.265  28.851  1.00  0.00     0.049 A 
ATOM     49  H   UNL A   1      42.984  28.547  28.550  1.00  0.00     0.167 HD
ATOM     50  C   UNL A   1      47.329  28.927  28.015  1.00  0.00     0.034 A 
ATOM     51  C   UNL A   1      40.453  29.404  29.381  1.00  0.00     0.034 A 
ATOM     52  C   UNL A   1      46.881  30.222  28.473  1.00  0.00     0.049 A 
ATOM     53  C   UNL A   1      41.390  30.561  29.607  1.00  0.00     0.074 A 
ATOM     54  C   UNL A   1      47.620  31.379  28.651  1.00  0.00     0.029 A 
ATOM     55  N   UNL A   1      45.575  30.528  28.842  1.00  0.00    -0.354 N 
ATOM     56  N   UNL A   1      42.685  30.632  29.395  1.00  0.00    -0.248 NA
ATOM     57  C   UNL A   1      40.795  31.797  30.127  1.00  0.00     0.031 C 
ATOM     58  C   UNL A   1      46.781  32.356  29.200  1.00  0.00     0.029 A 
ATOM     59  C   UNL A   1      45.496  31.842  29.284  1.00  0.00     0.049 A 
ATOM     60  H   UNL A   1      44.816  29.904  28.797  1.00  0.00     0.167 HD
ATOM     61  C   UNL A   1      43.055  31.928  29.741  1.00  0.00     0.074 A 
ATOM     62  C   UNL A   1      41.842  32.609  30.148  1.00  0.00     0.031 C 
ATOM     63  C   UNL A   1      44.287  32.503  29.721  1.00  0.00     0.034 A 
BRANCH  50  64
ATOM     64  C   UNL A   1      48.804  28.698  27.765  1.00  0.00     0.023 A 
ATOM     65  C   UNL A   1      49.383  28.923  26.502  1.00  0.00     0.031 A 
ATOM     66  C   UNL A   1      49.632  28.187  28.779  1.00  0.00     0.131 A 
ATOM     67  C   UNL A   1      50.709  28.537  26.256  1.00  0.00     0.055 A 
ATOM     68  C   UNL A   1      50.980  27.898  28.555  1.00  0.00     0.041 A 
ATOM     69  F   UNL A   1      49.140  27.931  30.002  1.00  0.00    -0.206 F 
ATOM     70  C   UNL A   1      51.521  28.051  27.281  1.00  0.00     0.022 A 
BRANCH  67  71
ATOM     71  S   UNL A   1      51.291  28.496  24.537  1.00  0.00     0.124 S 
ATOM     72  O   UNL A   1      50.140  27.916  23.850  1.00  0.00    -0.237 OA
ATOM     73  O   UNL A   1      51.559  29.902  24.262  1.00  0.00    -0.237 OA
ATOM     74  O   UNL A   1      52.470  27.634  24.596  1.00  0.00    -0.744 OA
ENDBRANCH  67  71
ENDBRANCH  50  64
BRANCH  51  75
ATOM     75  C   UNL A   1      39.009  29.501  29.737  1.00  0.00     0.023 A 
ATOM     76  C   UNL A   1      38.089  30.139  28.889  1.00  0.00     0.031 A 
ATOM     77  C   UNL A   1      38.528  28.955  30.940  1.00  0.00     0.131 A 
ATOM     78  C   UNL A   1      36.742  30.243  29.271  1.00  0.00     0.055 A 
ATOM     79  C   UNL A   1      37.180  29.019  31.293  1.00  0.00     0.041 A 
ATOM     80  F   UNL A   1      39.364  28.327  31.782  1.00  0.00    -0.206 F 
ATOM     81  C   UNL A   1      36.279  29.674  30.460  1.00  0.00     0.022 A 
BRANCH  78  82
ATOM     82  S   UNL A   1      35.607  31.180  28.211  1.00  0.00     0.124 S 
ATOM     83  O   UNL A   1      36.469  32.251  27.724  1.00  0.00    -0.237 OA
ATOM     84  O   UNL A   1      35.210  30.178  27.229  1.00  0.00    -0.237 OA
ATOM     85  O   UNL A   1      34.551  31.598  29.131  1.00  0.00    -0.744 OA
ENDBRANCH  78  82
ENDBRANCH  51  75
BRANCH  63  86
ATOM     86  C   UNL A   1      44.366  33.956  30.136  1.00  0.00     0.023 A 
ATOM     87  C   UNL A   1      44.153  34.999  29.218  1.00  0.00     0.031 A 
ATOM     88  C   UNL A   1      44.694  34.299  31.460  1.00  0.00     0.131 A 
ATOM     89  C   UNL A   1      44.344  36.331  29.615  1.00  0.00     0.055 A 
ATOM     90  C   UNL A   1      44.809  35.630  31.867  1.00  0.00     0.041 A 
ATOM     91  F   UNL A   1      44.913  33.347  32.380  1.00  0.00    -0.206 F 
ATOM     92  C   UNL A   1      44.651  36.654  30.939  1.00  0.00     0.022 A 
BRANCH  89  93
ATOM     93  S   UNL A   1      44.307  37.631  28.350  1.00  0.00     0.124 S 
ATOM     94  O   UNL A   1      43.202  38.467  28.808  1.00  0.00    -0.237 OA
ATOM     95  O   UNL A   1      45.639  38.215  28.464  1.00  0.00    -0.237 OA
ATOM     96  O   UNL A   1      44.056  36.896  27.111  1.00  0.00    -0.744 OA
ENDBRANCH  89  93
ENDBRANCH  63  86
ENDBRANCH  37  38
ENDBRANCH  29  32
ENDBRANCH  27  28
ENDBRANCH  26  27
ENDBRANCH   1  26
TORSDOF 17
ENDMDL
