MODEL 1
REMARK VINA RESULT:     -11.4      0.000      0.000
REMARK SMILES Cc1cc(C(=O)NC[C@@H]2CC[C@H](C(=O)NCCCCNC(=O)c3ccc(-c4c5nc(c(-c6cc(S(=O)(=O)[O-])ccc6F)c6ccc([nH]6)c(-c6cc(S(=O)(=O)[O-])ccc6F)c6nc(c(-c7cc(S(=O)(=O)[O-])ccc7F)c7ccc4[nH]7)C=C6)C=C5)cc3)O2)on1
REMARK SMILES IDX 17 1 16 2 15 3 13 4 14 5 12 7 9 8 10 9 86 10 11 11 8 12 7 13
REMARK SMILES IDX 5 14 6 15 4 17 1 18 2 19 3 20 88 21 87 22 18 23 19 24 20 25
REMARK SMILES IDX 21 26 22 28 23 29 24 30 85 31 25 32 84 33 26 34 27 35 28 36
REMARK SMILES IDX 78 37 29 38 83 39 77 40 79 41 30 42 82 43 76 44 75 45 31 47
REMARK SMILES IDX 63 48 43 49 62 50 44 51 47 52 61 53 80 54 45 55 46 56 60 58
REMARK SMILES IDX 81 59 48 60 32 61 33 62 41 63 34 64 40 65 42 66 39 67 35 68
REMARK SMILES IDX 36 69 37 70 38 71 64 72 65 73 73 74 66 75 72 76 74 77 71 78
REMARK SMILES IDX 67 79 68 80 69 81 70 82 49 83 50 84 58 85 51 86 57 87 59 88
REMARK SMILES IDX 56 89 52 90 53 91 54 92 55 93
REMARK H PARENT 15 6 7 16 20 27 79 46 47 57
REMARK Flexibility Score: inf
ROOT
ATOM      1  C   UNL A   1      31.495  30.559  26.362  1.00  0.00     0.023 C 
ENDROOT
BRANCH   1   2
ATOM      2  C   UNL A   1      32.899  30.085  26.009  1.00  0.00     0.116 C 
BRANCH   2   3
ATOM      3  N   UNL A   1      33.019  29.617  24.651  1.00  0.00    -0.354 N 
ATOM      4  C   UNL A   1      32.245  28.729  23.961  1.00  0.00     0.249 C 
ATOM      5  O   UNL A   1      32.526  28.535  22.774  1.00  0.00    -0.272 OA
ATOM      6  H   UNL A   1      33.774  29.993  24.144  1.00  0.00     0.163 HD
BRANCH   4   7
ATOM      7  C   UNL A   1      31.063  27.970  24.618  1.00  0.00     0.207 C 
ATOM      8  C   UNL A   1      30.157  25.839  24.182  1.00  0.00     0.138 C 
ATOM      9  C   UNL A   1      29.255  26.846  23.478  1.00  0.00     0.037 C 
ATOM     10  O   UNL A   1      31.264  26.563  24.743  1.00  0.00    -0.363 OA
ATOM     11  C   UNL A   1      29.711  28.202  23.966  1.00  0.00     0.045 C 
BRANCH   8  12
ATOM     12  C   UNL A   1      30.749  24.750  23.263  1.00  0.00     0.148 C 
BRANCH  12  13
ATOM     13  N   UNL A   1      31.566  25.305  22.205  1.00  0.00    -0.347 N 
ATOM     14  C   UNL A   1      32.913  25.239  21.945  1.00  0.00     0.289 C 
ATOM     15  O   UNL A   1      33.258  25.694  20.854  1.00  0.00    -0.266 OA
ATOM     16  H   UNL A   1      31.059  25.831  21.545  1.00  0.00     0.164 HD
BRANCH  14  17
ATOM     17  C   UNL A   1      33.853  24.683  22.894  1.00  0.00     0.224 A 
ATOM     18  C   UNL A   1      36.058  23.815  25.696  1.00  0.00     0.070 C 
ATOM     19  C   UNL A   1      35.258  23.981  24.463  1.00  0.00     0.081 A 
ATOM     20  C   UNL A   1      34.354  25.015  24.135  1.00  0.00     0.083 A 
ATOM     21  N   UNL A   1      35.352  23.092  23.472  1.00  0.00    -0.084 NA
ATOM     22  O   UNL A   1      34.477  23.527  22.497  1.00  0.00    -0.351 OA
ENDBRANCH  14  17
ENDBRANCH  12  13
ENDBRANCH   8  12
ENDBRANCH   4   7
ENDBRANCH   2   3
ENDBRANCH   1   2
BRANCH   1  23
ATOM     23  C   UNL A   1      31.374  32.072  26.511  1.00  0.00     0.023 C 
BRANCH  23  24
ATOM     24  C   UNL A   1      32.667  32.784  26.895  1.00  0.00     0.116 C 
BRANCH  24  25
ATOM     25  N   UNL A   1      32.461  33.999  27.674  1.00  0.00    -0.352 N 
ATOM     26  C   UNL A   1      33.233  34.465  28.717  1.00  0.00     0.251 C 
ATOM     27  H   UNL A   1      31.683  34.549  27.427  1.00  0.00     0.163 HD
ATOM     28  O   UNL A   1      32.889  35.452  29.356  1.00  0.00    -0.269 OA
BRANCH  26  29
ATOM     29  C   UNL A   1      34.451  33.706  29.072  1.00  0.00     0.039 A 
ATOM     30  C   UNL A   1      35.703  34.250  28.781  1.00  0.00     0.014 A 
ATOM     31  C   UNL A   1      34.340  32.529  29.817  1.00  0.00     0.014 A 
ATOM     32  C   UNL A   1      36.848  33.660  29.321  1.00  0.00     0.010 A 
ATOM     33  C   UNL A   1      35.472  31.994  30.419  1.00  0.00     0.010 A 
ATOM     34  C   UNL A   1      36.737  32.559  30.188  1.00  0.00    -0.014 A 
BRANCH  34  35
ATOM     35  C   UNL A   1      37.922  31.970  30.867  1.00  0.00     0.031 A 
ATOM     36  C   UNL A   1      38.722  30.908  30.164  1.00  0.00     0.074 A 
ATOM     37  C   UNL A   1      38.225  32.319  32.134  1.00  0.00     0.049 A 
ATOM     38  N   UNL A   1      39.686  30.153  30.625  1.00  0.00    -0.248 NA
ATOM     39  C   UNL A   1      38.364  30.638  28.762  1.00  0.00     0.031 C 
ATOM     40  C   UNL A   1      37.516  33.324  32.930  1.00  0.00     0.029 A 
ATOM     41  N   UNL A   1      39.202  31.858  32.983  1.00  0.00    -0.354 N 
ATOM     42  C   UNL A   1      40.041  29.313  29.576  1.00  0.00     0.074 A 
ATOM     43  C   UNL A   1      39.140  29.603  28.481  1.00  0.00     0.031 C 
ATOM     44  C   UNL A   1      38.095  33.418  34.139  1.00  0.00     0.029 A 
ATOM     45  C   UNL A   1      39.177  32.442  34.231  1.00  0.00     0.049 A 
ATOM     46  H   UNL A   1      39.860  31.173  32.724  1.00  0.00     0.167 HD
ATOM     47  C   UNL A   1      41.044  28.404  29.520  1.00  0.00     0.034 A 
ATOM     48  C   UNL A   1      39.924  32.202  35.328  1.00  0.00     0.034 A 
ATOM     49  C   UNL A   1      41.940  28.132  30.616  1.00  0.00     0.049 A 
ATOM     50  C   UNL A   1      40.994  31.136  35.264  1.00  0.00     0.074 A 
ATOM     51  C   UNL A   1      43.004  27.248  30.659  1.00  0.00     0.029 A 
ATOM     52  N   UNL A   1      41.878  28.741  31.862  1.00  0.00    -0.354 N 
ATOM     53  N   UNL A   1      41.328  30.361  34.256  1.00  0.00    -0.248 NA
ATOM     54  C   UNL A   1      41.789  30.913  36.478  1.00  0.00     0.031 C 
ATOM     55  C   UNL A   1      43.542  27.273  31.949  1.00  0.00     0.029 A 
ATOM     56  C   UNL A   1      42.870  28.234  32.686  1.00  0.00     0.049 A 
ATOM     57  H   UNL A   1      41.225  29.431  32.122  1.00  0.00     0.167 HD
ATOM     58  C   UNL A   1      42.405  29.601  34.704  1.00  0.00     0.074 A 
ATOM     59  C   UNL A   1      42.662  30.005  36.069  1.00  0.00     0.031 C 
ATOM     60  C   UNL A   1      43.125  28.662  34.041  1.00  0.00     0.034 A 
BRANCH  47  61
ATOM     61  C   UNL A   1      41.208  27.629  28.235  1.00  0.00     0.023 A 
ATOM     62  C   UNL A   1      40.845  26.275  28.144  1.00  0.00     0.031 A 
ATOM     63  C   UNL A   1      41.752  28.243  27.093  1.00  0.00     0.131 A 
ATOM     64  C   UNL A   1      41.102  25.558  26.967  1.00  0.00     0.055 A 
ATOM     65  C   UNL A   1      41.923  27.546  25.895  1.00  0.00     0.041 A 
ATOM     66  F   UNL A   1      42.139  29.528  27.125  1.00  0.00    -0.206 F 
ATOM     67  C   UNL A   1      41.611  26.191  25.832  1.00  0.00     0.022 A 
BRANCH  64  68
ATOM     68  S   UNL A   1      40.894  23.757  26.992  1.00  0.00     0.124 S 
ATOM     69  O   UNL A   1      39.442  23.628  26.898  1.00  0.00    -0.237 OA
ATOM     70  O   UNL A   1      41.651  23.335  25.819  1.00  0.00    -0.237 OA
ATOM     71  O   UNL A   1      41.465  23.364  28.279  1.00  0.00    -0.744 OA
ENDBRANCH  64  68
ENDBRANCH  47  61
BRANCH  48  72
ATOM     72  C   UNL A   1      39.695  32.964  36.592  1.00  0.00     0.023 A 
ATOM     73  C   UNL A   1      38.823  32.474  37.578  1.00  0.00     0.031 A 
ATOM     74  C   UNL A   1      40.286  34.221  36.805  1.00  0.00     0.131 A 
ATOM     75  C   UNL A   1      38.517  33.262  38.698  1.00  0.00     0.055 A 
ATOM     76  C   UNL A   1      40.028  34.974  37.953  1.00  0.00     0.041 A 
ATOM     77  F   UNL A   1      41.129  34.739  35.898  1.00  0.00    -0.206 F 
ATOM     78  C   UNL A   1      39.125  34.503  38.900  1.00  0.00     0.022 A 
BRANCH  75  79
ATOM     79  S   UNL A   1      37.218  32.692  39.830  1.00  0.00     0.124 S 
ATOM     80  O   UNL A   1      37.210  33.755  40.828  1.00  0.00    -0.237 OA
ATOM     81  O   UNL A   1      36.057  32.628  38.949  1.00  0.00    -0.237 OA
ATOM     82  O   UNL A   1      37.718  31.401  40.296  1.00  0.00    -0.744 OA
ENDBRANCH  75  79
ENDBRANCH  48  72
BRANCH  60  83
ATOM     83  C   UNL A   1      44.316  28.065  34.750  1.00  0.00     0.023 A 
ATOM     84  C   UNL A   1      44.236  26.856  35.461  1.00  0.00     0.031 A 
ATOM     85  C   UNL A   1      45.564  28.709  34.673  1.00  0.00     0.131 A 
ATOM     86  C   UNL A   1      45.379  26.346  36.097  1.00  0.00     0.055 A 
ATOM     87  C   UNL A   1      46.708  28.170  35.260  1.00  0.00     0.041 A 
ATOM     88  F   UNL A   1      45.695  29.868  34.006  1.00  0.00    -0.206 F 
ATOM     89  C   UNL A   1      46.618  26.985  35.984  1.00  0.00     0.022 A 
BRANCH  86  90
ATOM     90  S   UNL A   1      45.218  24.860  37.124  1.00  0.00     0.124 S 
ATOM     91  O   UNL A   1      44.466  25.361  38.269  1.00  0.00    -0.237 OA
ATOM     92  O   UNL A   1      44.501  23.945  36.241  1.00  0.00    -0.237 OA
ATOM     93  O   UNL A   1      46.603  24.485  37.406  1.00  0.00    -0.744 OA
ENDBRANCH  86  90
ENDBRANCH  60  83
ENDBRANCH  34  35
ENDBRANCH  26  29
ENDBRANCH  24  25
ENDBRANCH  23  24
ENDBRANCH   1  23
TORSDOF 17
ENDMDL
MODEL 2
REMARK VINA RESULT:     -11.3      5.200      8.794
REMARK SMILES Cc1cc(C(=O)NC[C@@H]2CC[C@H](C(=O)NCCCCNC(=O)c3ccc(-c4c5nc(c(-c6cc(S(=O)(=O)[O-])ccc6F)c6ccc([nH]6)c(-c6cc(S(=O)(=O)[O-])ccc6F)c6nc(c(-c7cc(S(=O)(=O)[O-])ccc7F)c7ccc4[nH]7)C=C6)C=C5)cc3)O2)on1
REMARK SMILES IDX 17 1 16 2 15 3 13 4 14 5 12 7 9 8 10 9 86 10 11 11 8 12 7 13
REMARK SMILES IDX 5 14 6 15 4 17 1 18 2 19 3 20 88 21 87 22 18 23 19 24 20 25
REMARK SMILES IDX 21 26 22 28 23 29 24 30 85 31 25 32 84 33 26 34 27 35 28 36
REMARK SMILES IDX 78 37 29 38 83 39 77 40 79 41 30 42 82 43 76 44 75 45 31 47
REMARK SMILES IDX 63 48 43 49 62 50 44 51 47 52 61 53 80 54 45 55 46 56 60 58
REMARK SMILES IDX 81 59 48 60 32 61 33 62 41 63 34 64 40 65 42 66 39 67 35 68
REMARK SMILES IDX 36 69 37 70 38 71 64 72 65 73 73 74 66 75 72 76 74 77 71 78
REMARK SMILES IDX 67 79 68 80 69 81 70 82 49 83 50 84 58 85 51 86 57 87 59 88
REMARK SMILES IDX 56 89 52 90 53 91 54 92 55 93
REMARK H PARENT 15 6 7 16 20 27 79 46 47 57
REMARK Flexibility Score: inf
ROOT
ATOM      1  C   UNL A   1      34.861  21.732  24.729  1.00  0.00     0.023 C 
ENDROOT
BRANCH   1   2
ATOM      2  C   UNL A   1      33.981  21.971  25.950  1.00  0.00     0.116 C 
BRANCH   2   3
ATOM      3  N   UNL A   1      32.679  22.495  25.622  1.00  0.00    -0.354 N 
ATOM      4  C   UNL A   1      32.292  23.780  25.371  1.00  0.00     0.249 C 
ATOM      5  O   UNL A   1      31.114  23.965  25.053  1.00  0.00    -0.272 OA
ATOM      6  H   UNL A   1      31.960  21.825  25.572  1.00  0.00     0.163 HD
BRANCH   4   7
ATOM      7  C   UNL A   1      33.268  24.980  25.486  1.00  0.00     0.207 C 
ATOM      8  C   UNL A   1      32.914  27.294  25.223  1.00  0.00     0.138 C 
ATOM      9  C   UNL A   1      33.516  26.796  23.913  1.00  0.00     0.037 C 
ATOM     10  O   UNL A   1      32.695  26.151  26.065  1.00  0.00    -0.363 OA
ATOM     11  C   UNL A   1      33.952  25.375  24.189  1.00  0.00     0.045 C 
BRANCH   8  12
ATOM     12  C   UNL A   1      31.557  28.014  25.076  1.00  0.00     0.148 C 
BRANCH  12  13
ATOM     13  N   UNL A   1      30.486  27.106  24.724  1.00  0.00    -0.347 N 
ATOM     14  C   UNL A   1      29.500  27.164  23.770  1.00  0.00     0.289 C 
ATOM     15  O   UNL A   1      28.844  26.130  23.632  1.00  0.00    -0.266 OA
ATOM     16  H   UNL A   1      30.459  26.290  25.275  1.00  0.00     0.164 HD
BRANCH  14  17
ATOM     17  C   UNL A   1      29.249  28.359  22.994  1.00  0.00     0.224 A 
ATOM     18  C   UNL A   1      28.040  31.447  21.422  1.00  0.00     0.070 C 
ATOM     19  C   UNL A   1      28.700  30.213  21.904  1.00  0.00     0.081 A 
ATOM     20  C   UNL A   1      28.265  29.322  22.909  1.00  0.00     0.083 A 
ATOM     21  N   UNL A   1      29.850  29.807  21.365  1.00  0.00    -0.084 NA
ATOM     22  O   UNL A   1      30.194  28.655  22.045  1.00  0.00    -0.351 OA
ENDBRANCH  14  17
ENDBRANCH  12  13
ENDBRANCH   8  12
ENDBRANCH   4   7
ENDBRANCH   2   3
ENDBRANCH   1   2
BRANCH   1  23
ATOM     23  C   UNL A   1      35.967  20.708  24.957  1.00  0.00     0.023 C 
BRANCH  23  24
ATOM     24  C   UNL A   1      37.324  21.299  25.325  1.00  0.00     0.116 C 
BRANCH  24  25
ATOM     25  N   UNL A   1      38.361  20.300  25.549  1.00  0.00    -0.352 N 
ATOM     26  C   UNL A   1      39.589  20.488  26.149  1.00  0.00     0.251 C 
ATOM     27  H   UNL A   1      38.163  19.388  25.237  1.00  0.00     0.163 HD
ATOM     28  O   UNL A   1      40.412  19.581  26.183  1.00  0.00    -0.269 OA
BRANCH  26  29
ATOM     29  C   UNL A   1      39.896  21.826  26.696  1.00  0.00     0.039 A 
ATOM     30  C   UNL A   1      40.911  21.958  27.646  1.00  0.00     0.014 A 
ATOM     31  C   UNL A   1      39.273  22.954  26.157  1.00  0.00     0.014 A 
ATOM     32  C   UNL A   1      41.366  23.234  27.988  1.00  0.00     0.010 A 
ATOM     33  C   UNL A   1      39.784  24.215  26.437  1.00  0.00     0.010 A 
ATOM     34  C   UNL A   1      40.843  24.369  27.346  1.00  0.00    -0.014 A 
BRANCH  34  35
ATOM     35  C   UNL A   1      41.375  25.734  27.603  1.00  0.00     0.031 A 
ATOM     36  C   UNL A   1      42.785  26.064  27.198  1.00  0.00     0.074 A 
ATOM     37  C   UNL A   1      40.634  26.640  28.273  1.00  0.00     0.049 A 
ATOM     38  N   UNL A   1      43.499  27.128  27.465  1.00  0.00    -0.248 NA
ATOM     39  C   UNL A   1      43.498  25.043  26.413  1.00  0.00     0.031 C 
ATOM     40  C   UNL A   1      39.258  26.436  28.735  1.00  0.00     0.029 A 
ATOM     41  N   UNL A   1      40.935  27.912  28.695  1.00  0.00    -0.354 N 
ATOM     42  C   UNL A   1      44.745  26.899  26.893  1.00  0.00     0.074 A 
ATOM     43  C   UNL A   1      44.710  25.567  26.328  1.00  0.00     0.031 C 
ATOM     44  C   UNL A   1      38.831  27.549  29.354  1.00  0.00     0.029 A 
ATOM     45  C   UNL A   1      39.916  28.526  29.389  1.00  0.00     0.049 A 
ATOM     46  H   UNL A   1      41.801  28.346  28.518  1.00  0.00     0.167 HD
ATOM     47  C   UNL A   1      45.810  27.733  26.819  1.00  0.00     0.034 A 
ATOM     48  C   UNL A   1      39.868  29.727  30.002  1.00  0.00     0.034 A 
ATOM     49  C   UNL A   1      45.827  29.061  27.379  1.00  0.00     0.049 A 
ATOM     50  C   UNL A   1      41.091  30.613  29.964  1.00  0.00     0.074 A 
ATOM     51  C   UNL A   1      46.844  29.998  27.342  1.00  0.00     0.029 A 
ATOM     52  N   UNL A   1      44.777  29.642  28.077  1.00  0.00    -0.354 N 
ATOM     53  N   UNL A   1      42.258  30.388  29.403  1.00  0.00    -0.248 NA
ATOM     54  C   UNL A   1      40.994  31.916  30.638  1.00  0.00     0.031 C 
ATOM     55  C   UNL A   1      46.437  31.117  28.074  1.00  0.00     0.029 A 
ATOM     56  C   UNL A   1      45.133  30.914  28.494  1.00  0.00     0.049 A 
ATOM     57  H   UNL A   1      43.908  29.213  28.250  1.00  0.00     0.167 HD
ATOM     58  C   UNL A   1      43.009  31.542  29.612  1.00  0.00     0.074 A 
ATOM     59  C   UNL A   1      42.168  32.458  30.352  1.00  0.00     0.031 C 
ATOM     60  C   UNL A   1      44.275  31.824  29.216  1.00  0.00     0.034 A 
BRANCH  47  61
ATOM     61  C   UNL A   1      47.047  27.220  26.123  1.00  0.00     0.023 A 
ATOM     62  C   UNL A   1      48.013  26.464  26.807  1.00  0.00     0.031 A 
ATOM     63  C   UNL A   1      47.275  27.505  24.765  1.00  0.00     0.131 A 
ATOM     64  C   UNL A   1      49.198  26.087  26.158  1.00  0.00     0.055 A 
ATOM     65  C   UNL A   1      48.415  27.050  24.100  1.00  0.00     0.041 A 
ATOM     66  F   UNL A   1      46.399  28.242  24.064  1.00  0.00    -0.206 F 
ATOM     67  C   UNL A   1      49.393  26.349  24.801  1.00  0.00     0.022 A 
BRANCH  64  68
ATOM     68  S   UNL A   1      50.537  25.376  27.152  1.00  0.00     0.124 S 
ATOM     69  O   UNL A   1      51.485  24.971  26.118  1.00  0.00    -0.237 OA
ATOM     70  O   UNL A   1      50.942  26.502  27.986  1.00  0.00    -0.237 OA
ATOM     71  O   UNL A   1      49.890  24.274  27.861  1.00  0.00    -0.744 OA
ENDBRANCH  64  68
ENDBRANCH  47  61
BRANCH  48  72
ATOM     72  C   UNL A   1      38.635  30.173  30.718  1.00  0.00     0.023 A 
ATOM     73  C   UNL A   1      37.611  30.847  30.033  1.00  0.00     0.031 A 
ATOM     74  C   UNL A   1      38.492  29.997  32.105  1.00  0.00     0.131 A 
ATOM     75  C   UNL A   1      36.523  31.376  30.744  1.00  0.00     0.055 A 
ATOM     76  C   UNL A   1      37.375  30.469  32.799  1.00  0.00     0.041 A 
ATOM     77  F   UNL A   1      39.439  29.358  32.812  1.00  0.00    -0.206 F 
ATOM     78  C   UNL A   1      36.390  31.179  32.120  1.00  0.00     0.022 A 
BRANCH  75  79
ATOM     79  S   UNL A   1      35.341  32.431  29.860  1.00  0.00     0.124 S 
ATOM     80  O   UNL A   1      34.413  32.792  30.926  1.00  0.00    -0.237 OA
ATOM     81  O   UNL A   1      36.201  33.501  29.366  1.00  0.00    -0.237 OA
ATOM     82  O   UNL A   1      34.798  31.545  28.833  1.00  0.00    -0.744 OA
ENDBRANCH  75  79
ENDBRANCH  48  72
BRANCH  60  83
ATOM     83  C   UNL A   1      44.803  33.208  29.498  1.00  0.00     0.023 A 
ATOM     84  C   UNL A   1      44.679  34.260  28.575  1.00  0.00     0.031 A 
ATOM     85  C   UNL A   1      45.410  33.481  30.738  1.00  0.00     0.131 A 
ATOM     86  C   UNL A   1      45.187  35.529  28.894  1.00  0.00     0.055 A 
ATOM     87  C   UNL A   1      45.863  34.757  31.071  1.00  0.00     0.041 A 
ATOM     88  F   UNL A   1      45.554  32.511  31.656  1.00  0.00    -0.206 F 
ATOM     89  C   UNL A   1      45.759  35.789  30.143  1.00  0.00     0.022 A 
BRANCH  86  90
ATOM     90  S   UNL A   1      45.139  36.832  27.633  1.00  0.00     0.124 S 
ATOM     91  O   UNL A   1      45.881  36.220  26.535  1.00  0.00    -0.237 OA
ATOM     92  O   UNL A   1      43.707  37.007  27.415  1.00  0.00    -0.237 OA
ATOM     93  O   UNL A   1      45.807  37.961  28.279  1.00  0.00    -0.744 OA
ENDBRANCH  86  90
ENDBRANCH  60  83
ENDBRANCH  34  35
ENDBRANCH  26  29
ENDBRANCH  24  25
ENDBRANCH  23  24
ENDBRANCH   1  23
TORSDOF 17
ENDMDL
MODEL 3
REMARK VINA RESULT:     -11.3      2.448      8.101
REMARK SMILES Cc1cc(C(=O)NC[C@@H]2CC[C@H](C(=O)NCCCCNC(=O)c3ccc(-c4c5nc(c(-c6cc(S(=O)(=O)[O-])ccc6F)c6ccc([nH]6)c(-c6cc(S(=O)(=O)[O-])ccc6F)c6nc(c(-c7cc(S(=O)(=O)[O-])ccc7F)c7ccc4[nH]7)C=C6)C=C5)cc3)O2)on1
REMARK SMILES IDX 17 1 16 2 15 3 13 4 14 5 12 7 9 8 10 9 86 10 11 11 8 12 7 13
REMARK SMILES IDX 5 14 6 15 4 17 1 18 2 19 3 20 88 21 87 22 18 23 19 24 20 25
REMARK SMILES IDX 21 26 22 28 23 29 24 30 85 31 25 32 84 33 26 34 27 35 28 36
REMARK SMILES IDX 78 37 29 38 83 39 77 40 79 41 30 42 82 43 76 44 75 45 31 47
REMARK SMILES IDX 63 48 43 49 62 50 44 51 47 52 61 53 80 54 45 55 46 56 60 58
REMARK SMILES IDX 81 59 48 60 32 61 33 62 41 63 34 64 40 65 42 66 39 67 35 68
REMARK SMILES IDX 36 69 37 70 38 71 64 72 65 73 73 74 66 75 72 76 74 77 71 78
REMARK SMILES IDX 67 79 68 80 69 81 70 82 49 83 50 84 58 85 51 86 57 87 59 88
REMARK SMILES IDX 56 89 52 90 53 91 54 92 55 93
REMARK H PARENT 15 6 7 16 20 27 79 46 47 57
REMARK Flexibility Score: inf
ROOT
ATOM      1  C   UNL A   1      32.011  28.921  25.246  1.00  0.00     0.023 C 
ENDROOT
BRANCH   1   2
ATOM      2  C   UNL A   1      32.485  28.098  26.438  1.00  0.00     0.116 C 
BRANCH   2   3
ATOM      3  N   UNL A   1      31.896  26.783  26.494  1.00  0.00    -0.354 N 
ATOM      4  C   UNL A   1      32.243  25.641  25.831  1.00  0.00     0.249 C 
ATOM      5  O   UNL A   1      31.608  24.617  26.099  1.00  0.00    -0.272 OA
ATOM      6  H   UNL A   1      31.127  26.696  27.102  1.00  0.00     0.163 HD
BRANCH   4   7
ATOM      7  C   UNL A   1      33.374  25.606  24.770  1.00  0.00     0.207 C 
ATOM      8  C   UNL A   1      34.034  23.915  23.268  1.00  0.00     0.138 C 
ATOM      9  C   UNL A   1      34.998  23.848  24.448  1.00  0.00     0.037 C 
ATOM     10  O   UNL A   1      33.037  24.903  23.575  1.00  0.00    -0.363 OA
ATOM     11  C   UNL A   1      34.707  25.080  25.273  1.00  0.00     0.045 C 
BRANCH   8  12
ATOM     12  C   UNL A   1      33.289  22.599  22.967  1.00  0.00     0.148 C 
BRANCH  12  13
ATOM     13  N   UNL A   1      32.330  22.259  23.997  1.00  0.00    -0.347 N 
ATOM     14  C   UNL A   1      32.139  21.124  24.745  1.00  0.00     0.289 C 
ATOM     15  O   UNL A   1      31.323  21.232  25.662  1.00  0.00    -0.266 OA
ATOM     16  H   UNL A   1      31.692  22.982  24.201  1.00  0.00     0.164 HD
BRANCH  14  17
ATOM     17  C   UNL A   1      32.839  19.890  24.463  1.00  0.00     0.224 A 
ATOM     18  C   UNL A   1      34.028  16.578  23.422  1.00  0.00     0.070 C 
ATOM     19  C   UNL A   1      33.753  17.934  23.944  1.00  0.00     0.081 A 
ATOM     20  C   UNL A   1      32.564  18.689  23.843  1.00  0.00     0.083 A 
ATOM     21  N   UNL A   1      34.688  18.599  24.626  1.00  0.00    -0.084 NA
ATOM     22  O   UNL A   1      34.120  19.816  24.947  1.00  0.00    -0.351 OA
ENDBRANCH  14  17
ENDBRANCH  12  13
ENDBRANCH   8  12
ENDBRANCH   4   7
ENDBRANCH   2   3
ENDBRANCH   1   2
BRANCH   1  23
ATOM     23  C   UNL A   1      31.669  30.366  25.592  1.00  0.00     0.023 C 
BRANCH  23  24
ATOM     24  C   UNL A   1      32.146  30.828  26.965  1.00  0.00     0.116 C 
BRANCH  24  25
ATOM     25  N   UNL A   1      32.173  32.276  27.123  1.00  0.00    -0.352 N 
ATOM     26  C   UNL A   1      33.201  33.045  27.627  1.00  0.00     0.251 C 
ATOM     27  H   UNL A   1      31.365  32.762  26.837  1.00  0.00     0.163 HD
ATOM     28  O   UNL A   1      33.054  34.249  27.800  1.00  0.00    -0.269 OA
BRANCH  26  29
ATOM     29  C   UNL A   1      34.458  32.362  28.000  1.00  0.00     0.039 A 
ATOM     30  C   UNL A   1      35.619  33.118  28.171  1.00  0.00     0.014 A 
ATOM     31  C   UNL A   1      34.440  31.002  28.314  1.00  0.00     0.014 A 
ATOM     32  C   UNL A   1      36.743  32.524  28.750  1.00  0.00     0.010 A 
ATOM     33  C   UNL A   1      35.530  30.437  28.965  1.00  0.00     0.010 A 
ATOM     34  C   UNL A   1      36.689  31.194  29.201  1.00  0.00    -0.014 A 
BRANCH  34  35
ATOM     35  C   UNL A   1      37.827  30.559  29.918  1.00  0.00     0.031 A 
ATOM     36  C   UNL A   1      38.104  30.941  31.346  1.00  0.00     0.074 A 
ATOM     37  C   UNL A   1      38.657  29.716  29.270  1.00  0.00     0.049 A 
ATOM     38  N   UNL A   1      39.125  30.635  32.104  1.00  0.00    -0.248 NA
ATOM     39  C   UNL A   1      37.111  31.812  31.995  1.00  0.00     0.031 C 
ATOM     40  C   UNL A   1      38.506  29.279  27.879  1.00  0.00     0.029 A 
ATOM     41  N   UNL A   1      39.802  29.084  29.689  1.00  0.00    -0.354 N 
ATOM     42  C   UNL A   1      38.904  31.284  33.314  1.00  0.00     0.074 A 
ATOM     43  C   UNL A   1      37.690  32.057  33.161  1.00  0.00     0.031 C 
ATOM     44  C   UNL A   1      39.506  28.437  27.570  1.00  0.00     0.029 A 
ATOM     45  C   UNL A   1      40.403  28.315  28.716  1.00  0.00     0.049 A 
ATOM     46  H   UNL A   1      40.161  29.171  30.601  1.00  0.00     0.167 HD
ATOM     47  C   UNL A   1      39.631  31.221  34.456  1.00  0.00     0.034 A 
ATOM     48  C   UNL A   1      41.555  27.614  28.737  1.00  0.00     0.034 A 
ATOM     49  C   UNL A   1      40.834  30.439  34.596  1.00  0.00     0.049 A 
ATOM     50  C   UNL A   1      42.384  27.610  30.001  1.00  0.00     0.074 A 
ATOM     51  C   UNL A   1      41.634  30.285  35.714  1.00  0.00     0.029 A 
ATOM     52  N   UNL A   1      41.410  29.680  33.586  1.00  0.00    -0.354 N 
ATOM     53  N   UNL A   1      42.151  28.217  31.143  1.00  0.00    -0.248 NA
ATOM     54  C   UNL A   1      43.627  26.827  29.983  1.00  0.00     0.031 C 
ATOM     55  C   UNL A   1      42.729  29.489  35.363  1.00  0.00     0.029 A 
ATOM     56  C   UNL A   1      42.567  29.076  34.051  1.00  0.00     0.049 A 
ATOM     57  H   UNL A   1      41.050  29.585  32.675  1.00  0.00     0.167 HD
ATOM     58  C   UNL A   1      43.191  27.843  31.991  1.00  0.00     0.074 A 
ATOM     59  C   UNL A   1      44.053  26.964  31.230  1.00  0.00     0.031 C 
ATOM     60  C   UNL A   1      43.407  28.186  33.285  1.00  0.00     0.034 A 
BRANCH  47  61
ATOM     61  C   UNL A   1      39.147  32.032  35.632  1.00  0.00     0.023 A 
ATOM     62  C   UNL A   1      39.563  33.360  35.828  1.00  0.00     0.031 A 
ATOM     63  C   UNL A   1      38.276  31.469  36.582  1.00  0.00     0.131 A 
ATOM     64  C   UNL A   1      39.175  34.054  36.983  1.00  0.00     0.055 A 
ATOM     65  C   UNL A   1      37.821  32.195  37.684  1.00  0.00     0.041 A 
ATOM     66  F   UNL A   1      37.862  30.197  36.462  1.00  0.00    -0.206 F 
ATOM     67  C   UNL A   1      38.283  33.491  37.898  1.00  0.00     0.022 A 
BRANCH  64  68
ATOM     68  S   UNL A   1      39.967  35.645  37.340  1.00  0.00     0.124 S 
ATOM     69  O   UNL A   1      39.277  36.047  38.563  1.00  0.00    -0.237 OA
ATOM     70  O   UNL A   1      41.369  35.272  37.490  1.00  0.00    -0.237 OA
ATOM     71  O   UNL A   1      39.657  36.454  36.163  1.00  0.00    -0.744 OA
ENDBRANCH  64  68
ENDBRANCH  47  61
BRANCH  48  72
ATOM     72  C   UNL A   1      42.016  26.862  27.532  1.00  0.00     0.023 A 
ATOM     73  C   UNL A   1      41.801  25.478  27.423  1.00  0.00     0.031 A 
ATOM     74  C   UNL A   1      42.738  27.496  26.507  1.00  0.00     0.131 A 
ATOM     75  C   UNL A   1      42.356  24.765  26.348  1.00  0.00     0.055 A 
ATOM     76  C   UNL A   1      43.234  26.793  25.406  1.00  0.00     0.041 A 
ATOM     77  F   UNL A   1      42.974  28.817  26.556  1.00  0.00    -0.206 F 
ATOM     78  C   UNL A   1      43.058  25.415  25.331  1.00  0.00     0.022 A 
BRANCH  75  79
ATOM     79  S   UNL A   1      42.247  22.954  26.363  1.00  0.00     0.124 S 
ATOM     80  O   UNL A   1      43.203  22.610  27.409  1.00  0.00    -0.237 OA
ATOM     81  O   UNL A   1      40.840  22.739  26.682  1.00  0.00    -0.237 OA
ATOM     82  O   UNL A   1      42.642  22.579  25.007  1.00  0.00    -0.744 OA
ENDBRANCH  75  79
ENDBRANCH  48  72
BRANCH  60  83
ATOM     83  C   UNL A   1      44.573  27.543  33.993  1.00  0.00     0.023 A 
ATOM     84  C   UNL A   1      44.445  26.343  34.711  1.00  0.00     0.031 A 
ATOM     85  C   UNL A   1      45.847  28.133  33.908  1.00  0.00     0.131 A 
ATOM     86  C   UNL A   1      45.567  25.788  35.347  1.00  0.00     0.055 A 
ATOM     87  C   UNL A   1      46.969  27.550  34.495  1.00  0.00     0.041 A 
ATOM     88  F   UNL A   1      46.025  29.282  33.234  1.00  0.00    -0.206 F 
ATOM     89  C   UNL A   1      46.832  26.374  35.225  1.00  0.00     0.022 A 
BRANCH  86  90
ATOM     90  S   UNL A   1      45.348  24.316  36.382  1.00  0.00     0.124 S 
ATOM     91  O   UNL A   1      45.880  23.261  35.527  1.00  0.00    -0.237 OA
ATOM     92  O   UNL A   1      46.143  24.641  37.563  1.00  0.00    -0.237 OA
ATOM     93  O   UNL A   1      43.904  24.264  36.606  1.00  0.00    -0.744 OA
ENDBRANCH  86  90
ENDBRANCH  60  83
ENDBRANCH  34  35
ENDBRANCH  26  29
ENDBRANCH  24  25
ENDBRANCH  23  24
ENDBRANCH   1  23
TORSDOF 17
ENDMDL
