MODEL 1
REMARK VINA RESULT:     -12.8      0.000      0.000
REMARK SMILES O=C(NCCCCNC(=O)c1cc(Cl)ccc1NC(=O)c1ccc2c(c1)C(=O)N(Cc1ccco1)C2=O)c1ccc(-c2c3nc(c(-c4cc(S(=O)(=O)[O-])ccc4F)c4ccc([nH]4)c(-c4cc(S(=O)(=O)[O-])ccc4F)c4nc(c(-c5cc(S(=O)(=O)[O-])ccc5F)c5ccc2[nH]5)C=C4)C=C3)cc1
REMARK SMILES IDX 6 1 5 2 4 3 3 4 1 5 2 6 38 8 39 9 100 10 40 11 99 12 41 13
REMARK SMILES IDX 42 14 43 15 93 16 44 17 98 18 92 19 94 20 45 21 97 22 91 23
REMARK SMILES IDX 90 24 46 26 78 27 58 28 77 29 59 30 62 31 76 32 95 33 60 34
REMARK SMILES IDX 61 35 75 37 96 38 63 39 47 40 48 41 56 42 49 43 55 44 57 45
REMARK SMILES IDX 54 46 50 47 51 48 52 49 53 50 79 51 80 52 88 53 81 54 87 55
REMARK SMILES IDX 89 56 86 57 82 58 83 59 84 60 85 61 64 62 65 63 73 64 66 65
REMARK SMILES IDX 72 66 74 67 71 68 67 69 68 70 69 71 70 72 7 73 8 74 9 75
REMARK SMILES IDX 10 77 11 78 12 79 17 80 13 81 16 82 14 83 15 84 18 85 19 86
REMARK SMILES IDX 20 88 21 89 22 90 26 91 23 92 25 93 24 94 27 95 36 96 28 97
REMARK SMILES IDX 29 98 37 99 30 100 31 101 32 102 35 103 33 104 34 105
REMARK H PARENT 3 7 94 25 62 36 8 76 18 87
REMARK Flexibility Score: inf
ROOT
ATOM      1  C   UNL A   1      31.698  27.167  26.195  1.00  0.00     0.023 C 
ENDROOT
BRANCH   1   2
ATOM      2  C   UNL A   1      32.128  28.432  26.932  1.00  0.00     0.023 C 
BRANCH   2   3
ATOM      3  C   UNL A   1      32.925  29.428  26.097  1.00  0.00     0.116 C 
BRANCH   3   4
ATOM      4  N   UNL A   1      32.615  30.813  26.420  1.00  0.00    -0.352 N 
ATOM      5  O   UNL A   1      32.780  32.771  27.522  1.00  0.00    -0.269 OA
ATOM      6  C   UNL A   1      33.274  31.678  27.260  1.00  0.00     0.251 C 
ATOM      7  H   UNL A   1      31.820  31.183  25.972  1.00  0.00     0.163 HD
BRANCH   6   8
ATOM      8  C   UNL A   1      34.563  31.277  27.863  1.00  0.00     0.039 A 
ATOM      9  C   UNL A   1      34.754  29.981  28.349  1.00  0.00     0.014 A 
ATOM     10  C   UNL A   1      35.592  32.218  27.947  1.00  0.00     0.014 A 
ATOM     11  C   UNL A   1      35.918  29.665  29.043  1.00  0.00     0.010 A 
ATOM     12  C   UNL A   1      36.793  31.873  28.571  1.00  0.00     0.010 A 
ATOM     13  C   UNL A   1      36.954  30.604  29.150  1.00  0.00    -0.014 A 
BRANCH  13  14
ATOM     14  C   UNL A   1      38.222  30.247  29.840  1.00  0.00     0.031 A 
ATOM     15  C   UNL A   1      39.171  29.254  29.231  1.00  0.00     0.074 A 
ATOM     16  C   UNL A   1      38.498  30.801  31.035  1.00  0.00     0.049 A 
ATOM     17  N   UNL A   1      40.260  28.733  29.735  1.00  0.00    -0.248 NA
ATOM     18  C   UNL A   1      38.840  28.774  27.882  1.00  0.00     0.031 C 
ATOM     19  C   UNL A   1      37.660  31.790  31.717  1.00  0.00     0.029 A 
ATOM     20  N   UNL A   1      39.549  30.605  31.895  1.00  0.00    -0.354 N 
ATOM     21  C   UNL A   1      40.737  27.845  28.777  1.00  0.00     0.074 A 
ATOM     22  C   UNL A   1      39.791  27.874  27.679  1.00  0.00     0.031 C 
ATOM     23  C   UNL A   1      38.232  32.119  32.884  1.00  0.00     0.029 A 
ATOM     24  C   UNL A   1      39.430  31.309  33.070  1.00  0.00     0.049 A 
ATOM     25  H   UNL A   1      40.312  30.018  31.691  1.00  0.00     0.167 HD
ATOM     26  C   UNL A   1      41.860  27.083  28.813  1.00  0.00     0.034 A 
ATOM     27  C   UNL A   1      40.171  31.274  34.195  1.00  0.00     0.034 A 
ATOM     28  C   UNL A   1      42.777  27.063  29.929  1.00  0.00     0.049 A 
ATOM     29  C   UNL A   1      41.366  30.361  34.252  1.00  0.00     0.074 A 
ATOM     30  C   UNL A   1      43.958  26.352  30.062  1.00  0.00     0.029 A 
ATOM     31  N   UNL A   1      42.608  27.769  31.116  1.00  0.00    -0.354 N 
ATOM     32  N   UNL A   1      41.812  29.529  33.339  1.00  0.00    -0.248 NA
ATOM     33  C   UNL A   1      42.162  30.384  35.485  1.00  0.00     0.031 C 
ATOM     34  C   UNL A   1      44.450  26.554  31.356  1.00  0.00     0.029 A 
ATOM     35  C   UNL A   1      43.638  27.476  31.997  1.00  0.00     0.049 A 
ATOM     36  H   UNL A   1      41.864  28.386  31.302  1.00  0.00     0.167 HD
ATOM     37  C   UNL A   1      42.962  28.958  33.873  1.00  0.00     0.074 A 
ATOM     38  C   UNL A   1      43.137  29.536  35.191  1.00  0.00     0.031 C 
ATOM     39  C   UNL A   1      43.805  28.052  33.314  1.00  0.00     0.034 A 
BRANCH  26  40
ATOM     40  C   UNL A   1      42.114  26.164  27.637  1.00  0.00     0.023 A 
ATOM     41  C   UNL A   1      41.688  24.825  27.635  1.00  0.00     0.031 A 
ATOM     42  C   UNL A   1      42.843  26.619  26.522  1.00  0.00     0.131 A 
ATOM     43  C   UNL A   1      42.083  23.965  26.599  1.00  0.00     0.055 A 
ATOM     44  C   UNL A   1      43.145  25.784  25.445  1.00  0.00     0.041 A 
ATOM     45  F   UNL A   1      43.297  27.882  26.469  1.00  0.00    -0.206 F 
ATOM     46  C   UNL A   1      42.785  24.440  25.490  1.00  0.00     0.022 A 
BRANCH  43  47
ATOM     47  S   UNL A   1      41.842  22.180  26.824  1.00  0.00     0.124 S 
ATOM     48  O   UNL A   1      40.493  22.131  27.382  1.00  0.00    -0.237 OA
ATOM     49  O   UNL A   1      41.990  21.669  25.466  1.00  0.00    -0.237 OA
ATOM     50  O   UNL A   1      42.905  21.805  27.754  1.00  0.00    -0.744 OA
ENDBRANCH  43  47
ENDBRANCH  26  40
BRANCH  27  51
ATOM     51  C   UNL A   1      39.765  32.097  35.368  1.00  0.00     0.023 A 
ATOM     52  C   UNL A   1      38.897  31.592  36.346  1.00  0.00     0.031 A 
ATOM     53  C   UNL A   1      40.259  33.405  35.532  1.00  0.00     0.131 A 
ATOM     54  C   UNL A   1      38.529  32.399  37.434  1.00  0.00     0.055 A 
ATOM     55  C   UNL A   1      39.933  34.183  36.642  1.00  0.00     0.041 A 
ATOM     56  F   UNL A   1      41.097  33.933  34.625  1.00  0.00    -0.206 F 
ATOM     57  C   UNL A   1      39.056  33.684  37.598  1.00  0.00     0.022 A 
BRANCH  54  58
ATOM     58  S   UNL A   1      37.302  31.767  38.609  1.00  0.00     0.124 S 
ATOM     59  O   UNL A   1      38.027  31.857  39.871  1.00  0.00    -0.237 OA
ATOM     60  O   UNL A   1      36.200  32.707  38.432  1.00  0.00    -0.237 OA
ATOM     61  O   UNL A   1      37.042  30.410  38.132  1.00  0.00    -0.744 OA
ENDBRANCH  54  58
ENDBRANCH  27  51
BRANCH  39  62
ATOM     62  C   UNL A   1      45.044  27.679  34.093  1.00  0.00     0.023 A 
ATOM     63  C   UNL A   1      45.104  26.542  34.916  1.00  0.00     0.031 A 
ATOM     64  C   UNL A   1      46.201  28.474  33.976  1.00  0.00     0.131 A 
ATOM     65  C   UNL A   1      46.288  26.250  35.615  1.00  0.00     0.055 A 
ATOM     66  C   UNL A   1      47.391  28.144  34.624  1.00  0.00     0.041 A 
ATOM     67  F   UNL A   1      46.196  29.577  33.209  1.00  0.00    -0.206 F 
ATOM     68  C   UNL A   1      47.437  27.030  35.456  1.00  0.00     0.022 A 
BRANCH  65  69
ATOM     69  S   UNL A   1      46.292  24.870  36.793  1.00  0.00     0.124 S 
ATOM     70  O   UNL A   1      45.840  23.760  35.960  1.00  0.00    -0.237 OA
ATOM     71  O   UNL A   1      47.687  24.823  37.217  1.00  0.00    -0.237 OA
ATOM     72  O   UNL A   1      45.346  25.295  37.823  1.00  0.00    -0.744 OA
ENDBRANCH  65  69
ENDBRANCH  39  62
ENDBRANCH  13  14
ENDBRANCH   6   8
ENDBRANCH   3   4
ENDBRANCH   2   3
ENDBRANCH   1   2
BRANCH   1  73
ATOM     73  C   UNL A   1      32.747  26.061  26.150  1.00  0.00     0.116 C 
BRANCH  73  74
ATOM     74  N   UNL A   1      32.219  24.758  26.537  1.00  0.00    -0.352 N 
ATOM     75  C   UNL A   1      32.726  23.509  26.264  1.00  0.00     0.253 C 
ATOM     76  H   UNL A   1      31.388  24.774  27.065  1.00  0.00     0.163 HD
ATOM     77  O   UNL A   1      32.098  22.488  26.521  1.00  0.00    -0.269 OA
BRANCH  75  78
ATOM     78  C   UNL A   1      34.025  23.415  25.573  1.00  0.00     0.064 A 
ATOM     79  C   UNL A   1      35.181  23.758  26.293  1.00  0.00     0.036 A 
ATOM     80  C   UNL A   1      34.081  23.089  24.207  1.00  0.00     0.054 A 
ATOM     81  C   UNL A   1      36.375  23.940  25.613  1.00  0.00     0.041 A 
ATOM     82  C   UNL A   1      35.263  23.407  23.535  1.00  0.00     0.028 A 
ATOM     83  Cl  UNL A   1      37.788  24.413  26.467  1.00  0.00    -0.084 Cl
ATOM     84  C   UNL A   1      36.410  23.812  24.229  1.00  0.00     0.023 A 
BRANCH  80  85
ATOM     85  N   UNL A   1      32.964  22.465  23.590  1.00  0.00    -0.321 N 
ATOM     86  C   UNL A   1      31.742  22.946  23.163  1.00  0.00     0.255 C 
ATOM     87  H   UNL A   1      33.084  21.500  23.437  1.00  0.00     0.170 HD
ATOM     88  O   UNL A   1      30.867  22.191  22.750  1.00  0.00    -0.269 OA
BRANCH  86  89
ATOM     89  C   UNL A   1      31.447  24.392  23.166  1.00  0.00     0.041 A 
ATOM     90  C   UNL A   1      32.327  25.236  22.450  1.00  0.00     0.015 A 
ATOM     91  C   UNL A   1      30.270  24.883  23.754  1.00  0.00     0.028 A 
ATOM     92  C   UNL A   1      31.977  26.562  22.193  1.00  0.00     0.015 A 
ATOM     93  C   UNL A   1      29.938  26.189  23.454  1.00  0.00     0.054 A 
ATOM     94  C   UNL A   1      30.754  26.991  22.675  1.00  0.00     0.053 A 
ATOM     95  C   UNL A   1      28.690  26.919  23.679  1.00  0.00     0.261 C 
ATOM     96  C   UNL A   1      30.018  28.217  22.384  1.00  0.00     0.261 C 
ATOM     97  O   UNL A   1      27.725  26.448  24.251  1.00  0.00    -0.269 OA
ATOM     98  N   UNL A   1      28.826  28.123  23.048  1.00  0.00    -0.267 N 
ATOM     99  O   UNL A   1      30.416  29.078  21.626  1.00  0.00    -0.269 OA
BRANCH  98 100
ATOM    100  C   UNL A   1      27.773  29.111  22.953  1.00  0.00     0.204 C 
BRANCH 100 101
ATOM    101  C   UNL A   1      28.352  30.477  23.050  1.00  0.00     0.123 A 
ATOM    102  C   UNL A   1      29.149  31.106  23.987  1.00  0.00     0.047 A 
ATOM    103  O   UNL A   1      28.094  31.331  22.018  1.00  0.00    -0.467 OA
ATOM    104  C   UNL A   1      29.372  32.418  23.511  1.00  0.00     0.042 A 
ATOM    105  C   UNL A   1      28.716  32.503  22.307  1.00  0.00     0.195 A 
ENDBRANCH 100 101
ENDBRANCH  98 100
ENDBRANCH  86  89
ENDBRANCH  80  85
ENDBRANCH  75  78
ENDBRANCH  73  74
ENDBRANCH   1  73
TORSDOF 18
ENDMDL
MODEL 2
REMARK VINA RESULT:     -12.5      2.622      8.592
REMARK SMILES O=C(NCCCCNC(=O)c1cc(Cl)ccc1NC(=O)c1ccc2c(c1)C(=O)N(Cc1ccco1)C2=O)c1ccc(-c2c3nc(c(-c4cc(S(=O)(=O)[O-])ccc4F)c4ccc([nH]4)c(-c4cc(S(=O)(=O)[O-])ccc4F)c4nc(c(-c5cc(S(=O)(=O)[O-])ccc5F)c5ccc2[nH]5)C=C4)C=C3)cc1
REMARK SMILES IDX 6 1 5 2 4 3 3 4 1 5 2 6 38 8 39 9 100 10 40 11 99 12 41 13
REMARK SMILES IDX 42 14 43 15 93 16 44 17 98 18 92 19 94 20 45 21 97 22 91 23
REMARK SMILES IDX 90 24 46 26 78 27 58 28 77 29 59 30 62 31 76 32 95 33 60 34
REMARK SMILES IDX 61 35 75 37 96 38 63 39 47 40 48 41 56 42 49 43 55 44 57 45
REMARK SMILES IDX 54 46 50 47 51 48 52 49 53 50 79 51 80 52 88 53 81 54 87 55
REMARK SMILES IDX 89 56 86 57 82 58 83 59 84 60 85 61 64 62 65 63 73 64 66 65
REMARK SMILES IDX 72 66 74 67 71 68 67 69 68 70 69 71 70 72 7 73 8 74 9 75
REMARK SMILES IDX 10 77 11 78 12 79 17 80 13 81 16 82 14 83 15 84 18 85 19 86
REMARK SMILES IDX 20 88 21 89 22 90 26 91 23 92 25 93 24 94 27 95 36 96 28 97
REMARK SMILES IDX 29 98 37 99 30 100 31 101 32 102 35 103 33 104 34 105
REMARK H PARENT 3 7 94 25 62 36 8 76 18 87
REMARK Flexibility Score: inf
ROOT
ATOM      1  C   UNL A   1      33.598  27.412  26.675  1.00  0.00     0.023 C 
ENDROOT
BRANCH   1   2
ATOM      2  C   UNL A   1      33.223  28.846  27.032  1.00  0.00     0.023 C 
BRANCH   2   3
ATOM      3  C   UNL A   1      34.347  29.865  26.880  1.00  0.00     0.116 C 
BRANCH   3   4
ATOM      4  N   UNL A   1      34.042  31.142  27.510  1.00  0.00    -0.352 N 
ATOM      5  O   UNL A   1      34.201  32.788  29.040  1.00  0.00    -0.269 OA
ATOM      6  C   UNL A   1      34.691  31.779  28.540  1.00  0.00     0.251 C 
ATOM      7  H   UNL A   1      33.260  31.617  27.147  1.00  0.00     0.163 HD
BRANCH   6   8
ATOM      8  C   UNL A   1      35.964  31.232  29.057  1.00  0.00     0.039 A 
ATOM      9  C   UNL A   1      37.190  31.756  28.640  1.00  0.00     0.014 A 
ATOM     10  C   UNL A   1      35.925  30.173  29.968  1.00  0.00     0.014 A 
ATOM     11  C   UNL A   1      38.375  31.136  29.022  1.00  0.00     0.010 A 
ATOM     12  C   UNL A   1      37.118  29.604  30.416  1.00  0.00     0.010 A 
ATOM     13  C   UNL A   1      38.353  30.061  29.924  1.00  0.00    -0.014 A 
BRANCH  13  14
ATOM     14  C   UNL A   1      39.622  29.436  30.379  1.00  0.00     0.031 A 
ATOM     15  C   UNL A   1      40.397  30.023  31.524  1.00  0.00     0.074 A 
ATOM     16  C   UNL A   1      40.089  28.352  29.731  1.00  0.00     0.049 A 
ATOM     17  N   UNL A   1      41.574  29.689  31.985  1.00  0.00    -0.248 NA
ATOM     18  C   UNL A   1      39.766  31.144  32.235  1.00  0.00     0.031 C 
ATOM     19  C   UNL A   1      39.416  27.684  28.615  1.00  0.00     0.029 A 
ATOM     20  N   UNL A   1      41.242  27.629  29.905  1.00  0.00    -0.354 N 
ATOM     21  C   UNL A   1      41.841  30.571  33.026  1.00  0.00     0.074 A 
ATOM     22  C   UNL A   1      40.714  31.479  33.099  1.00  0.00     0.031 C 
ATOM     23  C   UNL A   1      40.163  26.647  28.211  1.00  0.00     0.029 A 
ATOM     24  C   UNL A   1      41.401  26.624  28.981  1.00  0.00     0.049 A 
ATOM     25  H   UNL A   1      41.893  27.813  30.621  1.00  0.00     0.167 HD
ATOM     26  C   UNL A   1      42.924  30.614  33.843  1.00  0.00     0.034 A 
ATOM     27  C   UNL A   1      42.444  25.805  28.742  1.00  0.00     0.034 A 
ATOM     28  C   UNL A   1      44.043  29.705  33.738  1.00  0.00     0.049 A 
ATOM     29  C   UNL A   1      43.672  25.920  29.603  1.00  0.00     0.074 A 
ATOM     30  C   UNL A   1      45.178  29.639  34.528  1.00  0.00     0.029 A 
ATOM     31  N   UNL A   1      44.180  28.717  32.768  1.00  0.00    -0.354 N 
ATOM     32  N   UNL A   1      43.913  26.754  30.589  1.00  0.00    -0.248 NA
ATOM     33  C   UNL A   1      44.767  24.983  29.327  1.00  0.00     0.031 C 
ATOM     34  C   UNL A   1      46.038  28.679  33.983  1.00  0.00     0.029 A 
ATOM     35  C   UNL A   1      45.397  28.068  32.917  1.00  0.00     0.049 A 
ATOM     36  H   UNL A   1      43.511  28.509  32.077  1.00  0.00     0.167 HD
ATOM     37  C   UNL A   1      45.171  26.416  31.074  1.00  0.00     0.074 A 
ATOM     38  C   UNL A   1      45.642  25.307  30.269  1.00  0.00     0.031 C 
ATOM     39  C   UNL A   1      45.864  26.964  32.106  1.00  0.00     0.034 A 
BRANCH  26  40
ATOM     40  C   UNL A   1      42.973  31.720  34.875  1.00  0.00     0.023 A 
ATOM     41  C   UNL A   1      42.272  31.634  36.091  1.00  0.00     0.031 A 
ATOM     42  C   UNL A   1      43.686  32.906  34.616  1.00  0.00     0.131 A 
ATOM     43  C   UNL A   1      42.211  32.745  36.946  1.00  0.00     0.055 A 
ATOM     44  C   UNL A   1      43.705  33.970  35.519  1.00  0.00     0.041 A 
ATOM     45  F   UNL A   1      44.360  33.062  33.465  1.00  0.00    -0.206 F 
ATOM     46  C   UNL A   1      42.945  33.903  36.684  1.00  0.00     0.022 A 
BRANCH  43  47
ATOM     47  S   UNL A   1      40.999  32.725  38.297  1.00  0.00     0.124 S 
ATOM     48  O   UNL A   1      40.820  34.152  38.556  1.00  0.00    -0.237 OA
ATOM     49  O   UNL A   1      39.864  32.039  37.692  1.00  0.00    -0.237 OA
ATOM     50  O   UNL A   1      41.683  31.990  39.359  1.00  0.00    -0.744 OA
ENDBRANCH  43  47
ENDBRANCH  26  40
BRANCH  27  51
ATOM     51  C   UNL A   1      42.377  24.844  27.606  1.00  0.00     0.023 A 
ATOM     52  C   UNL A   1      41.613  23.671  27.688  1.00  0.00     0.031 A 
ATOM     53  C   UNL A   1      43.071  25.101  26.408  1.00  0.00     0.131 A 
ATOM     54  C   UNL A   1      41.580  22.785  26.600  1.00  0.00     0.055 A 
ATOM     55  C   UNL A   1      42.991  24.243  25.311  1.00  0.00     0.041 A 
ATOM     56  F   UNL A   1      43.812  26.213  26.278  1.00  0.00    -0.206 F 
ATOM     57  C   UNL A   1      42.248  23.072  25.407  1.00  0.00     0.022 A 
BRANCH  54  58
ATOM     58  S   UNL A   1      40.694  21.214  26.786  1.00  0.00     0.124 S 
ATOM     59  O   UNL A   1      41.495  20.323  25.955  1.00  0.00    -0.237 OA
ATOM     60  O   UNL A   1      40.770  20.991  28.226  1.00  0.00    -0.237 OA
ATOM     61  O   UNL A   1      39.358  21.515  26.276  1.00  0.00    -0.744 OA
ENDBRANCH  54  58
ENDBRANCH  27  51
BRANCH  39  62
ATOM     62  C   UNL A   1      47.181  26.325  32.479  1.00  0.00     0.023 A 
ATOM     63  C   UNL A   1      47.268  25.243  33.371  1.00  0.00     0.031 A 
ATOM     64  C   UNL A   1      48.371  26.800  31.896  1.00  0.00     0.131 A 
ATOM     65  C   UNL A   1      48.524  24.692  33.678  1.00  0.00     0.055 A 
ATOM     66  C   UNL A   1      49.607  26.210  32.158  1.00  0.00     0.041 A 
ATOM     67  F   UNL A   1      48.347  27.838  31.044  1.00  0.00    -0.206 F 
ATOM     68  C   UNL A   1      49.690  25.154  33.060  1.00  0.00     0.022 A 
BRANCH  65  69
ATOM     69  S   UNL A   1      48.630  23.403  34.950  1.00  0.00     0.124 S 
ATOM     70  O   UNL A   1      48.764  24.193  36.170  1.00  0.00    -0.237 OA
ATOM     71  O   UNL A   1      47.366  22.694  34.785  1.00  0.00    -0.237 OA
ATOM     72  O   UNL A   1      49.820  22.643  34.572  1.00  0.00    -0.744 OA
ENDBRANCH  65  69
ENDBRANCH  39  62
ENDBRANCH  13  14
ENDBRANCH   6   8
ENDBRANCH   3   4
ENDBRANCH   2   3
ENDBRANCH   1   2
BRANCH   1  73
ATOM     73  C   UNL A   1      33.196  26.972  25.271  1.00  0.00     0.116 C 
BRANCH  73  74
ATOM     74  N   UNL A   1      34.033  27.556  24.229  1.00  0.00    -0.352 N 
ATOM     75  C   UNL A   1      33.649  28.262  23.113  1.00  0.00     0.253 C 
ATOM     76  H   UNL A   1      35.003  27.429  24.339  1.00  0.00     0.163 HD
ATOM     77  O   UNL A   1      34.449  28.567  22.236  1.00  0.00    -0.269 OA
BRANCH  75  78
ATOM     78  C   UNL A   1      32.220  28.585  22.944  1.00  0.00     0.064 A 
ATOM     79  C   UNL A   1      31.699  29.668  23.671  1.00  0.00     0.036 A 
ATOM     80  C   UNL A   1      31.395  27.764  22.156  1.00  0.00     0.054 A 
ATOM     81  C   UNL A   1      30.325  29.836  23.747  1.00  0.00     0.041 A 
ATOM     82  C   UNL A   1      30.017  27.881  22.360  1.00  0.00     0.028 A 
ATOM     83  Cl  UNL A   1      29.666  31.122  24.675  1.00  0.00    -0.084 Cl
ATOM     84  C   UNL A   1      29.481  28.918  23.133  1.00  0.00     0.023 A 
BRANCH  80  85
ATOM     85  N   UNL A   1      31.982  26.880  21.213  1.00  0.00    -0.321 N 
ATOM     86  C   UNL A   1      32.486  25.599  21.320  1.00  0.00     0.255 C 
ATOM     87  H   UNL A   1      32.042  27.253  20.304  1.00  0.00     0.170 HD
ATOM     88  O   UNL A   1      33.058  25.057  20.378  1.00  0.00    -0.269 OA
BRANCH  86  89
ATOM     89  C   UNL A   1      32.338  24.822  22.565  1.00  0.00     0.041 A 
ATOM     90  C   UNL A   1      31.040  24.718  23.116  1.00  0.00     0.015 A 
ATOM     91  C   UNL A   1      33.425  24.114  23.102  1.00  0.00     0.028 A 
ATOM     92  C   UNL A   1      30.777  23.799  24.132  1.00  0.00     0.015 A 
ATOM     93  C   UNL A   1      33.126  23.192  24.085  1.00  0.00     0.054 A 
ATOM     94  C   UNL A   1      31.837  23.022  24.562  1.00  0.00     0.053 A 
ATOM     95  C   UNL A   1      33.952  22.133  24.666  1.00  0.00     0.261 C 
ATOM     96  C   UNL A   1      31.837  21.845  25.424  1.00  0.00     0.261 C 
ATOM     97  O   UNL A   1      35.118  21.945  24.372  1.00  0.00    -0.269 OA
ATOM     98  N   UNL A   1      33.130  21.400  25.475  1.00  0.00    -0.267 N 
ATOM     99  O   UNL A   1      30.833  21.363  25.907  1.00  0.00    -0.269 OA
BRANCH  98 100
ATOM    100  C   UNL A   1      33.539  20.198  26.170  1.00  0.00     0.204 C 
BRANCH 100 101
ATOM    101  C   UNL A   1      33.368  19.018  25.281  1.00  0.00     0.123 A 
ATOM    102  C   UNL A   1      34.166  18.434  24.315  1.00  0.00     0.047 A 
ATOM    103  O   UNL A   1      32.210  18.310  25.412  1.00  0.00    -0.467 OA
ATOM    104  C   UNL A   1      33.447  17.324  23.817  1.00  0.00     0.042 A 
ATOM    105  C   UNL A   1      32.268  17.287  24.521  1.00  0.00     0.195 A 
ENDBRANCH 100 101
ENDBRANCH  98 100
ENDBRANCH  86  89
ENDBRANCH  80  85
ENDBRANCH  75  78
ENDBRANCH  73  74
ENDBRANCH   1  73
TORSDOF 18
ENDMDL
MODEL 3
REMARK VINA RESULT:     -12.3      3.191      5.751
REMARK SMILES O=C(NCCCCNC(=O)c1cc(Cl)ccc1NC(=O)c1ccc2c(c1)C(=O)N(Cc1ccco1)C2=O)c1ccc(-c2c3nc(c(-c4cc(S(=O)(=O)[O-])ccc4F)c4ccc([nH]4)c(-c4cc(S(=O)(=O)[O-])ccc4F)c4nc(c(-c5cc(S(=O)(=O)[O-])ccc5F)c5ccc2[nH]5)C=C4)C=C3)cc1
REMARK SMILES IDX 6 1 5 2 4 3 3 4 1 5 2 6 38 8 39 9 100 10 40 11 99 12 41 13
REMARK SMILES IDX 42 14 43 15 93 16 44 17 98 18 92 19 94 20 45 21 97 22 91 23
REMARK SMILES IDX 90 24 46 26 78 27 58 28 77 29 59 30 62 31 76 32 95 33 60 34
REMARK SMILES IDX 61 35 75 37 96 38 63 39 47 40 48 41 56 42 49 43 55 44 57 45
REMARK SMILES IDX 54 46 50 47 51 48 52 49 53 50 79 51 80 52 88 53 81 54 87 55
REMARK SMILES IDX 89 56 86 57 82 58 83 59 84 60 85 61 64 62 65 63 73 64 66 65
REMARK SMILES IDX 72 66 74 67 71 68 67 69 68 70 69 71 70 72 7 73 8 74 9 75
REMARK SMILES IDX 10 77 11 78 12 79 17 80 13 81 16 82 14 83 15 84 18 85 19 86
REMARK SMILES IDX 20 88 21 89 22 90 26 91 23 92 25 93 24 94 27 95 36 96 28 97
REMARK SMILES IDX 29 98 37 99 30 100 31 101 32 102 35 103 33 104 34 105
REMARK H PARENT 3 7 94 25 62 36 8 76 18 87
REMARK Flexibility Score: inf
ROOT
ATOM      1  C   UNL A   1      34.617  30.573  27.610  1.00  0.00     0.023 C 
ENDROOT
BRANCH   1   2
ATOM      2  C   UNL A   1      33.431  31.529  27.700  1.00  0.00     0.023 C 
BRANCH   2   3
ATOM      3  C   UNL A   1      33.700  32.942  27.196  1.00  0.00     0.116 C 
BRANCH   3   4
ATOM      4  N   UNL A   1      33.064  33.965  28.014  1.00  0.00    -0.352 N 
ATOM      5  O   UNL A   1      32.632  35.159  29.875  1.00  0.00    -0.269 OA
ATOM      6  C   UNL A   1      33.376  34.379  29.286  1.00  0.00     0.251 C 
ATOM      7  H   UNL A   1      32.301  34.427  27.595  1.00  0.00     0.163 HD
BRANCH   6   8
ATOM      8  C   UNL A   1      34.593  33.864  29.948  1.00  0.00     0.039 A 
ATOM      9  C   UNL A   1      35.851  34.393  29.647  1.00  0.00     0.014 A 
ATOM     10  C   UNL A   1      34.470  32.830  30.880  1.00  0.00     0.014 A 
ATOM     11  C   UNL A   1      36.996  33.799  30.168  1.00  0.00     0.010 A 
ATOM     12  C   UNL A   1      35.617  32.290  31.466  1.00  0.00     0.010 A 
ATOM     13  C   UNL A   1      36.891  32.749  31.093  1.00  0.00    -0.014 A 
BRANCH  13  14
ATOM     14  C   UNL A   1      38.112  32.154  31.695  1.00  0.00     0.031 A 
ATOM     15  C   UNL A   1      38.863  31.064  30.985  1.00  0.00     0.074 A 
ATOM     16  C   UNL A   1      38.523  32.582  32.904  1.00  0.00     0.049 A 
ATOM     17  N   UNL A   1      39.874  30.347  31.402  1.00  0.00    -0.248 NA
ATOM     18  C   UNL A   1      38.403  30.727  29.630  1.00  0.00     0.031 C 
ATOM     19  C   UNL A   1      37.885  33.646  33.682  1.00  0.00     0.029 A 
ATOM     20  N   UNL A   1      39.564  32.169  33.696  1.00  0.00    -0.354 N 
ATOM     21  C   UNL A   1      40.161  29.456  30.374  1.00  0.00     0.074 A 
ATOM     22  C   UNL A   1      39.187  29.703  29.329  1.00  0.00     0.031 C 
ATOM     23  C   UNL A   1      38.551  33.806  34.834  1.00  0.00     0.029 A 
ATOM     24  C   UNL A   1      39.610  32.807  34.913  1.00  0.00     0.049 A 
ATOM     25  H   UNL A   1      40.214  31.482  33.422  1.00  0.00     0.167 HD
ATOM     26  C   UNL A   1      41.147  28.526  30.310  1.00  0.00     0.034 A 
ATOM     27  C   UNL A   1      40.382  32.584  35.995  1.00  0.00     0.034 A 
ATOM     28  C   UNL A   1      42.095  28.291  31.375  1.00  0.00     0.049 A 
ATOM     29  C   UNL A   1      41.416  31.493  35.940  1.00  0.00     0.074 A 
ATOM     30  C   UNL A   1      43.151  27.394  31.407  1.00  0.00     0.029 A 
ATOM     31  N   UNL A   1      42.091  28.939  32.606  1.00  0.00    -0.354 N 
ATOM     32  N   UNL A   1      41.683  30.660  34.961  1.00  0.00    -0.248 NA
ATOM     33  C   UNL A   1      42.255  31.312  37.130  1.00  0.00     0.031 C 
ATOM     34  C   UNL A   1      43.723  27.435  32.683  1.00  0.00     0.029 A 
ATOM     35  C   UNL A   1      43.098  28.432  33.415  1.00  0.00     0.049 A 
ATOM     36  H   UNL A   1      41.465  29.653  32.864  1.00  0.00     0.167 HD
ATOM     37  C   UNL A   1      42.747  29.881  35.403  1.00  0.00     0.074 A 
ATOM     38  C   UNL A   1      43.069  30.341  36.739  1.00  0.00     0.031 C 
ATOM     39  C   UNL A   1      43.410  28.891  34.752  1.00  0.00     0.034 A 
BRANCH  26  40
ATOM     40  C   UNL A   1      41.201  27.654  29.073  1.00  0.00     0.023 A 
ATOM     41  C   UNL A   1      42.203  27.806  28.100  1.00  0.00     0.031 A 
ATOM     42  C   UNL A   1      40.201  26.692  28.836  1.00  0.00     0.131 A 
ATOM     43  C   UNL A   1      42.124  27.092  26.895  1.00  0.00     0.055 A 
ATOM     44  C   UNL A   1      40.186  25.911  27.679  1.00  0.00     0.041 A 
ATOM     45  F   UNL A   1      39.202  26.510  29.715  1.00  0.00    -0.206 F 
ATOM     46  C   UNL A   1      41.140  26.125  26.688  1.00  0.00     0.022 A 
BRANCH  43  47
ATOM     47  S   UNL A   1      43.206  27.593  25.526  1.00  0.00     0.124 S 
ATOM     48  O   UNL A   1      43.798  26.316  25.132  1.00  0.00    -0.237 OA
ATOM     49  O   UNL A   1      42.265  28.179  24.579  1.00  0.00    -0.237 OA
ATOM     50  O   UNL A   1      44.135  28.534  26.150  1.00  0.00    -0.744 OA
ENDBRANCH  43  47
ENDBRANCH  26  40
BRANCH  27  51
ATOM     51  C   UNL A   1      40.162  33.387  37.231  1.00  0.00     0.023 A 
ATOM     52  C   UNL A   1      40.979  34.483  37.542  1.00  0.00     0.031 A 
ATOM     53  C   UNL A   1      39.112  33.071  38.113  1.00  0.00     0.131 A 
ATOM     54  C   UNL A   1      40.748  35.211  38.720  1.00  0.00     0.055 A 
ATOM     55  C   UNL A   1      38.853  33.831  39.253  1.00  0.00     0.041 A 
ATOM     56  F   UNL A   1      38.298  32.034  37.856  1.00  0.00    -0.206 F 
ATOM     57  C   UNL A   1      39.679  34.904  39.567  1.00  0.00     0.022 A 
BRANCH  54  58
ATOM     58  S   UNL A   1      41.902  36.536  39.162  1.00  0.00     0.124 S 
ATOM     59  O   UNL A   1      42.881  36.447  38.085  1.00  0.00    -0.237 OA
ATOM     60  O   UNL A   1      41.036  37.711  39.148  1.00  0.00    -0.237 OA
ATOM     61  O   UNL A   1      42.387  36.139  40.483  1.00  0.00    -0.744 OA
ENDBRANCH  54  58
ENDBRANCH  27  51
BRANCH  39  62
ATOM     62  C   UNL A   1      44.604  28.278  35.444  1.00  0.00     0.023 A 
ATOM     63  C   UNL A   1      44.505  27.126  36.242  1.00  0.00     0.031 A 
ATOM     64  C   UNL A   1      45.877  28.854  35.269  1.00  0.00     0.131 A 
ATOM     65  C   UNL A   1      45.655  26.605  36.860  1.00  0.00     0.055 A 
ATOM     66  C   UNL A   1      47.023  28.297  35.835  1.00  0.00     0.041 A 
ATOM     67  F   UNL A   1      46.028  29.962  34.523  1.00  0.00    -0.206 F 
ATOM     68  C   UNL A   1      46.915  27.170  36.642  1.00  0.00     0.022 A 
BRANCH  65  69
ATOM     69  S   UNL A   1      45.478  25.213  38.011  1.00  0.00     0.124 S 
ATOM     70  O   UNL A   1      44.318  24.515  37.465  1.00  0.00    -0.237 OA
ATOM     71  O   UNL A   1      46.758  24.528  37.875  1.00  0.00    -0.237 OA
ATOM     72  O   UNL A   1      45.257  25.863  39.302  1.00  0.00    -0.744 OA
ENDBRANCH  65  69
ENDBRANCH  39  62
ENDBRANCH  13  14
ENDBRANCH   6   8
ENDBRANCH   3   4
ENDBRANCH   2   3
ENDBRANCH   1   2
BRANCH   1  73
ATOM     73  C   UNL A   1      34.264  29.147  27.201  1.00  0.00     0.116 C 
BRANCH  73  74
ATOM     74  N   UNL A   1      32.980  28.703  27.731  1.00  0.00    -0.352 N 
ATOM     75  C   UNL A   1      32.041  27.888  27.142  1.00  0.00     0.253 C 
ATOM     76  H   UNL A   1      32.754  29.030  28.632  1.00  0.00     0.163 HD
ATOM     77  O   UNL A   1      30.934  27.717  27.637  1.00  0.00    -0.269 OA
BRANCH  75  78
ATOM     78  C   UNL A   1      32.363  27.275  25.840  1.00  0.00     0.064 A 
ATOM     79  C   UNL A   1      33.208  27.982  24.969  1.00  0.00     0.036 A 
ATOM     80  C   UNL A   1      31.753  26.069  25.453  1.00  0.00     0.054 A 
ATOM     81  C   UNL A   1      33.318  27.573  23.649  1.00  0.00     0.041 A 
ATOM     82  C   UNL A   1      31.781  25.762  24.091  1.00  0.00     0.028 A 
ATOM     83  Cl  UNL A   1      34.305  28.456  22.555  1.00  0.00    -0.084 Cl
ATOM     84  C   UNL A   1      32.570  26.494  23.195  1.00  0.00     0.023 A 
BRANCH  80  85
ATOM     85  N   UNL A   1      31.157  25.239  26.438  1.00  0.00    -0.321 N 
ATOM     86  C   UNL A   1      31.279  23.894  26.728  1.00  0.00     0.255 C 
ATOM     87  H   UNL A   1      30.533  25.715  27.033  1.00  0.00     0.170 HD
ATOM     88  O   UNL A   1      30.570  23.355  27.572  1.00  0.00    -0.269 OA
BRANCH  86  89
ATOM     89  C   UNL A   1      32.284  23.056  26.047  1.00  0.00     0.041 A 
ATOM     90  C   UNL A   1      33.641  23.268  26.379  1.00  0.00     0.015 A 
ATOM     91  C   UNL A   1      31.889  22.007  25.200  1.00  0.00     0.028 A 
ATOM     92  C   UNL A   1      34.617  22.354  25.979  1.00  0.00     0.015 A 
ATOM     93  C   UNL A   1      32.872  21.105  24.848  1.00  0.00     0.054 A 
ATOM     94  C   UNL A   1      34.187  21.261  25.250  1.00  0.00     0.053 A 
ATOM     95  C   UNL A   1      32.761  19.793  24.208  1.00  0.00     0.261 C 
ATOM     96  C   UNL A   1      34.906  20.043  24.890  1.00  0.00     0.261 C 
ATOM     97  O   UNL A   1      31.710  19.312  23.827  1.00  0.00    -0.269 OA
ATOM     98  N   UNL A   1      34.010  19.241  24.238  1.00  0.00    -0.267 N 
ATOM     99  O   UNL A   1      36.055  19.819  25.211  1.00  0.00    -0.269 OA
BRANCH  98 100
ATOM    100  C   UNL A   1      34.315  17.901  23.783  1.00  0.00     0.204 C 
BRANCH 100 101
ATOM    101  C   UNL A   1      33.633  16.906  24.653  1.00  0.00     0.123 A 
ATOM    102  C   UNL A   1      32.779  17.017  25.733  1.00  0.00     0.047 A 
ATOM    103  O   UNL A   1      33.841  15.589  24.364  1.00  0.00    -0.467 OA
ATOM    104  C   UNL A   1      32.464  15.699  26.135  1.00  0.00     0.042 A 
ATOM    105  C   UNL A   1      33.129  14.867  25.267  1.00  0.00     0.195 A 
ENDBRANCH 100 101
ENDBRANCH  98 100
ENDBRANCH  86  89
ENDBRANCH  80  85
ENDBRANCH  75  78
ENDBRANCH  73  74
ENDBRANCH   1  73
TORSDOF 18
ENDMDL
