MODEL 1
REMARK VINA RESULT:     -11.0      0.000      0.000
REMARK SMILES C#CC[N@H+](CC(=O)NCCCCNC(=O)c1ccc(-c2c3nc(c(-c4cc(S(=O)(=O)[O-])ccc4F)c4ccc([nH]4)c(-c4cc(S(=O)(=O)[O-])ccc4F)c4nc(c(-c5cc(S(=O)(=O)[O-])ccc5F)c5ccc2[nH]5)C=C4)C=C3)cc1)[C@H](C)c1cc(C)ccc1C
REMARK SMILES IDX 10 1 9 2 8 3 6 4 7 5 5 7 4 8 3 10 2 11 1 12 79 13 80 14
REMARK SMILES IDX 81 15 82 16 87 17 83 18 86 19 88 20 84 21 85 22 11 23 12 24
REMARK SMILES IDX 13 25 14 26 15 28 16 29 17 30 78 31 18 32 77 33 19 34 20 35
REMARK SMILES IDX 21 36 71 37 22 38 76 39 70 40 72 41 23 42 75 43 69 44 68 45
REMARK SMILES IDX 24 47 56 48 36 49 55 50 37 51 40 52 54 53 73 54 38 55 39 56
REMARK SMILES IDX 53 58 74 59 41 60 25 61 26 62 34 63 27 64 33 65 35 66 32 67
REMARK SMILES IDX 28 68 29 69 30 70 31 71 57 72 58 73 66 74 59 75 65 76 67 77
REMARK SMILES IDX 64 78 60 79 61 80 62 81 63 82 42 83 43 84 51 85 44 86 50 87
REMARK SMILES IDX 52 88 49 89 45 90 46 91 47 92 48 93
REMARK H PARENT 8 6 4 9 13 27 72 46 40 57
REMARK Flexibility Score: inf
ROOT
ATOM      1  C   UNL A   1      32.370  29.090  23.843  1.00  0.00     0.023 C 
ENDROOT
BRANCH   1   2
ATOM      2  C   UNL A   1      33.608  28.280  23.415  1.00  0.00     0.116 C 
BRANCH   2   3
ATOM      3  N   UNL A   1      33.366  27.596  22.156  1.00  0.00    -0.351 N 
ATOM      4  C   UNL A   1      33.347  26.269  21.818  1.00  0.00     0.275 C 
ATOM      5  O   UNL A   1      33.230  26.007  20.615  1.00  0.00    -0.269 OA
ATOM      6  H   UNL A   1      33.181  28.202  21.402  1.00  0.00     0.163 HD
BRANCH   4   7
ATOM      7  C   UNL A   1      33.359  25.136  22.872  1.00  0.00     0.364 C 
BRANCH   7   8
ATOM      8  N   UNL A   1      32.412  25.325  24.020  1.00  0.00    -0.311 N 
ATOM      9  H   UNL A   1      32.547  26.253  24.424  1.00  0.00     0.349 HD
BRANCH   8  10
ATOM     10  C   UNL A   1      31.045  25.235  23.506  1.00  0.00     0.354 C 
BRANCH  10  11
ATOM     11  C   UNL A   1      30.032  26.292  23.588  1.00  0.00    -0.047 C 
ATOM     12  C   UNL A   1      29.127  27.072  23.503  1.00  0.00     0.010 C 
ENDBRANCH  10  11
ENDBRANCH   8  10
BRANCH   8  13
ATOM     13  C   UNL A   1      32.691  24.414  25.163  1.00  0.00     0.213 C 
ATOM     14  C   UNL A   1      32.687  25.237  26.474  1.00  0.00     0.081 C 
BRANCH  13  15
ATOM     15  C   UNL A   1      33.974  23.574  24.911  1.00  0.00     0.012 A 
ATOM     16  C   UNL A   1      35.236  24.133  25.249  1.00  0.00     0.013 A 
ATOM     17  C   UNL A   1      33.975  22.245  24.448  1.00  0.00    -0.042 A 
ATOM     18  C   UNL A   1      36.376  23.341  25.451  1.00  0.00    -0.051 A 
ATOM     19  C   UNL A   1      35.126  21.453  24.633  1.00  0.00     0.004 A 
ATOM     20  C   UNL A   1      32.804  21.592  23.774  1.00  0.00     0.045 C 
ATOM     21  C   UNL A   1      37.583  23.927  26.125  1.00  0.00     0.044 C 
ATOM     22  C   UNL A   1      36.295  21.981  25.176  1.00  0.00     0.004 A 
ENDBRANCH  13  15
ENDBRANCH   8  13
ENDBRANCH   7   8
ENDBRANCH   4   7
ENDBRANCH   2   3
ENDBRANCH   1   2
BRANCH   1  23
ATOM     23  C   UNL A   1      32.107  29.165  25.325  1.00  0.00     0.023 C 
BRANCH  23  24
ATOM     24  C   UNL A   1      33.276  29.698  26.107  1.00  0.00     0.116 C 
BRANCH  24  25
ATOM     25  N   UNL A   1      33.028  31.010  26.693  1.00  0.00    -0.352 N 
ATOM     26  C   UNL A   1      33.830  31.693  27.578  1.00  0.00     0.251 C 
ATOM     27  H   UNL A   1      32.193  31.458  26.424  1.00  0.00     0.163 HD
ATOM     28  O   UNL A   1      33.446  32.725  28.114  1.00  0.00    -0.269 OA
BRANCH  26  29
ATOM     29  C   UNL A   1      35.145  31.103  27.893  1.00  0.00     0.039 A 
ATOM     30  C   UNL A   1      36.263  31.930  27.965  1.00  0.00     0.014 A 
ATOM     31  C   UNL A   1      35.212  29.765  28.290  1.00  0.00     0.014 A 
ATOM     32  C   UNL A   1      37.440  31.424  28.512  1.00  0.00     0.010 A 
ATOM     33  C   UNL A   1      36.330  29.318  28.972  1.00  0.00     0.010 A 
ATOM     34  C   UNL A   1      37.467  30.132  29.066  1.00  0.00    -0.014 A 
BRANCH  34  35
ATOM     35  C   UNL A   1      38.689  29.590  29.708  1.00  0.00     0.031 A 
ATOM     36  C   UNL A   1      39.105  30.117  31.055  1.00  0.00     0.074 A 
ATOM     37  C   UNL A   1      39.434  28.665  29.070  1.00  0.00     0.049 A 
ATOM     38  N   UNL A   1      40.158  29.819  31.768  1.00  0.00    -0.248 NA
ATOM     39  C   UNL A   1      38.241  31.142  31.666  1.00  0.00     0.031 C 
ATOM     40  C   UNL A   1      39.150  28.115  27.741  1.00  0.00     0.029 A 
ATOM     41  N   UNL A   1      40.581  28.019  29.454  1.00  0.00    -0.354 N 
ATOM     42  C   UNL A   1      40.084  30.622  32.902  1.00  0.00     0.074 A 
ATOM     43  C   UNL A   1      38.935  31.482  32.737  1.00  0.00     0.031 C 
ATOM     44  C   UNL A   1      40.067  27.181  27.447  1.00  0.00     0.029 A 
ATOM     45  C   UNL A   1      41.040  27.107  28.531  1.00  0.00     0.049 A 
ATOM     46  H   UNL A   1      41.035  28.191  30.310  1.00  0.00     0.167 HD
ATOM     47  C   UNL A   1      40.878  30.615  33.997  1.00  0.00     0.034 A 
ATOM     48  C   UNL A   1      42.128  26.311  28.555  1.00  0.00     0.034 A 
ATOM     49  C   UNL A   1      42.012  29.741  34.147  1.00  0.00     0.049 A 
ATOM     50  C   UNL A   1      43.030  26.362  29.765  1.00  0.00     0.074 A 
ATOM     51  C   UNL A   1      42.863  29.616  35.230  1.00  0.00     0.029 A 
ATOM     52  N   UNL A   1      42.461  28.849  33.182  1.00  0.00    -0.354 N 
ATOM     53  N   UNL A   1      42.914  27.090  30.853  1.00  0.00    -0.248 NA
ATOM     54  C   UNL A   1      44.204  25.481  29.753  1.00  0.00     0.031 C 
ATOM     55  C   UNL A   1      43.877  28.719  34.886  1.00  0.00     0.029 A 
ATOM     56  C   UNL A   1      43.602  28.202  33.628  1.00  0.00     0.049 A 
ATOM     57  H   UNL A   1      42.032  28.698  32.309  1.00  0.00     0.167 HD
ATOM     58  C   UNL A   1      43.981  26.724  31.669  1.00  0.00     0.074 A 
ATOM     59  C   UNL A   1      44.715  25.699  30.955  1.00  0.00     0.031 C 
ATOM     60  C   UNL A   1      44.325  27.188  32.899  1.00  0.00     0.034 A 
BRANCH  47  61
ATOM     61  C   UNL A   1      40.557  31.596  35.098  1.00  0.00     0.023 A 
ATOM     62  C   UNL A   1      39.563  31.333  36.058  1.00  0.00     0.031 A 
ATOM     63  C   UNL A   1      41.239  32.822  35.178  1.00  0.00     0.131 A 
ATOM     64  C   UNL A   1      39.230  32.309  37.007  1.00  0.00     0.055 A 
ATOM     65  C   UNL A   1      40.967  33.751  36.184  1.00  0.00     0.041 A 
ATOM     66  F   UNL A   1      42.176  33.144  34.273  1.00  0.00    -0.206 F 
ATOM     67  C   UNL A   1      39.947  33.503  37.098  1.00  0.00     0.022 A 
BRANCH  64  68
ATOM     68  S   UNL A   1      37.747  32.059  38.022  1.00  0.00     0.124 S 
ATOM     69  O   UNL A   1      36.839  33.062  37.466  1.00  0.00    -0.237 OA
ATOM     70  O   UNL A   1      37.406  30.668  37.748  1.00  0.00    -0.237 OA
ATOM     71  O   UNL A   1      38.210  32.334  39.379  1.00  0.00    -0.744 OA
ENDBRANCH  64  68
ENDBRANCH  47  61
BRANCH  48  72
ATOM     72  C   UNL A   1      42.445  25.413  27.405  1.00  0.00     0.023 A 
ATOM     73  C   UNL A   1      41.930  24.107  27.342  1.00  0.00     0.031 A 
ATOM     74  C   UNL A   1      43.321  25.823  26.384  1.00  0.00     0.131 A 
ATOM     75  C   UNL A   1      42.346  23.240  26.320  1.00  0.00     0.055 A 
ATOM     76  C   UNL A   1      43.674  24.979  25.329  1.00  0.00     0.041 A 
ATOM     77  F   UNL A   1      43.846  27.058  26.393  1.00  0.00    -0.206 F 
ATOM     78  C   UNL A   1      43.200  23.672  25.303  1.00  0.00     0.022 A 
BRANCH  75  79
ATOM     79  S   UNL A   1      41.853  21.496  26.410  1.00  0.00     0.124 S 
ATOM     80  O   UNL A   1      42.216  21.159  27.782  1.00  0.00    -0.237 OA
ATOM     81  O   UNL A   1      40.424  21.569  26.123  1.00  0.00    -0.237 OA
ATOM     82  O   UNL A   1      42.663  20.860  25.374  1.00  0.00    -0.744 OA
ENDBRANCH  75  79
ENDBRANCH  48  72
BRANCH  60  83
ATOM     83  C   UNL A   1      45.520  26.552  33.567  1.00  0.00     0.023 A 
ATOM     84  C   UNL A   1      45.400  25.402  34.363  1.00  0.00     0.031 A 
ATOM     85  C   UNL A   1      46.800  27.114  33.405  1.00  0.00     0.131 A 
ATOM     86  C   UNL A   1      46.527  24.886  35.019  1.00  0.00     0.055 A 
ATOM     87  C   UNL A   1      47.931  26.551  33.996  1.00  0.00     0.041 A 
ATOM     88  F   UNL A   1      46.974  28.218  32.661  1.00  0.00    -0.206 F 
ATOM     89  C   UNL A   1      47.796  25.439  34.821  1.00  0.00     0.022 A 
BRANCH  86  90
ATOM     90  S   UNL A   1      46.295  23.555  36.229  1.00  0.00     0.124 S 
ATOM     91  O   UNL A   1      46.525  24.252  37.491  1.00  0.00    -0.237 OA
ATOM     92  O   UNL A   1      44.921  23.137  35.973  1.00  0.00    -0.237 OA
ATOM     93  O   UNL A   1      47.319  22.578  35.864  1.00  0.00    -0.744 OA
ENDBRANCH  86  90
ENDBRANCH  60  83
ENDBRANCH  34  35
ENDBRANCH  26  29
ENDBRANCH  24  25
ENDBRANCH  23  24
ENDBRANCH   1  23
TORSDOF 19
ENDMDL
MODEL 2
REMARK VINA RESULT:     -11.0      1.651      7.981
REMARK SMILES C#CC[N@H+](CC(=O)NCCCCNC(=O)c1ccc(-c2c3nc(c(-c4cc(S(=O)(=O)[O-])ccc4F)c4ccc([nH]4)c(-c4cc(S(=O)(=O)[O-])ccc4F)c4nc(c(-c5cc(S(=O)(=O)[O-])ccc5F)c5ccc2[nH]5)C=C4)C=C3)cc1)[C@H](C)c1cc(C)ccc1C
REMARK SMILES IDX 10 1 9 2 8 3 6 4 7 5 5 7 4 8 3 10 2 11 1 12 79 13 80 14
REMARK SMILES IDX 81 15 82 16 87 17 83 18 86 19 88 20 84 21 85 22 11 23 12 24
REMARK SMILES IDX 13 25 14 26 15 28 16 29 17 30 78 31 18 32 77 33 19 34 20 35
REMARK SMILES IDX 21 36 71 37 22 38 76 39 70 40 72 41 23 42 75 43 69 44 68 45
REMARK SMILES IDX 24 47 56 48 36 49 55 50 37 51 40 52 54 53 73 54 38 55 39 56
REMARK SMILES IDX 53 58 74 59 41 60 25 61 26 62 34 63 27 64 33 65 35 66 32 67
REMARK SMILES IDX 28 68 29 69 30 70 31 71 57 72 58 73 66 74 59 75 65 76 67 77
REMARK SMILES IDX 64 78 60 79 61 80 62 81 63 82 42 83 43 84 51 85 44 86 50 87
REMARK SMILES IDX 52 88 49 89 45 90 46 91 47 92 48 93
REMARK H PARENT 8 6 4 9 13 27 72 46 40 57
REMARK Flexibility Score: inf
ROOT
ATOM      1  C   UNL A   1      33.187  26.932  25.463  1.00  0.00     0.023 C 
ENDROOT
BRANCH   1   2
ATOM      2  C   UNL A   1      32.418  25.638  25.138  1.00  0.00     0.116 C 
BRANCH   2   3
ATOM      3  N   UNL A   1      32.884  25.061  23.889  1.00  0.00    -0.351 N 
ATOM      4  C   UNL A   1      34.046  24.420  23.548  1.00  0.00     0.275 C 
ATOM      5  O   UNL A   1      34.197  24.150  22.351  1.00  0.00    -0.269 OA
ATOM      6  H   UNL A   1      32.243  25.144  23.147  1.00  0.00     0.163 HD
BRANCH   4   7
ATOM      7  C   UNL A   1      35.084  23.952  24.597  1.00  0.00     0.364 C 
BRANCH   7   8
ATOM      8  N   UNL A   1      35.259  22.466  24.699  1.00  0.00    -0.311 N 
ATOM      9  H   UNL A   1      35.355  22.068  23.764  1.00  0.00     0.349 HD
BRANCH   8  10
ATOM     10  C   UNL A   1      36.488  22.200  25.447  1.00  0.00     0.354 C 
BRANCH  10  11
ATOM     11  C   UNL A   1      37.426  23.216  25.935  1.00  0.00    -0.047 C 
ATOM     12  C   UNL A   1      38.235  24.072  26.150  1.00  0.00     0.010 C 
ENDBRANCH  10  11
ENDBRANCH   8  10
BRANCH   8  13
ATOM     13  C   UNL A   1      34.059  21.773  25.240  1.00  0.00     0.213 C 
ATOM     14  C   UNL A   1      34.256  21.537  26.757  1.00  0.00     0.081 C 
BRANCH  13  15
ATOM     15  C   UNL A   1      33.721  20.503  24.410  1.00  0.00     0.012 A 
ATOM     16  C   UNL A   1      34.486  19.324  24.619  1.00  0.00     0.013 A 
ATOM     17  C   UNL A   1      32.639  20.404  23.515  1.00  0.00    -0.042 A 
ATOM     18  C   UNL A   1      34.020  18.053  24.249  1.00  0.00    -0.051 A 
ATOM     19  C   UNL A   1      32.181  19.129  23.128  1.00  0.00     0.004 A 
ATOM     20  C   UNL A   1      31.910  21.587  22.948  1.00  0.00     0.045 C 
ATOM     21  C   UNL A   1      34.698  16.825  24.786  1.00  0.00     0.044 C 
ATOM     22  C   UNL A   1      32.833  17.966  23.533  1.00  0.00     0.004 A 
ENDBRANCH  13  15
ENDBRANCH   8  13
ENDBRANCH   7   8
ENDBRANCH   4   7
ENDBRANCH   2   3
ENDBRANCH   1   2
BRANCH   1  23
ATOM     23  C   UNL A   1      32.355  28.182  25.595  1.00  0.00     0.023 C 
BRANCH  23  24
ATOM     24  C   UNL A   1      33.128  29.440  25.307  1.00  0.00     0.116 C 
BRANCH  24  25
ATOM     25  N   UNL A   1      32.542  30.628  25.917  1.00  0.00    -0.352 N 
ATOM     26  C   UNL A   1      33.024  31.336  26.995  1.00  0.00     0.251 C 
ATOM     27  H   UNL A   1      31.708  30.962  25.513  1.00  0.00     0.163 HD
ATOM     28  O   UNL A   1      32.366  32.232  27.509  1.00  0.00    -0.269 OA
BRANCH  26  29
ATOM     29  C   UNL A   1      34.338  30.935  27.534  1.00  0.00     0.039 A 
ATOM     30  C   UNL A   1      35.310  31.907  27.753  1.00  0.00     0.014 A 
ATOM     31  C   UNL A   1      34.517  29.623  27.983  1.00  0.00     0.014 A 
ATOM     32  C   UNL A   1      36.440  31.574  28.497  1.00  0.00     0.010 A 
ATOM     33  C   UNL A   1      35.559  29.342  28.848  1.00  0.00     0.010 A 
ATOM     34  C   UNL A   1      36.548  30.305  29.092  1.00  0.00    -0.014 A 
BRANCH  34  35
ATOM     35  C   UNL A   1      37.711  29.943  29.938  1.00  0.00     0.031 A 
ATOM     36  C   UNL A   1      38.759  29.016  29.384  1.00  0.00     0.074 A 
ATOM     37  C   UNL A   1      37.803  30.411  31.198  1.00  0.00     0.049 A 
ATOM     38  N   UNL A   1      39.826  28.535  29.965  1.00  0.00    -0.248 NA
ATOM     39  C   UNL A   1      38.565  28.537  28.004  1.00  0.00     0.031 C 
ATOM     40  C   UNL A   1      36.822  31.281  31.854  1.00  0.00     0.029 A 
ATOM     41  N   UNL A   1      38.769  30.228  32.154  1.00  0.00    -0.354 N 
ATOM     42  C   UNL A   1      40.420  27.696  29.027  1.00  0.00     0.074 A 
ATOM     43  C   UNL A   1      39.548  27.664  27.876  1.00  0.00     0.031 C 
ATOM     44  C   UNL A   1      37.263  31.594  33.082  1.00  0.00     0.029 A 
ATOM     45  C   UNL A   1      38.523  30.900  33.329  1.00  0.00     0.049 A 
ATOM     46  H   UNL A   1      39.565  29.666  32.014  1.00  0.00     0.167 HD
ATOM     47  C   UNL A   1      41.603  27.045  29.104  1.00  0.00     0.034 A 
ATOM     48  C   UNL A   1      39.229  30.942  34.477  1.00  0.00     0.034 A 
ATOM     49  C   UNL A   1      42.463  27.100  30.256  1.00  0.00     0.049 A 
ATOM     50  C   UNL A   1      40.518  30.161  34.557  1.00  0.00     0.074 A 
ATOM     51  C   UNL A   1      43.705  26.515  30.430  1.00  0.00     0.029 A 
ATOM     52  N   UNL A   1      42.169  27.770  31.436  1.00  0.00    -0.354 N 
ATOM     53  N   UNL A   1      41.093  29.417  33.639  1.00  0.00    -0.248 NA
ATOM     54  C   UNL A   1      41.258  30.233  35.823  1.00  0.00     0.031 C 
ATOM     55  C   UNL A   1      44.119  26.754  31.742  1.00  0.00     0.029 A 
ATOM     56  C   UNL A   1      43.187  27.577  32.357  1.00  0.00     0.049 A 
ATOM     57  H   UNL A   1      41.358  28.304  31.596  1.00  0.00     0.167 HD
ATOM     58  C   UNL A   1      42.279  28.962  34.208  1.00  0.00     0.074 A 
ATOM     59  C   UNL A   1      42.345  29.533  35.538  1.00  0.00     0.031 C 
ATOM     60  C   UNL A   1      43.232  28.149  33.682  1.00  0.00     0.034 A 
BRANCH  47  61
ATOM     61  C   UNL A   1      42.014  26.204  27.919  1.00  0.00     0.023 A 
ATOM     62  C   UNL A   1      41.688  24.839  27.830  1.00  0.00     0.031 A 
ATOM     63  C   UNL A   1      42.762  26.771  26.873  1.00  0.00     0.131 A 
ATOM     64  C   UNL A   1      42.169  24.072  26.759  1.00  0.00     0.055 A 
ATOM     65  C   UNL A   1      43.158  26.023  25.763  1.00  0.00     0.041 A 
ATOM     66  F   UNL A   1      43.131  28.060  26.916  1.00  0.00    -0.206 F 
ATOM     67  C   UNL A   1      42.874  24.661  25.709  1.00  0.00     0.022 A 
BRANCH  64  68
ATOM     68  S   UNL A   1      41.991  22.269  26.838  1.00  0.00     0.124 S 
ATOM     69  O   UNL A   1      42.224  21.890  25.446  1.00  0.00    -0.237 OA
ATOM     70  O   UNL A   1      43.033  21.889  27.786  1.00  0.00    -0.237 OA
ATOM     71  O   UNL A   1      40.621  22.080  27.306  1.00  0.00    -0.744 OA
ENDBRANCH  64  68
ENDBRANCH  47  61
BRANCH  48  72
ATOM     72  C   UNL A   1      38.739  31.728  35.648  1.00  0.00     0.023 A 
ATOM     73  C   UNL A   1      38.159  31.091  36.758  1.00  0.00     0.031 A 
ATOM     74  C   UNL A   1      38.781  33.134  35.648  1.00  0.00     0.131 A 
ATOM     75  C   UNL A   1      37.589  31.857  37.786  1.00  0.00     0.055 A 
ATOM     76  C   UNL A   1      38.278  33.890  36.709  1.00  0.00     0.041 A 
ATOM     77  F   UNL A   1      39.321  33.798  34.614  1.00  0.00    -0.206 F 
ATOM     78  C   UNL A   1      37.660  33.251  37.779  1.00  0.00     0.022 A 
BRANCH  75  79
ATOM     79  S   UNL A   1      36.638  31.004  39.076  1.00  0.00     0.124 S 
ATOM     80  O   UNL A   1      36.417  29.699  38.463  1.00  0.00    -0.237 OA
ATOM     81  O   UNL A   1      37.562  31.036  40.205  1.00  0.00    -0.237 OA
ATOM     82  O   UNL A   1      35.446  31.836  39.224  1.00  0.00    -0.744 OA
ENDBRANCH  75  79
ENDBRANCH  48  72
BRANCH  60  83
ATOM     83  C   UNL A   1      44.449  27.873  34.530  1.00  0.00     0.023 A 
ATOM     84  C   UNL A   1      44.516  26.769  35.396  1.00  0.00     0.031 A 
ATOM     85  C   UNL A   1      45.561  28.735  34.471  1.00  0.00     0.131 A 
ATOM     86  C   UNL A   1      45.640  26.591  36.215  1.00  0.00     0.055 A 
ATOM     87  C   UNL A   1      46.709  28.508  35.230  1.00  0.00     0.041 A 
ATOM     88  F   UNL A   1      45.552  29.809  33.666  1.00  0.00    -0.206 F 
ATOM     89  C   UNL A   1      46.747  27.440  36.120  1.00  0.00     0.022 A 
BRANCH  86  90
ATOM     90  S   UNL A   1      45.589  25.305  37.493  1.00  0.00     0.124 S 
ATOM     91  O   UNL A   1      45.049  26.036  38.635  1.00  0.00    -0.237 OA
ATOM     92  O   UNL A   1      44.703  24.309  36.898  1.00  0.00    -0.237 OA
ATOM     93  O   UNL A   1      46.986  24.895  37.622  1.00  0.00    -0.744 OA
ENDBRANCH  86  90
ENDBRANCH  60  83
ENDBRANCH  34  35
ENDBRANCH  26  29
ENDBRANCH  24  25
ENDBRANCH  23  24
ENDBRANCH   1  23
TORSDOF 19
ENDMDL
MODEL 3
REMARK VINA RESULT:     -10.9      1.855      2.336
REMARK SMILES C#CC[N@H+](CC(=O)NCCCCNC(=O)c1ccc(-c2c3nc(c(-c4cc(S(=O)(=O)[O-])ccc4F)c4ccc([nH]4)c(-c4cc(S(=O)(=O)[O-])ccc4F)c4nc(c(-c5cc(S(=O)(=O)[O-])ccc5F)c5ccc2[nH]5)C=C4)C=C3)cc1)[C@H](C)c1cc(C)ccc1C
REMARK SMILES IDX 10 1 9 2 8 3 6 4 7 5 5 7 4 8 3 10 2 11 1 12 79 13 80 14
REMARK SMILES IDX 81 15 82 16 87 17 83 18 86 19 88 20 84 21 85 22 11 23 12 24
REMARK SMILES IDX 13 25 14 26 15 28 16 29 17 30 78 31 18 32 77 33 19 34 20 35
REMARK SMILES IDX 21 36 71 37 22 38 76 39 70 40 72 41 23 42 75 43 69 44 68 45
REMARK SMILES IDX 24 47 56 48 36 49 55 50 37 51 40 52 54 53 73 54 38 55 39 56
REMARK SMILES IDX 53 58 74 59 41 60 25 61 26 62 34 63 27 64 33 65 35 66 32 67
REMARK SMILES IDX 28 68 29 69 30 70 31 71 57 72 58 73 66 74 59 75 65 76 67 77
REMARK SMILES IDX 64 78 60 79 61 80 62 81 63 82 42 83 43 84 51 85 44 86 50 87
REMARK SMILES IDX 52 88 49 89 45 90 46 91 47 92 48 93
REMARK H PARENT 8 6 4 9 13 27 72 46 40 57
REMARK Flexibility Score: inf
ROOT
ATOM      1  C   UNL A   1      31.569  28.550  24.556  1.00  0.00     0.023 C 
ENDROOT
BRANCH   1   2
ATOM      2  C   UNL A   1      31.783  27.032  24.414  1.00  0.00     0.116 C 
BRANCH   2   3
ATOM      3  N   UNL A   1      30.996  26.306  25.396  1.00  0.00    -0.351 N 
ATOM      4  C   UNL A   1      31.232  25.150  26.093  1.00  0.00     0.275 C 
ATOM      5  O   UNL A   1      30.297  24.717  26.777  1.00  0.00    -0.269 OA
ATOM      6  H   UNL A   1      30.128  26.725  25.601  1.00  0.00     0.163 HD
BRANCH   4   7
ATOM      7  C   UNL A   1      32.617  24.460  26.127  1.00  0.00     0.364 C 
BRANCH   7   8
ATOM      8  N   UNL A   1      32.646  23.066  25.573  1.00  0.00    -0.311 N 
ATOM      9  H   UNL A   1      31.718  22.649  25.649  1.00  0.00     0.349 HD
BRANCH   8  10
ATOM     10  C   UNL A   1      33.010  23.143  24.158  1.00  0.00     0.354 C 
BRANCH  10  11
ATOM     11  C   UNL A   1      32.561  22.219  23.111  1.00  0.00    -0.047 C 
ATOM     12  C   UNL A   1      32.050  21.426  22.373  1.00  0.00     0.010 C 
ENDBRANCH  10  11
ENDBRANCH   8  10
BRANCH   8  13
ATOM     13  C   UNL A   1      33.499  22.141  26.368  1.00  0.00     0.213 C 
ATOM     14  C   UNL A   1      33.452  22.568  27.855  1.00  0.00     0.081 C 
BRANCH  13  15
ATOM     15  C   UNL A   1      34.923  22.023  25.756  1.00  0.00     0.012 A 
ATOM     16  C   UNL A   1      35.814  23.123  25.877  1.00  0.00     0.013 A 
ATOM     17  C   UNL A   1      35.436  20.857  25.158  1.00  0.00    -0.042 A 
ATOM     18  C   UNL A   1      37.202  22.981  25.741  1.00  0.00    -0.051 A 
ATOM     19  C   UNL A   1      36.829  20.720  25.004  1.00  0.00     0.004 A 
ATOM     20  C   UNL A   1      34.585  19.716  24.681  1.00  0.00     0.045 C 
ATOM     21  C   UNL A   1      38.114  24.080  26.204  1.00  0.00     0.044 C 
ATOM     22  C   UNL A   1      37.706  21.749  25.340  1.00  0.00     0.004 A 
ENDBRANCH  13  15
ENDBRANCH   8  13
ENDBRANCH   7   8
ENDBRANCH   4   7
ENDBRANCH   2   3
ENDBRANCH   1   2
BRANCH   1  23
ATOM     23  C   UNL A   1      32.742  29.338  25.079  1.00  0.00     0.023 C 
BRANCH  23  24
ATOM     24  C   UNL A   1      32.610  29.702  26.533  1.00  0.00     0.116 C 
BRANCH  24  25
ATOM     25  N   UNL A   1      32.394  31.128  26.753  1.00  0.00    -0.352 N 
ATOM     26  C   UNL A   1      33.250  32.016  27.364  1.00  0.00     0.251 C 
ATOM     27  H   UNL A   1      31.540  31.496  26.427  1.00  0.00     0.163 HD
ATOM     28  O   UNL A   1      32.896  33.159  27.621  1.00  0.00    -0.269 OA
BRANCH  26  29
ATOM     29  C   UNL A   1      34.585  31.517  27.741  1.00  0.00     0.039 A 
ATOM     30  C   UNL A   1      35.614  32.427  27.966  1.00  0.00     0.014 A 
ATOM     31  C   UNL A   1      34.745  30.161  28.043  1.00  0.00     0.014 A 
ATOM     32  C   UNL A   1      36.788  31.981  28.569  1.00  0.00     0.010 A 
ATOM     33  C   UNL A   1      35.844  29.758  28.779  1.00  0.00     0.010 A 
ATOM     34  C   UNL A   1      36.891  30.655  29.026  1.00  0.00    -0.014 A 
BRANCH  34  35
ATOM     35  C   UNL A   1      38.106  30.169  29.725  1.00  0.00     0.031 A 
ATOM     36  C   UNL A   1      38.377  30.631  31.131  1.00  0.00     0.074 A 
ATOM     37  C   UNL A   1      38.972  29.356  29.089  1.00  0.00     0.049 A 
ATOM     38  N   UNL A   1      39.397  30.369  31.904  1.00  0.00    -0.248 NA
ATOM     39  C   UNL A   1      37.386  31.537  31.739  1.00  0.00     0.031 C 
ATOM     40  C   UNL A   1      38.833  28.881  27.709  1.00  0.00     0.029 A 
ATOM     41  N   UNL A   1      40.139  28.778  29.518  1.00  0.00    -0.354 N 
ATOM     42  C   UNL A   1      39.172  31.081  33.078  1.00  0.00     0.074 A 
ATOM     43  C   UNL A   1      37.969  31.855  32.881  1.00  0.00     0.031 C 
ATOM     44  C   UNL A   1      39.845  28.047  27.426  1.00  0.00     0.029 A 
ATOM     45  C   UNL A   1      40.740  27.975  28.576  1.00  0.00     0.049 A 
ATOM     46  H   UNL A   1      40.514  28.926  30.416  1.00  0.00     0.167 HD
ATOM     47  C   UNL A   1      39.884  31.060  34.229  1.00  0.00     0.034 A 
ATOM     48  C   UNL A   1      41.888  27.270  28.633  1.00  0.00     0.034 A 
ATOM     49  C   UNL A   1      41.074  30.272  34.409  1.00  0.00     0.049 A 
ATOM     50  C   UNL A   1      42.693  27.307  29.910  1.00  0.00     0.074 A 
ATOM     51  C   UNL A   1      41.853  30.139  35.545  1.00  0.00     0.029 A 
ATOM     52  N   UNL A   1      41.667  29.490  33.426  1.00  0.00    -0.354 N 
ATOM     53  N   UNL A   1      42.436  27.943  31.031  1.00  0.00    -0.248 NA
ATOM     54  C   UNL A   1      43.936  26.526  29.932  1.00  0.00     0.031 C 
ATOM     55  C   UNL A   1      42.962  29.353  35.224  1.00  0.00     0.029 A 
ATOM     56  C   UNL A   1      42.824  28.908  33.917  1.00  0.00     0.049 A 
ATOM     57  H   UNL A   1      41.317  29.368  32.515  1.00  0.00     0.167 HD
ATOM     58  C   UNL A   1      43.469  27.608  31.902  1.00  0.00     0.074 A 
ATOM     59  C   UNL A   1      44.338  26.699  31.182  1.00  0.00     0.031 C 
ATOM     60  C   UNL A   1      43.682  28.009  33.182  1.00  0.00     0.034 A 
BRANCH  47  61
ATOM     61  C   UNL A   1      39.400  31.931  35.363  1.00  0.00     0.023 A 
ATOM     62  C   UNL A   1      39.817  33.267  35.501  1.00  0.00     0.031 A 
ATOM     63  C   UNL A   1      38.526  31.412  36.334  1.00  0.00     0.131 A 
ATOM     64  C   UNL A   1      39.419  34.013  36.619  1.00  0.00     0.055 A 
ATOM     65  C   UNL A   1      38.059  32.190  37.394  1.00  0.00     0.041 A 
ATOM     66  F   UNL A   1      38.118  30.135  36.274  1.00  0.00    -0.206 F 
ATOM     67  C   UNL A   1      38.517  33.495  37.550  1.00  0.00     0.022 A 
BRANCH  64  68
ATOM     68  S   UNL A   1      40.218  35.614  36.920  1.00  0.00     0.124 S 
ATOM     69  O   UNL A   1      41.630  35.269  36.772  1.00  0.00    -0.237 OA
ATOM     70  O   UNL A   1      39.652  36.453  35.870  1.00  0.00    -0.237 OA
ATOM     71  O   UNL A   1      39.806  35.951  38.280  1.00  0.00    -0.744 OA
ENDBRANCH  64  68
ENDBRANCH  47  61
BRANCH  48  72
ATOM     72  C   UNL A   1      42.363  26.484  27.455  1.00  0.00     0.023 A 
ATOM     73  C   UNL A   1      42.076  25.114  27.334  1.00  0.00     0.031 A 
ATOM     74  C   UNL A   1      43.167  27.076  26.464  1.00  0.00     0.131 A 
ATOM     75  C   UNL A   1      42.643  24.371  26.287  1.00  0.00     0.055 A 
ATOM     76  C   UNL A   1      43.667  26.347  25.384  1.00  0.00     0.041 A 
ATOM     77  F   UNL A   1      43.476  28.381  26.529  1.00  0.00    -0.206 F 
ATOM     78  C   UNL A   1      43.421  24.980  25.301  1.00  0.00     0.022 A 
BRANCH  75  79
ATOM     79  S   UNL A   1      42.450  22.567  26.303  1.00  0.00     0.124 S 
ATOM     80  O   UNL A   1      41.007  22.427  26.470  1.00  0.00    -0.237 OA
ATOM     81  O   UNL A   1      42.985  22.192  24.999  1.00  0.00    -0.237 OA
ATOM     82  O   UNL A   1      43.255  22.150  27.449  1.00  0.00    -0.744 OA
ENDBRANCH  75  79
ENDBRANCH  48  72
BRANCH  60  83
ATOM     83  C   UNL A   1      44.876  27.426  33.899  1.00  0.00     0.023 A 
ATOM     84  C   UNL A   1      44.805  26.203  34.585  1.00  0.00     0.031 A 
ATOM     85  C   UNL A   1      46.105  28.113  33.895  1.00  0.00     0.131 A 
ATOM     86  C   UNL A   1      45.921  25.735  35.294  1.00  0.00     0.055 A 
ATOM     87  C   UNL A   1      47.234  27.602  34.535  1.00  0.00     0.041 A 
ATOM     88  F   UNL A   1      46.230  29.289  33.261  1.00  0.00    -0.206 F 
ATOM     89  C   UNL A   1      47.142  26.414  35.253  1.00  0.00     0.022 A 
BRANCH  86  90
ATOM     90  S   UNL A   1      45.723  24.286  36.367  1.00  0.00     0.124 S 
ATOM     91  O   UNL A   1      46.571  24.635  37.502  1.00  0.00    -0.237 OA
ATOM     92  O   UNL A   1      44.286  24.281  36.623  1.00  0.00    -0.237 OA
ATOM     93  O   UNL A   1      46.211  23.181  35.544  1.00  0.00    -0.744 OA
ENDBRANCH  86  90
ENDBRANCH  60  83
ENDBRANCH  34  35
ENDBRANCH  26  29
ENDBRANCH  24  25
ENDBRANCH  23  24
ENDBRANCH   1  23
TORSDOF 19
ENDMDL
