MODEL 1
REMARK VINA RESULT:     -12.5      0.000      0.000
REMARK SMILES CS(=O)(=O)c1ccc(/C=C(/C(=O)NCCCCNC(=O)c2ccc(-c3c4nc(c(-c5cc(S(=O)(=O)[O-])ccc5F)c5ccc([nH]5)c(-c5cc(S(=O)(=O)[O-])ccc5F)c5nc(c(-c6cc(S(=O)(=O)[O-])ccc6F)c6ccc3[nH]6)C=C5)C=C4)cc2)c2ccccc2)cc1
REMARK SMILES IDX 16 1 15 2 14 3 13 4 11 5 12 6 10 8 9 9 8 10 5 11 6 12 91 13
REMARK SMILES IDX 7 14 90 15 2 16 1 17 3 18 4 19 84 20 85 21 89 22 86 23 88 24
REMARK SMILES IDX 87 25 17 26 18 27 19 28 20 30 21 31 22 32 83 33 23 34 82 35
REMARK SMILES IDX 24 36 25 37 26 38 76 39 27 40 81 41 75 42 77 43 28 44 80 45
REMARK SMILES IDX 74 46 73 47 29 49 61 50 41 51 60 52 42 53 45 54 59 55 78 56
REMARK SMILES IDX 43 57 44 58 58 60 79 61 46 62 30 63 31 64 39 65 32 66 38 67
REMARK SMILES IDX 40 68 37 69 33 70 34 71 35 72 36 73 62 74 63 75 71 76 64 77
REMARK SMILES IDX 70 78 72 79 69 80 65 81 66 82 67 83 68 84 47 85 48 86 56 87
REMARK SMILES IDX 49 88 55 89 57 90 54 91 50 92 51 93 52 94 53 95
REMARK H PARENT 13 7 18 29 77 48 45 59
REMARK Flexibility Score: inf
ROOT
ATOM      1  C   UNL A   1      35.244  22.275  24.384  1.00  0.00     0.023 C 
ENDROOT
BRANCH   1   2
ATOM      2  C   UNL A   1      35.165  23.678  23.769  1.00  0.00     0.023 C 
BRANCH   2   3
ATOM      3  C   UNL A   1      33.791  24.044  23.199  1.00  0.00     0.116 C 
BRANCH   3   4
ATOM      4  N   UNL A   1      32.736  23.503  24.034  1.00  0.00    -0.352 N 
ATOM      5  C   UNL A   1      31.675  24.056  24.681  1.00  0.00     0.251 C 
ATOM      6  O   UNL A   1      30.981  23.284  25.349  1.00  0.00    -0.269 OA
ATOM      7  H   UNL A   1      32.801  22.529  24.158  1.00  0.00     0.163 HD
BRANCH   5   8
ATOM      8  C   UNL A   1      31.283  25.512  24.556  1.00  0.00     0.047 C 
ATOM      9  C   UNL A   1      30.558  25.981  23.515  1.00  0.00     0.022 C 
BRANCH   9  10
ATOM     10  C   UNL A   1      30.027  27.342  23.288  1.00  0.00    -0.025 A 
ATOM     11  C   UNL A   1      28.905  29.896  23.010  1.00  0.00     0.067 A 
ATOM     12  C   UNL A   1      30.260  29.699  22.739  1.00  0.00     0.021 A 
ATOM     13  C   UNL A   1      28.089  28.821  23.361  1.00  0.00     0.021 A 
ATOM     14  C   UNL A   1      30.812  28.421  22.865  1.00  0.00     0.009 A 
ATOM     15  C   UNL A   1      28.653  27.550  23.500  1.00  0.00     0.009 A 
BRANCH  11  16
ATOM     16  S   UNL A   1      28.224  31.531  22.893  1.00  0.00     0.175 S 
ATOM     17  C   UNL A   1      28.025  31.786  21.149  1.00  0.00     0.163 C 
ATOM     18  O   UNL A   1      29.225  32.468  23.358  1.00  0.00    -0.224 OA
ATOM     19  O   UNL A   1      26.903  31.487  23.498  1.00  0.00    -0.224 OA
ENDBRANCH  11  16
ENDBRANCH   9  10
BRANCH   8  20
ATOM     20  C   UNL A   1      31.881  26.454  25.536  1.00  0.00    -0.013 A 
ATOM     21  C   UNL A   1      33.218  26.851  25.363  1.00  0.00     0.009 A 
ATOM     22  C   UNL A   1      31.133  27.026  26.572  1.00  0.00     0.009 A 
ATOM     23  C   UNL A   1      33.789  27.820  26.187  1.00  0.00     0.001 A 
ATOM     24  C   UNL A   1      31.705  28.002  27.395  1.00  0.00     0.001 A 
ATOM     25  C   UNL A   1      33.027  28.403  27.196  1.00  0.00     0.000 A 
ENDBRANCH   8  20
ENDBRANCH   5   8
ENDBRANCH   3   4
ENDBRANCH   2   3
ENDBRANCH   1   2
BRANCH   1  26
ATOM     26  C   UNL A   1      36.120  22.156  25.628  1.00  0.00     0.116 C 
BRANCH  26  27
ATOM     27  N   UNL A   1      37.079  21.067  25.544  1.00  0.00    -0.352 N 
ATOM     28  C   UNL A   1      38.437  21.094  25.750  1.00  0.00     0.251 C 
ATOM     29  H   UNL A   1      36.703  20.188  25.307  1.00  0.00     0.163 HD
ATOM     30  O   UNL A   1      39.104  20.090  25.515  1.00  0.00    -0.269 OA
BRANCH  28  31
ATOM     31  C   UNL A   1      39.091  22.338  26.209  1.00  0.00     0.039 A 
ATOM     32  C   UNL A   1      40.211  22.239  27.038  1.00  0.00     0.014 A 
ATOM     33  C   UNL A   1      38.609  23.592  25.824  1.00  0.00     0.014 A 
ATOM     34  C   UNL A   1      40.888  23.397  27.429  1.00  0.00     0.010 A 
ATOM     35  C   UNL A   1      39.321  24.741  26.164  1.00  0.00     0.010 A 
ATOM     36  C   UNL A   1      40.467  24.655  26.967  1.00  0.00    -0.014 A 
BRANCH  36  37
ATOM     37  C   UNL A   1      41.219  25.889  27.315  1.00  0.00     0.031 A 
ATOM     38  C   UNL A   1      40.570  26.958  28.150  1.00  0.00     0.074 A 
ATOM     39  C   UNL A   1      42.461  26.070  26.824  1.00  0.00     0.049 A 
ATOM     40  N   UNL A   1      41.031  28.131  28.499  1.00  0.00    -0.248 NA
ATOM     41  C   UNL A   1      39.207  26.682  28.626  1.00  0.00     0.031 C 
ATOM     42  C   UNL A   1      43.176  25.123  25.967  1.00  0.00     0.029 A 
ATOM     43  N   UNL A   1      43.338  27.116  26.967  1.00  0.00    -0.354 N 
ATOM     44  C   UNL A   1      40.014  28.739  29.226  1.00  0.00     0.074 A 
ATOM     45  C   UNL A   1      38.890  27.825  29.214  1.00  0.00     0.031 C 
ATOM     46  C   UNL A   1      44.388  25.624  25.675  1.00  0.00     0.029 A 
ATOM     47  C   UNL A   1      44.522  26.939  26.291  1.00  0.00     0.049 A 
ATOM     48  H   UNL A   1      43.137  27.917  27.502  1.00  0.00     0.167 HD
ATOM     49  C   UNL A   1      40.024  29.938  29.862  1.00  0.00     0.034 A 
ATOM     50  C   UNL A   1      45.593  27.750  26.175  1.00  0.00     0.034 A 
ATOM     51  C   UNL A   1      41.158  30.829  29.874  1.00  0.00     0.049 A 
ATOM     52  C   UNL A   1      45.580  29.079  26.886  1.00  0.00     0.074 A 
ATOM     53  C   UNL A   1      41.298  32.040  30.531  1.00  0.00     0.029 A 
ATOM     54  N   UNL A   1      42.349  30.611  29.191  1.00  0.00    -0.354 N 
ATOM     55  N   UNL A   1      44.629  29.617  27.614  1.00  0.00    -0.248 NA
ATOM     56  C   UNL A   1      46.790  29.902  26.772  1.00  0.00     0.031 C 
ATOM     57  C   UNL A   1      42.546  32.580  30.199  1.00  0.00     0.029 A 
ATOM     58  C   UNL A   1      43.215  31.675  29.390  1.00  0.00     0.049 A 
ATOM     59  H   UNL A   1      42.548  29.816  28.646  1.00  0.00     0.167 HD
ATOM     60  C   UNL A   1      45.140  30.830  28.067  1.00  0.00     0.074 A 
ATOM     61  C   UNL A   1      46.486  30.935  27.542  1.00  0.00     0.031 C 
ATOM     62  C   UNL A   1      44.552  31.771  28.850  1.00  0.00     0.034 A 
BRANCH  49  63
ATOM     63  C   UNL A   1      38.757  30.354  30.572  1.00  0.00     0.023 A 
ATOM     64  C   UNL A   1      37.726  31.035  29.901  1.00  0.00     0.031 A 
ATOM     65  C   UNL A   1      38.593  30.100  31.945  1.00  0.00     0.131 A 
ATOM     66  C   UNL A   1      36.617  31.508  30.618  1.00  0.00     0.055 A 
ATOM     67  C   UNL A   1      37.448  30.502  32.637  1.00  0.00     0.041 A 
ATOM     68  F   UNL A   1      39.552  29.473  32.644  1.00  0.00    -0.206 F 
ATOM     69  C   UNL A   1      36.458  31.226  31.976  1.00  0.00     0.022 A 
BRANCH  66  70
ATOM     70  S   UNL A   1      35.460  32.627  29.781  1.00  0.00     0.124 S 
ATOM     71  O   UNL A   1      34.389  32.735  30.770  1.00  0.00    -0.237 OA
ATOM     72  O   UNL A   1      36.268  33.825  29.582  1.00  0.00    -0.237 OA
ATOM     73  O   UNL A   1      35.103  31.904  28.562  1.00  0.00    -0.744 OA
ENDBRANCH  66  70
ENDBRANCH  49  63
BRANCH  50  74
ATOM     74  C   UNL A   1      46.765  27.339  25.353  1.00  0.00     0.023 A 
ATOM     75  C   UNL A   1      46.942  27.829  24.051  1.00  0.00     0.031 A 
ATOM     76  C   UNL A   1      47.708  26.420  25.847  1.00  0.00     0.131 A 
ATOM     77  C   UNL A   1      48.010  27.365  23.267  1.00  0.00     0.055 A 
ATOM     78  C   UNL A   1      48.796  25.998  25.082  1.00  0.00     0.041 A 
ATOM     79  F   UNL A   1      47.590  25.929  27.091  1.00  0.00    -0.206 F 
ATOM     80  C   UNL A   1      48.944  26.461  23.777  1.00  0.00     0.022 A 
BRANCH  77  81
ATOM     81  S   UNL A   1      48.118  27.903  21.538  1.00  0.00     0.124 S 
ATOM     82  O   UNL A   1      48.439  26.654  20.857  1.00  0.00    -0.237 OA
ATOM     83  O   UNL A   1      46.779  28.435  21.304  1.00  0.00    -0.237 OA
ATOM     84  O   UNL A   1      49.187  28.900  21.558  1.00  0.00    -0.744 OA
ENDBRANCH  77  81
ENDBRANCH  50  74
BRANCH  62  85
ATOM     85  C   UNL A   1      45.388  32.971  29.216  1.00  0.00     0.023 A 
ATOM     86  C   UNL A   1      45.397  34.135  28.428  1.00  0.00     0.031 A 
ATOM     87  C   UNL A   1      46.200  32.941  30.363  1.00  0.00     0.131 A 
ATOM     88  C   UNL A   1      46.246  35.200  28.765  1.00  0.00     0.055 A 
ATOM     89  C   UNL A   1      47.000  34.026  30.727  1.00  0.00     0.041 A 
ATOM     90  F   UNL A   1      46.230  31.854  31.152  1.00  0.00    -0.206 F 
ATOM     91  C   UNL A   1      47.036  35.159  29.918  1.00  0.00     0.022 A 
BRANCH  88  92
ATOM     92  S   UNL A   1      46.372  36.608  27.629  1.00  0.00     0.124 S 
ATOM     93  O   UNL A   1      47.470  37.371  28.212  1.00  0.00    -0.237 OA
ATOM     94  O   UNL A   1      46.654  35.956  26.355  1.00  0.00    -0.237 OA
ATOM     95  O   UNL A   1      45.058  37.242  27.722  1.00  0.00    -0.744 OA
ENDBRANCH  88  92
ENDBRANCH  62  85
ENDBRANCH  36  37
ENDBRANCH  28  31
ENDBRANCH  26  27
ENDBRANCH   1  26
TORSDOF 17
ENDMDL
MODEL 2
REMARK VINA RESULT:     -12.5      3.090      7.912
REMARK SMILES CS(=O)(=O)c1ccc(/C=C(/C(=O)NCCCCNC(=O)c2ccc(-c3c4nc(c(-c5cc(S(=O)(=O)[O-])ccc5F)c5ccc([nH]5)c(-c5cc(S(=O)(=O)[O-])ccc5F)c5nc(c(-c6cc(S(=O)(=O)[O-])ccc6F)c6ccc3[nH]6)C=C5)C=C4)cc2)c2ccccc2)cc1
REMARK SMILES IDX 16 1 15 2 14 3 13 4 11 5 12 6 10 8 9 9 8 10 5 11 6 12 91 13
REMARK SMILES IDX 7 14 90 15 2 16 1 17 3 18 4 19 84 20 85 21 89 22 86 23 88 24
REMARK SMILES IDX 87 25 17 26 18 27 19 28 20 30 21 31 22 32 83 33 23 34 82 35
REMARK SMILES IDX 24 36 25 37 26 38 76 39 27 40 81 41 75 42 77 43 28 44 80 45
REMARK SMILES IDX 74 46 73 47 29 49 61 50 41 51 60 52 42 53 45 54 59 55 78 56
REMARK SMILES IDX 43 57 44 58 58 60 79 61 46 62 30 63 31 64 39 65 32 66 38 67
REMARK SMILES IDX 40 68 37 69 33 70 34 71 35 72 36 73 62 74 63 75 71 76 64 77
REMARK SMILES IDX 70 78 72 79 69 80 65 81 66 82 67 83 68 84 47 85 48 86 56 87
REMARK SMILES IDX 49 88 55 89 57 90 54 91 50 92 51 93 52 94 53 95
REMARK H PARENT 13 7 18 29 77 48 45 59
REMARK Flexibility Score: inf
ROOT
ATOM      1  C   UNL A   1      35.652  22.349  25.205  1.00  0.00     0.023 C 
ENDROOT
BRANCH   1   2
ATOM      2  C   UNL A   1      35.181  22.975  23.887  1.00  0.00     0.023 C 
BRANCH   2   3
ATOM      3  C   UNL A   1      33.660  23.034  23.720  1.00  0.00     0.116 C 
BRANCH   3   4
ATOM      4  N   UNL A   1      33.003  22.847  25.000  1.00  0.00    -0.352 N 
ATOM      5  C   UNL A   1      32.190  23.628  25.760  1.00  0.00     0.251 C 
ATOM      6  O   UNL A   1      31.831  23.152  26.841  1.00  0.00    -0.269 OA
ATOM      7  H   UNL A   1      33.185  21.968  25.404  1.00  0.00     0.163 HD
BRANCH   5   8
ATOM      8  C   UNL A   1      31.663  24.974  25.312  1.00  0.00     0.047 C 
ATOM      9  C   UNL A   1      30.902  25.124  24.205  1.00  0.00     0.022 C 
BRANCH   9  10
ATOM     10  C   UNL A   1      30.246  26.342  23.683  1.00  0.00    -0.025 A 
ATOM     11  C   UNL A   1      28.898  28.655  22.853  1.00  0.00     0.067 A 
ATOM     12  C   UNL A   1      30.252  28.496  22.554  1.00  0.00     0.021 A 
ATOM     13  C   UNL A   1      28.193  27.648  23.510  1.00  0.00     0.021 A 
ATOM     14  C   UNL A   1      30.916  27.334  22.957  1.00  0.00     0.009 A 
ATOM     15  C   UNL A   1      28.870  26.497  23.923  1.00  0.00     0.009 A 
BRANCH  11  16
ATOM     16  S   UNL A   1      28.075  30.155  22.379  1.00  0.00     0.175 S 
ATOM     17  C   UNL A   1      29.189  31.434  22.895  1.00  0.00     0.163 C 
ATOM     18  O   UNL A   1      26.873  30.279  23.177  1.00  0.00    -0.224 OA
ATOM     19  O   UNL A   1      28.012  30.167  20.927  1.00  0.00    -0.224 OA
ENDBRANCH  11  16
ENDBRANCH   9  10
BRANCH   8  20
ATOM     20  C   UNL A   1      32.165  26.167  26.041  1.00  0.00    -0.013 A 
ATOM     21  C   UNL A   1      33.472  26.616  25.783  1.00  0.00     0.009 A 
ATOM     22  C   UNL A   1      31.354  26.907  26.909  1.00  0.00     0.009 A 
ATOM     23  C   UNL A   1      33.949  27.794  26.354  1.00  0.00     0.001 A 
ATOM     24  C   UNL A   1      31.832  28.093  27.476  1.00  0.00     0.001 A 
ATOM     25  C   UNL A   1      33.124  28.539  27.192  1.00  0.00     0.000 A 
ENDBRANCH   8  20
ENDBRANCH   5   8
ENDBRANCH   3   4
ENDBRANCH   2   3
ENDBRANCH   1   2
BRANCH   1  26
ATOM     26  C   UNL A   1      36.814  23.065  25.890  1.00  0.00     0.116 C 
BRANCH  26  27
ATOM     27  N   UNL A   1      37.971  22.208  26.086  1.00  0.00    -0.352 N 
ATOM     28  C   UNL A   1      39.242  22.551  26.481  1.00  0.00     0.251 C 
ATOM     29  H   UNL A   1      37.825  21.250  25.912  1.00  0.00     0.163 HD
ATOM     30  O   UNL A   1      40.126  21.699  26.475  1.00  0.00    -0.269 OA
BRANCH  28  31
ATOM     31  C   UNL A   1      39.546  23.946  26.866  1.00  0.00     0.039 A 
ATOM     32  C   UNL A   1      39.344  24.332  28.194  1.00  0.00     0.014 A 
ATOM     33  C   UNL A   1      40.030  24.865  25.932  1.00  0.00     0.014 A 
ATOM     34  C   UNL A   1      39.689  25.623  28.599  1.00  0.00     0.010 A 
ATOM     35  C   UNL A   1      40.430  26.133  26.352  1.00  0.00     0.010 A 
ATOM     36  C   UNL A   1      40.266  26.523  27.688  1.00  0.00    -0.014 A 
BRANCH  36  37
ATOM     37  C   UNL A   1      40.704  27.875  28.121  1.00  0.00     0.031 A 
ATOM     38  C   UNL A   1      42.164  28.236  28.105  1.00  0.00     0.074 A 
ATOM     39  C   UNL A   1      39.793  28.751  28.588  1.00  0.00     0.049 A 
ATOM     40  N   UNL A   1      42.751  29.333  28.508  1.00  0.00    -0.248 NA
ATOM     41  C   UNL A   1      43.088  27.212  27.596  1.00  0.00     0.031 C 
ATOM     42  C   UNL A   1      38.355  28.497  28.694  1.00  0.00     0.029 A 
ATOM     43  N   UNL A   1      39.941  30.028  29.070  1.00  0.00    -0.354 N 
ATOM     44  C   UNL A   1      44.113  29.129  28.313  1.00  0.00     0.074 A 
ATOM     45  C   UNL A   1      44.265  27.779  27.812  1.00  0.00     0.031 C 
ATOM     46  C   UNL A   1      37.752  29.590  29.191  1.00  0.00     0.029 A 
ATOM     47  C   UNL A   1      38.760  30.605  29.475  1.00  0.00     0.049 A 
ATOM     48  H   UNL A   1      40.811  30.486  29.122  1.00  0.00     0.167 HD
ATOM     49  C   UNL A   1      45.138  29.995  28.515  1.00  0.00     0.034 A 
ATOM     50  C   UNL A   1      38.519  31.814  30.020  1.00  0.00     0.034 A 
ATOM     51  C   UNL A   1      44.967  31.342  29.003  1.00  0.00     0.049 A 
ATOM     52  C   UNL A   1      39.674  32.757  30.238  1.00  0.00     0.074 A 
ATOM     53  C   UNL A   1      45.927  32.322  29.191  1.00  0.00     0.029 A 
ATOM     54  N   UNL A   1      43.753  31.900  29.388  1.00  0.00    -0.354 N 
ATOM     55  N   UNL A   1      40.952  32.568  30.000  1.00  0.00    -0.248 NA
ATOM     56  C   UNL A   1      39.352  34.081  30.785  1.00  0.00     0.031 C 
ATOM     57  C   UNL A   1      45.305  33.448  29.743  1.00  0.00     0.029 A 
ATOM     58  C   UNL A   1      43.945  33.198  29.836  1.00  0.00     0.049 A 
ATOM     59  H   UNL A   1      42.884  31.440  29.348  1.00  0.00     0.167 HD
ATOM     60  C   UNL A   1      41.581  33.762  30.343  1.00  0.00     0.074 A 
ATOM     61  C   UNL A   1      40.540  34.666  30.789  1.00  0.00     0.031 C 
ATOM     62  C   UNL A   1      42.899  34.084  30.289  1.00  0.00     0.034 A 
BRANCH  49  63
ATOM     63  C   UNL A   1      46.534  29.493  28.227  1.00  0.00     0.023 A 
ATOM     64  C   UNL A   1      47.312  28.870  29.220  1.00  0.00     0.031 A 
ATOM     65  C   UNL A   1      47.108  29.670  26.957  1.00  0.00     0.131 A 
ATOM     66  C   UNL A   1      48.644  28.522  28.950  1.00  0.00     0.055 A 
ATOM     67  C   UNL A   1      48.408  29.246  26.670  1.00  0.00     0.041 A 
ATOM     68  F   UNL A   1      46.423  30.276  25.975  1.00  0.00    -0.206 F 
ATOM     69  C   UNL A   1      49.190  28.682  27.675  1.00  0.00     0.022 A 
BRANCH  66  70
ATOM     70  S   UNL A   1      49.697  27.994  30.330  1.00  0.00     0.124 S 
ATOM     71  O   UNL A   1      50.132  26.675  29.879  1.00  0.00    -0.237 OA
ATOM     72  O   UNL A   1      50.723  29.031  30.357  1.00  0.00    -0.237 OA
ATOM     73  O   UNL A   1      48.786  27.986  31.473  1.00  0.00    -0.744 OA
ENDBRANCH  66  70
ENDBRANCH  49  63
BRANCH  50  74
ATOM     74  C   UNL A   1      37.134  32.206  30.402  1.00  0.00     0.023 A 
ATOM     75  C   UNL A   1      36.243  32.731  29.453  1.00  0.00     0.031 A 
ATOM     76  C   UNL A   1      36.692  32.095  31.733  1.00  0.00     0.131 A 
ATOM     77  C   UNL A   1      34.972  33.169  29.854  1.00  0.00     0.055 A 
ATOM     78  C   UNL A   1      35.409  32.488  32.118  1.00  0.00     0.041 A 
ATOM     79  F   UNL A   1      37.501  31.591  32.677  1.00  0.00    -0.206 F 
ATOM     80  C   UNL A   1      34.544  33.041  31.177  1.00  0.00     0.022 A 
BRANCH  77  81
ATOM     81  S   UNL A   1      33.908  33.982  28.630  1.00  0.00     0.124 S 
ATOM     82  O   UNL A   1      32.878  34.573  29.478  1.00  0.00    -0.237 OA
ATOM     83  O   UNL A   1      34.833  34.916  27.999  1.00  0.00    -0.237 OA
ATOM     84  O   UNL A   1      33.462  32.880  27.781  1.00  0.00    -0.744 OA
ENDBRANCH  77  81
ENDBRANCH  50  74
BRANCH  62  85
ATOM     85  C   UNL A   1      43.272  35.490  30.684  1.00  0.00     0.023 A 
ATOM     86  C   UNL A   1      43.435  35.862  32.030  1.00  0.00     0.031 A 
ATOM     87  C   UNL A   1      43.450  36.476  29.698  1.00  0.00     0.131 A 
ATOM     88  C   UNL A   1      43.710  37.199  32.357  1.00  0.00     0.055 A 
ATOM     89  C   UNL A   1      43.781  37.792  30.026  1.00  0.00     0.041 A 
ATOM     90  F   UNL A   1      43.306  36.176  28.397  1.00  0.00    -0.206 F 
ATOM     91  C   UNL A   1      43.900  38.163  31.362  1.00  0.00     0.022 A 
BRANCH  88  92
ATOM     92  S   UNL A   1      43.732  37.682  34.105  1.00  0.00     0.124 S 
ATOM     93  O   UNL A   1      45.146  37.972  34.322  1.00  0.00    -0.237 OA
ATOM     94  O   UNL A   1      42.836  38.833  34.122  1.00  0.00    -0.237 OA
ATOM     95  O   UNL A   1      43.229  36.496  34.795  1.00  0.00    -0.744 OA
ENDBRANCH  88  92
ENDBRANCH  62  85
ENDBRANCH  36  37
ENDBRANCH  28  31
ENDBRANCH  26  27
ENDBRANCH   1  26
TORSDOF 17
ENDMDL
MODEL 3
REMARK VINA RESULT:     -12.4      5.075      8.026
REMARK SMILES CS(=O)(=O)c1ccc(/C=C(/C(=O)NCCCCNC(=O)c2ccc(-c3c4nc(c(-c5cc(S(=O)(=O)[O-])ccc5F)c5ccc([nH]5)c(-c5cc(S(=O)(=O)[O-])ccc5F)c5nc(c(-c6cc(S(=O)(=O)[O-])ccc6F)c6ccc3[nH]6)C=C5)C=C4)cc2)c2ccccc2)cc1
REMARK SMILES IDX 16 1 15 2 14 3 13 4 11 5 12 6 10 8 9 9 8 10 5 11 6 12 91 13
REMARK SMILES IDX 7 14 90 15 2 16 1 17 3 18 4 19 84 20 85 21 89 22 86 23 88 24
REMARK SMILES IDX 87 25 17 26 18 27 19 28 20 30 21 31 22 32 83 33 23 34 82 35
REMARK SMILES IDX 24 36 25 37 26 38 76 39 27 40 81 41 75 42 77 43 28 44 80 45
REMARK SMILES IDX 74 46 73 47 29 49 61 50 41 51 60 52 42 53 45 54 59 55 78 56
REMARK SMILES IDX 43 57 44 58 58 60 79 61 46 62 30 63 31 64 39 65 32 66 38 67
REMARK SMILES IDX 40 68 37 69 33 70 34 71 35 72 36 73 62 74 63 75 71 76 64 77
REMARK SMILES IDX 70 78 72 79 69 80 65 81 66 82 67 83 68 84 47 85 48 86 56 87
REMARK SMILES IDX 49 88 55 89 57 90 54 91 50 92 51 93 52 94 53 95
REMARK H PARENT 13 7 18 29 77 48 45 59
REMARK Flexibility Score: inf
ROOT
ATOM      1  C   UNL A   1      33.104  27.837  26.210  1.00  0.00     0.023 C 
ENDROOT
BRANCH   1   2
ATOM      2  C   UNL A   1      31.754  27.910  25.485  1.00  0.00     0.023 C 
BRANCH   2   3
ATOM      3  C   UNL A   1      31.484  26.745  24.529  1.00  0.00     0.116 C 
BRANCH   3   4
ATOM      4  N   UNL A   1      32.324  26.852  23.351  1.00  0.00    -0.352 N 
ATOM      5  C   UNL A   1      33.185  26.000  22.733  1.00  0.00     0.251 C 
ATOM      6  O   UNL A   1      33.775  26.444  21.744  1.00  0.00    -0.269 OA
ATOM      7  H   UNL A   1      32.257  27.726  22.905  1.00  0.00     0.163 HD
BRANCH   5   8
ATOM      8  C   UNL A   1      33.380  24.558  23.148  1.00  0.00     0.047 C 
ATOM      9  C   UNL A   1      32.375  23.654  23.127  1.00  0.00     0.022 C 
BRANCH   9  10
ATOM     10  C   UNL A   1      32.419  22.205  23.417  1.00  0.00    -0.025 A 
ATOM     11  C   UNL A   1      32.584  19.433  23.797  1.00  0.00     0.067 A 
ATOM     12  C   UNL A   1      32.776  20.294  24.878  1.00  0.00     0.021 A 
ATOM     13  C   UNL A   1      32.253  19.935  22.539  1.00  0.00     0.021 A 
ATOM     14  C   UNL A   1      32.678  21.675  24.687  1.00  0.00     0.009 A 
ATOM     15  C   UNL A   1      32.173  21.318  22.355  1.00  0.00     0.009 A 
BRANCH  11  16
ATOM     16  S   UNL A   1      32.758  17.682  24.039  1.00  0.00     0.175 S 
ATOM     17  C   UNL A   1      34.435  17.492  24.583  1.00  0.00     0.163 C 
ATOM     18  O   UNL A   1      32.644  17.037  22.748  1.00  0.00    -0.224 OA
ATOM     19  O   UNL A   1      31.881  17.315  25.138  1.00  0.00    -0.224 OA
ENDBRANCH  11  16
ENDBRANCH   9  10
BRANCH   8  20
ATOM     20  C   UNL A   1      34.688  24.207  23.758  1.00  0.00    -0.013 A 
ATOM     21  C   UNL A   1      34.955  24.626  25.073  1.00  0.00     0.009 A 
ATOM     22  C   UNL A   1      35.626  23.401  23.101  1.00  0.00     0.009 A 
ATOM     23  C   UNL A   1      36.118  24.226  25.729  1.00  0.00     0.001 A 
ATOM     24  C   UNL A   1      36.789  22.994  23.763  1.00  0.00     0.001 A 
ATOM     25  C   UNL A   1      37.029  23.400  25.077  1.00  0.00     0.000 A 
ENDBRANCH   8  20
ENDBRANCH   5   8
ENDBRANCH   3   4
ENDBRANCH   2   3
ENDBRANCH   1   2
BRANCH   1  26
ATOM     26  C   UNL A   1      34.093  28.948  25.865  1.00  0.00     0.116 C 
BRANCH  26  27
ATOM     27  N   UNL A   1      33.827  30.186  26.578  1.00  0.00    -0.352 N 
ATOM     28  C   UNL A   1      34.527  30.751  27.617  1.00  0.00     0.251 C 
ATOM     29  H   UNL A   1      33.037  30.689  26.277  1.00  0.00     0.163 HD
ATOM     30  O   UNL A   1      34.080  31.749  28.175  1.00  0.00    -0.269 OA
BRANCH  28  31
ATOM     31  C   UNL A   1      35.788  30.133  28.082  1.00  0.00     0.039 A 
ATOM     32  C   UNL A   1      36.919  30.227  27.268  1.00  0.00     0.014 A 
ATOM     33  C   UNL A   1      35.858  29.471  29.311  1.00  0.00     0.014 A 
ATOM     34  C   UNL A   1      38.139  29.713  27.715  1.00  0.00     0.010 A 
ATOM     35  C   UNL A   1      37.088  29.014  29.781  1.00  0.00     0.010 A 
ATOM     36  C   UNL A   1      38.240  29.132  28.989  1.00  0.00    -0.014 A 
BRANCH  36  37
ATOM     37  C   UNL A   1      39.544  28.645  29.508  1.00  0.00     0.031 A 
ATOM     38  C   UNL A   1      40.248  29.398  30.604  1.00  0.00     0.074 A 
ATOM     39  C   UNL A   1      40.122  27.565  28.947  1.00  0.00     0.049 A 
ATOM     40  N   UNL A   1      41.420  29.176  31.141  1.00  0.00    -0.248 NA
ATOM     41  C   UNL A   1      39.552  30.574  31.144  1.00  0.00     0.031 C 
ATOM     42  C   UNL A   1      39.555  26.782  27.847  1.00  0.00     0.029 A 
ATOM     43  N   UNL A   1      41.316  26.945  29.216  1.00  0.00    -0.354 N 
ATOM     44  C   UNL A   1      41.609  30.190  32.073  1.00  0.00     0.074 A 
ATOM     45  C   UNL A   1      40.455  31.060  31.983  1.00  0.00     0.031 C 
ATOM     46  C   UNL A   1      40.393  25.775  27.548  1.00  0.00     0.029 A 
ATOM     47  C   UNL A   1      41.570  25.863  28.406  1.00  0.00     0.049 A 
ATOM     48  H   UNL A   1      41.932  27.247  29.922  1.00  0.00     0.167 HD
ATOM     49  C   UNL A   1      42.640  30.367  32.938  1.00  0.00     0.034 A 
ATOM     50  C   UNL A   1      42.636  25.039  28.355  1.00  0.00     0.034 A 
ATOM     51  C   UNL A   1      43.776  29.483  33.023  1.00  0.00     0.049 A 
ATOM     52  C   UNL A   1      43.771  25.258  29.323  1.00  0.00     0.074 A 
ATOM     53  C   UNL A   1      44.848  29.535  33.898  1.00  0.00     0.029 A 
ATOM     54  N   UNL A   1      43.994  28.386  32.197  1.00  0.00    -0.354 N 
ATOM     55  N   UNL A   1      43.911  26.192  30.235  1.00  0.00    -0.248 NA
ATOM     56  C   UNL A   1      44.884  24.302  29.263  1.00  0.00     0.031 C 
ATOM     57  C   UNL A   1      45.739  28.508  33.564  1.00  0.00     0.029 A 
ATOM     58  C   UNL A   1      45.193  27.772  32.525  1.00  0.00     0.049 A 
ATOM     59  H   UNL A   1      43.386  28.089  31.483  1.00  0.00     0.167 HD
ATOM     60  C   UNL A   1      45.116  25.917  30.876  1.00  0.00     0.074 A 
ATOM     61  C   UNL A   1      45.653  24.723  30.255  1.00  0.00     0.031 C 
ATOM     62  C   UNL A   1      45.721  26.588  31.889  1.00  0.00     0.034 A 
BRANCH  49  63
ATOM     63  C   UNL A   1      42.587  31.579  33.839  1.00  0.00     0.023 A 
ATOM     64  C   UNL A   1      42.156  31.486  35.175  1.00  0.00     0.031 A 
ATOM     65  C   UNL A   1      42.936  32.849  33.348  1.00  0.00     0.131 A 
ATOM     66  C   UNL A   1      42.009  32.648  35.946  1.00  0.00     0.055 A 
ATOM     67  C   UNL A   1      42.865  33.993  34.147  1.00  0.00     0.041 A 
ATOM     68  F   UNL A   1      43.334  33.005  32.076  1.00  0.00    -0.206 F 
ATOM     69  C   UNL A   1      42.383  33.899  35.450  1.00  0.00     0.022 A 
BRANCH  66  70
ATOM     70  S   UNL A   1      41.179  32.520  37.554  1.00  0.00     0.124 S 
ATOM     71  O   UNL A   1      42.026  31.551  38.245  1.00  0.00    -0.237 OA
ATOM     72  O   UNL A   1      41.240  33.891  38.050  1.00  0.00    -0.237 OA
ATOM     73  O   UNL A   1      39.842  32.039  37.213  1.00  0.00    -0.744 OA
ENDBRANCH  66  70
ENDBRANCH  49  63
BRANCH  50  74
ATOM     74  C   UNL A   1      42.690  23.935  27.356  1.00  0.00     0.023 A 
ATOM     75  C   UNL A   1      42.031  22.719  27.588  1.00  0.00     0.031 A 
ATOM     76  C   UNL A   1      43.432  24.069  26.170  1.00  0.00     0.131 A 
ATOM     77  C   UNL A   1      42.163  21.666  26.670  1.00  0.00     0.055 A 
ATOM     78  C   UNL A   1      43.522  23.035  25.236  1.00  0.00     0.041 A 
ATOM     79  F   UNL A   1      44.073  25.217  25.895  1.00  0.00    -0.206 F 
ATOM     80  C   UNL A   1      42.895  21.819  25.491  1.00  0.00     0.022 A 
BRANCH  77  81
ATOM     81  S   UNL A   1      41.425  20.059  27.078  1.00  0.00     0.124 S 
ATOM     82  O   UNL A   1      42.597  19.192  27.106  1.00  0.00    -0.237 OA
ATOM     83  O   UNL A   1      40.799  20.334  28.368  1.00  0.00    -0.237 OA
ATOM     84  O   UNL A   1      40.496  19.822  25.976  1.00  0.00    -0.744 OA
ENDBRANCH  77  81
ENDBRANCH  50  74
BRANCH  62  85
ATOM     85  C   UNL A   1      47.013  26.010  32.411  1.00  0.00     0.023 A 
ATOM     86  C   UNL A   1      48.258  26.364  31.862  1.00  0.00     0.031 A 
ATOM     87  C   UNL A   1      46.994  25.077  33.463  1.00  0.00     0.131 A 
ATOM     88  C   UNL A   1      49.428  25.747  32.330  1.00  0.00     0.055 A 
ATOM     89  C   UNL A   1      48.166  24.509  33.963  1.00  0.00     0.041 A 
ATOM     90  F   UNL A   1      45.832  24.702  34.023  1.00  0.00    -0.206 F 
ATOM     91  C   UNL A   1      49.391  24.833  33.387  1.00  0.00     0.022 A 
BRANCH  88  92
ATOM     92  S   UNL A   1      50.993  26.088  31.479  1.00  0.00     0.124 S 
ATOM     93  O   UNL A   1      50.904  27.526  31.245  1.00  0.00    -0.237 OA
ATOM     94  O   UNL A   1      51.982  25.662  32.463  1.00  0.00    -0.237 OA
ATOM     95  O   UNL A   1      50.918  25.259  30.277  1.00  0.00    -0.744 OA
ENDBRANCH  88  92
ENDBRANCH  62  85
ENDBRANCH  36  37
ENDBRANCH  28  31
ENDBRANCH  26  27
ENDBRANCH   1  26
TORSDOF 17
ENDMDL
