MODEL 1
REMARK VINA RESULT:      -9.2      0.000      0.000
REMARK SMILES NS(=O)(=O)c1ccc(-n2nc(C(=O)NCCCCCCCCCCC(=O)NCCCCNC(=O)c3ccc(-c4c5nc(c(-c6cc(S(=O)(=O)[O-])ccc6F)c6ccc([nH]6)c(-c6cc(S(=O)(=O)[O-])ccc6F)c6nc(c(-c7cc(S(=O)(=O)[O-])ccc7F)c7ccc4[nH]7)C=C6)C=C5)cc3)cc2-c2ccccc2)cc1
REMARK SMILES IDX 22 1 21 2 20 3 19 4 18 5 17 6 16 7 15 8 14 9 12 10 13 11
REMARK SMILES IDX 11 13 9 14 10 15 99 16 98 17 8 18 5 19 6 20 107 21 7 22
REMARK SMILES IDX 106 23 2 24 3 25 4 26 1 27 100 30 101 31 105 32 102 33
REMARK SMILES IDX 104 34 103 35 23 36 24 37 25 38 26 39 27 40 28 42 29 43
REMARK SMILES IDX 30 44 31 45 32 46 33 47 34 49 35 50 36 51 97 52 37 53 96 54
REMARK SMILES IDX 38 55 39 56 40 57 90 58 41 59 95 60 89 61 91 62 42 63 94 64
REMARK SMILES IDX 88 65 87 66 43 68 75 69 55 70 74 71 56 72 59 73 73 74 92 75
REMARK SMILES IDX 57 76 58 77 72 79 93 80 60 81 44 82 45 83 53 84 46 85 52 86
REMARK SMILES IDX 54 87 51 88 47 89 48 90 49 91 50 92 76 93 77 94 85 95 78 96
REMARK SMILES IDX 84 97 86 98 83 99 79 100 80 101 81 102 82 103 61 104 62 105
REMARK SMILES IDX 70 106 63 107 69 108 71 109 68 110 64 111 65 112 66 113
REMARK SMILES IDX 67 114
REMARK H PARENT 14 12 1 28 1 29 27 41 32 48 91 67 59 78
REMARK Flexibility Score: inf
ROOT
ATOM      1  C   UNL A   1      38.588  24.206  26.378  1.00  0.00     0.001 C 
ENDROOT
BRANCH   1   2
ATOM      2  C   UNL A   1      37.823  22.941  25.972  1.00  0.00     0.000 C 
BRANCH   2   3
ATOM      3  C   UNL A   1      36.997  23.135  24.704  1.00  0.00     0.000 C 
BRANCH   3   4
ATOM      4  C   UNL A   1      36.243  21.881  24.257  1.00  0.00     0.000 C 
BRANCH   4   5
ATOM      5  C   UNL A   1      35.105  21.464  25.195  1.00  0.00     0.000 C 
BRANCH   5   6
ATOM      6  C   UNL A   1      34.025  20.591  24.540  1.00  0.00     0.002 C 
BRANCH   6   7
ATOM      7  C   UNL A   1      32.694  20.548  25.300  1.00  0.00     0.021 C 
BRANCH   7   8
ATOM      8  C   UNL A   1      31.810  21.756  24.995  1.00  0.00     0.116 C 
BRANCH   8   9
ATOM      9  N   UNL A   1      30.918  22.036  26.092  1.00  0.00    -0.351 N 
ATOM     10  C   UNL A   1      30.435  23.197  26.637  1.00  0.00     0.271 C 
ATOM     11  O   UNL A   1      29.698  23.051  27.617  1.00  0.00    -0.267 OA
ATOM     12  H   UNL A   1      30.587  21.225  26.542  1.00  0.00     0.163 HD
BRANCH  10  13
ATOM     13  C   UNL A   1      30.727  24.533  26.070  1.00  0.00     0.151 A 
ATOM     14  N   UNL A   1      31.447  26.562  26.124  1.00  0.00    -0.232 N 
ATOM     15  N   UNL A   1      31.505  25.383  26.771  1.00  0.00    -0.162 NA
ATOM     16  C   UNL A   1      30.759  26.473  24.929  1.00  0.00     0.075 A 
ATOM     17  C   UNL A   1      30.348  25.158  24.856  1.00  0.00     0.065 A 
BRANCH  14  18
ATOM     18  C   UNL A   1      32.111  27.691  26.650  1.00  0.00     0.065 A 
ATOM     19  C   UNL A   1      33.372  30.055  27.348  1.00  0.00     0.082 A 
ATOM     20  C   UNL A   1      32.022  29.875  27.668  1.00  0.00     0.024 A 
ATOM     21  C   UNL A   1      34.108  29.040  26.726  1.00  0.00     0.024 A 
ATOM     22  C   UNL A   1      31.385  28.690  27.310  1.00  0.00     0.030 A 
ATOM     23  C   UNL A   1      33.481  27.838  26.401  1.00  0.00     0.030 A 
BRANCH  19  24
ATOM     24  S   UNL A   1      34.092  31.633  27.677  1.00  0.00     0.238 S 
ATOM     25  O   UNL A   1      33.160  32.656  27.291  1.00  0.00    -0.207 OA
ATOM     26  O   UNL A   1      35.468  31.609  27.213  1.00  0.00    -0.207 OA
BRANCH  24  27
ATOM     27  N   UNL A   1      34.205  31.702  29.351  1.00  0.00    -0.225 NA
ATOM     28  H   UNL A   1      35.185  31.636  29.628  1.00  0.00     0.137 HD
ATOM     29  H   UNL A   1      33.684  30.927  29.759  1.00  0.00     0.137 HD
ENDBRANCH  24  27
ENDBRANCH  19  24
ENDBRANCH  14  18
BRANCH  16  30
ATOM     30  C   UNL A   1      30.635  27.516  23.914  1.00  0.00     0.000 A 
ATOM     31  C   UNL A   1      31.757  27.968  23.208  1.00  0.00     0.010 A 
ATOM     32  C   UNL A   1      29.378  28.059  23.621  1.00  0.00     0.010 A 
ATOM     33  C   UNL A   1      31.628  28.968  22.244  1.00  0.00     0.001 A 
ATOM     34  C   UNL A   1      29.251  29.055  22.652  1.00  0.00     0.001 A 
ATOM     35  C   UNL A   1      30.375  29.512  21.967  1.00  0.00     0.000 A 
ENDBRANCH  16  30
ENDBRANCH  10  13
ENDBRANCH   8   9
ENDBRANCH   7   8
ENDBRANCH   6   7
ENDBRANCH   5   6
ENDBRANCH   4   5
ENDBRANCH   3   4
ENDBRANCH   2   3
ENDBRANCH   1   2
BRANCH   1  36
ATOM     36  C   UNL A   1      40.004  23.941  26.877  1.00  0.00     0.010 C 
BRANCH  36  37
ATOM     37  C   UNL A   1      40.733  25.148  27.467  1.00  0.00     0.100 C 
BRANCH  37  38
ATOM     38  C   UNL A   1      40.959  26.259  26.463  1.00  0.00     0.219 C 
ATOM     39  O   UNL A   1      41.449  26.013  25.359  1.00  0.00    -0.275 OA
ATOM     40  N   UNL A   1      40.633  27.550  26.751  1.00  0.00    -0.356 N 
ATOM     41  H   UNL A   1      40.745  28.179  26.002  1.00  0.00     0.163 HD
BRANCH  40  42
ATOM     42  C   UNL A   1      40.146  28.154  27.980  1.00  0.00     0.116 C 
BRANCH  42  43
ATOM     43  C   UNL A   1      39.210  29.336  27.691  1.00  0.00     0.023 C 
BRANCH  43  44
ATOM     44  C   UNL A   1      37.717  29.064  27.901  1.00  0.00     0.023 C 
BRANCH  44  45
ATOM     45  C   UNL A   1      37.223  29.335  29.316  1.00  0.00     0.116 C 
BRANCH  45  46
ATOM     46  N   UNL A   1      36.933  30.747  29.555  1.00  0.00    -0.352 N 
ATOM     47  C   UNL A   1      37.591  31.597  30.423  1.00  0.00     0.251 C 
ATOM     48  H   UNL A   1      36.187  31.135  29.041  1.00  0.00     0.163 HD
ATOM     49  O   UNL A   1      37.067  32.633  30.812  1.00  0.00    -0.269 OA
BRANCH  47  50
ATOM     50  C   UNL A   1      38.935  31.203  30.878  1.00  0.00     0.039 A 
ATOM     51  C   UNL A   1      39.098  30.152  31.780  1.00  0.00     0.014 A 
ATOM     52  C   UNL A   1      40.033  31.816  30.275  1.00  0.00     0.014 A 
ATOM     53  C   UNL A   1      40.378  29.639  31.987  1.00  0.00     0.010 A 
ATOM     54  C   UNL A   1      41.284  31.246  30.414  1.00  0.00     0.010 A 
ATOM     55  C   UNL A   1      41.472  30.157  31.270  1.00  0.00    -0.014 A 
BRANCH  55  56
ATOM     56  C   UNL A   1      42.761  29.453  31.307  1.00  0.00     0.031 A 
ATOM     57  C   UNL A   1      43.254  28.900  30.006  1.00  0.00     0.074 A 
ATOM     58  C   UNL A   1      43.612  29.465  32.355  1.00  0.00     0.049 A 
ATOM     59  N   UNL A   1      43.498  27.666  29.704  1.00  0.00    -0.248 NA
ATOM     60  C   UNL A   1      43.433  29.826  28.877  1.00  0.00     0.031 C 
ATOM     61  C   UNL A   1      43.484  30.196  33.618  1.00  0.00     0.029 A 
ATOM     62  N   UNL A   1      44.853  28.905  32.453  1.00  0.00    -0.354 N 
ATOM     63  C   UNL A   1      44.049  27.668  28.423  1.00  0.00     0.074 A 
ATOM     64  C   UNL A   1      43.850  29.000  27.914  1.00  0.00     0.031 C 
ATOM     65  C   UNL A   1      44.682  30.237  34.239  1.00  0.00     0.029 A 
ATOM     66  C   UNL A   1      45.609  29.386  33.514  1.00  0.00     0.049 A 
ATOM     67  H   UNL A   1      45.183  28.221  31.827  1.00  0.00     0.167 HD
ATOM     68  C   UNL A   1      44.782  26.616  27.953  1.00  0.00     0.034 A 
ATOM     69  C   UNL A   1      46.912  29.130  33.788  1.00  0.00     0.034 A 
ATOM     70  C   UNL A   1      44.564  25.430  28.748  1.00  0.00     0.049 A 
ATOM     71  C   UNL A   1      47.251  27.844  33.137  1.00  0.00     0.074 A 
ATOM     72  C   UNL A   1      43.452  24.688  29.098  1.00  0.00     0.029 A 
ATOM     73  N   UNL A   1      45.549  25.038  29.626  1.00  0.00    -0.354 N 
ATOM     74  N   UNL A   1      46.711  26.704  33.475  1.00  0.00    -0.248 NA
ATOM     75  C   UNL A   1      47.867  27.867  31.821  1.00  0.00     0.031 C 
ATOM     76  C   UNL A   1      43.671  24.325  30.460  1.00  0.00     0.029 A 
ATOM     77  C   UNL A   1      44.931  24.803  30.830  1.00  0.00     0.049 A 
ATOM     78  H   UNL A   1      46.509  24.944  29.430  1.00  0.00     0.167 HD
ATOM     79  C   UNL A   1      46.528  26.026  32.282  1.00  0.00     0.074 A 
ATOM     80  C   UNL A   1      47.370  26.734  31.320  1.00  0.00     0.031 C 
ATOM     81  C   UNL A   1      45.506  25.134  32.121  1.00  0.00     0.034 A 
BRANCH  68  82
ATOM     82  C   UNL A   1      45.923  26.708  26.959  1.00  0.00     0.023 A 
ATOM     83  C   UNL A   1      47.128  27.304  27.390  1.00  0.00     0.031 A 
ATOM     84  C   UNL A   1      45.809  26.506  25.565  1.00  0.00     0.131 A 
ATOM     85  C   UNL A   1      48.095  27.744  26.467  1.00  0.00     0.055 A 
ATOM     86  C   UNL A   1      46.806  26.879  24.656  1.00  0.00     0.041 A 
ATOM     87  F   UNL A   1      44.696  26.028  24.996  1.00  0.00    -0.206 F 
ATOM     88  C   UNL A   1      47.944  27.530  25.100  1.00  0.00     0.022 A 
BRANCH  85  89
ATOM     89  S   UNL A   1      49.462  28.774  27.067  1.00  0.00     0.124 S 
ATOM     90  O   UNL A   1      48.752  29.786  27.842  1.00  0.00    -0.237 OA
ATOM     91  O   UNL A   1      50.250  27.812  27.829  1.00  0.00    -0.237 OA
ATOM     92  O   UNL A   1      50.088  29.258  25.838  1.00  0.00    -0.744 OA
ENDBRANCH  85  89
ENDBRANCH  68  82
BRANCH  69  93
ATOM     93  C   UNL A   1      47.907  30.069  34.359  1.00  0.00     0.023 A 
ATOM     94  C   UNL A   1      48.434  29.922  35.656  1.00  0.00     0.031 A 
ATOM     95  C   UNL A   1      48.534  31.020  33.520  1.00  0.00     0.131 A 
ATOM     96  C   UNL A   1      49.535  30.706  36.067  1.00  0.00     0.055 A 
ATOM     97  C   UNL A   1      49.615  31.799  33.934  1.00  0.00     0.041 A 
ATOM     98  F   UNL A   1      48.164  31.164  32.236  1.00  0.00    -0.206 F 
ATOM     99  C   UNL A   1      50.128  31.638  35.211  1.00  0.00     0.022 A 
BRANCH  96 100
ATOM    100  S   UNL A   1      50.287  30.440  37.704  1.00  0.00     0.124 S 
ATOM    101  O   UNL A   1      51.450  31.319  37.656  1.00  0.00    -0.237 OA
ATOM    102  O   UNL A   1      49.214  30.830  38.610  1.00  0.00    -0.237 OA
ATOM    103  O   UNL A   1      50.597  29.009  37.706  1.00  0.00    -0.744 OA
ENDBRANCH  96 100
ENDBRANCH  69  93
BRANCH  81 104
ATOM    104  C   UNL A   1      44.760  24.646  33.349  1.00  0.00     0.023 A 
ATOM    105  C   UNL A   1      43.792  25.395  34.055  1.00  0.00     0.031 A 
ATOM    106  C   UNL A   1      44.958  23.309  33.741  1.00  0.00     0.131 A 
ATOM    107  C   UNL A   1      43.076  24.805  35.116  1.00  0.00     0.055 A 
ATOM    108  C   UNL A   1      44.232  22.722  34.777  1.00  0.00     0.041 A 
ATOM    109  F   UNL A   1      45.842  22.533  33.092  1.00  0.00    -0.206 F 
ATOM    110  C   UNL A   1      43.291  23.470  35.473  1.00  0.00     0.022 A 
BRANCH 107 111
ATOM    111  S   UNL A   1      41.857  25.772  36.065  1.00  0.00     0.124 S 
ATOM    112  O   UNL A   1      40.875  26.168  35.062  1.00  0.00    -0.237 OA
ATOM    113  O   UNL A   1      41.397  24.808  37.063  1.00  0.00    -0.237 OA
ATOM    114  O   UNL A   1      42.650  26.875  36.610  1.00  0.00    -0.744 OA
ENDBRANCH 107 111
ENDBRANCH  81 104
ENDBRANCH  55  56
ENDBRANCH  47  50
ENDBRANCH  45  46
ENDBRANCH  44  45
ENDBRANCH  43  44
ENDBRANCH  42  43
ENDBRANCH  40  42
ENDBRANCH  37  38
ENDBRANCH  36  37
ENDBRANCH   1  36
TORSDOF 29
ENDMDL
MODEL 2
REMARK VINA RESULT:      -8.5      6.942     10.566
REMARK SMILES NS(=O)(=O)c1ccc(-n2nc(C(=O)NCCCCCCCCCCC(=O)NCCCCNC(=O)c3ccc(-c4c5nc(c(-c6cc(S(=O)(=O)[O-])ccc6F)c6ccc([nH]6)c(-c6cc(S(=O)(=O)[O-])ccc6F)c6nc(c(-c7cc(S(=O)(=O)[O-])ccc7F)c7ccc4[nH]7)C=C6)C=C5)cc3)cc2-c2ccccc2)cc1
REMARK SMILES IDX 22 1 21 2 20 3 19 4 18 5 17 6 16 7 15 8 14 9 12 10 13 11
REMARK SMILES IDX 11 13 9 14 10 15 99 16 98 17 8 18 5 19 6 20 107 21 7 22
REMARK SMILES IDX 106 23 2 24 3 25 4 26 1 27 100 30 101 31 105 32 102 33
REMARK SMILES IDX 104 34 103 35 23 36 24 37 25 38 26 39 27 40 28 42 29 43
REMARK SMILES IDX 30 44 31 45 32 46 33 47 34 49 35 50 36 51 97 52 37 53 96 54
REMARK SMILES IDX 38 55 39 56 40 57 90 58 41 59 95 60 89 61 91 62 42 63 94 64
REMARK SMILES IDX 88 65 87 66 43 68 75 69 55 70 74 71 56 72 59 73 73 74 92 75
REMARK SMILES IDX 57 76 58 77 72 79 93 80 60 81 44 82 45 83 53 84 46 85 52 86
REMARK SMILES IDX 54 87 51 88 47 89 48 90 49 91 50 92 76 93 77 94 85 95 78 96
REMARK SMILES IDX 84 97 86 98 83 99 79 100 80 101 81 102 82 103 61 104 62 105
REMARK SMILES IDX 70 106 63 107 69 108 71 109 68 110 64 111 65 112 66 113
REMARK SMILES IDX 67 114
REMARK H PARENT 14 12 1 28 1 29 27 41 32 48 91 67 59 78
REMARK Flexibility Score: inf
ROOT
ATOM      1  C   UNL A   1      40.580  22.417  26.139  1.00  0.00     0.001 C 
ENDROOT
BRANCH   1   2
ATOM      2  C   UNL A   1      39.201  21.760  26.262  1.00  0.00     0.000 C 
BRANCH   2   3
ATOM      3  C   UNL A   1      38.127  22.489  25.462  1.00  0.00     0.000 C 
BRANCH   3   4
ATOM      4  C   UNL A   1      37.410  21.609  24.437  1.00  0.00     0.000 C 
BRANCH   4   5
ATOM      5  C   UNL A   1      35.968  21.250  24.816  1.00  0.00     0.000 C 
BRANCH   5   6
ATOM      6  C   UNL A   1      35.263  22.290  25.698  1.00  0.00     0.002 C 
BRANCH   6   7
ATOM      7  C   UNL A   1      33.742  22.118  25.790  1.00  0.00     0.021 C 
BRANCH   7   8
ATOM      8  C   UNL A   1      33.202  22.441  27.183  1.00  0.00     0.116 C 
BRANCH   8   9
ATOM      9  N   UNL A   1      31.764  22.362  27.212  1.00  0.00    -0.351 N 
ATOM     10  C   UNL A   1      30.768  23.244  26.879  1.00  0.00     0.271 C 
ATOM     11  O   UNL A   1      29.618  22.834  27.070  1.00  0.00    -0.267 OA
ATOM     12  H   UNL A   1      31.427  21.496  27.537  1.00  0.00     0.163 HD
BRANCH  10  13
ATOM     13  C   UNL A   1      31.036  24.573  26.285  1.00  0.00     0.151 A 
ATOM     14  N   UNL A   1      31.685  26.626  26.309  1.00  0.00    -0.232 N 
ATOM     15  N   UNL A   1      31.757  25.468  26.991  1.00  0.00    -0.162 NA
ATOM     16  C   UNL A   1      31.049  26.480  25.091  1.00  0.00     0.075 A 
ATOM     17  C   UNL A   1      30.686  25.150  25.040  1.00  0.00     0.065 A 
BRANCH  14  18
ATOM     18  C   UNL A   1      32.289  27.791  26.828  1.00  0.00     0.065 A 
ATOM     19  C   UNL A   1      33.486  30.197  27.497  1.00  0.00     0.082 A 
ATOM     20  C   UNL A   1      32.099  30.059  27.626  1.00  0.00     0.024 A 
ATOM     21  C   UNL A   1      34.283  29.123  27.083  1.00  0.00     0.024 A 
ATOM     22  C   UNL A   1      31.496  28.853  27.282  1.00  0.00     0.030 A 
ATOM     23  C   UNL A   1      33.684  27.903  26.775  1.00  0.00     0.030 A 
BRANCH  19  24
ATOM     24  S   UNL A   1      34.184  31.792  27.791  1.00  0.00     0.238 S 
ATOM     25  O   UNL A   1      33.208  32.792  27.461  1.00  0.00    -0.207 OA
ATOM     26  O   UNL A   1      35.532  31.802  27.250  1.00  0.00    -0.207 OA
BRANCH  24  27
ATOM     27  N   UNL A   1      34.390  31.859  29.456  1.00  0.00    -0.225 NA
ATOM     28  H   UNL A   1      33.984  32.724  29.813  1.00  0.00     0.137 HD
ATOM     29  H   UNL A   1      35.384  31.834  29.677  1.00  0.00     0.137 HD
ENDBRANCH  24  27
ENDBRANCH  19  24
ENDBRANCH  14  18
BRANCH  16  30
ATOM     30  C   UNL A   1      30.931  27.490  24.042  1.00  0.00     0.000 A 
ATOM     31  C   UNL A   1      32.069  27.999  23.403  1.00  0.00     0.010 A 
ATOM     32  C   UNL A   1      29.666  27.943  23.648  1.00  0.00     0.010 A 
ATOM     33  C   UNL A   1      31.945  28.966  22.406  1.00  0.00     0.001 A 
ATOM     34  C   UNL A   1      29.544  28.907  22.646  1.00  0.00     0.001 A 
ATOM     35  C   UNL A   1      30.683  29.420  22.028  1.00  0.00     0.000 A 
ENDBRANCH  16  30
ENDBRANCH  10  13
ENDBRANCH   8   9
ENDBRANCH   7   8
ENDBRANCH   6   7
ENDBRANCH   5   6
ENDBRANCH   4   5
ENDBRANCH   3   4
ENDBRANCH   2   3
ENDBRANCH   1   2
BRANCH   1  36
ATOM     36  C   UNL A   1      40.860  23.475  27.200  1.00  0.00     0.010 C 
BRANCH  36  37
ATOM     37  C   UNL A   1      40.662  24.924  26.755  1.00  0.00     0.100 C 
BRANCH  37  38
ATOM     38  C   UNL A   1      39.623  25.664  27.570  1.00  0.00     0.219 C 
ATOM     39  O   UNL A   1      38.747  25.043  28.178  1.00  0.00    -0.275 OA
ATOM     40  N   UNL A   1      39.624  27.023  27.653  1.00  0.00    -0.356 N 
ATOM     41  H   UNL A   1      38.957  27.398  28.271  1.00  0.00     0.163 HD
BRANCH  40  42
ATOM     42  C   UNL A   1      40.447  28.013  26.979  1.00  0.00     0.116 C 
BRANCH  42  43
ATOM     43  C   UNL A   1      40.681  29.245  27.865  1.00  0.00     0.023 C 
BRANCH  43  44
ATOM     44  C   UNL A   1      39.467  29.722  28.668  1.00  0.00     0.023 C 
BRANCH  44  45
ATOM     45  C   UNL A   1      39.811  30.353  30.010  1.00  0.00     0.116 C 
BRANCH  45  46
ATOM     46  N   UNL A   1      38.737  31.196  30.534  1.00  0.00    -0.352 N 
ATOM     47  C   UNL A   1      38.810  32.541  30.841  1.00  0.00     0.251 C 
ATOM     48  H   UNL A   1      37.868  30.757  30.682  1.00  0.00     0.163 HD
ATOM     49  O   UNL A   1      37.993  33.062  31.589  1.00  0.00    -0.269 OA
BRANCH  47  50
ATOM     50  C   UNL A   1      39.915  33.318  30.256  1.00  0.00     0.039 A 
ATOM     51  C   UNL A   1      39.654  34.437  29.466  1.00  0.00     0.014 A 
ATOM     52  C   UNL A   1      41.217  32.983  30.629  1.00  0.00     0.014 A 
ATOM     53  C   UNL A   1      40.708  35.293  29.148  1.00  0.00     0.010 A 
ATOM     54  C   UNL A   1      42.240  33.880  30.387  1.00  0.00     0.010 A 
ATOM     55  C   UNL A   1      41.999  35.039  29.645  1.00  0.00    -0.014 A 
BRANCH  55  56
ATOM     56  C   UNL A   1      43.041  36.068  29.513  1.00  0.00     0.031 A 
ATOM     57  C   UNL A   1      43.400  36.813  30.762  1.00  0.00     0.074 A 
ATOM     58  C   UNL A   1      43.828  36.228  28.429  1.00  0.00     0.049 A 
ATOM     59  N   UNL A   1      43.302  38.082  30.990  1.00  0.00    -0.248 NA
ATOM     60  C   UNL A   1      43.865  36.041  31.925  1.00  0.00     0.031 C 
ATOM     61  C   UNL A   1      43.869  35.416  27.211  1.00  0.00     0.029 A 
ATOM     62  N   UNL A   1      44.862  37.102  28.245  1.00  0.00    -0.354 N 
ATOM     63  C   UNL A   1      43.870  38.309  32.244  1.00  0.00     0.074 A 
ATOM     64  C   UNL A   1      44.065  37.006  32.825  1.00  0.00     0.031 C 
ATOM     65  C   UNL A   1      45.012  35.670  26.537  1.00  0.00     0.029 A 
ATOM     66  C   UNL A   1      45.688  36.785  27.176  1.00  0.00     0.049 A 
ATOM     67  H   UNL A   1      45.008  37.887  28.821  1.00  0.00     0.167 HD
ATOM     68  C   UNL A   1      44.296  39.548  32.627  1.00  0.00     0.034 A 
ATOM     69  C   UNL A   1      46.859  37.374  26.830  1.00  0.00     0.034 A 
ATOM     70  C   UNL A   1      43.733  40.578  31.786  1.00  0.00     0.049 A 
ATOM     71  C   UNL A   1      46.847  38.740  27.400  1.00  0.00     0.074 A 
ATOM     72  C   UNL A   1      42.448  40.963  31.452  1.00  0.00     0.029 A 
ATOM     73  N   UNL A   1      44.543  41.174  30.844  1.00  0.00    -0.354 N 
ATOM     74  N   UNL A   1      46.002  39.664  27.032  1.00  0.00    -0.248 NA
ATOM     75  C   UNL A   1      47.487  38.967  28.686  1.00  0.00     0.031 C 
ATOM     76  C   UNL A   1      42.516  41.289  30.064  1.00  0.00     0.029 A 
ATOM     77  C   UNL A   1      43.847  41.156  29.660  1.00  0.00     0.049 A 
ATOM     78  H   UNL A   1      45.444  41.540  30.991  1.00  0.00     0.167 HD
ATOM     79  C   UNL A   1      45.675  40.336  28.198  1.00  0.00     0.074 A 
ATOM     80  C   UNL A   1      46.709  39.947  29.154  1.00  0.00     0.031 C 
ATOM     81  C   UNL A   1      44.451  40.920  28.362  1.00  0.00     0.034 A 
BRANCH  68  82
ATOM     82  C   UNL A   1      45.448  39.835  33.570  1.00  0.00     0.023 A 
ATOM     83  C   UNL A   1      46.762  39.673  33.077  1.00  0.00     0.031 A 
ATOM     84  C   UNL A   1      45.338  39.980  34.971  1.00  0.00     0.131 A 
ATOM     85  C   UNL A   1      47.861  39.574  33.950  1.00  0.00     0.055 A 
ATOM     86  C   UNL A   1      46.444  39.953  35.830  1.00  0.00     0.041 A 
ATOM     87  F   UNL A   1      44.158  40.059  35.596  1.00  0.00    -0.206 F 
ATOM     88  C   UNL A   1      47.711  39.718  35.325  1.00  0.00     0.022 A 
BRANCH  85  89
ATOM     89  S   UNL A   1      49.463  39.059  33.272  1.00  0.00     0.124 S 
ATOM     90  O   UNL A   1      49.408  39.619  31.925  1.00  0.00    -0.237 OA
ATOM     91  O   UNL A   1      50.397  39.690  34.197  1.00  0.00    -0.237 OA
ATOM     92  O   UNL A   1      49.408  37.600  33.341  1.00  0.00    -0.744 OA
ENDBRANCH  85  89
ENDBRANCH  68  82
BRANCH  69  93
ATOM     93  C   UNL A   1      48.058  36.713  26.260  1.00  0.00     0.023 A 
ATOM     94  C   UNL A   1      48.518  35.459  26.706  1.00  0.00     0.031 A 
ATOM     95  C   UNL A   1      48.647  37.226  25.081  1.00  0.00     0.131 A 
ATOM     96  C   UNL A   1      49.524  34.776  25.985  1.00  0.00     0.055 A 
ATOM     97  C   UNL A   1      49.647  36.551  24.379  1.00  0.00     0.041 A 
ATOM     98  F   UNL A   1      48.208  38.368  24.526  1.00  0.00    -0.206 F 
ATOM     99  C   UNL A   1      50.084  35.315  24.824  1.00  0.00     0.022 A 
BRANCH  96 100
ATOM    100  S   UNL A   1      50.040  33.106  26.497  1.00  0.00     0.124 S 
ATOM    101  O   UNL A   1      50.445  33.320  27.882  1.00  0.00    -0.237 OA
ATOM    102  O   UNL A   1      48.828  32.324  26.287  1.00  0.00    -0.237 OA
ATOM    103  O   UNL A   1      51.135  32.794  25.577  1.00  0.00    -0.744 OA
ENDBRANCH  96 100
ENDBRANCH  69  93
BRANCH  81 104
ATOM    104  C   UNL A   1      43.561  41.109  27.147  1.00  0.00     0.023 A 
ATOM    105  C   UNL A   1      43.812  42.022  26.098  1.00  0.00     0.031 A 
ATOM    106  C   UNL A   1      42.476  40.227  26.993  1.00  0.00     0.131 A 
ATOM    107  C   UNL A   1      42.981  42.038  24.960  1.00  0.00     0.055 A 
ATOM    108  C   UNL A   1      41.669  40.230  25.856  1.00  0.00     0.041 A 
ATOM    109  F   UNL A   1      42.201  39.313  27.940  1.00  0.00    -0.206 F 
ATOM    110  C   UNL A   1      41.915  41.141  24.836  1.00  0.00     0.022 A 
BRANCH 107 111
ATOM    111  S   UNL A   1      43.263  43.240  23.620  1.00  0.00     0.124 S 
ATOM    112  O   UNL A   1      43.957  44.338  24.282  1.00  0.00    -0.237 OA
ATOM    113  O   UNL A   1      44.054  42.468  22.664  1.00  0.00    -0.237 OA
ATOM    114  O   UNL A   1      41.909  43.562  23.164  1.00  0.00    -0.744 OA
ENDBRANCH 107 111
ENDBRANCH  81 104
ENDBRANCH  55  56
ENDBRANCH  47  50
ENDBRANCH  45  46
ENDBRANCH  44  45
ENDBRANCH  43  44
ENDBRANCH  42  43
ENDBRANCH  40  42
ENDBRANCH  37  38
ENDBRANCH  36  37
ENDBRANCH   1  36
TORSDOF 29
ENDMDL
MODEL 3
REMARK VINA RESULT:      -8.3      1.668      1.982
REMARK SMILES NS(=O)(=O)c1ccc(-n2nc(C(=O)NCCCCCCCCCCC(=O)NCCCCNC(=O)c3ccc(-c4c5nc(c(-c6cc(S(=O)(=O)[O-])ccc6F)c6ccc([nH]6)c(-c6cc(S(=O)(=O)[O-])ccc6F)c6nc(c(-c7cc(S(=O)(=O)[O-])ccc7F)c7ccc4[nH]7)C=C6)C=C5)cc3)cc2-c2ccccc2)cc1
REMARK SMILES IDX 22 1 21 2 20 3 19 4 18 5 17 6 16 7 15 8 14 9 12 10 13 11
REMARK SMILES IDX 11 13 9 14 10 15 99 16 98 17 8 18 5 19 6 20 107 21 7 22
REMARK SMILES IDX 106 23 2 24 3 25 4 26 1 27 100 30 101 31 105 32 102 33
REMARK SMILES IDX 104 34 103 35 23 36 24 37 25 38 26 39 27 40 28 42 29 43
REMARK SMILES IDX 30 44 31 45 32 46 33 47 34 49 35 50 36 51 97 52 37 53 96 54
REMARK SMILES IDX 38 55 39 56 40 57 90 58 41 59 95 60 89 61 91 62 42 63 94 64
REMARK SMILES IDX 88 65 87 66 43 68 75 69 55 70 74 71 56 72 59 73 73 74 92 75
REMARK SMILES IDX 57 76 58 77 72 79 93 80 60 81 44 82 45 83 53 84 46 85 52 86
REMARK SMILES IDX 54 87 51 88 47 89 48 90 49 91 50 92 76 93 77 94 85 95 78 96
REMARK SMILES IDX 84 97 86 98 83 99 79 100 80 101 81 102 82 103 61 104 62 105
REMARK SMILES IDX 70 106 63 107 69 108 71 109 68 110 64 111 65 112 66 113
REMARK SMILES IDX 67 114
REMARK H PARENT 14 12 1 28 1 29 27 41 32 48 91 67 59 78
REMARK Flexibility Score: inf
ROOT
ATOM      1  C   UNL A   1      38.258  23.291  25.937  1.00  0.00     0.001 C 
ENDROOT
BRANCH   1   2
ATOM      2  C   UNL A   1      38.112  21.773  25.777  1.00  0.00     0.000 C 
BRANCH   2   3
ATOM      3  C   UNL A   1      37.385  21.384  24.494  1.00  0.00     0.000 C 
BRANCH   3   4
ATOM      4  C   UNL A   1      36.303  20.320  24.692  1.00  0.00     0.000 C 
BRANCH   4   5
ATOM      5  C   UNL A   1      35.016  20.846  25.338  1.00  0.00     0.000 C 
BRANCH   5   6
ATOM      6  C   UNL A   1      33.730  20.172  24.838  1.00  0.00     0.002 C 
BRANCH   6   7
ATOM      7  C   UNL A   1      32.498  20.421  25.717  1.00  0.00     0.021 C 
BRANCH   7   8
ATOM      8  C   UNL A   1      31.595  21.519  25.156  1.00  0.00     0.116 C 
BRANCH   8   9
ATOM      9  N   UNL A   1      30.768  22.087  26.191  1.00  0.00    -0.351 N 
ATOM     10  C   UNL A   1      30.622  23.358  26.685  1.00  0.00     0.271 C 
ATOM     11  O   UNL A   1      29.822  23.469  27.619  1.00  0.00    -0.267 OA
ATOM     12  H   UNL A   1      30.187  21.426  26.633  1.00  0.00     0.163 HD
BRANCH  10  13
ATOM     13  C   UNL A   1      31.327  24.527  26.114  1.00  0.00     0.151 A 
ATOM     14  N   UNL A   1      32.103  26.536  26.127  1.00  0.00    -0.232 N 
ATOM     15  N   UNL A   1      31.656  25.551  26.928  1.00  0.00    -0.162 NA
ATOM     16  C   UNL A   1      32.212  26.134  24.810  1.00  0.00     0.075 A 
ATOM     17  C   UNL A   1      31.776  24.825  24.804  1.00  0.00     0.065 A 
BRANCH  14  18
ATOM     18  C   UNL A   1      32.469  27.784  26.677  1.00  0.00     0.065 A 
ATOM     19  C   UNL A   1      33.288  30.324  27.414  1.00  0.00     0.082 A 
ATOM     20  C   UNL A   1      31.932  30.083  27.165  1.00  0.00     0.024 A 
ATOM     21  C   UNL A   1      34.229  29.290  27.346  1.00  0.00     0.024 A 
ATOM     22  C   UNL A   1      31.521  28.809  26.786  1.00  0.00     0.030 A 
ATOM     23  C   UNL A   1      33.812  28.004  27.004  1.00  0.00     0.030 A 
BRANCH  19  24
ATOM     24  S   UNL A   1      33.783  31.988  27.733  1.00  0.00     0.238 S 
ATOM     25  O   UNL A   1      32.753  32.874  27.267  1.00  0.00    -0.207 OA
ATOM     26  O   UNL A   1      35.175  32.129  27.344  1.00  0.00    -0.207 OA
BRANCH  24  27
ATOM     27  N   UNL A   1      33.791  32.110  29.408  1.00  0.00    -0.225 NA
ATOM     28  H   UNL A   1      33.072  32.770  29.704  1.00  0.00     0.137 HD
ATOM     29  H   UNL A   1      34.704  32.438  29.721  1.00  0.00     0.137 HD
ENDBRANCH  24  27
ENDBRANCH  19  24
ENDBRANCH  14  18
BRANCH  16  30
ATOM     30  C   UNL A   1      32.801  26.896  23.711  1.00  0.00     0.000 A 
ATOM     31  C   UNL A   1      33.015  28.276  23.828  1.00  0.00     0.010 A 
ATOM     32  C   UNL A   1      33.182  26.242  22.533  1.00  0.00     0.010 A 
ATOM     33  C   UNL A   1      33.574  28.995  22.772  1.00  0.00     0.001 A 
ATOM     34  C   UNL A   1      33.746  26.963  21.479  1.00  0.00     0.001 A 
ATOM     35  C   UNL A   1      33.938  28.339  21.597  1.00  0.00     0.000 A 
ENDBRANCH  16  30
ENDBRANCH  10  13
ENDBRANCH   8   9
ENDBRANCH   7   8
ENDBRANCH   6   7
ENDBRANCH   5   6
ENDBRANCH   4   5
ENDBRANCH   3   4
ENDBRANCH   2   3
ENDBRANCH   1   2
BRANCH   1  36
ATOM     36  C   UNL A   1      39.418  23.711  26.834  1.00  0.00     0.010 C 
BRANCH  36  37
ATOM     37  C   UNL A   1      39.252  25.057  27.539  1.00  0.00     0.100 C 
BRANCH  37  38
ATOM     38  C   UNL A   1      40.389  26.019  27.266  1.00  0.00     0.219 C 
ATOM     39  O   UNL A   1      41.354  25.669  26.583  1.00  0.00    -0.275 OA
ATOM     40  N   UNL A   1      40.379  27.287  27.765  1.00  0.00    -0.356 N 
ATOM     41  H   UNL A   1      41.124  27.853  27.462  1.00  0.00     0.163 HD
BRANCH  40  42
ATOM     42  C   UNL A   1      39.450  27.942  28.670  1.00  0.00     0.116 C 
BRANCH  42  43
ATOM     43  C   UNL A   1      39.230  29.411  28.281  1.00  0.00     0.023 C 
BRANCH  43  44
ATOM     44  C   UNL A   1      37.771  29.825  28.062  1.00  0.00     0.023 C 
BRANCH  44  45
ATOM     45  C   UNL A   1      36.813  29.341  29.141  1.00  0.00     0.116 C 
BRANCH  45  46
ATOM     46  N   UNL A   1      36.140  30.436  29.837  1.00  0.00    -0.352 N 
ATOM     47  C   UNL A   1      36.458  30.953  31.078  1.00  0.00     0.251 C 
ATOM     48  H   UNL A   1      35.379  30.851  29.370  1.00  0.00     0.163 HD
ATOM     49  O   UNL A   1      35.643  31.607  31.717  1.00  0.00    -0.269 OA
BRANCH  47  50
ATOM     50  C   UNL A   1      37.802  30.674  31.612  1.00  0.00     0.039 A 
ATOM     51  C   UNL A   1      38.159  29.380  31.989  1.00  0.00     0.014 A 
ATOM     52  C   UNL A   1      38.738  31.708  31.595  1.00  0.00     0.014 A 
ATOM     53  C   UNL A   1      39.502  29.102  32.241  1.00  0.00     0.010 A 
ATOM     54  C   UNL A   1      40.077  31.407  31.757  1.00  0.00     0.010 A 
ATOM     55  C   UNL A   1      40.473  30.107  32.082  1.00  0.00    -0.014 A 
BRANCH  55  56
ATOM     56  C   UNL A   1      41.899  29.748  32.105  1.00  0.00     0.031 A 
ATOM     57  C   UNL A   1      42.522  29.417  30.785  1.00  0.00     0.074 A 
ATOM     58  C   UNL A   1      42.713  29.908  33.170  1.00  0.00     0.049 A 
ATOM     59  N   UNL A   1      43.070  28.305  30.417  1.00  0.00    -0.248 NA
ATOM     60  C   UNL A   1      42.469  30.426  29.716  1.00  0.00     0.031 C 
ATOM     61  C   UNL A   1      42.397  30.504  34.470  1.00  0.00     0.029 A 
ATOM     62  N   UNL A   1      44.054  29.671  33.262  1.00  0.00    -0.354 N 
ATOM     63  C   UNL A   1      43.610  28.523  29.150  1.00  0.00     0.074 A 
ATOM     64  C   UNL A   1      43.086  29.792  28.716  1.00  0.00     0.031 C 
ATOM     65  C   UNL A   1      43.544  30.805  35.118  1.00  0.00     0.029 A 
ATOM     66  C   UNL A   1      44.658  30.260  34.365  1.00  0.00     0.049 A 
ATOM     67  H   UNL A   1      44.550  29.132  32.604  1.00  0.00     0.167 HD
ATOM     68  C   UNL A   1      44.587  27.720  28.635  1.00  0.00     0.034 A 
ATOM     69  C   UNL A   1      45.982  30.322  34.650  1.00  0.00     0.034 A 
ATOM     70  C   UNL A   1      44.670  26.470  29.355  1.00  0.00     0.049 A 
ATOM     71  C   UNL A   1      46.637  29.205  33.934  1.00  0.00     0.074 A 
ATOM     72  C   UNL A   1      43.777  25.453  29.638  1.00  0.00     0.029 A 
ATOM     73  N   UNL A   1      45.716  26.284  30.230  1.00  0.00    -0.354 N 
ATOM     74  N   UNL A   1      46.399  27.948  34.193  1.00  0.00    -0.248 NA
ATOM     75  C   UNL A   1      47.236  29.463  32.634  1.00  0.00     0.031 C 
ATOM     76  C   UNL A   1      44.073  25.074  30.981  1.00  0.00     0.029 A 
ATOM     77  C   UNL A   1      45.170  25.828  31.405  1.00  0.00     0.049 A 
ATOM     78  H   UNL A   1      46.670  26.445  30.049  1.00  0.00     0.167 HD
ATOM     79  C   UNL A   1      46.400  27.320  32.959  1.00  0.00     0.074 A 
ATOM     80  C   UNL A   1      47.042  28.274  32.057  1.00  0.00     0.031 C 
ATOM     81  C   UNL A   1      45.636  26.212  32.725  1.00  0.00     0.034 A 
BRANCH  68  82
ATOM     82  C   UNL A   1      45.674  28.155  27.672  1.00  0.00     0.023 A 
ATOM     83  C   UNL A   1      45.915  27.348  26.539  1.00  0.00     0.031 A 
ATOM     84  C   UNL A   1      46.655  29.136  27.940  1.00  0.00     0.131 A 
ATOM     85  C   UNL A   1      47.103  27.470  25.796  1.00  0.00     0.055 A 
ATOM     86  C   UNL A   1      47.802  29.302  27.154  1.00  0.00     0.041 A 
ATOM     87  F   UNL A   1      46.611  29.921  29.022  1.00  0.00    -0.206 F 
ATOM     88  C   UNL A   1      48.048  28.447  26.094  1.00  0.00     0.022 A 
BRANCH  85  89
ATOM     89  S   UNL A   1      47.484  26.204  24.554  1.00  0.00     0.124 S 
ATOM     90  O   UNL A   1      46.259  25.410  24.556  1.00  0.00    -0.237 OA
ATOM     91  O   UNL A   1      47.729  27.013  23.366  1.00  0.00    -0.237 OA
ATOM     92  O   UNL A   1      48.661  25.532  25.104  1.00  0.00    -0.744 OA
ENDBRANCH  85  89
ENDBRANCH  68  82
BRANCH  69  93
ATOM     93  C   UNL A   1      46.706  31.444  35.296  1.00  0.00     0.023 A 
ATOM     94  C   UNL A   1      47.326  31.324  36.555  1.00  0.00     0.031 A 
ATOM     95  C   UNL A   1      46.994  32.612  34.552  1.00  0.00     0.131 A 
ATOM     96  C   UNL A   1      48.185  32.344  37.021  1.00  0.00     0.055 A 
ATOM     97  C   UNL A   1      47.836  33.620  35.022  1.00  0.00     0.041 A 
ATOM     98  F   UNL A   1      46.527  32.772  33.302  1.00  0.00    -0.206 F 
ATOM     99  C   UNL A   1      48.445  33.486  36.259  1.00  0.00     0.022 A 
BRANCH  96 100
ATOM    100  S   UNL A   1      49.073  32.141  38.598  1.00  0.00     0.124 S 
ATOM    101  O   UNL A   1      50.239  32.995  38.408  1.00  0.00    -0.237 OA
ATOM    102  O   UNL A   1      48.088  32.592  39.574  1.00  0.00    -0.237 OA
ATOM    103  O   UNL A   1      49.362  30.707  38.642  1.00  0.00    -0.744 OA
ENDBRANCH  96 100
ENDBRANCH  69  93
BRANCH  81 104
ATOM    104  C   UNL A   1      45.029  25.478  33.906  1.00  0.00     0.023 A 
ATOM    105  C   UNL A   1      43.901  25.917  34.635  1.00  0.00     0.031 A 
ATOM    106  C   UNL A   1      45.553  24.211  34.223  1.00  0.00     0.131 A 
ATOM    107  C   UNL A   1      43.349  25.102  35.644  1.00  0.00     0.055 A 
ATOM    108  C   UNL A   1      44.992  23.398  35.207  1.00  0.00     0.041 A 
ATOM    109  F   UNL A   1      46.607  23.722  33.548  1.00  0.00    -0.206 F 
ATOM    110  C   UNL A   1      43.890  23.843  35.927  1.00  0.00     0.022 A 
BRANCH 107 111
ATOM    111  S   UNL A   1      41.922  25.673  36.623  1.00  0.00     0.124 S 
ATOM    112  O   UNL A   1      42.501  26.650  37.538  1.00  0.00    -0.237 OA
ATOM    113  O   UNL A   1      41.029  26.208  35.597  1.00  0.00    -0.237 OA
ATOM    114  O   UNL A   1      41.441  24.448  37.265  1.00  0.00    -0.744 OA
ENDBRANCH 107 111
ENDBRANCH  81 104
ENDBRANCH  55  56
ENDBRANCH  47  50
ENDBRANCH  45  46
ENDBRANCH  44  45
ENDBRANCH  43  44
ENDBRANCH  42  43
ENDBRANCH  40  42
ENDBRANCH  37  38
ENDBRANCH  36  37
ENDBRANCH   1  36
TORSDOF 29
ENDMDL
