MODEL 1
REMARK VINA RESULT:     -13.0      0.000      0.000
REMARK SMILES Cc1nc(N2CCN(c3ccccc3)CC2)nc(OCC(=O)NCCCCNC(=O)c2ccc(-c3c4nc(c(-c5cc(S(=O)(=O)[O-])ccc5F)c5ccc([nH]5)c(-c5cc(S(=O)(=O)[O-])ccc5F)c5nc(c(-c6cc(S(=O)(=O)[O-])ccc6F)c6ccc3[nH]6)C=C5)C=C4)cc2)c1C
REMARK SMILES IDX 25 1 24 2 23 3 21 4 22 5 20 7 19 8 18 9 1 10 2 11 3 12 94 13
REMARK SMILES IDX 4 14 95 15 17 16 5 17 6 18 16 19 7 20 15 21 8 22 9 23 10 24
REMARK SMILES IDX 14 25 11 26 13 27 12 28 26 29 27 30 28 31 29 32 30 34 31 35
REMARK SMILES IDX 32 36 93 37 33 38 92 39 34 40 35 41 36 42 86 43 37 44 91 45
REMARK SMILES IDX 85 46 87 47 38 48 90 49 84 50 83 51 39 53 71 54 51 55 70 56
REMARK SMILES IDX 52 57 55 58 69 59 88 60 53 61 54 62 68 64 89 65 56 66 40 67
REMARK SMILES IDX 41 68 49 69 42 70 48 71 50 72 47 73 43 74 44 75 45 76 46 77
REMARK SMILES IDX 72 78 73 79 81 80 74 81 80 82 82 83 79 84 75 85 76 86 77 87
REMARK SMILES IDX 78 88 57 89 58 90 66 91 59 92 65 93 67 94 64 95 60 96 61 97
REMARK SMILES IDX 62 98 63 99
REMARK H PARENT 23 6 28 33 87 52 55 63
REMARK Flexibility Score: inf
ROOT
ATOM      1  C   UNL A   1      37.410  21.087  24.612  1.00  0.00     0.023 C 
ENDROOT
BRANCH   1   2
ATOM      2  C   UNL A   1      35.934  21.045  24.997  1.00  0.00     0.116 C 
BRANCH   2   3
ATOM      3  N   UNL A   1      35.086  21.746  24.054  1.00  0.00    -0.353 N 
ATOM      4  C   UNL A   1      34.807  23.075  23.979  1.00  0.00     0.258 C 
ATOM      5  O   UNL A   1      34.178  23.490  23.003  1.00  0.00    -0.271 OA
ATOM      6  H   UNL A   1      34.651  21.182  23.374  1.00  0.00     0.163 HD
BRANCH   4   7
ATOM      7  C   UNL A   1      35.331  24.039  25.049  1.00  0.00     0.331 C 
BRANCH   7   8
ATOM      8  O   UNL A   1      34.506  24.524  26.073  1.00  0.00    -0.467 OA
BRANCH   8   9
ATOM      9  C   UNL A   1      33.155  24.465  26.095  1.00  0.00     0.221 A 
ATOM     10  C   UNL A   1      29.847  22.976  27.108  1.00  0.00     0.067 C 
ATOM     11  C   UNL A   1      30.943  23.824  26.522  1.00  0.00     0.050 A 
ATOM     12  N   UNL A   1      30.487  24.927  25.888  1.00  0.00    -0.218 NA
ATOM     13  C   UNL A   1      32.304  23.528  26.660  1.00  0.00     0.033 A 
ATOM     14  C   UNL A   1      31.378  25.731  25.315  1.00  0.00     0.229 A 
ATOM     15  C   UNL A   1      32.724  22.300  27.401  1.00  0.00     0.052 C 
ATOM     16  N   UNL A   1      32.691  25.514  25.389  1.00  0.00    -0.177 NA
BRANCH  14  17
ATOM     17  N   UNL A   1      30.959  26.844  24.624  1.00  0.00    -0.337 N 
ATOM     18  C   UNL A   1      31.381  28.166  25.095  1.00  0.00     0.141 C 
ATOM     19  C   UNL A   1      29.594  26.759  24.096  1.00  0.00     0.141 C 
ATOM     20  C   UNL A   1      31.168  29.216  23.975  1.00  0.00     0.138 C 
ATOM     21  C   UNL A   1      29.349  27.832  23.016  1.00  0.00     0.138 C 
ATOM     22  N   UNL A   1      29.776  29.161  23.495  1.00  0.00    -0.368 N 
BRANCH  22  23
ATOM     23  C   UNL A   1      29.195  30.261  22.892  1.00  0.00     0.037 A 
ATOM     24  C   UNL A   1      28.678  30.238  21.593  1.00  0.00     0.026 A 
ATOM     25  C   UNL A   1      29.123  31.467  23.606  1.00  0.00     0.026 A 
ATOM     26  C   UNL A   1      28.110  31.384  21.025  1.00  0.00     0.002 A 
ATOM     27  C   UNL A   1      28.574  32.617  23.039  1.00  0.00     0.002 A 
ATOM     28  C   UNL A   1      28.066  32.576  21.745  1.00  0.00     0.000 A 
ENDBRANCH  22  23
ENDBRANCH  14  17
ENDBRANCH   8   9
ENDBRANCH   7   8
ENDBRANCH   4   7
ENDBRANCH   2   3
ENDBRANCH   1   2
BRANCH   1  29
ATOM     29  C   UNL A   1      38.235  19.857  25.003  1.00  0.00     0.023 C 
BRANCH  29  30
ATOM     30  C   UNL A   1      39.355  20.084  26.016  1.00  0.00     0.116 C 
BRANCH  30  31
ATOM     31  N   UNL A   1      40.391  19.067  25.967  1.00  0.00    -0.352 N 
ATOM     32  C   UNL A   1      41.756  19.195  26.090  1.00  0.00     0.251 C 
ATOM     33  H   UNL A   1      40.067  18.148  25.824  1.00  0.00     0.163 HD
ATOM     34  O   UNL A   1      42.469  18.216  25.913  1.00  0.00    -0.269 OA
BRANCH  32  35
ATOM     35  C   UNL A   1      42.361  20.513  26.396  1.00  0.00     0.039 A 
ATOM     36  C   UNL A   1      42.877  21.269  25.340  1.00  0.00     0.014 A 
ATOM     37  C   UNL A   1      42.428  21.002  27.703  1.00  0.00     0.014 A 
ATOM     38  C   UNL A   1      43.394  22.545  25.585  1.00  0.00     0.010 A 
ATOM     39  C   UNL A   1      42.889  22.298  27.938  1.00  0.00     0.010 A 
ATOM     40  C   UNL A   1      43.372  23.085  26.881  1.00  0.00    -0.014 A 
BRANCH  40  41
ATOM     41  C   UNL A   1      43.853  24.468  27.143  1.00  0.00     0.031 A 
ATOM     42  C   UNL A   1      42.897  25.517  27.646  1.00  0.00     0.074 A 
ATOM     43  C   UNL A   1      45.140  24.789  26.897  1.00  0.00     0.049 A 
ATOM     44  N   UNL A   1      43.109  26.789  27.861  1.00  0.00    -0.248 NA
ATOM     45  C   UNL A   1      41.521  25.081  27.930  1.00  0.00     0.031 C 
ATOM     46  C   UNL A   1      46.160  23.865  26.394  1.00  0.00     0.029 A 
ATOM     47  N   UNL A   1      45.814  25.977  27.037  1.00  0.00    -0.354 N 
ATOM     48  C   UNL A   1      41.896  27.308  28.300  1.00  0.00     0.074 A 
ATOM     49  C   UNL A   1      40.940  26.222  28.276  1.00  0.00     0.031 C 
ATOM     50  C   UNL A   1      47.332  24.513  26.295  1.00  0.00     0.029 A 
ATOM     51  C   UNL A   1      47.143  25.908  26.683  1.00  0.00     0.049 A 
ATOM     52  H   UNL A   1      45.386  26.802  27.361  1.00  0.00     0.167 HD
ATOM     53  C   UNL A   1      41.612  28.567  28.707  1.00  0.00     0.034 A 
ATOM     54  C   UNL A   1      48.097  26.861  26.662  1.00  0.00     0.034 A 
ATOM     55  C   UNL A   1      42.574  29.638  28.755  1.00  0.00     0.049 A 
ATOM     56  C   UNL A   1      47.742  28.263  27.084  1.00  0.00     0.074 A 
ATOM     57  C   UNL A   1      42.388  30.939  29.189  1.00  0.00     0.029 A 
ATOM     58  N   UNL A   1      43.900  29.533  28.363  1.00  0.00    -0.354 N 
ATOM     59  N   UNL A   1      46.587  28.730  27.498  1.00  0.00    -0.248 NA
ATOM     60  C   UNL A   1      48.814  29.266  27.037  1.00  0.00     0.031 C 
ATOM     61  C   UNL A   1      43.587  31.635  29.012  1.00  0.00     0.029 A 
ATOM     62  C   UNL A   1      44.537  30.753  28.522  1.00  0.00     0.049 A 
ATOM     63  H   UNL A   1      44.326  28.714  28.021  1.00  0.00     0.167 HD
ATOM     64  C   UNL A   1      46.803  30.077  27.778  1.00  0.00     0.074 A 
ATOM     65  C   UNL A   1      48.197  30.345  27.498  1.00  0.00     0.031 C 
ATOM     66  C   UNL A   1      45.925  31.006  28.230  1.00  0.00     0.034 A 
BRANCH  53  67
ATOM     67  C   UNL A   1      40.201  28.865  29.135  1.00  0.00     0.023 A 
ATOM     68  C   UNL A   1      39.819  28.808  30.486  1.00  0.00     0.031 A 
ATOM     69  C   UNL A   1      39.240  29.261  28.188  1.00  0.00     0.131 A 
ATOM     70  C   UNL A   1      38.501  29.113  30.850  1.00  0.00     0.055 A 
ATOM     71  C   UNL A   1      37.944  29.618  28.564  1.00  0.00     0.041 A 
ATOM     72  F   UNL A   1      39.551  29.317  26.883  1.00  0.00    -0.206 F 
ATOM     73  C   UNL A   1      37.567  29.541  29.903  1.00  0.00     0.022 A 
BRANCH  70  74
ATOM     74  S   UNL A   1      38.003  28.896  32.580  1.00  0.00     0.124 S 
ATOM     75  O   UNL A   1      36.639  29.419  32.559  1.00  0.00    -0.237 OA
ATOM     76  O   UNL A   1      38.132  27.458  32.772  1.00  0.00    -0.237 OA
ATOM     77  O   UNL A   1      38.965  29.712  33.317  1.00  0.00    -0.744 OA
ENDBRANCH  70  74
ENDBRANCH  53  67
BRANCH  54  78
ATOM     78  C   UNL A   1      49.479  26.535  26.209  1.00  0.00     0.023 A 
ATOM     79  C   UNL A   1      49.963  27.002  24.977  1.00  0.00     0.031 A 
ATOM     80  C   UNL A   1      50.323  25.720  26.985  1.00  0.00     0.131 A 
ATOM     81  C   UNL A   1      51.241  26.619  24.539  1.00  0.00     0.055 A 
ATOM     82  C   UNL A   1      51.609  25.378  26.565  1.00  0.00     0.041 A 
ATOM     83  F   UNL A   1      49.907  25.251  28.173  1.00  0.00    -0.206 F 
ATOM     84  C   UNL A   1      52.071  25.821  25.329  1.00  0.00     0.022 A 
BRANCH  81  85
ATOM     85  S   UNL A   1      51.783  27.132  22.884  1.00  0.00     0.124 S 
ATOM     86  O   UNL A   1      50.613  26.809  22.076  1.00  0.00    -0.237 OA
ATOM     87  O   UNL A   1      52.057  28.551  23.081  1.00  0.00    -0.237 OA
ATOM     88  O   UNL A   1      52.960  26.300  22.640  1.00  0.00    -0.744 OA
ENDBRANCH  81  85
ENDBRANCH  54  78
BRANCH  66  89
ATOM     89  C   UNL A   1      46.451  32.395  28.475  1.00  0.00     0.023 A 
ATOM     90  C   UNL A   1      46.595  33.317  27.426  1.00  0.00     0.031 A 
ATOM     91  C   UNL A   1      46.767  32.812  29.780  1.00  0.00     0.131 A 
ATOM     92  C   UNL A   1      47.072  34.609  27.696  1.00  0.00     0.055 A 
ATOM     93  C   UNL A   1      47.197  34.110  30.048  1.00  0.00     0.041 A 
ATOM     94  F   UNL A   1      46.641  31.966  30.815  1.00  0.00    -0.206 F 
ATOM     95  C   UNL A   1      47.357  35.016  29.003  1.00  0.00     0.022 A 
BRANCH  92  96
ATOM     96  S   UNL A   1      47.344  35.745  26.311  1.00  0.00     0.124 S 
ATOM     97  O   UNL A   1      47.508  34.823  25.192  1.00  0.00    -0.237 OA
ATOM     98  O   UNL A   1      46.119  36.538  26.307  1.00  0.00    -0.237 OA
ATOM     99  O   UNL A   1      48.550  36.475  26.697  1.00  0.00    -0.744 OA
ENDBRANCH  92  96
ENDBRANCH  66  89
ENDBRANCH  40  41
ENDBRANCH  32  35
ENDBRANCH  30  31
ENDBRANCH  29  30
ENDBRANCH   1  29
TORSDOF 18
ENDMDL
MODEL 2
REMARK VINA RESULT:     -12.2      1.831      2.134
REMARK SMILES Cc1nc(N2CCN(c3ccccc3)CC2)nc(OCC(=O)NCCCCNC(=O)c2ccc(-c3c4nc(c(-c5cc(S(=O)(=O)[O-])ccc5F)c5ccc([nH]5)c(-c5cc(S(=O)(=O)[O-])ccc5F)c5nc(c(-c6cc(S(=O)(=O)[O-])ccc6F)c6ccc3[nH]6)C=C5)C=C4)cc2)c1C
REMARK SMILES IDX 25 1 24 2 23 3 21 4 22 5 20 7 19 8 18 9 1 10 2 11 3 12 94 13
REMARK SMILES IDX 4 14 95 15 17 16 5 17 6 18 16 19 7 20 15 21 8 22 9 23 10 24
REMARK SMILES IDX 14 25 11 26 13 27 12 28 26 29 27 30 28 31 29 32 30 34 31 35
REMARK SMILES IDX 32 36 93 37 33 38 92 39 34 40 35 41 36 42 86 43 37 44 91 45
REMARK SMILES IDX 85 46 87 47 38 48 90 49 84 50 83 51 39 53 71 54 51 55 70 56
REMARK SMILES IDX 52 57 55 58 69 59 88 60 53 61 54 62 68 64 89 65 56 66 40 67
REMARK SMILES IDX 41 68 49 69 42 70 48 71 50 72 47 73 43 74 44 75 45 76 46 77
REMARK SMILES IDX 72 78 73 79 81 80 74 81 80 82 82 83 79 84 75 85 76 86 77 87
REMARK SMILES IDX 78 88 57 89 58 90 66 91 59 92 65 93 67 94 64 95 60 96 61 97
REMARK SMILES IDX 62 98 63 99
REMARK H PARENT 23 6 28 33 87 52 55 63
REMARK Flexibility Score: inf
ROOT
ATOM      1  C   UNL A   1      36.922  19.955  24.957  1.00  0.00     0.023 C 
ENDROOT
BRANCH   1   2
ATOM      2  C   UNL A   1      35.624  20.723  25.183  1.00  0.00     0.116 C 
BRANCH   2   3
ATOM      3  N   UNL A   1      35.352  21.690  24.137  1.00  0.00    -0.353 N 
ATOM      4  C   UNL A   1      35.403  23.048  24.195  1.00  0.00     0.258 C 
ATOM      5  O   UNL A   1      35.283  23.686  23.146  1.00  0.00    -0.271 OA
ATOM      6  H   UNL A   1      35.095  21.311  23.266  1.00  0.00     0.163 HD
BRANCH   4   7
ATOM      7  C   UNL A   1      35.679  23.758  25.524  1.00  0.00     0.331 C 
BRANCH   7   8
ATOM      8  O   UNL A   1      34.775  24.681  26.069  1.00  0.00    -0.467 OA
BRANCH   8   9
ATOM      9  C   UNL A   1      33.428  24.571  26.054  1.00  0.00     0.221 A 
ATOM     10  C   UNL A   1      30.155  22.918  26.917  1.00  0.00     0.067 C 
ATOM     11  C   UNL A   1      31.231  23.831  26.396  1.00  0.00     0.050 A 
ATOM     12  N   UNL A   1      30.750  24.942  25.798  1.00  0.00    -0.218 NA
ATOM     13  C   UNL A   1      32.599  23.579  26.556  1.00  0.00     0.033 A 
ATOM     14  C   UNL A   1      31.623  25.803  25.283  1.00  0.00     0.229 A 
ATOM     15  C   UNL A   1      33.048  22.337  27.255  1.00  0.00     0.052 C 
ATOM     16  N   UNL A   1      32.941  25.632  25.382  1.00  0.00    -0.177 NA
BRANCH  14  17
ATOM     17  N   UNL A   1      31.178  26.929  24.630  1.00  0.00    -0.337 N 
ATOM     18  C   UNL A   1      31.450  28.241  25.223  1.00  0.00     0.141 C 
ATOM     19  C   UNL A   1      29.876  26.782  23.973  1.00  0.00     0.141 C 
ATOM     20  C   UNL A   1      31.254  29.351  24.159  1.00  0.00     0.138 C 
ATOM     21  C   UNL A   1      29.643  27.909  22.946  1.00  0.00     0.138 C 
ATOM     22  N   UNL A   1      29.918  29.227  23.549  1.00  0.00    -0.368 N 
BRANCH  22  23
ATOM     23  C   UNL A   1      29.306  30.323  22.967  1.00  0.00     0.037 A 
ATOM     24  C   UNL A   1      29.011  31.496  23.667  1.00  0.00     0.026 A 
ATOM     25  C   UNL A   1      28.951  30.260  21.611  1.00  0.00     0.026 A 
ATOM     26  C   UNL A   1      28.379  32.573  23.033  1.00  0.00     0.002 A 
ATOM     27  C   UNL A   1      28.305  31.323  20.977  1.00  0.00     0.002 A 
ATOM     28  C   UNL A   1      28.019  32.482  21.691  1.00  0.00     0.000 A 
ENDBRANCH  22  23
ENDBRANCH  14  17
ENDBRANCH   8   9
ENDBRANCH   7   8
ENDBRANCH   4   7
ENDBRANCH   2   3
ENDBRANCH   1   2
BRANCH   1  29
ATOM     29  C   UNL A   1      38.198  20.802  24.917  1.00  0.00     0.023 C 
BRANCH  29  30
ATOM     30  C   UNL A   1      39.121  20.699  26.128  1.00  0.00     0.116 C 
BRANCH  30  31
ATOM     31  N   UNL A   1      40.154  19.689  25.981  1.00  0.00    -0.352 N 
ATOM     32  C   UNL A   1      41.524  19.819  26.015  1.00  0.00     0.251 C 
ATOM     33  H   UNL A   1      39.824  18.773  25.835  1.00  0.00     0.163 HD
ATOM     34  O   UNL A   1      42.226  18.849  25.764  1.00  0.00    -0.269 OA
BRANCH  32  35
ATOM     35  C   UNL A   1      42.145  21.131  26.316  1.00  0.00     0.039 A 
ATOM     36  C   UNL A   1      42.345  22.029  25.264  1.00  0.00     0.014 A 
ATOM     37  C   UNL A   1      42.534  21.476  27.613  1.00  0.00     0.014 A 
ATOM     38  C   UNL A   1      42.867  23.300  25.525  1.00  0.00     0.010 A 
ATOM     39  C   UNL A   1      42.998  22.766  27.880  1.00  0.00     0.010 A 
ATOM     40  C   UNL A   1      43.164  23.692  26.839  1.00  0.00    -0.014 A 
BRANCH  40  41
ATOM     41  C   UNL A   1      43.652  25.065  27.137  1.00  0.00     0.031 A 
ATOM     42  C   UNL A   1      42.718  26.086  27.729  1.00  0.00     0.074 A 
ATOM     43  C   UNL A   1      44.926  25.403  26.846  1.00  0.00     0.049 A 
ATOM     44  N   UNL A   1      42.934  27.350  27.987  1.00  0.00    -0.248 NA
ATOM     45  C   UNL A   1      41.357  25.632  28.057  1.00  0.00     0.031 C 
ATOM     46  C   UNL A   1      45.924  24.507  26.257  1.00  0.00     0.029 A 
ATOM     47  N   UNL A   1      45.601  26.588  27.005  1.00  0.00    -0.354 N 
ATOM     48  C   UNL A   1      41.741  27.843  28.504  1.00  0.00     0.074 A 
ATOM     49  C   UNL A   1      40.789  26.753  28.478  1.00  0.00     0.031 C 
ATOM     50  C   UNL A   1      47.088  25.165  26.131  1.00  0.00     0.029 A 
ATOM     51  C   UNL A   1      46.912  26.542  26.587  1.00  0.00     0.049 A 
ATOM     52  H   UNL A   1      45.186  27.396  27.383  1.00  0.00     0.167 HD
ATOM     53  C   UNL A   1      41.472  29.082  28.977  1.00  0.00     0.034 A 
ATOM     54  C   UNL A   1      47.861  27.499  26.563  1.00  0.00     0.034 A 
ATOM     55  C   UNL A   1      42.432  30.156  29.026  1.00  0.00     0.049 A 
ATOM     56  C   UNL A   1      47.521  28.880  27.060  1.00  0.00     0.074 A 
ATOM     57  C   UNL A   1      42.262  31.436  29.523  1.00  0.00     0.029 A 
ATOM     58  N   UNL A   1      43.739  30.074  28.569  1.00  0.00    -0.354 N 
ATOM     59  N   UNL A   1      46.386  29.323  27.546  1.00  0.00    -0.248 NA
ATOM     60  C   UNL A   1      48.587  29.890  27.005  1.00  0.00     0.031 C 
ATOM     61  C   UNL A   1      43.449  32.145  29.320  1.00  0.00     0.029 A 
ATOM     62  C   UNL A   1      44.378  31.290  28.750  1.00  0.00     0.049 A 
ATOM     63  H   UNL A   1      44.151  29.273  28.173  1.00  0.00     0.167 HD
ATOM     64  C   UNL A   1      46.609  30.658  27.874  1.00  0.00     0.074 A 
ATOM     65  C   UNL A   1      47.988  30.945  27.541  1.00  0.00     0.031 C 
ATOM     66  C   UNL A   1      45.751  31.562  28.404  1.00  0.00     0.034 A 
BRANCH  53  67
ATOM     67  C   UNL A   1      40.082  29.354  29.483  1.00  0.00     0.023 A 
ATOM     68  C   UNL A   1      39.790  29.353  30.856  1.00  0.00     0.031 A 
ATOM     69  C   UNL A   1      39.048  29.669  28.583  1.00  0.00     0.131 A 
ATOM     70  C   UNL A   1      38.487  29.631  31.292  1.00  0.00     0.055 A 
ATOM     71  C   UNL A   1      37.767  30.001  29.026  1.00  0.00     0.041 A 
ATOM     72  F   UNL A   1      39.272  29.670  27.259  1.00  0.00    -0.206 F 
ATOM     73  C   UNL A   1      37.480  29.980  30.389  1.00  0.00     0.022 A 
BRANCH  70  74
ATOM     74  S   UNL A   1      38.110  29.486  33.059  1.00  0.00     0.124 S 
ATOM     75  O   UNL A   1      37.453  28.182  33.112  1.00  0.00    -0.237 OA
ATOM     76  O   UNL A   1      39.429  29.561  33.675  1.00  0.00    -0.237 OA
ATOM     77  O   UNL A   1      37.236  30.628  33.317  1.00  0.00    -0.744 OA
ENDBRANCH  70  74
ENDBRANCH  53  67
BRANCH  54  78
ATOM     78  C   UNL A   1      49.222  27.201  26.033  1.00  0.00     0.023 A 
ATOM     79  C   UNL A   1      50.293  26.937  26.902  1.00  0.00     0.031 A 
ATOM     80  C   UNL A   1      49.479  27.214  24.650  1.00  0.00     0.131 A 
ATOM     81  C   UNL A   1      51.581  26.734  26.380  1.00  0.00     0.055 A 
ATOM     82  C   UNL A   1      50.753  26.968  24.135  1.00  0.00     0.041 A 
ATOM     83  F   UNL A   1      48.488  27.458  23.778  1.00  0.00    -0.206 F 
ATOM     84  C   UNL A   1      51.816  26.735  25.004  1.00  0.00     0.022 A 
BRANCH  81  85
ATOM     85  S   UNL A   1      52.964  26.526  27.537  1.00  0.00     0.124 S 
ATOM     86  O   UNL A   1      53.530  25.256  27.096  1.00  0.00    -0.237 OA
ATOM     87  O   UNL A   1      53.765  27.715  27.269  1.00  0.00    -0.237 OA
ATOM     88  O   UNL A   1      52.312  26.499  28.844  1.00  0.00    -0.744 OA
ENDBRANCH  81  85
ENDBRANCH  54  78
BRANCH  66  89
ATOM     89  C   UNL A   1      46.282  32.943  28.684  1.00  0.00     0.023 A 
ATOM     90  C   UNL A   1      46.838  33.273  29.930  1.00  0.00     0.031 A 
ATOM     91  C   UNL A   1      46.271  33.923  27.676  1.00  0.00     0.131 A 
ATOM     92  C   UNL A   1      47.338  34.565  30.148  1.00  0.00     0.055 A 
ATOM     93  C   UNL A   1      46.811  35.191  27.884  1.00  0.00     0.041 A 
ATOM     94  F   UNL A   1      45.754  33.652  26.467  1.00  0.00    -0.206 F 
ATOM     95  C   UNL A   1      47.344  35.520  29.128  1.00  0.00     0.022 A 
BRANCH  92  96
ATOM     96  S   UNL A   1      47.958  34.993  31.797  1.00  0.00     0.124 S 
ATOM     97  O   UNL A   1      48.971  35.997  31.487  1.00  0.00    -0.237 OA
ATOM     98  O   UNL A   1      46.759  35.485  32.468  1.00  0.00    -0.237 OA
ATOM     99  O   UNL A   1      48.476  33.726  32.309  1.00  0.00    -0.744 OA
ENDBRANCH  92  96
ENDBRANCH  66  89
ENDBRANCH  40  41
ENDBRANCH  32  35
ENDBRANCH  30  31
ENDBRANCH  29  30
ENDBRANCH   1  29
TORSDOF 18
ENDMDL
MODEL 3
REMARK VINA RESULT:     -12.2      5.637      9.375
REMARK SMILES Cc1nc(N2CCN(c3ccccc3)CC2)nc(OCC(=O)NCCCCNC(=O)c2ccc(-c3c4nc(c(-c5cc(S(=O)(=O)[O-])ccc5F)c5ccc([nH]5)c(-c5cc(S(=O)(=O)[O-])ccc5F)c5nc(c(-c6cc(S(=O)(=O)[O-])ccc6F)c6ccc3[nH]6)C=C5)C=C4)cc2)c1C
REMARK SMILES IDX 25 1 24 2 23 3 21 4 22 5 20 7 19 8 18 9 1 10 2 11 3 12 94 13
REMARK SMILES IDX 4 14 95 15 17 16 5 17 6 18 16 19 7 20 15 21 8 22 9 23 10 24
REMARK SMILES IDX 14 25 11 26 13 27 12 28 26 29 27 30 28 31 29 32 30 34 31 35
REMARK SMILES IDX 32 36 93 37 33 38 92 39 34 40 35 41 36 42 86 43 37 44 91 45
REMARK SMILES IDX 85 46 87 47 38 48 90 49 84 50 83 51 39 53 71 54 51 55 70 56
REMARK SMILES IDX 52 57 55 58 69 59 88 60 53 61 54 62 68 64 89 65 56 66 40 67
REMARK SMILES IDX 41 68 49 69 42 70 48 71 50 72 47 73 43 74 44 75 45 76 46 77
REMARK SMILES IDX 72 78 73 79 81 80 74 81 80 82 82 83 79 84 75 85 76 86 77 87
REMARK SMILES IDX 78 88 57 89 58 90 66 91 59 92 65 93 67 94 64 95 60 96 61 97
REMARK SMILES IDX 62 98 63 99
REMARK H PARENT 23 6 28 33 87 52 55 63
REMARK Flexibility Score: inf
ROOT
ATOM      1  C   UNL A   1      32.745  26.764  26.162  1.00  0.00     0.023 C 
ENDROOT
BRANCH   1   2
ATOM      2  C   UNL A   1      33.923  26.853  25.197  1.00  0.00     0.116 C 
BRANCH   2   3
ATOM      3  N   UNL A   1      33.961  28.106  24.468  1.00  0.00    -0.353 N 
ATOM      4  C   UNL A   1      33.959  28.313  23.124  1.00  0.00     0.258 C 
ATOM      5  O   UNL A   1      33.841  29.467  22.707  1.00  0.00    -0.271 OA
ATOM      6  H   UNL A   1      33.992  28.919  25.023  1.00  0.00     0.163 HD
BRANCH   4   7
ATOM      7  C   UNL A   1      34.027  27.127  22.156  1.00  0.00     0.331 C 
BRANCH   7   8
ATOM      8  O   UNL A   1      32.871  26.495  21.680  1.00  0.00    -0.467 OA
BRANCH   8   9
ATOM      9  C   UNL A   1      31.849  26.039  22.439  1.00  0.00     0.221 A 
ATOM     10  C   UNL A   1      28.481  26.317  24.102  1.00  0.00     0.067 C 
ATOM     11  C   UNL A   1      29.823  25.858  23.601  1.00  0.00     0.050 A 
ATOM     12  N   UNL A   1      30.097  24.570  23.905  1.00  0.00    -0.218 NA
ATOM     13  C   UNL A   1      30.685  26.669  22.853  1.00  0.00     0.033 A 
ATOM     14  C   UNL A   1      31.272  24.076  23.525  1.00  0.00     0.229 A 
ATOM     15  C   UNL A   1      30.293  28.076  22.537  1.00  0.00     0.052 C 
ATOM     16  N   UNL A   1      32.153  24.784  22.821  1.00  0.00    -0.177 NA
BRANCH  14  17
ATOM     17  N   UNL A   1      31.611  22.782  23.846  1.00  0.00    -0.337 N 
ATOM     18  C   UNL A   1      32.161  22.507  25.176  1.00  0.00     0.141 C 
ATOM     19  C   UNL A   1      32.189  22.008  22.743  1.00  0.00     0.141 C 
ATOM     20  C   UNL A   1      32.075  20.989  25.478  1.00  0.00     0.138 C 
ATOM     21  C   UNL A   1      32.158  20.497  23.050  1.00  0.00     0.138 C 
ATOM     22  N   UNL A   1      32.712  20.226  24.390  1.00  0.00    -0.368 N 
BRANCH  22  23
ATOM     23  C   UNL A   1      33.208  18.955  24.618  1.00  0.00     0.037 A 
ATOM     24  C   UNL A   1      34.530  18.590  24.345  1.00  0.00     0.026 A 
ATOM     25  C   UNL A   1      32.350  17.976  25.139  1.00  0.00     0.026 A 
ATOM     26  C   UNL A   1      34.979  17.285  24.583  1.00  0.00     0.002 A 
ATOM     27  C   UNL A   1      32.787  16.669  25.363  1.00  0.00     0.002 A 
ATOM     28  C   UNL A   1      34.105  16.324  25.084  1.00  0.00     0.000 A 
ENDBRANCH  22  23
ENDBRANCH  14  17
ENDBRANCH   8   9
ENDBRANCH   7   8
ENDBRANCH   4   7
ENDBRANCH   2   3
ENDBRANCH   1   2
BRANCH   1  29
ATOM     29  C   UNL A   1      31.790  27.963  26.159  1.00  0.00     0.023 C 
BRANCH  29  30
ATOM     30  C   UNL A   1      31.865  28.895  27.366  1.00  0.00     0.116 C 
BRANCH  30  31
ATOM     31  N   UNL A   1      31.862  30.302  27.009  1.00  0.00    -0.352 N 
ATOM     32  C   UNL A   1      32.810  31.272  27.241  1.00  0.00     0.251 C 
ATOM     33  H   UNL A   1      31.059  30.608  26.528  1.00  0.00     0.163 HD
ATOM     34  O   UNL A   1      32.566  32.434  26.946  1.00  0.00    -0.269 OA
BRANCH  32  35
ATOM     35  C   UNL A   1      34.102  30.920  27.877  1.00  0.00     0.039 A 
ATOM     36  C   UNL A   1      34.699  31.852  28.731  1.00  0.00     0.014 A 
ATOM     37  C   UNL A   1      34.726  29.693  27.638  1.00  0.00     0.014 A 
ATOM     38  C   UNL A   1      35.883  31.525  29.398  1.00  0.00     0.010 A 
ATOM     39  C   UNL A   1      35.875  29.346  28.350  1.00  0.00     0.010 A 
ATOM     40  C   UNL A   1      36.462  30.256  29.242  1.00  0.00    -0.014 A 
BRANCH  40  41
ATOM     41  C   UNL A   1      37.681  29.871  30.001  1.00  0.00     0.031 A 
ATOM     42  C   UNL A   1      37.893  30.386  31.401  1.00  0.00     0.074 A 
ATOM     43  C   UNL A   1      38.614  29.087  29.422  1.00  0.00     0.049 A 
ATOM     44  N   UNL A   1      38.922  30.225  32.191  1.00  0.00    -0.248 NA
ATOM     45  C   UNL A   1      36.814  31.201  31.980  1.00  0.00     0.031 C 
ATOM     46  C   UNL A   1      38.531  28.537  28.066  1.00  0.00     0.029 A 
ATOM     47  N   UNL A   1      39.813  28.614  29.896  1.00  0.00    -0.354 N 
ATOM     48  C   UNL A   1      38.619  30.918  33.357  1.00  0.00     0.074 A 
ATOM     49  C   UNL A   1      37.330  31.542  33.152  1.00  0.00     0.031 C 
ATOM     50  C   UNL A   1      39.616  27.781  27.830  1.00  0.00     0.029 A 
ATOM     51  C   UNL A   1      40.494  27.826  28.996  1.00  0.00     0.049 A 
ATOM     52  H   UNL A   1      40.153  28.819  30.796  1.00  0.00     0.167 HD
ATOM     53  C   UNL A   1      39.339  31.008  34.500  1.00  0.00     0.034 A 
ATOM     54  C   UNL A   1      41.694  27.217  29.093  1.00  0.00     0.034 A 
ATOM     55  C   UNL A   1      40.610  30.362  34.708  1.00  0.00     0.049 A 
ATOM     56  C   UNL A   1      42.490  27.367  30.363  1.00  0.00     0.074 A 
ATOM     57  C   UNL A   1      41.397  30.365  35.847  1.00  0.00     0.029 A 
ATOM     58  N   UNL A   1      41.276  29.597  33.763  1.00  0.00    -0.354 N 
ATOM     59  N   UNL A   1      42.183  28.027  31.455  1.00  0.00    -0.248 NA
ATOM     60  C   UNL A   1      43.794  26.691  30.417  1.00  0.00     0.031 C 
ATOM     61  C   UNL A   1      42.563  29.644  35.575  1.00  0.00     0.029 A 
ATOM     62  C   UNL A   1      42.476  29.142  34.286  1.00  0.00     0.049 A 
ATOM     63  H   UNL A   1      40.947  29.405  32.855  1.00  0.00     0.167 HD
ATOM     64  C   UNL A   1      43.247  27.828  32.330  1.00  0.00     0.074 A 
ATOM     65  C   UNL A   1      44.198  26.979  31.646  1.00  0.00     0.031 C 
ATOM     66  C   UNL A   1      43.418  28.304  33.587  1.00  0.00     0.034 A 
BRANCH  53  67
ATOM     67  C   UNL A   1      38.775  31.836  35.623  1.00  0.00     0.023 A 
ATOM     68  C   UNL A   1      38.135  31.238  36.720  1.00  0.00     0.031 A 
ATOM     69  C   UNL A   1      38.925  33.234  35.619  1.00  0.00     0.131 A 
ATOM     70  C   UNL A   1      37.639  32.040  37.758  1.00  0.00     0.055 A 
ATOM     71  C   UNL A   1      38.480  34.021  36.682  1.00  0.00     0.041 A 
ATOM     72  F   UNL A   1      39.516  33.854  34.585  1.00  0.00    -0.206 F 
ATOM     73  C   UNL A   1      37.830  33.424  37.759  1.00  0.00     0.022 A 
BRANCH  70  74
ATOM     74  S   UNL A   1      36.698  31.254  39.092  1.00  0.00     0.124 S 
ATOM     75  O   UNL A   1      37.661  31.287  40.190  1.00  0.00    -0.237 OA
ATOM     76  O   UNL A   1      35.543  32.132  39.230  1.00  0.00    -0.237 OA
ATOM     77  O   UNL A   1      36.406  29.921  38.567  1.00  0.00    -0.744 OA
ENDBRANCH  70  74
ENDBRANCH  53  67
BRANCH  54  78
ATOM     78  C   UNL A   1      42.233  26.424  27.952  1.00  0.00     0.023 A 
ATOM     79  C   UNL A   1      42.049  25.034  27.888  1.00  0.00     0.031 A 
ATOM     80  C   UNL A   1      42.976  27.041  26.929  1.00  0.00     0.131 A 
ATOM     81  C   UNL A   1      42.631  24.300  26.843  1.00  0.00     0.055 A 
ATOM     82  C   UNL A   1      43.516  26.311  25.867  1.00  0.00     0.041 A 
ATOM     83  F   UNL A   1      43.178  28.368  26.943  1.00  0.00    -0.206 F 
ATOM     84  C   UNL A   1      43.353  24.930  25.826  1.00  0.00     0.022 A 
BRANCH  81  85
ATOM     85  S   UNL A   1      42.483  22.491  26.862  1.00  0.00     0.124 S 
ATOM     86  O   UNL A   1      42.505  22.208  28.293  1.00  0.00    -0.237 OA
ATOM     87  O   UNL A   1      41.208  22.284  26.185  1.00  0.00    -0.237 OA
ATOM     88  O   UNL A   1      43.660  22.046  26.119  1.00  0.00    -0.744 OA
ENDBRANCH  81  85
ENDBRANCH  54  78
BRANCH  66  89
ATOM     89  C   UNL A   1      44.669  27.897  34.319  1.00  0.00     0.023 A 
ATOM     90  C   UNL A   1      44.718  26.722  35.085  1.00  0.00     0.031 A 
ATOM     91  C   UNL A   1      45.837  28.673  34.209  1.00  0.00     0.131 A 
ATOM     92  C   UNL A   1      45.908  26.367  35.739  1.00  0.00     0.055 A 
ATOM     93  C   UNL A   1      47.028  28.291  34.824  1.00  0.00     0.041 A 
ATOM     94  F   UNL A   1      45.839  29.803  33.484  1.00  0.00    -0.206 F 
ATOM     95  C   UNL A   1      47.067  27.135  35.599  1.00  0.00     0.022 A 
BRANCH  92  96
ATOM     96  S   UNL A   1      45.913  24.898  36.801  1.00  0.00     0.124 S 
ATOM     97  O   UNL A   1      44.996  25.292  37.865  1.00  0.00    -0.237 OA
ATOM     98  O   UNL A   1      45.435  23.854  35.902  1.00  0.00    -0.237 OA
ATOM     99  O   UNL A   1      47.313  24.772  37.204  1.00  0.00    -0.744 OA
ENDBRANCH  92  96
ENDBRANCH  66  89
ENDBRANCH  40  41
ENDBRANCH  32  35
ENDBRANCH  30  31
ENDBRANCH  29  30
ENDBRANCH   1  29
TORSDOF 18
ENDMDL
