MODEL 1
REMARK VINA RESULT:     -12.8      0.000      0.000
REMARK SMILES O=C(NCCCCNC(=O)[C@H]1CC[C@H]2CCCC[C@@H]2N1C(=O)c1ccn[nH]1)c1ccc(-c2c3nc(c(-c4cc(S(=O)(=O)[O-])ccc4F)c4ccc([nH]4)c(-c4cc(S(=O)(=O)[O-])ccc4F)c4nc(c(-c5cc(S(=O)(=O)[O-])ccc5F)c5ccc2[nH]5)C=C4)C=C3)cc1
REMARK SMILES IDX 5 1 4 2 3 3 1 4 2 5 28 7 29 8 90 9 30 10 89 11 31 12 32 13
REMARK SMILES IDX 33 14 83 15 34 16 88 17 82 18 84 19 35 20 87 21 81 22 80 23
REMARK SMILES IDX 36 25 68 26 48 27 67 28 49 29 52 30 66 31 85 32 50 33 51 34
REMARK SMILES IDX 65 36 86 37 53 38 37 39 38 40 46 41 39 42 45 43 47 44 44 45
REMARK SMILES IDX 40 46 41 47 42 48 43 49 69 50 70 51 78 52 71 53 77 54 79 55
REMARK SMILES IDX 76 56 72 57 73 58 74 59 75 60 54 61 55 62 63 63 56 64 62 65
REMARK SMILES IDX 64 66 61 67 57 68 58 69 59 70 60 71 6 72 7 73 8 74 9 75
REMARK SMILES IDX 10 77 11 78 12 79 20 80 13 81 19 82 14 83 18 84 15 85 17 86
REMARK SMILES IDX 16 87 21 88 22 89 23 90 24 91 27 92 25 93 26 94
REMARK H PARENT 3 6 84 24 52 35 8 76 27 95
REMARK Flexibility Score: inf
ROOT
ATOM      1  C   UNL A   1      36.251  22.290  23.809  1.00  0.00     0.023 C 
ENDROOT
BRANCH   1   2
ATOM      2  C   UNL A   1      36.821  22.337  25.229  1.00  0.00     0.116 C 
BRANCH   2   3
ATOM      3  N   UNL A   1      37.852  21.339  25.470  1.00  0.00    -0.352 N 
ATOM      4  O   UNL A   1      39.837  20.490  26.095  1.00  0.00    -0.269 OA
ATOM      5  C   UNL A   1      39.090  21.465  26.056  1.00  0.00     0.251 C 
ATOM      6  H   UNL A   1      37.627  20.429  25.166  1.00  0.00     0.163 HD
BRANCH   5   7
ATOM      7  C   UNL A   1      39.548  22.764  26.603  1.00  0.00     0.039 A 
ATOM      8  C   UNL A   1      39.026  23.972  26.133  1.00  0.00     0.014 A 
ATOM      9  C   UNL A   1      40.507  22.767  27.624  1.00  0.00     0.014 A 
ATOM     10  C   UNL A   1      39.553  25.180  26.590  1.00  0.00     0.010 A 
ATOM     11  C   UNL A   1      41.014  23.978  28.102  1.00  0.00     0.010 A 
ATOM     12  C   UNL A   1      40.568  25.190  27.558  1.00  0.00    -0.014 A 
BRANCH  12  13
ATOM     13  C   UNL A   1      41.176  26.477  27.971  1.00  0.00     0.031 A 
ATOM     14  C   UNL A   1      42.592  26.798  27.585  1.00  0.00     0.074 A 
ATOM     15  C   UNL A   1      40.454  27.360  28.682  1.00  0.00     0.049 A 
ATOM     16  N   UNL A   1      43.283  27.886  27.810  1.00  0.00    -0.248 NA
ATOM     17  C   UNL A   1      43.328  25.755  26.855  1.00  0.00     0.031 C 
ATOM     18  C   UNL A   1      39.080  27.154  29.143  1.00  0.00     0.029 A 
ATOM     19  N   UNL A   1      40.780  28.610  29.140  1.00  0.00    -0.354 N 
ATOM     20  C   UNL A   1      44.538  27.659  27.260  1.00  0.00     0.074 A 
ATOM     21  C   UNL A   1      44.518  26.321  26.705  1.00  0.00     0.031 C 
ATOM     22  C   UNL A   1      38.680  28.243  29.821  1.00  0.00     0.029 A 
ATOM     23  C   UNL A   1      39.758  29.229  29.816  1.00  0.00     0.049 A 
ATOM     24  H   UNL A   1      41.662  29.024  28.998  1.00  0.00     0.167 HD
ATOM     25  C   UNL A   1      45.608  28.489  27.217  1.00  0.00     0.034 A 
ATOM     26  C   UNL A   1      39.697  30.458  30.358  1.00  0.00     0.034 A 
ATOM     27  C   UNL A   1      45.630  29.824  27.754  1.00  0.00     0.049 A 
ATOM     28  C   UNL A   1      40.881  31.375  30.261  1.00  0.00     0.074 A 
ATOM     29  C   UNL A   1      46.655  30.754  27.722  1.00  0.00     0.029 A 
ATOM     30  N   UNL A   1      44.575  30.420  28.427  1.00  0.00    -0.354 N 
ATOM     31  N   UNL A   1      42.059  31.149  29.730  1.00  0.00    -0.248 NA
ATOM     32  C   UNL A   1      40.721  32.716  30.838  1.00  0.00     0.031 C 
ATOM     33  C   UNL A   1      46.223  31.908  28.392  1.00  0.00     0.029 A 
ATOM     34  C   UNL A   1      44.923  31.702  28.823  1.00  0.00     0.049 A 
ATOM     35  H   UNL A   1      43.703  29.994  28.600  1.00  0.00     0.167 HD
ATOM     36  C   UNL A   1      42.783  32.320  29.912  1.00  0.00     0.074 A 
ATOM     37  C   UNL A   1      41.913  33.251  30.604  1.00  0.00     0.031 C 
ATOM     38  C   UNL A   1      44.053  32.605  29.531  1.00  0.00     0.034 A 
BRANCH  25  39
ATOM     39  C   UNL A   1      46.858  27.937  26.594  1.00  0.00     0.023 A 
ATOM     40  C   UNL A   1      47.119  28.087  25.221  1.00  0.00     0.031 A 
ATOM     41  C   UNL A   1      47.768  27.208  27.376  1.00  0.00     0.131 A 
ATOM     42  C   UNL A   1      48.249  27.473  24.661  1.00  0.00     0.055 A 
ATOM     43  C   UNL A   1      48.914  26.639  26.821  1.00  0.00     0.041 A 
ATOM     44  F   UNL A   1      47.540  27.016  28.685  1.00  0.00    -0.206 F 
ATOM     45  C   UNL A   1      49.155  26.763  25.455  1.00  0.00     0.022 A 
BRANCH  42  46
ATOM     46  S   UNL A   1      48.454  27.519  22.859  1.00  0.00     0.124 S 
ATOM     47  O   UNL A   1      48.478  26.098  22.522  1.00  0.00    -0.237 OA
ATOM     48  O   UNL A   1      47.274  28.259  22.429  1.00  0.00    -0.237 OA
ATOM     49  O   UNL A   1      49.727  28.214  22.679  1.00  0.00    -0.744 OA
ENDBRANCH  42  46
ENDBRANCH  25  39
BRANCH  26  50
ATOM     50  C   UNL A   1      38.467  30.887  31.062  1.00  0.00     0.023 A 
ATOM     51  C   UNL A   1      37.469  31.616  30.399  1.00  0.00     0.031 A 
ATOM     52  C   UNL A   1      38.281  30.556  32.413  1.00  0.00     0.131 A 
ATOM     53  C   UNL A   1      36.313  31.994  31.096  1.00  0.00     0.055 A 
ATOM     54  C   UNL A   1      37.130  30.932  33.103  1.00  0.00     0.041 A 
ATOM     55  F   UNL A   1      39.217  29.856  33.073  1.00  0.00    -0.206 F 
ATOM     56  C   UNL A   1      36.135  31.654  32.443  1.00  0.00     0.022 A 
BRANCH  53  57
ATOM     57  S   UNL A   1      35.034  32.927  30.206  1.00  0.00     0.124 S 
ATOM     58  O   UNL A   1      34.540  31.932  29.260  1.00  0.00    -0.237 OA
ATOM     59  O   UNL A   1      34.120  33.297  31.282  1.00  0.00    -0.237 OA
ATOM     60  O   UNL A   1      35.772  34.040  29.613  1.00  0.00    -0.744 OA
ENDBRANCH  53  57
ENDBRANCH  26  50
BRANCH  38  61
ATOM     61  C   UNL A   1      44.556  33.983  29.846  1.00  0.00     0.023 A 
ATOM     62  C   UNL A   1      44.254  35.076  29.017  1.00  0.00     0.031 A 
ATOM     63  C   UNL A   1      45.360  34.199  30.978  1.00  0.00     0.131 A 
ATOM     64  C   UNL A   1      44.772  36.344  29.322  1.00  0.00     0.055 A 
ATOM     65  C   UNL A   1      45.859  35.465  31.287  1.00  0.00     0.041 A 
ATOM     66  F   UNL A   1      45.680  33.180  31.792  1.00  0.00    -0.206 F 
ATOM     67  C   UNL A   1      45.570  36.545  30.454  1.00  0.00     0.022 A 
BRANCH  64  68
ATOM     68  S   UNL A   1      44.430  37.725  28.194  1.00  0.00     0.124 S 
ATOM     69  O   UNL A   1      42.974  37.814  28.247  1.00  0.00    -0.237 OA
ATOM     70  O   UNL A   1      45.161  38.824  28.816  1.00  0.00    -0.237 OA
ATOM     71  O   UNL A   1      44.973  37.266  26.916  1.00  0.00    -0.744 OA
ENDBRANCH  64  68
ENDBRANCH  38  61
ENDBRANCH  12  13
ENDBRANCH   5   7
ENDBRANCH   2   3
ENDBRANCH   1   2
BRANCH   1  72
ATOM     72  C   UNL A   1      35.333  23.445  23.391  1.00  0.00     0.023 C 
BRANCH  72  73
ATOM     73  C   UNL A   1      33.845  23.124  23.277  1.00  0.00     0.116 C 
BRANCH  73  74
ATOM     74  N   UNL A   1      33.171  23.915  22.269  1.00  0.00    -0.354 N 
ATOM     75  C   UNL A   1      32.856  25.244  22.253  1.00  0.00     0.242 C 
ATOM     76  H   UNL A   1      32.897  23.415  21.466  1.00  0.00     0.163 HD
ATOM     77  O   UNL A   1      32.215  25.658  21.280  1.00  0.00    -0.273 OA
BRANCH  75  78
ATOM     78  C   UNL A   1      33.037  26.146  23.506  1.00  0.00     0.175 C 
ATOM     79  C   UNL A   1      33.860  27.353  22.980  1.00  0.00     0.036 C 
ATOM     80  N   UNL A   1      31.805  26.518  24.238  1.00  0.00    -0.322 N 
ATOM     81  C   UNL A   1      33.531  28.695  23.612  1.00  0.00     0.008 C 
ATOM     82  C   UNL A   1      31.840  27.690  25.147  1.00  0.00     0.089 C 
ATOM     83  C   UNL A   1      33.167  28.474  25.066  1.00  0.00     0.012 C 
ATOM     84  C   UNL A   1      31.613  27.346  26.638  1.00  0.00     0.025 C 
ATOM     85  C   UNL A   1      33.067  29.786  25.848  1.00  0.00     0.006 C 
ATOM     86  C   UNL A   1      31.539  28.614  27.492  1.00  0.00     0.002 C 
ATOM     87  C   UNL A   1      32.764  29.508  27.319  1.00  0.00     0.000 C 
BRANCH  80  88
ATOM     88  C   UNL A   1      30.863  25.495  24.433  1.00  0.00     0.272 C 
ATOM     89  O   UNL A   1      29.860  25.410  23.725  1.00  0.00    -0.267 OA
BRANCH  88  90
ATOM     90  C   UNL A   1      31.069  24.562  25.515  1.00  0.00     0.123 A 
ATOM     91  C   UNL A   1      32.174  23.901  26.018  1.00  0.00     0.055 A 
ATOM     92  N   UNL A   1      30.046  24.225  26.366  1.00  0.00    -0.273 N 
ATOM     93  C   UNL A   1      31.695  23.148  27.106  1.00  0.00     0.135 A 
ATOM     94  N   UNL A   1      30.386  23.313  27.294  1.00  0.00    -0.183 NA
ATOM     95  H   UNL A   1      29.145  24.616  26.303  1.00  0.00     0.190 HD
ENDBRANCH  88  90
ENDBRANCH  80  88
ENDBRANCH  75  78
ENDBRANCH  73  74
ENDBRANCH  72  73
ENDBRANCH   1  72
TORSDOF 16
ENDMDL
MODEL 2
REMARK VINA RESULT:     -12.6      5.532      8.482
REMARK SMILES O=C(NCCCCNC(=O)[C@H]1CC[C@H]2CCCC[C@@H]2N1C(=O)c1ccn[nH]1)c1ccc(-c2c3nc(c(-c4cc(S(=O)(=O)[O-])ccc4F)c4ccc([nH]4)c(-c4cc(S(=O)(=O)[O-])ccc4F)c4nc(c(-c5cc(S(=O)(=O)[O-])ccc5F)c5ccc2[nH]5)C=C4)C=C3)cc1
REMARK SMILES IDX 5 1 4 2 3 3 1 4 2 5 28 7 29 8 90 9 30 10 89 11 31 12 32 13
REMARK SMILES IDX 33 14 83 15 34 16 88 17 82 18 84 19 35 20 87 21 81 22 80 23
REMARK SMILES IDX 36 25 68 26 48 27 67 28 49 29 52 30 66 31 85 32 50 33 51 34
REMARK SMILES IDX 65 36 86 37 53 38 37 39 38 40 46 41 39 42 45 43 47 44 44 45
REMARK SMILES IDX 40 46 41 47 42 48 43 49 69 50 70 51 78 52 71 53 77 54 79 55
REMARK SMILES IDX 76 56 72 57 73 58 74 59 75 60 54 61 55 62 63 63 56 64 62 65
REMARK SMILES IDX 64 66 61 67 57 68 58 69 59 70 60 71 6 72 7 73 8 74 9 75
REMARK SMILES IDX 10 77 11 78 12 79 20 80 13 81 19 82 14 83 18 84 15 85 17 86
REMARK SMILES IDX 16 87 21 88 22 89 23 90 24 91 27 92 25 93 26 94
REMARK H PARENT 3 6 84 24 52 35 8 76 27 95
REMARK Flexibility Score: inf
ROOT
ATOM      1  C   UNL A   1      31.717  31.713  26.795  1.00  0.00     0.023 C 
ENDROOT
BRANCH   1   2
ATOM      2  C   UNL A   1      32.955  32.545  27.138  1.00  0.00     0.116 C 
BRANCH   2   3
ATOM      3  N   UNL A   1      32.641  33.904  27.550  1.00  0.00    -0.352 N 
ATOM      4  O   UNL A   1      32.723  35.796  28.762  1.00  0.00    -0.269 OA
ATOM      5  C   UNL A   1      33.198  34.685  28.537  1.00  0.00     0.251 C 
ATOM      6  H   UNL A   1      31.915  34.335  27.041  1.00  0.00     0.163 HD
BRANCH   5   7
ATOM      7  C   UNL A   1      34.329  34.189  29.355  1.00  0.00     0.039 A 
ATOM      8  C   UNL A   1      35.653  34.364  28.943  1.00  0.00     0.014 A 
ATOM      9  C   UNL A   1      34.054  33.553  30.573  1.00  0.00     0.014 A 
ATOM     10  C   UNL A   1      36.691  33.794  29.681  1.00  0.00     0.010 A 
ATOM     11  C   UNL A   1      35.096  33.006  31.325  1.00  0.00     0.010 A 
ATOM     12  C   UNL A   1      36.417  33.088  30.862  1.00  0.00    -0.014 A 
BRANCH  12  13
ATOM     13  C   UNL A   1      37.519  32.416  31.588  1.00  0.00     0.031 A 
ATOM     14  C   UNL A   1      38.278  31.296  30.934  1.00  0.00     0.074 A 
ATOM     15  C   UNL A   1      37.847  32.818  32.828  1.00  0.00     0.049 A 
ATOM     16  N   UNL A   1      39.301  30.617  31.387  1.00  0.00    -0.248 NA
ATOM     17  C   UNL A   1      37.820  30.882  29.599  1.00  0.00     0.031 C 
ATOM     18  C   UNL A   1      37.169  33.874  33.583  1.00  0.00     0.029 A 
ATOM     19  N   UNL A   1      38.835  32.383  33.672  1.00  0.00    -0.354 N 
ATOM     20  C   UNL A   1      39.606  29.689  30.400  1.00  0.00     0.074 A 
ATOM     21  C   UNL A   1      38.647  29.882  29.330  1.00  0.00     0.031 C 
ATOM     22  C   UNL A   1      37.763  34.004  34.781  1.00  0.00     0.029 A 
ATOM     23  C   UNL A   1      38.876  33.062  34.864  1.00  0.00     0.049 A 
ATOM     24  H   UNL A   1      39.456  31.653  33.444  1.00  0.00     0.167 HD
ATOM     25  C   UNL A   1      40.595  28.764  30.381  1.00  0.00     0.034 A 
ATOM     26  C   UNL A   1      39.727  32.945  35.899  1.00  0.00     0.034 A 
ATOM     27  C   UNL A   1      41.560  28.576  31.434  1.00  0.00     0.049 A 
ATOM     28  C   UNL A   1      40.840  31.941  35.839  1.00  0.00     0.074 A 
ATOM     29  C   UNL A   1      42.623  27.692  31.487  1.00  0.00     0.029 A 
ATOM     30  N   UNL A   1      41.574  29.287  32.624  1.00  0.00    -0.354 N 
ATOM     31  N   UNL A   1      41.122  31.075  34.894  1.00  0.00    -0.248 NA
ATOM     32  C   UNL A   1      41.753  31.903  36.989  1.00  0.00     0.031 C 
ATOM     33  C   UNL A   1      43.271  27.857  32.720  1.00  0.00     0.029 A 
ATOM     34  C   UNL A   1      42.622  28.857  33.423  1.00  0.00     0.049 A 
ATOM     35  H   UNL A   1      40.932  29.993  32.868  1.00  0.00     0.167 HD
ATOM     36  C   UNL A   1      42.244  30.387  35.338  1.00  0.00     0.074 A 
ATOM     37  C   UNL A   1      42.587  30.934  36.636  1.00  0.00     0.031 C 
ATOM     38  C   UNL A   1      42.935  29.397  34.722  1.00  0.00     0.034 A 
BRANCH  25  39
ATOM     39  C   UNL A   1      40.643  27.858  29.185  1.00  0.00     0.023 A 
ATOM     40  C   UNL A   1      41.556  28.072  28.139  1.00  0.00     0.031 A 
ATOM     41  C   UNL A   1      39.726  26.801  29.069  1.00  0.00     0.131 A 
ATOM     42  C   UNL A   1      41.503  27.262  26.996  1.00  0.00     0.055 A 
ATOM     43  C   UNL A   1      39.708  25.970  27.950  1.00  0.00     0.041 A 
ATOM     44  F   UNL A   1      38.816  26.580  30.032  1.00  0.00    -0.206 F 
ATOM     45  C   UNL A   1      40.594  26.204  26.901  1.00  0.00     0.022 A 
BRANCH  42  46
ATOM     46  S   UNL A   1      42.561  27.686  25.585  1.00  0.00     0.124 S 
ATOM     47  O   UNL A   1      42.612  26.422  24.855  1.00  0.00    -0.237 OA
ATOM     48  O   UNL A   1      41.813  28.764  24.947  1.00  0.00    -0.237 OA
ATOM     49  O   UNL A   1      43.820  28.085  26.210  1.00  0.00    -0.744 OA
ENDBRANCH  42  46
ENDBRANCH  25  39
BRANCH  26  50
ATOM     50  C   UNL A   1      39.542  33.794  37.097  1.00  0.00     0.023 A 
ATOM     51  C   UNL A   1      38.831  33.330  38.213  1.00  0.00     0.031 A 
ATOM     52  C   UNL A   1      40.093  35.085  37.133  1.00  0.00     0.131 A 
ATOM     53  C   UNL A   1      38.688  34.159  39.335  1.00  0.00     0.055 A 
ATOM     54  C   UNL A   1      39.951  35.906  38.251  1.00  0.00     0.041 A 
ATOM     55  F   UNL A   1      40.782  35.556  36.082  1.00  0.00    -0.206 F 
ATOM     56  C   UNL A   1      39.246  35.443  39.363  1.00  0.00     0.022 A 
BRANCH  53  57
ATOM     57  S   UNL A   1      37.771  33.524  40.768  1.00  0.00     0.124 S 
ATOM     58  O   UNL A   1      37.594  34.729  41.570  1.00  0.00    -0.237 OA
ATOM     59  O   UNL A   1      36.566  32.985  40.145  1.00  0.00    -0.237 OA
ATOM     60  O   UNL A   1      38.673  32.523  41.334  1.00  0.00    -0.744 OA
ENDBRANCH  53  57
ENDBRANCH  26  50
BRANCH  38  61
ATOM     61  C   UNL A   1      44.135  28.863  35.448  1.00  0.00     0.023 A 
ATOM     62  C   UNL A   1      44.020  27.811  36.371  1.00  0.00     0.031 A 
ATOM     63  C   UNL A   1      45.403  29.426  35.224  1.00  0.00     0.131 A 
ATOM     64  C   UNL A   1      45.157  27.361  37.059  1.00  0.00     0.055 A 
ATOM     65  C   UNL A   1      46.534  28.965  35.898  1.00  0.00     0.041 A 
ATOM     66  F   UNL A   1      45.556  30.439  34.357  1.00  0.00    -0.206 F 
ATOM     67  C   UNL A   1      46.414  27.931  36.825  1.00  0.00     0.022 A 
BRANCH  64  68
ATOM     68  S   UNL A   1      44.969  26.052  38.302  1.00  0.00     0.124 S 
ATOM     69  O   UNL A   1      44.634  24.892  37.481  1.00  0.00    -0.237 OA
ATOM     70  O   UNL A   1      46.285  26.029  38.933  1.00  0.00    -0.237 OA
ATOM     71  O   UNL A   1      43.884  26.539  39.152  1.00  0.00    -0.744 OA
ENDBRANCH  64  68
ENDBRANCH  38  61
ENDBRANCH  12  13
ENDBRANCH   5   7
ENDBRANCH   2   3
ENDBRANCH   1   2
BRANCH   1  72
ATOM     72  C   UNL A   1      31.913  30.196  26.674  1.00  0.00     0.023 C 
BRANCH  72  73
ATOM     73  C   UNL A   1      31.588  29.576  25.318  1.00  0.00     0.116 C 
BRANCH  73  74
ATOM     74  N   UNL A   1      32.679  29.682  24.371  1.00  0.00    -0.354 N 
ATOM     75  C   UNL A   1      33.407  28.709  23.748  1.00  0.00     0.242 C 
ATOM     76  H   UNL A   1      32.935  30.604  24.139  1.00  0.00     0.163 HD
ATOM     77  O   UNL A   1      34.336  29.080  23.023  1.00  0.00    -0.273 OA
BRANCH  75  78
ATOM     78  C   UNL A   1      33.273  27.209  24.134  1.00  0.00     0.175 C 
ATOM     79  C   UNL A   1      33.688  27.171  25.631  1.00  0.00     0.036 C 
ATOM     80  N   UNL A   1      31.972  26.564  23.845  1.00  0.00    -0.322 N 
ATOM     81  C   UNL A   1      32.944  26.164  26.491  1.00  0.00     0.008 C 
ATOM     82  C   UNL A   1      31.621  25.310  24.555  1.00  0.00     0.089 C 
ATOM     83  C   UNL A   1      32.640  24.938  25.655  1.00  0.00     0.012 C 
ATOM     84  C   UNL A   1      31.484  24.074  23.636  1.00  0.00     0.025 C 
ATOM     85  C   UNL A   1      32.119  23.771  26.499  1.00  0.00     0.006 C 
ATOM     86  C   UNL A   1      31.002  22.853  24.422  1.00  0.00     0.002 C 
ATOM     87  C   UNL A   1      31.889  22.542  25.623  1.00  0.00     0.000 C 
BRANCH  80  88
ATOM     88  C   UNL A   1      31.393  26.861  22.600  1.00  0.00     0.272 C 
ATOM     89  O   UNL A   1      31.844  26.387  21.558  1.00  0.00    -0.267 OA
BRANCH  88  90
ATOM     90  C   UNL A   1      30.276  27.775  22.558  1.00  0.00     0.123 A 
ATOM     91  C   UNL A   1      29.057  27.835  23.208  1.00  0.00     0.055 A 
ATOM     92  N   UNL A   1      30.327  28.925  21.810  1.00  0.00    -0.273 N 
ATOM     93  C   UNL A   1      28.436  29.002  22.727  1.00  0.00     0.135 A 
ATOM     94  N   UNL A   1      29.194  29.647  21.841  1.00  0.00    -0.183 NA
ATOM     95  H   UNL A   1      31.122  29.196  21.297  1.00  0.00     0.190 HD
ENDBRANCH  88  90
ENDBRANCH  80  88
ENDBRANCH  75  78
ENDBRANCH  73  74
ENDBRANCH  72  73
ENDBRANCH   1  72
TORSDOF 16
ENDMDL
MODEL 3
REMARK VINA RESULT:     -12.6      1.366      1.759
REMARK SMILES O=C(NCCCCNC(=O)[C@H]1CC[C@H]2CCCC[C@@H]2N1C(=O)c1ccn[nH]1)c1ccc(-c2c3nc(c(-c4cc(S(=O)(=O)[O-])ccc4F)c4ccc([nH]4)c(-c4cc(S(=O)(=O)[O-])ccc4F)c4nc(c(-c5cc(S(=O)(=O)[O-])ccc5F)c5ccc2[nH]5)C=C4)C=C3)cc1
REMARK SMILES IDX 5 1 4 2 3 3 1 4 2 5 28 7 29 8 90 9 30 10 89 11 31 12 32 13
REMARK SMILES IDX 33 14 83 15 34 16 88 17 82 18 84 19 35 20 87 21 81 22 80 23
REMARK SMILES IDX 36 25 68 26 48 27 67 28 49 29 52 30 66 31 85 32 50 33 51 34
REMARK SMILES IDX 65 36 86 37 53 38 37 39 38 40 46 41 39 42 45 43 47 44 44 45
REMARK SMILES IDX 40 46 41 47 42 48 43 49 69 50 70 51 78 52 71 53 77 54 79 55
REMARK SMILES IDX 76 56 72 57 73 58 74 59 75 60 54 61 55 62 63 63 56 64 62 65
REMARK SMILES IDX 64 66 61 67 57 68 58 69 59 70 60 71 6 72 7 73 8 74 9 75
REMARK SMILES IDX 10 77 11 78 12 79 20 80 13 81 19 82 14 83 18 84 15 85 17 86
REMARK SMILES IDX 16 87 21 88 22 89 23 90 24 91 27 92 25 93 26 94
REMARK H PARENT 3 6 84 24 52 35 8 76 27 95
REMARK Flexibility Score: inf
ROOT
ATOM      1  C   UNL A   1      36.181  23.718  24.624  1.00  0.00     0.023 C 
ENDROOT
BRANCH   1   2
ATOM      2  C   UNL A   1      36.300  23.016  25.978  1.00  0.00     0.116 C 
BRANCH   2   3
ATOM      3  N   UNL A   1      37.493  22.191  26.098  1.00  0.00    -0.352 N 
ATOM      4  O   UNL A   1      39.655  21.674  26.433  1.00  0.00    -0.269 OA
ATOM      5  C   UNL A   1      38.774  22.530  26.469  1.00  0.00     0.251 C 
ATOM      6  H   UNL A   1      37.363  21.239  25.879  1.00  0.00     0.163 HD
BRANCH   5   7
ATOM      7  C   UNL A   1      39.111  23.917  26.869  1.00  0.00     0.039 A 
ATOM      8  C   UNL A   1      39.592  24.843  25.940  1.00  0.00     0.014 A 
ATOM      9  C   UNL A   1      38.918  24.300  28.203  1.00  0.00     0.014 A 
ATOM     10  C   UNL A   1      40.001  26.107  26.367  1.00  0.00     0.010 A 
ATOM     11  C   UNL A   1      39.302  25.575  28.624  1.00  0.00     0.010 A 
ATOM     12  C   UNL A   1      39.883  26.472  27.716  1.00  0.00    -0.014 A 
BRANCH  12  13
ATOM     13  C   UNL A   1      40.399  27.784  28.170  1.00  0.00     0.031 A 
ATOM     14  C   UNL A   1      41.863  28.101  28.045  1.00  0.00     0.074 A 
ATOM     15  C   UNL A   1      39.553  28.695  28.682  1.00  0.00     0.049 A 
ATOM     16  N   UNL A   1      42.496  29.207  28.341  1.00  0.00    -0.248 NA
ATOM     17  C   UNL A   1      42.726  27.029  27.525  1.00  0.00     0.031 C 
ATOM     18  C   UNL A   1      38.116  28.498  28.882  1.00  0.00     0.029 A 
ATOM     19  N   UNL A   1      39.784  29.970  29.128  1.00  0.00    -0.354 N 
ATOM     20  C   UNL A   1      43.833  28.965  28.054  1.00  0.00     0.074 A 
ATOM     21  C   UNL A   1      43.921  27.600  27.576  1.00  0.00     0.031 C 
ATOM     22  C   UNL A   1      37.593  29.616  29.413  1.00  0.00     0.029 A 
ATOM     23  C   UNL A   1      38.651  30.611  29.563  1.00  0.00     0.049 A 
ATOM     24  H   UNL A   1      40.676  30.386  29.135  1.00  0.00     0.167 HD
ATOM     25  C   UNL A   1      44.891  29.803  28.172  1.00  0.00     0.034 A 
ATOM     26  C   UNL A   1      38.486  31.866  30.017  1.00  0.00     0.034 A 
ATOM     27  C   UNL A   1      44.809  31.165  28.633  1.00  0.00     0.049 A 
ATOM     28  C   UNL A   1      39.666  32.790  30.101  1.00  0.00     0.074 A 
ATOM     29  C   UNL A   1      45.820  32.103  28.749  1.00  0.00     0.029 A 
ATOM     30  N   UNL A   1      43.643  31.783  29.060  1.00  0.00    -0.354 N 
ATOM     31  N   UNL A   1      40.924  32.550  29.818  1.00  0.00    -0.248 NA
ATOM     32  C   UNL A   1      39.397  34.157  30.565  1.00  0.00     0.031 C 
ATOM     33  C   UNL A   1      45.267  33.285  29.263  1.00  0.00     0.029 A 
ATOM     34  C   UNL A   1      43.909  33.087  29.447  1.00  0.00     0.049 A 
ATOM     35  H   UNL A   1      42.755  31.357  29.085  1.00  0.00     0.167 HD
ATOM     36  C   UNL A   1      41.599  33.737  30.072  1.00  0.00     0.074 A 
ATOM     37  C   UNL A   1      40.611  34.692  30.535  1.00  0.00     0.031 C 
ATOM     38  C   UNL A   1      42.918  34.016  29.927  1.00  0.00     0.034 A 
BRANCH  25  39
ATOM     39  C   UNL A   1      46.237  29.234  27.830  1.00  0.00     0.023 A 
ATOM     40  C   UNL A   1      46.582  28.914  26.506  1.00  0.00     0.031 A 
ATOM     41  C   UNL A   1      47.163  28.961  28.850  1.00  0.00     0.131 A 
ATOM     42  C   UNL A   1      47.812  28.295  26.241  1.00  0.00     0.055 A 
ATOM     43  C   UNL A   1      48.404  28.387  28.574  1.00  0.00     0.041 A 
ATOM     44  F   UNL A   1      46.862  29.223  30.131  1.00  0.00    -0.206 F 
ATOM     45  C   UNL A   1      48.730  28.042  27.265  1.00  0.00     0.022 A 
BRANCH  42  46
ATOM     46  S   UNL A   1      48.144  27.717  24.554  1.00  0.00     0.124 S 
ATOM     47  O   UNL A   1      47.901  26.282  24.672  1.00  0.00    -0.237 OA
ATOM     48  O   UNL A   1      47.172  28.469  23.769  1.00  0.00    -0.237 OA
ATOM     49  O   UNL A   1      49.542  28.086  24.336  1.00  0.00    -0.744 OA
ENDBRANCH  42  46
ENDBRANCH  25  39
BRANCH  26  50
ATOM     50  C   UNL A   1      37.144  32.317  30.449  1.00  0.00     0.023 A 
ATOM     51  C   UNL A   1      36.262  32.935  29.550  1.00  0.00     0.031 A 
ATOM     52  C   UNL A   1      36.732  32.120  31.776  1.00  0.00     0.131 A 
ATOM     53  C   UNL A   1      34.994  33.338  29.994  1.00  0.00     0.055 A 
ATOM     54  C   UNL A   1      35.470  32.520  32.214  1.00  0.00     0.041 A 
ATOM     55  F   UNL A   1      37.552  31.529  32.659  1.00  0.00    -0.206 F 
ATOM     56  C   UNL A   1      34.591  33.131  31.319  1.00  0.00     0.022 A 
BRANCH  53  57
ATOM     57  S   UNL A   1      33.872  34.123  28.802  1.00  0.00     0.124 S 
ATOM     58  O   UNL A   1      32.845  34.679  29.677  1.00  0.00    -0.237 OA
ATOM     59  O   UNL A   1      34.748  35.090  28.148  1.00  0.00    -0.237 OA
ATOM     60  O   UNL A   1      33.439  33.013  27.957  1.00  0.00    -0.744 OA
ENDBRANCH  53  57
ENDBRANCH  26  50
BRANCH  38  61
ATOM     61  C   UNL A   1      43.350  35.414  30.260  1.00  0.00     0.023 A 
ATOM     62  C   UNL A   1      43.348  36.428  29.288  1.00  0.00     0.031 A 
ATOM     63  C   UNL A   1      43.784  35.728  31.559  1.00  0.00     0.131 A 
ATOM     64  C   UNL A   1      43.794  37.714  29.625  1.00  0.00     0.055 A 
ATOM     65  C   UNL A   1      44.211  37.013  31.894  1.00  0.00     0.041 A 
ATOM     66  F   UNL A   1      43.810  34.786  32.515  1.00  0.00    -0.206 F 
ATOM     67  C   UNL A   1      44.222  38.013  30.924  1.00  0.00     0.022 A 
BRANCH  64  68
ATOM     68  S   UNL A   1      43.853  38.988  28.332  1.00  0.00     0.124 S 
ATOM     69  O   UNL A   1      44.471  38.272  27.221  1.00  0.00    -0.237 OA
ATOM     70  O   UNL A   1      42.444  39.330  28.166  1.00  0.00    -0.237 OA
ATOM     71  O   UNL A   1      44.679  40.039  28.924  1.00  0.00    -0.744 OA
ENDBRANCH  64  68
ENDBRANCH  38  61
ENDBRANCH  12  13
ENDBRANCH   5   7
ENDBRANCH   2   3
ENDBRANCH   1   2
BRANCH   1  72
ATOM     72  C   UNL A   1      35.501  22.935  23.493  1.00  0.00     0.023 C 
BRANCH  72  73
ATOM     73  C   UNL A   1      33.977  22.866  23.536  1.00  0.00     0.116 C 
BRANCH  73  74
ATOM     74  N   UNL A   1      33.347  23.611  22.465  1.00  0.00    -0.354 N 
ATOM     75  C   UNL A   1      33.026  24.936  22.380  1.00  0.00     0.242 C 
ATOM     76  H   UNL A   1      33.114  23.077  21.671  1.00  0.00     0.163 HD
ATOM     77  O   UNL A   1      32.430  25.306  21.362  1.00  0.00    -0.273 OA
BRANCH  75  78
ATOM     78  C   UNL A   1      33.143  25.889  23.602  1.00  0.00     0.175 C 
ATOM     79  C   UNL A   1      34.015  27.063  23.077  1.00  0.00     0.036 C 
ATOM     80  N   UNL A   1      31.875  26.308  24.240  1.00  0.00    -0.322 N 
ATOM     81  C   UNL A   1      33.668  28.435  23.630  1.00  0.00     0.008 C 
ATOM     82  C   UNL A   1      31.871  27.517  25.099  1.00  0.00     0.089 C 
ATOM     83  C   UNL A   1      33.213  28.281  25.067  1.00  0.00     0.012 C 
ATOM     84  C   UNL A   1      31.548  27.242  26.586  1.00  0.00     0.025 C 
ATOM     85  C   UNL A   1      33.084  29.628  25.784  1.00  0.00     0.006 C 
ATOM     86  C   UNL A   1      31.441  28.547  27.379  1.00  0.00     0.002 C 
ATOM     87  C   UNL A   1      32.687  29.417  27.244  1.00  0.00     0.000 C 
BRANCH  80  88
ATOM     88  C   UNL A   1      30.907  25.306  24.420  1.00  0.00     0.272 C 
ATOM     89  O   UNL A   1      29.945  25.207  23.660  1.00  0.00    -0.267 OA
BRANCH  88  90
ATOM     90  C   UNL A   1      31.038  24.413  25.546  1.00  0.00     0.123 A 
ATOM     91  C   UNL A   1      32.109  23.799  26.168  1.00  0.00     0.055 A 
ATOM     92  N   UNL A   1      29.951  24.071  26.312  1.00  0.00    -0.273 N 
ATOM     93  C   UNL A   1      31.553  23.065  27.232  1.00  0.00     0.135 A 
ATOM     94  N   UNL A   1      30.228  23.199  27.296  1.00  0.00    -0.183 NA
ATOM     95  H   UNL A   1      29.049  24.434  26.155  1.00  0.00     0.190 HD
ENDBRANCH  88  90
ENDBRANCH  80  88
ENDBRANCH  75  78
ENDBRANCH  73  74
ENDBRANCH  72  73
ENDBRANCH   1  72
TORSDOF 16
ENDMDL
