MODEL 1
REMARK VINA RESULT:     -13.1      0.000      0.000
REMARK SMILES CS(=O)(=O)c1ccc(/C=C(/C(=O)NCCCCNC(=O)c2ccc(-c3c4nc(c(-c5cc(S(=O)(=O)[O-])ccc5F)c5ccc([nH]5)c(-c5cc(S(=O)(=O)[O-])ccc5F)c5nc(c(-c6cc(S(=O)(=O)[O-])ccc6F)c6ccc3[nH]6)C=C5)C=C4)cc2)c2ccc(-c3ccc(F)cc3F)cc2)cc1
REMARK SMILES IDX 16 1 15 2 14 3 13 4 11 5 12 6 10 8 9 9 8 10 5 11 6 12 99 13
REMARK SMILES IDX 7 14 98 15 2 16 1 17 3 18 4 19 84 20 85 21 97 22 86 23 96 24
REMARK SMILES IDX 87 25 88 26 89 27 94 28 90 29 93 30 95 31 91 32 92 33 17 34
REMARK SMILES IDX 18 35 19 36 20 38 21 39 22 40 83 41 23 42 82 43 24 44 25 45
REMARK SMILES IDX 26 46 76 47 27 48 81 49 75 50 77 51 28 52 80 53 74 54 73 55
REMARK SMILES IDX 29 57 61 58 41 59 60 60 42 61 45 62 59 63 78 64 43 65 44 66
REMARK SMILES IDX 58 68 79 69 46 70 30 71 31 72 39 73 32 74 38 75 40 76 37 77
REMARK SMILES IDX 33 78 34 79 35 80 36 81 62 82 63 83 71 84 64 85 70 86 72 87
REMARK SMILES IDX 69 88 65 89 66 90 67 91 68 92 47 93 48 94 56 95 49 96 55 97
REMARK SMILES IDX 57 98 54 99 50 100 51 101 52 102 53 103
REMARK H PARENT 13 7 18 37 77 56 45 67
REMARK Flexibility Score: inf
ROOT
ATOM      1  C   UNL A   1      32.514  28.784  25.298  1.00  0.00     0.023 C 
ENDROOT
BRANCH   1   2
ATOM      2  C   UNL A   1      32.267  27.283  25.500  1.00  0.00     0.023 C 
BRANCH   2   3
ATOM      3  C   UNL A   1      31.476  26.621  24.369  1.00  0.00     0.116 C 
BRANCH   3   4
ATOM      4  N   UNL A   1      32.248  26.644  23.144  1.00  0.00    -0.352 N 
ATOM      5  C   UNL A   1      33.095  25.761  22.552  1.00  0.00     0.251 C 
ATOM      6  O   UNL A   1      33.646  26.150  21.520  1.00  0.00    -0.269 OA
ATOM      7  H   UNL A   1      32.135  27.476  22.631  1.00  0.00     0.163 HD
BRANCH   5   8
ATOM      8  C   UNL A   1      33.306  24.348  23.050  1.00  0.00     0.047 C 
ATOM      9  C   UNL A   1      32.298  23.447  23.098  1.00  0.00     0.022 C 
BRANCH   9  10
ATOM     10  C   UNL A   1      32.351  22.006  23.426  1.00  0.00    -0.025 A 
ATOM     11  C   UNL A   1      32.626  19.238  23.814  1.00  0.00     0.067 A 
ATOM     12  C   UNL A   1      32.889  20.121  24.863  1.00  0.00     0.021 A 
ATOM     13  C   UNL A   1      32.167  19.719  22.588  1.00  0.00     0.021 A 
ATOM     14  C   UNL A   1      32.730  21.498  24.673  1.00  0.00     0.009 A 
ATOM     15  C   UNL A   1      32.028  21.098  22.402  1.00  0.00     0.009 A 
BRANCH  11  16
ATOM     16  S   UNL A   1      32.919  17.504  24.062  1.00  0.00     0.175 S 
ATOM     17  C   UNL A   1      34.571  17.360  24.685  1.00  0.00     0.163 C 
ATOM     18  O   UNL A   1      32.910  16.877  22.751  1.00  0.00    -0.224 OA
ATOM     19  O   UNL A   1      32.008  17.072  25.103  1.00  0.00    -0.224 OA
ENDBRANCH  11  16
ENDBRANCH   9  10
BRANCH   8  20
ATOM     20  C   UNL A   1      34.623  24.049  23.668  1.00  0.00    -0.013 A 
ATOM     21  C   UNL A   1      34.835  24.443  24.996  1.00  0.00     0.009 A 
ATOM     22  C   UNL A   1      35.630  23.329  23.019  1.00  0.00     0.009 A 
ATOM     23  C   UNL A   1      36.005  24.100  25.671  1.00  0.00     0.009 A 
ATOM     24  C   UNL A   1      36.795  22.959  23.713  1.00  0.00     0.009 A 
ATOM     25  C   UNL A   1      37.000  23.323  25.056  1.00  0.00    -0.015 A 
BRANCH  25  26
ATOM     26  C   UNL A   1      38.190  22.900  25.823  1.00  0.00     0.018 A 
ATOM     27  C   UNL A   1      38.652  21.567  25.748  1.00  0.00     0.015 A 
ATOM     28  C   UNL A   1      38.902  23.774  26.662  1.00  0.00     0.133 A 
ATOM     29  C   UNL A   1      39.751  21.133  26.494  1.00  0.00     0.040 A 
ATOM     30  C   UNL A   1      40.004  23.352  27.404  1.00  0.00     0.079 A 
ATOM     31  F   UNL A   1      38.524  25.056  26.787  1.00  0.00    -0.206 F 
ATOM     32  C   UNL A   1      40.413  22.031  27.317  1.00  0.00     0.126 A 
ATOM     33  F   UNL A   1      41.463  21.614  28.036  1.00  0.00    -0.207 F 
ENDBRANCH  25  26
ENDBRANCH   8  20
ENDBRANCH   5   8
ENDBRANCH   3   4
ENDBRANCH   2   3
ENDBRANCH   1   2
BRANCH   1  34
ATOM     34  C   UNL A   1      33.642  29.373  26.140  1.00  0.00     0.116 C 
BRANCH  34  35
ATOM     35  N   UNL A   1      33.409  30.764  26.501  1.00  0.00    -0.352 N 
ATOM     36  C   UNL A   1      34.116  31.548  27.383  1.00  0.00     0.251 C 
ATOM     37  H   UNL A   1      32.646  31.201  26.058  1.00  0.00     0.163 HD
ATOM     38  O   UNL A   1      33.713  32.670  27.669  1.00  0.00    -0.269 OA
BRANCH  36  39
ATOM     39  C   UNL A   1      35.337  30.999  28.007  1.00  0.00     0.039 A 
ATOM     40  C   UNL A   1      36.491  31.785  28.039  1.00  0.00     0.014 A 
ATOM     41  C   UNL A   1      35.313  29.742  28.615  1.00  0.00     0.014 A 
ATOM     42  C   UNL A   1      37.600  31.344  28.764  1.00  0.00     0.010 A 
ATOM     43  C   UNL A   1      36.398  29.332  29.384  1.00  0.00     0.010 A 
ATOM     44  C   UNL A   1      37.544  30.139  29.482  1.00  0.00    -0.014 A 
BRANCH  44  45
ATOM     45  C   UNL A   1      38.652  29.714  30.375  1.00  0.00     0.031 A 
ATOM     46  C   UNL A   1      38.766  30.294  31.756  1.00  0.00     0.074 A 
ATOM     47  C   UNL A   1      39.599  28.878  29.907  1.00  0.00     0.049 A 
ATOM     48  N   UNL A   1      39.727  30.161  32.632  1.00  0.00    -0.248 NA
ATOM     49  C   UNL A   1      37.661  31.159  32.198  1.00  0.00     0.031 C 
ATOM     50  C   UNL A   1      39.607  28.270  28.574  1.00  0.00     0.029 A 
ATOM     51  N   UNL A   1      40.751  28.409  30.489  1.00  0.00    -0.354 N 
ATOM     52  C   UNL A   1      39.351  30.931  33.727  1.00  0.00     0.074 A 
ATOM     53  C   UNL A   1      38.098  31.570  33.379  1.00  0.00     0.031 C 
ATOM     54  C   UNL A   1      40.699  27.500  28.447  1.00  0.00     0.029 A 
ATOM     55  C   UNL A   1      41.500  27.602  29.663  1.00  0.00     0.049 A 
ATOM     56  H   UNL A   1      41.016  28.629  31.411  1.00  0.00     0.167 HD
ATOM     57  C   UNL A   1      39.982  31.072  34.919  1.00  0.00     0.034 A 
ATOM     58  C   UNL A   1      42.707  27.032  29.853  1.00  0.00     0.034 A 
ATOM     59  C   UNL A   1      41.225  30.423  35.250  1.00  0.00     0.049 A 
ATOM     60  C   UNL A   1      43.422  27.264  31.161  1.00  0.00     0.074 A 
ATOM     61  C   UNL A   1      41.924  30.455  36.445  1.00  0.00     0.029 A 
ATOM     62  N   UNL A   1      41.966  29.633  34.381  1.00  0.00    -0.354 N 
ATOM     63  N   UNL A   1      43.030  27.960  32.203  1.00  0.00    -0.248 NA
ATOM     64  C   UNL A   1      44.740  26.636  31.317  1.00  0.00     0.031 C 
ATOM     65  C   UNL A   1      43.115  29.742  36.277  1.00  0.00     0.029 A 
ATOM     66  C   UNL A   1      43.130  29.205  35.000  1.00  0.00     0.049 A 
ATOM     67  H   UNL A   1      41.703  29.410  33.459  1.00  0.00     0.167 HD
ATOM     68  C   UNL A   1      44.045  27.831  33.147  1.00  0.00     0.074 A 
ATOM     69  C   UNL A   1      45.058  26.979  32.557  1.00  0.00     0.031 C 
ATOM     70  C   UNL A   1      44.134  28.366  34.391  1.00  0.00     0.034 A 
BRANCH  57  71
ATOM     71  C   UNL A   1      39.342  31.980  35.940  1.00  0.00     0.023 A 
ATOM     72  C   UNL A   1      39.749  33.317  36.091  1.00  0.00     0.031 A 
ATOM     73  C   UNL A   1      38.323  31.503  36.782  1.00  0.00     0.131 A 
ATOM     74  C   UNL A   1      39.189  34.109  37.104  1.00  0.00     0.055 A 
ATOM     75  C   UNL A   1      37.716  32.319  37.738  1.00  0.00     0.041 A 
ATOM     76  F   UNL A   1      37.907  30.229  36.697  1.00  0.00    -0.206 F 
ATOM     77  C   UNL A   1      38.158  33.627  37.913  1.00  0.00     0.022 A 
BRANCH  74  78
ATOM     78  S   UNL A   1      39.922  35.734  37.434  1.00  0.00     0.124 S 
ATOM     79  O   UNL A   1      39.160  36.170  38.602  1.00  0.00    -0.237 OA
ATOM     80  O   UNL A   1      41.324  35.407  37.671  1.00  0.00    -0.237 OA
ATOM     81  O   UNL A   1      39.655  36.486  36.209  1.00  0.00    -0.744 OA
ENDBRANCH  74  78
ENDBRANCH  57  71
BRANCH  58  82
ATOM     82  C   UNL A   1      43.342  26.215  28.779  1.00  0.00     0.023 A 
ATOM     83  C   UNL A   1      44.211  26.803  27.846  1.00  0.00     0.031 A 
ATOM     84  C   UNL A   1      43.044  24.848  28.632  1.00  0.00     0.131 A 
ATOM     85  C   UNL A   1      44.710  26.041  26.777  1.00  0.00     0.055 A 
ATOM     86  C   UNL A   1      43.588  24.082  27.600  1.00  0.00     0.041 A 
ATOM     87  F   UNL A   1      42.221  24.235  29.497  1.00  0.00    -0.206 F 
ATOM     88  C   UNL A   1      44.415  24.682  26.656  1.00  0.00     0.022 A 
BRANCH  85  89
ATOM     89  S   UNL A   1      45.674  26.882  25.491  1.00  0.00     0.124 S 
ATOM     90  O   UNL A   1      46.038  25.771  24.620  1.00  0.00    -0.237 OA
ATOM     91  O   UNL A   1      44.700  27.828  24.954  1.00  0.00    -0.237 OA
ATOM     92  O   UNL A   1      46.779  27.483  26.234  1.00  0.00    -0.744 OA
ENDBRANCH  85  89
ENDBRANCH  58  82
BRANCH  70  93
ATOM     93  C   UNL A   1      45.353  28.012  35.204  1.00  0.00     0.023 A 
ATOM     94  C   UNL A   1      45.438  26.803  35.916  1.00  0.00     0.031 A 
ATOM     95  C   UNL A   1      46.445  28.895  35.261  1.00  0.00     0.131 A 
ATOM     96  C   UNL A   1      46.576  26.527  36.687  1.00  0.00     0.055 A 
ATOM     97  C   UNL A   1      47.597  28.591  35.987  1.00  0.00     0.041 A 
ATOM     98  F   UNL A   1      46.414  30.064  34.601  1.00  0.00    -0.206 F 
ATOM     99  C   UNL A   1      47.663  27.405  36.713  1.00  0.00     0.022 A 
BRANCH  96 100
ATOM    100  S   UNL A   1      46.596  25.027  37.706  1.00  0.00     0.124 S 
ATOM    101  O   UNL A   1      47.382  24.113  36.883  1.00  0.00    -0.237 OA
ATOM    102  O   UNL A   1      47.236  25.489  38.933  1.00  0.00    -0.237 OA
ATOM    103  O   UNL A   1      45.182  24.682  37.838  1.00  0.00    -0.744 OA
ENDBRANCH  96 100
ENDBRANCH  70  93
ENDBRANCH  44  45
ENDBRANCH  36  39
ENDBRANCH  34  35
ENDBRANCH   1  34
TORSDOF 18
ENDMDL
MODEL 2
REMARK VINA RESULT:     -13.0      1.938      2.270
REMARK SMILES CS(=O)(=O)c1ccc(/C=C(/C(=O)NCCCCNC(=O)c2ccc(-c3c4nc(c(-c5cc(S(=O)(=O)[O-])ccc5F)c5ccc([nH]5)c(-c5cc(S(=O)(=O)[O-])ccc5F)c5nc(c(-c6cc(S(=O)(=O)[O-])ccc6F)c6ccc3[nH]6)C=C5)C=C4)cc2)c2ccc(-c3ccc(F)cc3F)cc2)cc1
REMARK SMILES IDX 16 1 15 2 14 3 13 4 11 5 12 6 10 8 9 9 8 10 5 11 6 12 99 13
REMARK SMILES IDX 7 14 98 15 2 16 1 17 3 18 4 19 84 20 85 21 97 22 86 23 96 24
REMARK SMILES IDX 87 25 88 26 89 27 94 28 90 29 93 30 95 31 91 32 92 33 17 34
REMARK SMILES IDX 18 35 19 36 20 38 21 39 22 40 83 41 23 42 82 43 24 44 25 45
REMARK SMILES IDX 26 46 76 47 27 48 81 49 75 50 77 51 28 52 80 53 74 54 73 55
REMARK SMILES IDX 29 57 61 58 41 59 60 60 42 61 45 62 59 63 78 64 43 65 44 66
REMARK SMILES IDX 58 68 79 69 46 70 30 71 31 72 39 73 32 74 38 75 40 76 37 77
REMARK SMILES IDX 33 78 34 79 35 80 36 81 62 82 63 83 71 84 64 85 70 86 72 87
REMARK SMILES IDX 69 88 65 89 66 90 67 91 68 92 47 93 48 94 56 95 49 96 55 97
REMARK SMILES IDX 57 98 54 99 50 100 51 101 52 102 53 103
REMARK H PARENT 13 7 18 37 77 56 45 67
REMARK Flexibility Score: inf
ROOT
ATOM      1  C   UNL A   1      32.231  28.278  25.011  1.00  0.00     0.023 C 
ENDROOT
BRANCH   1   2
ATOM      2  C   UNL A   1      32.199  26.771  25.296  1.00  0.00     0.023 C 
BRANCH   2   3
ATOM      3  C   UNL A   1      31.376  25.961  24.290  1.00  0.00     0.116 C 
BRANCH   3   4
ATOM      4  N   UNL A   1      32.042  25.944  23.004  1.00  0.00    -0.352 N 
ATOM      5  C   UNL A   1      32.928  25.097  22.417  1.00  0.00     0.251 C 
ATOM      6  O   UNL A   1      33.350  25.438  21.310  1.00  0.00    -0.269 OA
ATOM      7  H   UNL A   1      31.802  26.709  22.433  1.00  0.00     0.163 HD
BRANCH   5   8
ATOM      8  C   UNL A   1      33.325  23.763  23.012  1.00  0.00     0.047 C 
ATOM      9  C   UNL A   1      32.460  22.726  23.088  1.00  0.00     0.022 C 
BRANCH   9  10
ATOM     10  C   UNL A   1      32.711  21.332  23.512  1.00  0.00    -0.025 A 
ATOM     11  C   UNL A   1      33.307  18.640  24.050  1.00  0.00     0.067 A 
ATOM     12  C   UNL A   1      33.730  19.640  24.930  1.00  0.00     0.021 A 
ATOM     13  C   UNL A   1      32.536  18.965  22.934  1.00  0.00     0.021 A 
ATOM     14  C   UNL A   1      33.413  20.977  24.670  1.00  0.00     0.009 A 
ATOM     15  C   UNL A   1      32.239  20.306  22.674  1.00  0.00     0.009 A 
BRANCH  11  16
ATOM     16  S   UNL A   1      33.798  16.962  24.364  1.00  0.00     0.175 S 
ATOM     17  C   UNL A   1      32.690  16.340  25.597  1.00  0.00     0.163 C 
ATOM     18  O   UNL A   1      35.117  17.010  24.973  1.00  0.00    -0.224 OA
ATOM     19  O   UNL A   1      33.567  16.224  23.139  1.00  0.00    -0.224 OA
ENDBRANCH  11  16
ENDBRANCH   9  10
BRANCH   8  20
ATOM     20  C   UNL A   1      34.645  23.703  23.690  1.00  0.00    -0.013 A 
ATOM     21  C   UNL A   1      34.748  24.230  24.984  1.00  0.00     0.009 A 
ATOM     22  C   UNL A   1      35.766  23.082  23.134  1.00  0.00     0.009 A 
ATOM     23  C   UNL A   1      35.928  24.111  25.718  1.00  0.00     0.009 A 
ATOM     24  C   UNL A   1      36.943  22.937  23.888  1.00  0.00     0.009 A 
ATOM     25  C   UNL A   1      37.043  23.434  25.200  1.00  0.00    -0.015 A 
BRANCH  25  26
ATOM     26  C   UNL A   1      38.250  23.246  26.033  1.00  0.00     0.018 A 
ATOM     27  C   UNL A   1      38.791  24.328  26.761  1.00  0.00     0.015 A 
ATOM     28  C   UNL A   1      38.919  22.014  26.130  1.00  0.00     0.133 A 
ATOM     29  C   UNL A   1      39.953  24.186  27.523  1.00  0.00     0.040 A 
ATOM     30  C   UNL A   1      40.075  21.860  26.894  1.00  0.00     0.079 A 
ATOM     31  F   UNL A   1      38.466  20.939  25.466  1.00  0.00    -0.206 F 
ATOM     32  C   UNL A   1      40.585  22.952  27.579  1.00  0.00     0.126 A 
ATOM     33  F   UNL A   1      41.702  22.816  28.305  1.00  0.00    -0.207 F 
ENDBRANCH  25  26
ENDBRANCH   8  20
ENDBRANCH   5   8
ENDBRANCH   3   4
ENDBRANCH   2   3
ENDBRANCH   1   2
BRANCH   1  34
ATOM     34  C   UNL A   1      33.328  29.051  25.737  1.00  0.00     0.116 C 
BRANCH  34  35
ATOM     35  N   UNL A   1      32.869  30.330  26.257  1.00  0.00    -0.352 N 
ATOM     36  C   UNL A   1      33.486  31.155  27.168  1.00  0.00     0.251 C 
ATOM     37  H   UNL A   1      32.003  30.648  25.912  1.00  0.00     0.163 HD
ATOM     38  O   UNL A   1      32.904  32.146  27.596  1.00  0.00    -0.269 OA
BRANCH  36  39
ATOM     39  C   UNL A   1      34.837  30.802  27.651  1.00  0.00     0.039 A 
ATOM     40  C   UNL A   1      35.801  31.806  27.755  1.00  0.00     0.014 A 
ATOM     41  C   UNL A   1      35.119  29.497  28.061  1.00  0.00     0.014 A 
ATOM     42  C   UNL A   1      37.028  31.519  28.358  1.00  0.00     0.010 A 
ATOM     43  C   UNL A   1      36.319  29.228  28.713  1.00  0.00     0.010 A 
ATOM     44  C   UNL A   1      37.275  30.242  28.886  1.00  0.00    -0.014 A 
BRANCH  44  45
ATOM     45  C   UNL A   1      38.509  29.947  29.658  1.00  0.00     0.031 A 
ATOM     46  C   UNL A   1      38.707  30.556  31.017  1.00  0.00     0.074 A 
ATOM     47  C   UNL A   1      39.483  29.205  29.095  1.00  0.00     0.049 A 
ATOM     48  N   UNL A   1      39.764  30.535  31.786  1.00  0.00    -0.248 NA
ATOM     49  C   UNL A   1      37.572  31.309  31.570  1.00  0.00     0.031 C 
ATOM     50  C   UNL A   1      39.413  28.580  27.771  1.00  0.00     0.029 A 
ATOM     51  N   UNL A   1      40.732  28.865  29.553  1.00  0.00    -0.354 N 
ATOM     52  C   UNL A   1      39.427  31.278  32.912  1.00  0.00     0.074 A 
ATOM     53  C   UNL A   1      38.086  31.781  32.696  1.00  0.00     0.031 C 
ATOM     54  C   UNL A   1      40.560  27.924  27.532  1.00  0.00     0.029 A 
ATOM     55  C   UNL A   1      41.470  28.127  28.656  1.00  0.00     0.049 A 
ATOM     56  H   UNL A   1      41.069  29.125  30.441  1.00  0.00     0.167 HD
ATOM     57  C   UNL A   1      40.163  31.502  34.030  1.00  0.00     0.034 A 
ATOM     58  C   UNL A   1      42.742  27.686  28.719  1.00  0.00     0.034 A 
ATOM     59  C   UNL A   1      41.495  30.988  34.229  1.00  0.00     0.049 A 
ATOM     60  C   UNL A   1      43.563  28.009  29.943  1.00  0.00     0.074 A 
ATOM     61  C   UNL A   1      42.308  31.110  35.343  1.00  0.00     0.029 A 
ATOM     62  N   UNL A   1      42.218  30.265  33.289  1.00  0.00    -0.354 N 
ATOM     63  N   UNL A   1      43.213  28.678  31.017  1.00  0.00    -0.248 NA
ATOM     64  C   UNL A   1      44.949  27.522  29.960  1.00  0.00     0.031 C 
ATOM     65  C   UNL A   1      43.542  30.520  35.052  1.00  0.00     0.029 A 
ATOM     66  C   UNL A   1      43.478  29.968  33.783  1.00  0.00     0.049 A 
ATOM     67  H   UNL A   1      41.883  30.002  32.401  1.00  0.00     0.167 HD
ATOM     68  C   UNL A   1      44.330  28.667  31.848  1.00  0.00     0.074 A 
ATOM     69  C   UNL A   1      45.358  27.915  31.158  1.00  0.00     0.031 C 
ATOM     70  C   UNL A   1      44.493  29.227  33.074  1.00  0.00     0.034 A 
BRANCH  57  71
ATOM     71  C   UNL A   1      39.543  32.355  35.109  1.00  0.00     0.023 A 
ATOM     72  C   UNL A   1      38.950  31.782  36.247  1.00  0.00     0.031 A 
ATOM     73  C   UNL A   1      39.532  33.755  34.994  1.00  0.00     0.131 A 
ATOM     74  C   UNL A   1      38.311  32.600  37.190  1.00  0.00     0.055 A 
ATOM     75  C   UNL A   1      38.961  34.569  35.974  1.00  0.00     0.041 A 
ATOM     76  F   UNL A   1      40.065  34.357  33.919  1.00  0.00    -0.206 F 
ATOM     77  C   UNL A   1      38.334  33.992  37.074  1.00  0.00     0.022 A 
BRANCH  74  78
ATOM     78  S   UNL A   1      37.337  31.811  38.500  1.00  0.00     0.124 S 
ATOM     79  O   UNL A   1      37.189  30.453  37.981  1.00  0.00    -0.237 OA
ATOM     80  O   UNL A   1      38.199  31.959  39.667  1.00  0.00    -0.237 OA
ATOM     81  O   UNL A   1      36.104  32.596  38.531  1.00  0.00    -0.744 OA
ENDBRANCH  74  78
ENDBRANCH  57  71
BRANCH  58  82
ATOM     82  C   UNL A   1      43.341  26.922  27.587  1.00  0.00     0.023 A 
ATOM     83  C   UNL A   1      43.640  25.557  27.717  1.00  0.00     0.031 A 
ATOM     84  C   UNL A   1      43.680  27.558  26.378  1.00  0.00     0.131 A 
ATOM     85  C   UNL A   1      44.305  24.883  26.681  1.00  0.00     0.055 A 
ATOM     86  C   UNL A   1      44.290  26.870  25.329  1.00  0.00     0.041 A 
ATOM     87  F   UNL A   1      43.416  28.862  26.199  1.00  0.00    -0.206 F 
ATOM     88  C   UNL A   1      44.621  25.527  25.482  1.00  0.00     0.022 A 
BRANCH  85  89
ATOM     89  S   UNL A   1      44.840  23.173  26.963  1.00  0.00     0.124 S 
ATOM     90  O   UNL A   1      46.183  23.185  26.395  1.00  0.00    -0.237 OA
ATOM     91  O   UNL A   1      44.757  23.067  28.416  1.00  0.00    -0.237 OA
ATOM     92  O   UNL A   1      43.856  22.384  26.225  1.00  0.00    -0.744 OA
ENDBRANCH  85  89
ENDBRANCH  58  82
BRANCH  70  93
ATOM     93  C   UNL A   1      45.821  29.012  33.755  1.00  0.00     0.023 A 
ATOM     94  C   UNL A   1      46.071  27.872  34.538  1.00  0.00     0.031 A 
ATOM     95  C   UNL A   1      46.850  29.959  33.611  1.00  0.00     0.131 A 
ATOM     96  C   UNL A   1      47.309  27.726  35.181  1.00  0.00     0.055 A 
ATOM     97  C   UNL A   1      48.098  29.782  34.209  1.00  0.00     0.041 A 
ATOM     98  F   UNL A   1      46.662  31.066  32.875  1.00  0.00    -0.206 F 
ATOM     99  C   UNL A   1      48.330  28.666  35.007  1.00  0.00     0.022 A 
BRANCH  96 100
ATOM    100  S   UNL A   1      47.551  26.318  36.297  1.00  0.00     0.124 S 
ATOM    101  O   UNL A   1      49.004  26.181  36.300  1.00  0.00    -0.237 OA
ATOM    102  O   UNL A   1      46.955  26.796  37.540  1.00  0.00    -0.237 OA
ATOM    103  O   UNL A   1      46.826  25.232  35.642  1.00  0.00    -0.744 OA
ENDBRANCH  96 100
ENDBRANCH  70  93
ENDBRANCH  44  45
ENDBRANCH  36  39
ENDBRANCH  34  35
ENDBRANCH   1  34
TORSDOF 18
ENDMDL
MODEL 3
REMARK VINA RESULT:     -12.9      0.569      7.121
REMARK SMILES CS(=O)(=O)c1ccc(/C=C(/C(=O)NCCCCNC(=O)c2ccc(-c3c4nc(c(-c5cc(S(=O)(=O)[O-])ccc5F)c5ccc([nH]5)c(-c5cc(S(=O)(=O)[O-])ccc5F)c5nc(c(-c6cc(S(=O)(=O)[O-])ccc6F)c6ccc3[nH]6)C=C5)C=C4)cc2)c2ccc(-c3ccc(F)cc3F)cc2)cc1
REMARK SMILES IDX 16 1 15 2 14 3 13 4 11 5 12 6 10 8 9 9 8 10 5 11 6 12 99 13
REMARK SMILES IDX 7 14 98 15 2 16 1 17 3 18 4 19 84 20 85 21 97 22 86 23 96 24
REMARK SMILES IDX 87 25 88 26 89 27 94 28 90 29 93 30 95 31 91 32 92 33 17 34
REMARK SMILES IDX 18 35 19 36 20 38 21 39 22 40 83 41 23 42 82 43 24 44 25 45
REMARK SMILES IDX 26 46 76 47 27 48 81 49 75 50 77 51 28 52 80 53 74 54 73 55
REMARK SMILES IDX 29 57 61 58 41 59 60 60 42 61 45 62 59 63 78 64 43 65 44 66
REMARK SMILES IDX 58 68 79 69 46 70 30 71 31 72 39 73 32 74 38 75 40 76 37 77
REMARK SMILES IDX 33 78 34 79 35 80 36 81 62 82 63 83 71 84 64 85 70 86 72 87
REMARK SMILES IDX 69 88 65 89 66 90 67 91 68 92 47 93 48 94 56 95 49 96 55 97
REMARK SMILES IDX 57 98 54 99 50 100 51 101 52 102 53 103
REMARK H PARENT 13 7 18 37 77 56 45 67
REMARK Flexibility Score: inf
ROOT
ATOM      1  C   UNL A   1      33.076  28.229  25.093  1.00  0.00     0.023 C 
ENDROOT
BRANCH   1   2
ATOM      2  C   UNL A   1      32.791  26.767  25.460  1.00  0.00     0.023 C 
BRANCH   2   3
ATOM      3  C   UNL A   1      31.771  26.079  24.548  1.00  0.00     0.116 C 
BRANCH   3   4
ATOM      4  N   UNL A   1      32.281  26.014  23.194  1.00  0.00    -0.352 N 
ATOM      5  C   UNL A   1      33.006  25.091  22.508  1.00  0.00     0.251 C 
ATOM      6  O   UNL A   1      33.331  25.404  21.360  1.00  0.00    -0.269 OA
ATOM      7  H   UNL A   1      32.054  26.806  22.655  1.00  0.00     0.163 HD
BRANCH   5   8
ATOM      8  C   UNL A   1      33.335  23.718  23.052  1.00  0.00     0.047 C 
ATOM      9  C   UNL A   1      32.409  22.734  23.123  1.00  0.00     0.022 C 
BRANCH   9  10
ATOM     10  C   UNL A   1      32.584  21.314  23.498  1.00  0.00    -0.025 A 
ATOM     11  C   UNL A   1      33.068  18.586  23.958  1.00  0.00     0.067 A 
ATOM     12  C   UNL A   1      33.390  19.529  24.937  1.00  0.00     0.021 A 
ATOM     13  C   UNL A   1      32.449  18.985  22.774  1.00  0.00     0.021 A 
ATOM     14  C   UNL A   1      33.128  20.885  24.714  1.00  0.00     0.009 A 
ATOM     15  C   UNL A   1      32.208  20.345  22.552  1.00  0.00     0.009 A 
BRANCH  11  16
ATOM     16  S   UNL A   1      33.490  16.884  24.239  1.00  0.00     0.175 S 
ATOM     17  C   UNL A   1      35.099  16.885  24.980  1.00  0.00     0.163 C 
ATOM     18  O   UNL A   1      33.631  16.258  22.934  1.00  0.00    -0.224 OA
ATOM     19  O   UNL A   1      32.547  16.375  25.214  1.00  0.00    -0.224 OA
ENDBRANCH  11  16
ENDBRANCH   9  10
BRANCH   8  20
ATOM     20  C   UNL A   1      34.667  23.556  23.690  1.00  0.00    -0.013 A 
ATOM     21  C   UNL A   1      34.813  23.952  25.026  1.00  0.00     0.009 A 
ATOM     22  C   UNL A   1      35.757  22.960  23.049  1.00  0.00     0.009 A 
ATOM     23  C   UNL A   1      36.003  23.728  25.716  1.00  0.00     0.009 A 
ATOM     24  C   UNL A   1      36.944  22.710  23.757  1.00  0.00     0.009 A 
ATOM     25  C   UNL A   1      37.087  23.074  25.109  1.00  0.00    -0.015 A 
BRANCH  25  26
ATOM     26  C   UNL A   1      38.304  22.772  25.890  1.00  0.00     0.018 A 
ATOM     27  C   UNL A   1      38.871  21.478  25.858  1.00  0.00     0.015 A 
ATOM     28  C   UNL A   1      38.940  23.727  26.701  1.00  0.00     0.133 A 
ATOM     29  C   UNL A   1      39.998  21.158  26.620  1.00  0.00     0.040 A 
ATOM     30  C   UNL A   1      40.069  23.418  27.459  1.00  0.00     0.079 A 
ATOM     31  F   UNL A   1      38.460  24.978  26.785  1.00  0.00    -0.206 F 
ATOM     32  C   UNL A   1      40.584  22.132  27.415  1.00  0.00     0.126 A 
ATOM     33  F   UNL A   1      41.661  21.823  28.148  1.00  0.00    -0.207 F 
ENDBRANCH  25  26
ENDBRANCH   8  20
ENDBRANCH   5   8
ENDBRANCH   3   4
ENDBRANCH   2   3
ENDBRANCH   1   2
BRANCH   1  34
ATOM     34  C   UNL A   1      34.010  28.966  26.047  1.00  0.00     0.116 C 
BRANCH  34  35
ATOM     35  N   UNL A   1      33.507  30.277  26.431  1.00  0.00    -0.352 N 
ATOM     36  C   UNL A   1      34.043  31.170  27.329  1.00  0.00     0.251 C 
ATOM     37  H   UNL A   1      32.673  30.562  25.991  1.00  0.00     0.163 HD
ATOM     38  O   UNL A   1      33.426  32.185  27.631  1.00  0.00    -0.269 OA
BRANCH  36  39
ATOM     39  C   UNL A   1      35.348  30.862  27.949  1.00  0.00     0.039 A 
ATOM     40  C   UNL A   1      36.348  31.836  27.936  1.00  0.00     0.014 A 
ATOM     41  C   UNL A   1      35.549  29.643  28.599  1.00  0.00     0.014 A 
ATOM     42  C   UNL A   1      37.526  31.619  28.656  1.00  0.00     0.010 A 
ATOM     43  C   UNL A   1      36.697  29.454  29.362  1.00  0.00     0.010 A 
ATOM     44  C   UNL A   1      37.686  30.448  29.414  1.00  0.00    -0.014 A 
BRANCH  44  45
ATOM     45  C   UNL A   1      38.861  30.254  30.302  1.00  0.00     0.031 A 
ATOM     46  C   UNL A   1      39.985  29.355  29.873  1.00  0.00     0.074 A 
ATOM     47  C   UNL A   1      38.867  30.815  31.528  1.00  0.00     0.049 A 
ATOM     48  N   UNL A   1      41.024  28.948  30.554  1.00  0.00    -0.248 NA
ATOM     49  C   UNL A   1      39.916  28.827  28.502  1.00  0.00     0.031 C 
ATOM     50  C   UNL A   1      37.818  31.687  32.064  1.00  0.00     0.029 A 
ATOM     51  N   UNL A   1      39.773  30.722  32.554  1.00  0.00    -0.354 N 
ATOM     52  C   UNL A   1      41.731  28.108  29.700  1.00  0.00     0.074 A 
ATOM     53  C   UNL A   1      40.969  28.023  28.471  1.00  0.00     0.031 C 
ATOM     54  C   UNL A   1      38.149  32.058  33.311  1.00  0.00     0.029 A 
ATOM     55  C   UNL A   1      39.400  31.408  33.687  1.00  0.00     0.049 A 
ATOM     56  H   UNL A   1      40.613  30.212  32.486  1.00  0.00     0.167 HD
ATOM     57  C   UNL A   1      42.915  27.484  29.916  1.00  0.00     0.034 A 
ATOM     58  C   UNL A   1      39.985  31.482  34.900  1.00  0.00     0.034 A 
ATOM     59  C   UNL A   1      43.663  27.584  31.144  1.00  0.00     0.049 A 
ATOM     60  C   UNL A   1      41.265  30.720  35.137  1.00  0.00     0.074 A 
ATOM     61  C   UNL A   1      44.897  27.037  31.451  1.00  0.00     0.029 A 
ATOM     62  N   UNL A   1      43.242  28.269  32.278  1.00  0.00    -0.354 N 
ATOM     63  N   UNL A   1      41.942  29.964  34.304  1.00  0.00    -0.248 NA
ATOM     64  C   UNL A   1      41.857  30.819  36.478  1.00  0.00     0.031 C 
ATOM     65  C   UNL A   1      45.189  27.333  32.785  1.00  0.00     0.029 A 
ATOM     66  C   UNL A   1      44.173  28.124  33.294  1.00  0.00     0.049 A 
ATOM     67  H   UNL A   1      42.404  28.781  32.348  1.00  0.00     0.167 HD
ATOM     68  C   UNL A   1      43.052  29.519  35.014  1.00  0.00     0.074 A 
ATOM     69  C   UNL A   1      42.963  30.103  36.338  1.00  0.00     0.031 C 
ATOM     70  C   UNL A   1      44.060  28.703  34.611  1.00  0.00     0.034 A 
BRANCH  57  71
ATOM     71  C   UNL A   1      43.459  26.623  28.803  1.00  0.00     0.023 A 
ATOM     72  C   UNL A   1      44.362  27.132  27.855  1.00  0.00     0.031 A 
ATOM     73  C   UNL A   1      43.060  25.281  28.678  1.00  0.00     0.131 A 
ATOM     74  C   UNL A   1      44.784  26.328  26.786  1.00  0.00     0.055 A 
ATOM     75  C   UNL A   1      43.543  24.462  27.656  1.00  0.00     0.041 A 
ATOM     76  F   UNL A   1      42.184  24.745  29.542  1.00  0.00    -0.206 F 
ATOM     77  C   UNL A   1      44.399  24.988  26.693  1.00  0.00     0.022 A 
BRANCH  74  78
ATOM     78  S   UNL A   1      45.736  27.097  25.448  1.00  0.00     0.124 S 
ATOM     79  O   UNL A   1      46.823  27.734  26.187  1.00  0.00    -0.237 OA
ATOM     80  O   UNL A   1      46.107  25.951  24.626  1.00  0.00    -0.237 OA
ATOM     81  O   UNL A   1      44.783  28.022  24.837  1.00  0.00    -0.744 OA
ENDBRANCH  74  78
ENDBRANCH  57  71
BRANCH  58  82
ATOM     82  C   UNL A   1      39.362  32.275  35.999  1.00  0.00     0.023 A 
ATOM     83  C   UNL A   1      39.769  33.594  36.256  1.00  0.00     0.031 A 
ATOM     84  C   UNL A   1      38.393  31.707  36.846  1.00  0.00     0.131 A 
ATOM     85  C   UNL A   1      39.250  34.284  37.363  1.00  0.00     0.055 A 
ATOM     86  C   UNL A   1      37.839  32.418  37.913  1.00  0.00     0.041 A 
ATOM     87  F   UNL A   1      37.966  30.451  36.646  1.00  0.00    -0.206 F 
ATOM     88  C   UNL A   1      38.279  33.709  38.186  1.00  0.00     0.022 A 
BRANCH  85  89
ATOM     89  S   UNL A   1      39.940  35.911  37.770  1.00  0.00     0.124 S 
ATOM     90  O   UNL A   1      41.279  35.559  38.229  1.00  0.00    -0.237 OA
ATOM     91  O   UNL A   1      39.862  36.601  36.486  1.00  0.00    -0.237 OA
ATOM     92  O   UNL A   1      39.036  36.414  38.802  1.00  0.00    -0.744 OA
ENDBRANCH  85  89
ENDBRANCH  58  82
BRANCH  70  93
ATOM     93  C   UNL A   1      45.158  28.427  35.606  1.00  0.00     0.023 A 
ATOM     94  C   UNL A   1      45.112  27.314  36.463  1.00  0.00     0.031 A 
ATOM     95  C   UNL A   1      46.267  29.286  35.691  1.00  0.00     0.131 A 
ATOM     96  C   UNL A   1      46.138  27.110  37.397  1.00  0.00     0.055 A 
ATOM     97  C   UNL A   1      47.311  29.049  36.586  1.00  0.00     0.041 A 
ATOM     98  F   UNL A   1      46.359  30.365  34.896  1.00  0.00    -0.206 F 
ATOM     99  C   UNL A   1      47.246  27.961  37.451  1.00  0.00     0.022 A 
BRANCH  96 100
ATOM    100  S   UNL A   1      45.980  25.748  38.583  1.00  0.00     0.124 S 
ATOM    101  O   UNL A   1      45.796  26.462  39.842  1.00  0.00    -0.237 OA
ATOM    102  O   UNL A   1      44.814  25.028  38.082  1.00  0.00    -0.237 OA
ATOM    103  O   UNL A   1      47.249  25.033  38.454  1.00  0.00    -0.744 OA
ENDBRANCH  96 100
ENDBRANCH  70  93
ENDBRANCH  44  45
ENDBRANCH  36  39
ENDBRANCH  34  35
ENDBRANCH   1  34
TORSDOF 18
ENDMDL
