MODEL 1
REMARK VINA RESULT:     -10.4      0.000      0.000
REMARK SMILES CC[C@@H](NC(=O)[C@H](C)C[NH2+]C)C(=O)NCCCCNC(=O)c1ccc(-c2c3nc(c(-c4cc(S(=O)(=O)[O-])ccc4F)c4ccc([nH]4)c(-c4cc(S(=O)(=O)[O-])ccc4F)c4nc(c(-c5cc(S(=O)(=O)[O-])ccc5F)c5ccc2[nH]5)C=C4)C=C3)cc1
REMARK SMILES IDX 16 1 15 2 14 3 12 4 13 5 3 7 2 8 1 9 4 10 5 11 6 13 7 14
REMARK SMILES IDX 8 15 9 16 10 17 11 18 17 21 18 22 19 23 20 24 21 26 22 27
REMARK SMILES IDX 23 28 84 29 24 30 83 31 25 32 26 33 27 34 77 35 28 36 82 37
REMARK SMILES IDX 76 38 78 39 29 40 81 41 75 42 74 43 30 45 62 46 42 47 61 48
REMARK SMILES IDX 43 49 46 50 60 51 79 52 44 53 45 54 59 56 80 57 47 58 31 59
REMARK SMILES IDX 32 60 40 61 33 62 39 63 41 64 38 65 34 66 35 67 36 68 37 69
REMARK SMILES IDX 63 70 64 71 72 72 65 73 71 74 73 75 70 76 66 77 67 78 68 79
REMARK SMILES IDX 69 80 48 81 49 82 57 83 50 84 56 85 58 86 55 87 51 88 52 89
REMARK SMILES IDX 53 90 54 91
REMARK H PARENT 14 6 4 12 10 19 10 20 19 25 78 44 46 55
REMARK Flexibility Score: inf
ROOT
ATOM      1  C   UNL A   1      34.370  23.038  24.466  1.00  0.00     0.023 C 
ENDROOT
BRANCH   1   2
ATOM      2  C   UNL A   1      34.302  23.866  25.744  1.00  0.00     0.116 C 
BRANCH   2   3
ATOM      3  N   UNL A   1      33.155  23.513  26.571  1.00  0.00    -0.354 N 
ATOM      4  C   UNL A   1      31.918  24.097  26.633  1.00  0.00     0.242 C 
ATOM      5  O   UNL A   1      31.056  23.566  27.338  1.00  0.00    -0.273 OA
ATOM      6  H   UNL A   1      33.289  22.744  27.171  1.00  0.00     0.163 HD
BRANCH   4   7
ATOM      7  C   UNL A   1      31.666  25.463  25.970  1.00  0.00     0.171 C 
BRANCH   7   8
ATOM      8  C   UNL A   1      30.463  25.226  25.015  1.00  0.00     0.031 C 
ATOM      9  C   UNL A   1      30.695  24.346  23.802  1.00  0.00     0.006 C 
ENDBRANCH   7   8
BRANCH   7  10
ATOM     10  N   UNL A   1      31.478  26.550  26.940  1.00  0.00    -0.344 N 
ATOM     11  C   UNL A   1      31.966  27.825  26.990  1.00  0.00     0.229 C 
ATOM     12  H   UNL A   1      30.891  26.316  27.695  1.00  0.00     0.164 HD
ATOM     13  O   UNL A   1      31.360  28.592  27.747  1.00  0.00    -0.275 OA
BRANCH  11  14
ATOM     14  C   UNL A   1      33.228  28.325  26.264  1.00  0.00     0.130 C 
ATOM     15  C   UNL A   1      34.221  29.031  27.179  1.00  0.00     0.024 C 
BRANCH  14  16
ATOM     16  C   UNL A   1      32.846  29.040  24.953  1.00  0.00     0.273 C 
BRANCH  16  17
ATOM     17  N   UNL A   1      31.560  29.743  24.926  1.00  0.00    -0.348 N 
ATOM     18  C   UNL A   1      30.750  29.300  23.789  1.00  0.00     0.330 C 
ATOM     19  H   UNL A   1      31.729  30.746  24.846  1.00  0.00     0.346 HD
ATOM     20  H   UNL A   1      31.055  29.535  25.787  1.00  0.00     0.346 HD
ENDBRANCH  16  17
ENDBRANCH  14  16
ENDBRANCH  11  14
ENDBRANCH   7  10
ENDBRANCH   4   7
ENDBRANCH   2   3
ENDBRANCH   1   2
BRANCH   1  21
ATOM     21  C   UNL A   1      35.321  21.840  24.531  1.00  0.00     0.023 C 
BRANCH  21  22
ATOM     22  C   UNL A   1      36.220  21.789  25.764  1.00  0.00     0.116 C 
BRANCH  22  23
ATOM     23  N   UNL A   1      37.222  20.742  25.676  1.00  0.00    -0.352 N 
ATOM     24  C   UNL A   1      38.588  20.845  25.765  1.00  0.00     0.251 C 
ATOM     25  H   UNL A   1      36.874  19.833  25.531  1.00  0.00     0.163 HD
ATOM     26  O   UNL A   1      39.286  19.872  25.480  1.00  0.00    -0.269 OA
BRANCH  24  27
ATOM     27  C   UNL A   1      39.218  22.123  26.165  1.00  0.00     0.039 A 
ATOM     28  C   UNL A   1      40.456  22.085  26.810  1.00  0.00     0.014 A 
ATOM     29  C   UNL A   1      38.595  23.351  25.921  1.00  0.00     0.014 A 
ATOM     30  C   UNL A   1      41.094  23.277  27.162  1.00  0.00     0.010 A 
ATOM     31  C   UNL A   1      39.261  24.543  26.218  1.00  0.00     0.010 A 
ATOM     32  C   UNL A   1      40.517  24.519  26.846  1.00  0.00    -0.014 A 
BRANCH  32  33
ATOM     33  C   UNL A   1      41.227  25.787  27.176  1.00  0.00     0.031 A 
ATOM     34  C   UNL A   1      40.553  26.844  28.009  1.00  0.00     0.074 A 
ATOM     35  C   UNL A   1      42.476  25.995  26.713  1.00  0.00     0.049 A 
ATOM     36  N   UNL A   1      41.010  28.009  28.396  1.00  0.00    -0.248 NA
ATOM     37  C   UNL A   1      39.180  26.562  28.451  1.00  0.00     0.031 C 
ATOM     38  C   UNL A   1      43.231  25.060  25.875  1.00  0.00     0.029 A 
ATOM     39  N   UNL A   1      43.335  27.054  26.881  1.00  0.00    -0.354 N 
ATOM     40  C   UNL A   1      39.984  28.598  29.127  1.00  0.00     0.074 A 
ATOM     41  C   UNL A   1      38.860  27.686  29.075  1.00  0.00     0.031 C 
ATOM     42  C   UNL A   1      44.447  25.574  25.630  1.00  0.00     0.029 A 
ATOM     43  C   UNL A   1      44.546  26.893  26.248  1.00  0.00     0.049 A 
ATOM     44  H   UNL A   1      43.105  27.854  27.407  1.00  0.00     0.167 HD
ATOM     45  C   UNL A   1      39.986  29.778  29.797  1.00  0.00     0.034 A 
ATOM     46  C   UNL A   1      45.611  27.716  26.162  1.00  0.00     0.034 A 
ATOM     47  C   UNL A   1      41.111  30.681  29.839  1.00  0.00     0.049 A 
ATOM     48  C   UNL A   1      45.567  29.048  26.869  1.00  0.00     0.074 A 
ATOM     49  C   UNL A   1      41.230  31.877  30.527  1.00  0.00     0.029 A 
ATOM     50  N   UNL A   1      42.307  30.500  29.157  1.00  0.00    -0.354 N 
ATOM     51  N   UNL A   1      44.607  29.566  27.600  1.00  0.00    -0.248 NA
ATOM     52  C   UNL A   1      46.756  29.903  26.748  1.00  0.00     0.031 C 
ATOM     53  C   UNL A   1      42.458  32.457  30.195  1.00  0.00     0.029 A 
ATOM     54  C   UNL A   1      43.150  31.582  29.374  1.00  0.00     0.049 A 
ATOM     55  H   UNL A   1      42.526  29.718  28.600  1.00  0.00     0.167 HD
ATOM     56  C   UNL A   1      45.092  30.792  28.051  1.00  0.00     0.074 A 
ATOM     57  C   UNL A   1      46.434  30.926  27.524  1.00  0.00     0.031 C 
ATOM     58  C   UNL A   1      44.482  31.720  28.833  1.00  0.00     0.034 A 
BRANCH  45  59
ATOM     59  C   UNL A   1      38.714  30.173  30.514  1.00  0.00     0.023 A 
ATOM     60  C   UNL A   1      37.732  30.968  29.896  1.00  0.00     0.031 A 
ATOM     61  C   UNL A   1      38.485  29.758  31.839  1.00  0.00     0.131 A 
ATOM     62  C   UNL A   1      36.607  31.384  30.624  1.00  0.00     0.055 A 
ATOM     63  C   UNL A   1      37.322  30.105  32.529  1.00  0.00     0.041 A 
ATOM     64  F   UNL A   1      39.393  29.015  32.489  1.00  0.00    -0.206 F 
ATOM     65  C   UNL A   1      36.382  30.936  31.928  1.00  0.00     0.022 A 
BRANCH  62  66
ATOM     66  S   UNL A   1      35.518  32.637  29.893  1.00  0.00     0.124 S 
ATOM     67  O   UNL A   1      34.377  32.604  30.805  1.00  0.00    -0.237 OA
ATOM     68  O   UNL A   1      36.342  33.840  29.943  1.00  0.00    -0.237 OA
ATOM     69  O   UNL A   1      35.250  32.120  28.553  1.00  0.00    -0.744 OA
ENDBRANCH  62  66
ENDBRANCH  45  59
BRANCH  46  70
ATOM     70  C   UNL A   1      46.808  27.323  25.360  1.00  0.00     0.023 A 
ATOM     71  C   UNL A   1      47.001  27.807  24.056  1.00  0.00     0.031 A 
ATOM     72  C   UNL A   1      47.749  26.410  25.868  1.00  0.00     0.131 A 
ATOM     73  C   UNL A   1      48.078  27.339  23.287  1.00  0.00     0.055 A 
ATOM     74  C   UNL A   1      48.852  25.993  25.122  1.00  0.00     0.041 A 
ATOM     75  F   UNL A   1      47.614  25.915  27.108  1.00  0.00    -0.206 F 
ATOM     76  C   UNL A   1      49.014  26.446  23.816  1.00  0.00     0.022 A 
BRANCH  73  77
ATOM     77  S   UNL A   1      48.186  27.835  21.546  1.00  0.00     0.124 S 
ATOM     78  O   UNL A   1      49.200  28.883  21.599  1.00  0.00    -0.237 OA
ATOM     79  O   UNL A   1      48.581  26.589  20.899  1.00  0.00    -0.237 OA
ATOM     80  O   UNL A   1      46.832  28.292  21.238  1.00  0.00    -0.744 OA
ENDBRANCH  73  77
ENDBRANCH  46  70
BRANCH  58  81
ATOM     81  C   UNL A   1      45.286  32.946  29.204  1.00  0.00     0.023 A 
ATOM     82  C   UNL A   1      45.204  34.140  28.466  1.00  0.00     0.031 A 
ATOM     83  C   UNL A   1      46.156  32.913  30.309  1.00  0.00     0.131 A 
ATOM     84  C   UNL A   1      46.022  35.230  28.804  1.00  0.00     0.055 A 
ATOM     85  C   UNL A   1      46.916  34.023  30.680  1.00  0.00     0.041 A 
ATOM     86  F   UNL A   1      46.282  31.799  31.048  1.00  0.00    -0.206 F 
ATOM     87  C   UNL A   1      46.861  35.185  29.919  1.00  0.00     0.022 A 
BRANCH  84  88
ATOM     88  S   UNL A   1      46.048  36.674  27.707  1.00  0.00     0.124 S 
ATOM     89  O   UNL A   1      47.366  36.563  27.090  1.00  0.00    -0.237 OA
ATOM     90  O   UNL A   1      44.909  36.420  26.829  1.00  0.00    -0.237 OA
ATOM     91  O   UNL A   1      45.884  37.803  28.621  1.00  0.00    -0.744 OA
ENDBRANCH  84  88
ENDBRANCH  58  81
ENDBRANCH  32  33
ENDBRANCH  24  27
ENDBRANCH  22  23
ENDBRANCH  21  22
ENDBRANCH   1  21
TORSDOF 19
ENDMDL
MODEL 2
REMARK VINA RESULT:      -9.9      5.694      8.847
REMARK SMILES CC[C@@H](NC(=O)[C@H](C)C[NH2+]C)C(=O)NCCCCNC(=O)c1ccc(-c2c3nc(c(-c4cc(S(=O)(=O)[O-])ccc4F)c4ccc([nH]4)c(-c4cc(S(=O)(=O)[O-])ccc4F)c4nc(c(-c5cc(S(=O)(=O)[O-])ccc5F)c5ccc2[nH]5)C=C4)C=C3)cc1
REMARK SMILES IDX 16 1 15 2 14 3 12 4 13 5 3 7 2 8 1 9 4 10 5 11 6 13 7 14
REMARK SMILES IDX 8 15 9 16 10 17 11 18 17 21 18 22 19 23 20 24 21 26 22 27
REMARK SMILES IDX 23 28 84 29 24 30 83 31 25 32 26 33 27 34 77 35 28 36 82 37
REMARK SMILES IDX 76 38 78 39 29 40 81 41 75 42 74 43 30 45 62 46 42 47 61 48
REMARK SMILES IDX 43 49 46 50 60 51 79 52 44 53 45 54 59 56 80 57 47 58 31 59
REMARK SMILES IDX 32 60 40 61 33 62 39 63 41 64 38 65 34 66 35 67 36 68 37 69
REMARK SMILES IDX 63 70 64 71 72 72 65 73 71 74 73 75 70 76 66 77 67 78 68 79
REMARK SMILES IDX 69 80 48 81 49 82 57 83 50 84 56 85 58 86 55 87 51 88 52 89
REMARK SMILES IDX 53 90 54 91
REMARK H PARENT 14 6 4 12 10 19 10 20 19 25 78 44 46 55
REMARK Flexibility Score: inf
ROOT
ATOM      1  C   UNL A   1      31.511  30.502  26.495  1.00  0.00     0.023 C 
ENDROOT
BRANCH   1   2
ATOM      2  C   UNL A   1      32.872  29.833  26.350  1.00  0.00     0.116 C 
BRANCH   2   3
ATOM      3  N   UNL A   1      33.374  29.890  24.982  1.00  0.00    -0.354 N 
ATOM      4  C   UNL A   1      33.267  28.964  23.980  1.00  0.00     0.242 C 
ATOM      5  O   UNL A   1      33.683  29.265  22.859  1.00  0.00    -0.273 OA
ATOM      6  H   UNL A   1      33.860  30.714  24.746  1.00  0.00     0.163 HD
BRANCH   4   7
ATOM      7  C   UNL A   1      32.791  27.533  24.288  1.00  0.00     0.171 C 
BRANCH   7   8
ATOM      8  C   UNL A   1      31.249  27.578  24.103  1.00  0.00     0.031 C 
ATOM      9  C   UNL A   1      30.411  26.672  24.985  1.00  0.00     0.006 C 
ENDBRANCH   7   8
BRANCH   7  10
ATOM     10  N   UNL A   1      33.477  26.510  23.487  1.00  0.00    -0.344 N 
ATOM     11  C   UNL A   1      33.888  25.241  23.782  1.00  0.00     0.229 C 
ATOM     12  H   UNL A   1      33.679  26.792  22.566  1.00  0.00     0.164 HD
ATOM     13  O   UNL A   1      34.130  24.524  22.803  1.00  0.00    -0.275 OA
BRANCH  11  14
ATOM     14  C   UNL A   1      34.148  24.696  25.197  1.00  0.00     0.130 C 
ATOM     15  C   UNL A   1      35.599  24.300  25.444  1.00  0.00     0.024 C 
BRANCH  14  16
ATOM     16  C   UNL A   1      33.063  23.672  25.587  1.00  0.00     0.273 C 
BRANCH  16  17
ATOM     17  N   UNL A   1      31.921  24.171  26.358  1.00  0.00    -0.348 N 
ATOM     18  C   UNL A   1      31.077  23.064  26.812  1.00  0.00     0.330 C 
ATOM     19  H   UNL A   1      31.367  24.795  25.770  1.00  0.00     0.346 HD
ATOM     20  H   UNL A   1      32.271  24.671  27.175  1.00  0.00     0.346 HD
ENDBRANCH  16  17
ENDBRANCH  14  16
ENDBRANCH  11  14
ENDBRANCH   7  10
ENDBRANCH   4   7
ENDBRANCH   2   3
ENDBRANCH   1   2
BRANCH   1  21
ATOM     21  C   UNL A   1      31.556  32.030  26.586  1.00  0.00     0.023 C 
BRANCH  21  22
ATOM     22  C   UNL A   1      32.792  32.604  27.275  1.00  0.00     0.116 C 
BRANCH  22  23
ATOM     23  N   UNL A   1      32.578  33.956  27.757  1.00  0.00    -0.352 N 
ATOM     24  C   UNL A   1      33.218  34.622  28.773  1.00  0.00     0.251 C 
ATOM     25  H   UNL A   1      31.878  34.467  27.291  1.00  0.00     0.163 HD
ATOM     26  O   UNL A   1      32.773  35.703  29.161  1.00  0.00    -0.269 OA
BRANCH  24  27
ATOM     27  C   UNL A   1      34.408  34.031  29.423  1.00  0.00     0.039 A 
ATOM     28  C   UNL A   1      34.226  33.241  30.561  1.00  0.00     0.014 A 
ATOM     29  C   UNL A   1      35.698  34.259  28.930  1.00  0.00     0.014 A 
ATOM     30  C   UNL A   1      35.327  32.637  31.172  1.00  0.00     0.010 A 
ATOM     31  C   UNL A   1      36.790  33.604  29.505  1.00  0.00     0.010 A 
ATOM     32  C   UNL A   1      36.618  32.788  30.635  1.00  0.00    -0.014 A 
BRANCH  32  33
ATOM     33  C   UNL A   1      37.781  32.098  31.258  1.00  0.00     0.031 A 
ATOM     34  C   UNL A   1      38.314  32.552  32.592  1.00  0.00     0.074 A 
ATOM     35  C   UNL A   1      38.370  31.068  30.619  1.00  0.00     0.049 A 
ATOM     36  N   UNL A   1      39.317  32.076  33.287  1.00  0.00    -0.248 NA
ATOM     37  C   UNL A   1      37.643  33.701  33.215  1.00  0.00     0.031 C 
ATOM     38  C   UNL A   1      37.966  30.546  29.311  1.00  0.00     0.029 A 
ATOM     39  N   UNL A   1      39.431  30.271  30.977  1.00  0.00    -0.354 N 
ATOM     40  C   UNL A   1      39.396  32.865  34.430  1.00  0.00     0.074 A 
ATOM     41  C   UNL A   1      38.379  33.888  34.301  1.00  0.00     0.031 C 
ATOM     42  C   UNL A   1      38.747  29.501  28.994  1.00  0.00     0.029 A 
ATOM     43  C   UNL A   1      39.739  29.305  30.047  1.00  0.00     0.049 A 
ATOM     44  H   UNL A   1      39.924  30.381  31.822  1.00  0.00     0.167 HD
ATOM     45  C   UNL A   1      40.224  32.737  35.497  1.00  0.00     0.034 A 
ATOM     46  C   UNL A   1      40.716  28.375  30.034  1.00  0.00     0.034 A 
ATOM     47  C   UNL A   1      41.238  31.715  35.614  1.00  0.00     0.049 A 
ATOM     48  C   UNL A   1      41.661  28.287  31.207  1.00  0.00     0.074 A 
ATOM     49  C   UNL A   1      42.095  31.471  36.673  1.00  0.00     0.029 A 
ATOM     50  N   UNL A   1      41.544  30.777  34.637  1.00  0.00    -0.354 N 
ATOM     51  N   UNL A   1      41.687  29.009  32.304  1.00  0.00    -0.248 NA
ATOM     52  C   UNL A   1      42.702  27.253  31.145  1.00  0.00     0.031 C 
ATOM     53  C   UNL A   1      42.972  30.445  36.304  1.00  0.00     0.029 A 
ATOM     54  C   UNL A   1      42.603  29.982  35.052  1.00  0.00     0.049 A 
ATOM     55  H   UNL A   1      41.076  30.688  33.774  1.00  0.00     0.167 HD
ATOM     56  C   UNL A   1      42.727  28.492  33.074  1.00  0.00     0.074 A 
ATOM     57  C   UNL A   1      43.289  27.388  32.324  1.00  0.00     0.031 C 
ATOM     58  C   UNL A   1      43.172  28.892  34.293  1.00  0.00     0.034 A 
BRANCH  45  59
ATOM     59  C   UNL A   1      40.087  33.750  36.611  1.00  0.00     0.023 A 
ATOM     60  C   UNL A   1      41.021  34.787  36.789  1.00  0.00     0.031 A 
ATOM     61  C   UNL A   1      39.013  33.672  37.516  1.00  0.00     0.131 A 
ATOM     62  C   UNL A   1      40.906  35.654  37.885  1.00  0.00     0.055 A 
ATOM     63  C   UNL A   1      38.857  34.591  38.555  1.00  0.00     0.041 A 
ATOM     64  F   UNL A   1      38.100  32.695  37.411  1.00  0.00    -0.206 F 
ATOM     65  C   UNL A   1      39.815  35.581  38.755  1.00  0.00     0.022 A 
BRANCH  62  66
ATOM     66  S   UNL A   1      42.278  36.784  38.243  1.00  0.00     0.124 S 
ATOM     67  O   UNL A   1      41.594  37.864  38.951  1.00  0.00    -0.237 OA
ATOM     68  O   UNL A   1      43.168  35.955  39.049  1.00  0.00    -0.237 OA
ATOM     69  O   UNL A   1      42.786  37.140  36.919  1.00  0.00    -0.744 OA
ENDBRANCH  62  66
ENDBRANCH  45  59
BRANCH  46  70
ATOM     70  C   UNL A   1      40.873  27.458  28.865  1.00  0.00     0.023 A 
ATOM     71  C   UNL A   1      41.823  27.713  27.864  1.00  0.00     0.031 A 
ATOM     72  C   UNL A   1      40.032  26.342  28.705  1.00  0.00     0.131 A 
ATOM     73  C   UNL A   1      41.876  26.895  26.724  1.00  0.00     0.055 A 
ATOM     74  C   UNL A   1      40.129  25.496  27.600  1.00  0.00     0.041 A 
ATOM     75  F   UNL A   1      39.105  26.052  29.631  1.00  0.00    -0.206 F 
ATOM     76  C   UNL A   1      41.046  25.779  26.592  1.00  0.00     0.022 A 
BRANCH  73  77
ATOM     77  S   UNL A   1      42.981  27.366  25.365  1.00  0.00     0.124 S 
ATOM     78  O   UNL A   1      44.151  27.851  26.089  1.00  0.00    -0.237 OA
ATOM     79  O   UNL A   1      43.142  26.103  24.654  1.00  0.00    -0.237 OA
ATOM     80  O   UNL A   1      42.222  28.389  24.648  1.00  0.00    -0.744 OA
ENDBRANCH  73  77
ENDBRANCH  46  70
BRANCH  58  81
ATOM     81  C   UNL A   1      44.300  28.097  34.911  1.00  0.00     0.023 A 
ATOM     82  C   UNL A   1      44.087  26.835  35.495  1.00  0.00     0.031 A 
ATOM     83  C   UNL A   1      45.607  28.617  34.925  1.00  0.00     0.131 A 
ATOM     84  C   UNL A   1      45.151  26.164  36.120  1.00  0.00     0.055 A 
ATOM     85  C   UNL A   1      46.673  27.914  35.489  1.00  0.00     0.041 A 
ATOM     86  F   UNL A   1      45.870  29.820  34.389  1.00  0.00    -0.206 F 
ATOM     87  C   UNL A   1      46.445  26.687  36.102  1.00  0.00     0.022 A 
BRANCH  84  88
ATOM     88  S   UNL A   1      44.799  24.644  37.046  1.00  0.00     0.124 S 
ATOM     89  O   UNL A   1      46.132  24.071  37.205  1.00  0.00    -0.237 OA
ATOM     90  O   UNL A   1      44.175  25.157  38.262  1.00  0.00    -0.237 OA
ATOM     91  O   UNL A   1      43.906  23.901  36.159  1.00  0.00    -0.744 OA
ENDBRANCH  84  88
ENDBRANCH  58  81
ENDBRANCH  32  33
ENDBRANCH  24  27
ENDBRANCH  22  23
ENDBRANCH  21  22
ENDBRANCH   1  21
TORSDOF 19
ENDMDL
MODEL 3
REMARK VINA RESULT:      -9.9      2.883      8.061
REMARK SMILES CC[C@@H](NC(=O)[C@H](C)C[NH2+]C)C(=O)NCCCCNC(=O)c1ccc(-c2c3nc(c(-c4cc(S(=O)(=O)[O-])ccc4F)c4ccc([nH]4)c(-c4cc(S(=O)(=O)[O-])ccc4F)c4nc(c(-c5cc(S(=O)(=O)[O-])ccc5F)c5ccc2[nH]5)C=C4)C=C3)cc1
REMARK SMILES IDX 16 1 15 2 14 3 12 4 13 5 3 7 2 8 1 9 4 10 5 11 6 13 7 14
REMARK SMILES IDX 8 15 9 16 10 17 11 18 17 21 18 22 19 23 20 24 21 26 22 27
REMARK SMILES IDX 23 28 84 29 24 30 83 31 25 32 26 33 27 34 77 35 28 36 82 37
REMARK SMILES IDX 76 38 78 39 29 40 81 41 75 42 74 43 30 45 62 46 42 47 61 48
REMARK SMILES IDX 43 49 46 50 60 51 79 52 44 53 45 54 59 56 80 57 47 58 31 59
REMARK SMILES IDX 32 60 40 61 33 62 39 63 41 64 38 65 34 66 35 67 36 68 37 69
REMARK SMILES IDX 63 70 64 71 72 72 65 73 71 74 73 75 70 76 66 77 67 78 68 79
REMARK SMILES IDX 69 80 48 81 49 82 57 83 50 84 56 85 58 86 55 87 51 88 52 89
REMARK SMILES IDX 53 90 54 91
REMARK H PARENT 14 6 4 12 10 19 10 20 19 25 78 44 46 55
REMARK Flexibility Score: inf
ROOT
ATOM      1  C   UNL A   1      35.048  22.818  24.411  1.00  0.00     0.023 C 
ENDROOT
BRANCH   1   2
ATOM      2  C   UNL A   1      34.605  23.869  25.422  1.00  0.00     0.116 C 
BRANCH   2   3
ATOM      3  N   UNL A   1      33.643  23.340  26.383  1.00  0.00    -0.354 N 
ATOM      4  C   UNL A   1      32.347  23.717  26.609  1.00  0.00     0.242 C 
ATOM      5  O   UNL A   1      31.678  23.059  27.409  1.00  0.00    -0.273 OA
ATOM      6  H   UNL A   1      33.975  22.607  26.951  1.00  0.00     0.163 HD
BRANCH   4   7
ATOM      7  C   UNL A   1      31.796  25.019  26.001  1.00  0.00     0.171 C 
BRANCH   7   8
ATOM      8  C   UNL A   1      30.544  24.583  25.191  1.00  0.00     0.031 C 
ATOM      9  C   UNL A   1      30.710  24.393  23.695  1.00  0.00     0.006 C 
ENDBRANCH   7   8
BRANCH   7  10
ATOM     10  N   UNL A   1      31.547  26.065  27.004  1.00  0.00    -0.344 N 
ATOM     11  C   UNL A   1      31.654  27.425  26.952  1.00  0.00     0.229 C 
ATOM     12  H   UNL A   1      31.247  25.719  27.875  1.00  0.00     0.164 HD
ATOM     13  O   UNL A   1      31.056  28.036  27.846  1.00  0.00    -0.275 OA
BRANCH  11  14
ATOM     14  C   UNL A   1      32.514  28.213  25.948  1.00  0.00     0.130 C 
ATOM     15  C   UNL A   1      33.858  27.561  25.648  1.00  0.00     0.024 C 
BRANCH  14  16
ATOM     16  C   UNL A   1      32.523  29.713  26.307  1.00  0.00     0.273 C 
BRANCH  16  17
ATOM     17  N   UNL A   1      33.148  30.091  27.577  1.00  0.00    -0.348 N 
ATOM     18  C   UNL A   1      34.585  30.314  27.402  1.00  0.00     0.330 C 
ATOM     19  H   UNL A   1      33.007  29.342  28.255  1.00  0.00     0.346 HD
ATOM     20  H   UNL A   1      32.721  30.955  27.908  1.00  0.00     0.346 HD
ENDBRANCH  16  17
ENDBRANCH  14  16
ENDBRANCH  11  14
ENDBRANCH   7  10
ENDBRANCH   4   7
ENDBRANCH   2   3
ENDBRANCH   1   2
BRANCH   1  21
ATOM     21  C   UNL A   1      36.557  22.568  24.369  1.00  0.00     0.023 C 
BRANCH  21  22
ATOM     22  C   UNL A   1      37.325  23.012  25.611  1.00  0.00     0.116 C 
BRANCH  22  23
ATOM     23  N   UNL A   1      38.429  22.124  25.928  1.00  0.00    -0.352 N 
ATOM     24  C   UNL A   1      39.674  22.433  26.417  1.00  0.00     0.251 C 
ATOM     25  H   UNL A   1      38.261  21.167  25.770  1.00  0.00     0.163 HD
ATOM     26  O   UNL A   1      40.543  21.562  26.448  1.00  0.00    -0.269 OA
BRANCH  24  27
ATOM     27  C   UNL A   1      39.981  23.809  26.867  1.00  0.00     0.039 A 
ATOM     28  C   UNL A   1      40.202  24.033  28.228  1.00  0.00     0.014 A 
ATOM     29  C   UNL A   1      40.038  24.876  25.965  1.00  0.00     0.014 A 
ATOM     30  C   UNL A   1      40.534  25.313  28.677  1.00  0.00     0.010 A 
ATOM     31  C   UNL A   1      40.430  26.142  26.407  1.00  0.00     0.010 A 
ATOM     32  C   UNL A   1      40.679  26.376  27.769  1.00  0.00    -0.014 A 
BRANCH  32  33
ATOM     33  C   UNL A   1      41.086  27.728  28.246  1.00  0.00     0.031 A 
ATOM     34  C   UNL A   1      42.538  28.122  28.276  1.00  0.00     0.074 A 
ATOM     35  C   UNL A   1      40.147  28.599  28.667  1.00  0.00     0.049 A 
ATOM     36  N   UNL A   1      43.081  29.251  28.660  1.00  0.00    -0.248 NA
ATOM     37  C   UNL A   1      43.508  27.110  27.833  1.00  0.00     0.031 C 
ATOM     38  C   UNL A   1      38.707  28.331  28.711  1.00  0.00     0.029 A 
ATOM     39  N   UNL A   1      40.257  29.886  29.136  1.00  0.00    -0.354 N 
ATOM     40  C   UNL A   1      44.453  29.086  28.504  1.00  0.00     0.074 A 
ATOM     41  C   UNL A   1      44.660  27.726  28.050  1.00  0.00     0.031 C 
ATOM     42  C   UNL A   1      38.069  29.428  29.150  1.00  0.00     0.029 A 
ATOM     43  C   UNL A   1      39.051  30.461  29.467  1.00  0.00     0.049 A 
ATOM     44  H   UNL A   1      41.118  30.354  29.225  1.00  0.00     0.167 HD
ATOM     45  C   UNL A   1      45.447  29.990  28.700  1.00  0.00     0.034 A 
ATOM     46  C   UNL A   1      38.766  31.676  29.979  1.00  0.00     0.034 A 
ATOM     47  C   UNL A   1      45.229  31.342  29.156  1.00  0.00     0.049 A 
ATOM     48  C   UNL A   1      39.893  32.644  30.241  1.00  0.00     0.074 A 
ATOM     49  C   UNL A   1      46.163  32.348  29.341  1.00  0.00     0.029 A 
ATOM     50  N   UNL A   1      43.999  31.877  29.514  1.00  0.00    -0.354 N 
ATOM     51  N   UNL A   1      41.181  32.490  30.037  1.00  0.00    -0.248 NA
ATOM     52  C   UNL A   1      39.527  33.955  30.793  1.00  0.00     0.031 C 
ATOM     53  C   UNL A   1      45.512  33.458  29.888  1.00  0.00     0.029 A 
ATOM     54  C   UNL A   1      44.156  33.182  29.959  1.00  0.00     0.049 A 
ATOM     55  H   UNL A   1      43.140  31.399  29.461  1.00  0.00     0.167 HD
ATOM     56  C   UNL A   1      41.772  33.696  30.406  1.00  0.00     0.074 A 
ATOM     57  C   UNL A   1      40.699  34.571  30.827  1.00  0.00     0.031 C 
ATOM     58  C   UNL A   1      43.084  34.048  30.394  1.00  0.00     0.034 A 
BRANCH  45  59
ATOM     59  C   UNL A   1      46.866  29.529  28.449  1.00  0.00     0.023 A 
ATOM     60  C   UNL A   1      47.647  28.951  29.465  1.00  0.00     0.031 A 
ATOM     61  C   UNL A   1      47.450  29.683  27.179  1.00  0.00     0.131 A 
ATOM     62  C   UNL A   1      48.986  28.617  29.217  1.00  0.00     0.055 A 
ATOM     63  C   UNL A   1      48.757  29.269  26.914  1.00  0.00     0.041 A 
ATOM     64  F   UNL A   1      46.763  30.246  26.173  1.00  0.00    -0.206 F 
ATOM     65  C   UNL A   1      49.540  28.747  27.940  1.00  0.00     0.022 A 
BRANCH  62  66
ATOM     66  S   UNL A   1      50.037  28.148  30.618  1.00  0.00     0.124 S 
ATOM     67  O   UNL A   1      49.348  26.962  31.120  1.00  0.00    -0.237 OA
ATOM     68  O   UNL A   1      51.328  27.916  29.980  1.00  0.00    -0.237 OA
ATOM     69  O   UNL A   1      49.977  29.314  31.498  1.00  0.00    -0.744 OA
ENDBRANCH  62  66
ENDBRANCH  45  59
BRANCH  46  70
ATOM     70  C   UNL A   1      37.357  32.050  30.302  1.00  0.00     0.023 A 
ATOM     71  C   UNL A   1      36.536  32.680  29.353  1.00  0.00     0.031 A 
ATOM     72  C   UNL A   1      36.829  31.831  31.587  1.00  0.00     0.131 A 
ATOM     73  C   UNL A   1      35.252  33.116  29.717  1.00  0.00     0.055 A 
ATOM     74  C   UNL A   1      35.530  32.211  31.927  1.00  0.00     0.041 A 
ATOM     75  F   UNL A   1      37.570  31.233  32.533  1.00  0.00    -0.206 F 
ATOM     76  C   UNL A   1      34.737  32.872  30.993  1.00  0.00     0.022 A 
BRANCH  73  77
ATOM     77  S   UNL A   1      34.295  34.096  28.528  1.00  0.00     0.124 S 
ATOM     78  O   UNL A   1      33.115  33.260  28.336  1.00  0.00    -0.237 OA
ATOM     79  O   UNL A   1      34.089  35.342  29.258  1.00  0.00    -0.237 OA
ATOM     80  O   UNL A   1      35.186  34.194  27.373  1.00  0.00    -0.744 OA
ENDBRANCH  73  77
ENDBRANCH  46  70
BRANCH  58  81
ATOM     81  C   UNL A   1      43.424  35.462  30.808  1.00  0.00     0.023 A 
ATOM     82  C   UNL A   1      43.454  36.521  29.883  1.00  0.00     0.031 A 
ATOM     83  C   UNL A   1      43.733  35.750  32.150  1.00  0.00     0.131 A 
ATOM     84  C   UNL A   1      43.843  37.803  30.300  1.00  0.00     0.055 A 
ATOM     85  C   UNL A   1      44.054  37.042  32.570  1.00  0.00     0.041 A 
ATOM     86  F   UNL A   1      43.727  34.779  33.077  1.00  0.00    -0.206 F 
ATOM     87  C   UNL A   1      44.123  38.074  31.641  1.00  0.00     0.022 A 
BRANCH  84  88
ATOM     88  S   UNL A   1      44.078  39.094  29.046  1.00  0.00     0.124 S 
ATOM     89  O   UNL A   1      45.226  39.824  29.574  1.00  0.00    -0.237 OA
ATOM     90  O   UNL A   1      44.319  38.314  27.836  1.00  0.00    -0.237 OA
ATOM     91  O   UNL A   1      42.813  39.826  29.067  1.00  0.00    -0.744 OA
ENDBRANCH  84  88
ENDBRANCH  58  81
ENDBRANCH  32  33
ENDBRANCH  24  27
ENDBRANCH  22  23
ENDBRANCH  21  22
ENDBRANCH   1  21
TORSDOF 19
ENDMDL
