MODEL 1
REMARK VINA RESULT:     -12.8      0.000      0.000
REMARK SMILES C[C@@]1(CN2C(=O)c3ccc(C(=O)NCCCCNC(=O)c4ccc(-c5c6nc(c(-c7cc(S(=O)(=O)[O-])ccc7F)c7ccc([nH]7)c(-c7cc(S(=O)(=O)[O-])ccc7F)c7nc(c(-c8cc(S(=O)(=O)[O-])ccc8F)c8ccc5[nH]8)C=C7)C=C6)cc4)cc3C2=O)CCCO1
REMARK SMILES IDX 16 1 15 2 14 3 13 4 11 5 12 6 10 8 4 9 5 10 86 11 6 12 7 13
REMARK SMILES IDX 85 14 87 15 8 16 84 17 9 18 3 19 2 20 1 21 88 22 91 23 89 24
REMARK SMILES IDX 90 25 17 26 18 27 19 28 20 30 21 31 22 32 83 33 23 34 82 35
REMARK SMILES IDX 24 36 25 37 26 38 76 39 27 40 81 41 75 42 77 43 28 44 80 45
REMARK SMILES IDX 74 46 73 47 29 49 61 50 41 51 60 52 42 53 45 54 59 55 78 56
REMARK SMILES IDX 43 57 44 58 58 60 79 61 46 62 30 63 31 64 39 65 32 66 38 67
REMARK SMILES IDX 40 68 37 69 33 70 34 71 35 72 36 73 62 74 63 75 71 76 64 77
REMARK SMILES IDX 70 78 72 79 69 80 65 81 66 82 67 83 68 84 47 85 48 86 56 87
REMARK SMILES IDX 49 88 55 89 57 90 54 91 50 92 51 93 52 94 53 95
REMARK H PARENT 13 7 18 29 77 48 45 59
REMARK Flexibility Score: inf
ROOT
ATOM      1  C   UNL A   1      36.165  22.461  25.273  1.00  0.00     0.023 C 
ENDROOT
BRANCH   1   2
ATOM      2  C   UNL A   1      35.647  21.165  25.900  1.00  0.00     0.023 C 
BRANCH   2   3
ATOM      3  C   UNL A   1      35.452  20.019  24.904  1.00  0.00     0.116 C 
BRANCH   3   4
ATOM      4  N   UNL A   1      34.238  19.283  25.194  1.00  0.00    -0.352 N 
ATOM      5  C   UNL A   1      32.910  19.598  25.072  1.00  0.00     0.251 C 
ATOM      6  O   UNL A   1      32.093  18.722  25.364  1.00  0.00    -0.269 OA
ATOM      7  H   UNL A   1      34.399  18.379  25.546  1.00  0.00     0.163 HD
BRANCH   5   8
ATOM      8  C   UNL A   1      32.396  20.919  24.599  1.00  0.00     0.040 A 
ATOM      9  N   UNL A   1      30.888  25.253  25.055  1.00  0.00    -0.271 N 
ATOM     10  C   UNL A   1      31.114  24.834  23.777  1.00  0.00     0.261 C 
ATOM     11  C   UNL A   1      31.214  24.286  25.972  1.00  0.00     0.261 C 
ATOM     12  O   UNL A   1      31.042  25.457  22.732  1.00  0.00    -0.269 OA
ATOM     13  C   UNL A   1      31.529  23.444  23.864  1.00  0.00     0.053 A 
ATOM     14  C   UNL A   1      31.610  23.104  25.199  1.00  0.00     0.054 A 
ATOM     15  O   UNL A   1      31.246  24.352  27.184  1.00  0.00    -0.269 OA
ATOM     16  C   UNL A   1      31.858  22.568  22.857  1.00  0.00     0.015 A 
ATOM     17  C   UNL A   1      32.041  21.852  25.598  1.00  0.00     0.028 A 
ATOM     18  C   UNL A   1      32.315  21.304  23.242  1.00  0.00     0.015 A 
BRANCH   9  19
ATOM     19  C   UNL A   1      30.436  26.592  25.390  1.00  0.00     0.164 C 
BRANCH  19  20
ATOM     20  C   UNL A   1      31.580  27.553  25.823  1.00  0.00     0.084 C 
ATOM     21  C   UNL A   1      31.642  27.778  27.334  1.00  0.00     0.044 C 
ATOM     22  C   UNL A   1      31.461  28.894  25.091  1.00  0.00     0.039 C 
ATOM     23  O   UNL A   1      32.845  27.005  25.399  1.00  0.00    -0.373 OA
ATOM     24  C   UNL A   1      32.177  28.629  23.789  1.00  0.00     0.031 C 
ATOM     25  C   UNL A   1      33.271  27.666  24.200  1.00  0.00     0.161 C 
ENDBRANCH  19  20
ENDBRANCH   9  19
ENDBRANCH   5   8
ENDBRANCH   3   4
ENDBRANCH   2   3
ENDBRANCH   1   2
BRANCH   1  26
ATOM     26  C   UNL A   1      37.629  22.425  24.851  1.00  0.00     0.116 C 
BRANCH  26  27
ATOM     27  N   UNL A   1      38.383  21.351  25.481  1.00  0.00    -0.352 N 
ATOM     28  C   UNL A   1      39.407  21.458  26.392  1.00  0.00     0.251 C 
ATOM     29  H   UNL A   1      38.129  20.435  25.222  1.00  0.00     0.163 HD
ATOM     30  O   UNL A   1      40.031  20.462  26.741  1.00  0.00    -0.269 OA
BRANCH  28  31
ATOM     31  C   UNL A   1      39.767  22.798  26.900  1.00  0.00     0.039 A 
ATOM     32  C   UNL A   1      40.733  22.905  27.900  1.00  0.00     0.014 A 
ATOM     33  C   UNL A   1      39.202  23.942  26.331  1.00  0.00     0.014 A 
ATOM     34  C   UNL A   1      41.184  24.169  28.283  1.00  0.00     0.010 A 
ATOM     35  C   UNL A   1      39.710  25.194  26.656  1.00  0.00     0.010 A 
ATOM     36  C   UNL A   1      40.707  25.322  27.635  1.00  0.00    -0.014 A 
BRANCH  36  37
ATOM     37  C   UNL A   1      41.239  26.667  27.970  1.00  0.00     0.031 A 
ATOM     38  C   UNL A   1      42.660  27.019  27.626  1.00  0.00     0.074 A 
ATOM     39  C   UNL A   1      40.461  27.547  28.632  1.00  0.00     0.049 A 
ATOM     40  N   UNL A   1      43.329  28.112  27.891  1.00  0.00    -0.248 NA
ATOM     41  C   UNL A   1      43.442  25.994  26.918  1.00  0.00     0.031 C 
ATOM     42  C   UNL A   1      39.080  27.302  29.057  1.00  0.00     0.029 A 
ATOM     43  N   UNL A   1      40.719  28.821  29.073  1.00  0.00    -0.354 N 
ATOM     44  C   UNL A   1      44.610  27.902  27.391  1.00  0.00     0.074 A 
ATOM     45  C   UNL A   1      44.641  26.552  26.872  1.00  0.00     0.031 C 
ATOM     46  C   UNL A   1      38.605  28.399  29.665  1.00  0.00     0.029 A 
ATOM     47  C   UNL A   1      39.658  29.408  29.725  1.00  0.00     0.049 A 
ATOM     48  H   UNL A   1      41.581  29.274  28.934  1.00  0.00     0.167 HD
ATOM     49  C   UNL A   1      45.655  28.765  27.348  1.00  0.00     0.034 A 
ATOM     50  C   UNL A   1      39.551  30.615  30.317  1.00  0.00     0.034 A 
ATOM     51  C   UNL A   1      45.601  30.111  27.865  1.00  0.00     0.049 A 
ATOM     52  C   UNL A   1      40.738  31.544  30.286  1.00  0.00     0.074 A 
ATOM     53  C   UNL A   1      46.580  31.087  27.826  1.00  0.00     0.029 A 
ATOM     54  N   UNL A   1      44.513  30.668  28.525  1.00  0.00    -0.354 N 
ATOM     55  N   UNL A   1      41.927  31.352  29.758  1.00  0.00    -0.248 NA
ATOM     56  C   UNL A   1      40.568  32.858  30.918  1.00  0.00     0.031 C 
ATOM     57  C   UNL A   1      46.117  32.203  28.529  1.00  0.00     0.029 A 
ATOM     58  C   UNL A   1      44.812  31.961  28.930  1.00  0.00     0.049 A 
ATOM     59  H   UNL A   1      43.655  30.212  28.683  1.00  0.00     0.167 HD
ATOM     60  C   UNL A   1      42.630  32.534  29.968  1.00  0.00     0.074 A 
ATOM     61  C   UNL A   1      41.729  33.437  30.653  1.00  0.00     0.031 C 
ATOM     62  C   UNL A   1      43.906  32.848  29.621  1.00  0.00     0.034 A 
BRANCH  49  63
ATOM     63  C   UNL A   1      46.947  28.266  26.746  1.00  0.00     0.023 A 
ATOM     64  C   UNL A   1      47.166  28.268  25.357  1.00  0.00     0.031 A 
ATOM     65  C   UNL A   1      47.969  27.761  27.570  1.00  0.00     0.131 A 
ATOM     66  C   UNL A   1      48.338  27.706  24.830  1.00  0.00     0.055 A 
ATOM     67  C   UNL A   1      49.172  27.285  27.044  1.00  0.00     0.041 A 
ATOM     68  F   UNL A   1      47.811  27.709  28.901  1.00  0.00    -0.206 F 
ATOM     69  C   UNL A   1      49.356  27.241  25.665  1.00  0.00     0.022 A 
BRANCH  66  70
ATOM     70  S   UNL A   1      48.449  27.457  23.037  1.00  0.00     0.124 S 
ATOM     71  O   UNL A   1      47.274  28.187  22.565  1.00  0.00    -0.237 OA
ATOM     72  O   UNL A   1      49.741  28.049  22.714  1.00  0.00    -0.237 OA
ATOM     73  O   UNL A   1      48.372  26.005  22.887  1.00  0.00    -0.744 OA
ENDBRANCH  66  70
ENDBRANCH  49  63
BRANCH  50  74
ATOM     74  C   UNL A   1      38.286  31.016  31.001  1.00  0.00     0.023 A 
ATOM     75  C   UNL A   1      37.249  31.649  30.297  1.00  0.00     0.031 A 
ATOM     76  C   UNL A   1      38.116  30.819  32.383  1.00  0.00     0.131 A 
ATOM     77  C   UNL A   1      36.116  32.111  30.984  1.00  0.00     0.055 A 
ATOM     78  C   UNL A   1      36.959  31.225  33.052  1.00  0.00     0.041 A 
ATOM     79  F   UNL A   1      39.074  30.217  33.107  1.00  0.00    -0.206 F 
ATOM     80  C   UNL A   1      35.957  31.890  32.353  1.00  0.00     0.022 A 
BRANCH  77  81
ATOM     81  S   UNL A   1      34.894  33.100  30.077  1.00  0.00     0.124 S 
ATOM     82  O   UNL A   1      35.729  34.151  29.507  1.00  0.00    -0.237 OA
ATOM     83  O   UNL A   1      34.355  32.125  29.135  1.00  0.00    -0.237 OA
ATOM     84  O   UNL A   1      33.967  33.535  31.121  1.00  0.00    -0.744 OA
ENDBRANCH  77  81
ENDBRANCH  50  74
BRANCH  62  85
ATOM     85  C   UNL A   1      44.380  34.248  29.934  1.00  0.00     0.023 A 
ATOM     86  C   UNL A   1      44.185  35.315  29.041  1.00  0.00     0.031 A 
ATOM     87  C   UNL A   1      45.044  34.513  31.146  1.00  0.00     0.131 A 
ATOM     88  C   UNL A   1      44.701  36.585  29.346  1.00  0.00     0.055 A 
ATOM     89  C   UNL A   1      45.493  35.793  31.475  1.00  0.00     0.041 A 
ATOM     90  F   UNL A   1      45.262  33.531  32.036  1.00  0.00    -0.206 F 
ATOM     91  C   UNL A   1      45.335  36.834  30.566  1.00  0.00     0.022 A 
BRANCH  88  92
ATOM     92  S   UNL A   1      44.623  37.883  28.082  1.00  0.00     0.124 S 
ATOM     93  O   UNL A   1      45.234  39.015  28.772  1.00  0.00    -0.237 OA
ATOM     94  O   UNL A   1      45.403  37.305  26.993  1.00  0.00    -0.237 OA
ATOM     95  O   UNL A   1      43.192  38.018  27.817  1.00  0.00    -0.744 OA
ENDBRANCH  88  92
ENDBRANCH  62  85
ENDBRANCH  36  37
ENDBRANCH  28  31
ENDBRANCH  26  27
ENDBRANCH   1  26
TORSDOF 16
ENDMDL
MODEL 2
REMARK VINA RESULT:     -12.7      5.482      8.707
REMARK SMILES C[C@@]1(CN2C(=O)c3ccc(C(=O)NCCCCNC(=O)c4ccc(-c5c6nc(c(-c7cc(S(=O)(=O)[O-])ccc7F)c7ccc([nH]7)c(-c7cc(S(=O)(=O)[O-])ccc7F)c7nc(c(-c8cc(S(=O)(=O)[O-])ccc8F)c8ccc5[nH]8)C=C7)C=C6)cc4)cc3C2=O)CCCO1
REMARK SMILES IDX 16 1 15 2 14 3 13 4 11 5 12 6 10 8 4 9 5 10 86 11 6 12 7 13
REMARK SMILES IDX 85 14 87 15 8 16 84 17 9 18 3 19 2 20 1 21 88 22 91 23 89 24
REMARK SMILES IDX 90 25 17 26 18 27 19 28 20 30 21 31 22 32 83 33 23 34 82 35
REMARK SMILES IDX 24 36 25 37 26 38 76 39 27 40 81 41 75 42 77 43 28 44 80 45
REMARK SMILES IDX 74 46 73 47 29 49 61 50 41 51 60 52 42 53 45 54 59 55 78 56
REMARK SMILES IDX 43 57 44 58 58 60 79 61 46 62 30 63 31 64 39 65 32 66 38 67
REMARK SMILES IDX 40 68 37 69 33 70 34 71 35 72 36 73 62 74 63 75 71 76 64 77
REMARK SMILES IDX 70 78 72 79 69 80 65 81 66 82 67 83 68 84 47 85 48 86 56 87
REMARK SMILES IDX 49 88 55 89 57 90 54 91 50 92 51 93 52 94 53 95
REMARK H PARENT 13 7 18 29 77 48 45 59
REMARK Flexibility Score: inf
ROOT
ATOM      1  C   UNL A   1      31.530  32.200  26.864  1.00  0.00     0.023 C 
ENDROOT
BRANCH   1   2
ATOM      2  C   UNL A   1      31.660  30.690  26.654  1.00  0.00     0.023 C 
BRANCH   2   3
ATOM      3  C   UNL A   1      33.087  30.216  26.365  1.00  0.00     0.116 C 
BRANCH   3   4
ATOM      4  N   UNL A   1      33.251  29.901  24.960  1.00  0.00    -0.352 N 
ATOM      5  C   UNL A   1      33.145  28.732  24.252  1.00  0.00     0.251 C 
ATOM      6  O   UNL A   1      33.300  28.795  23.031  1.00  0.00    -0.269 OA
ATOM      7  H   UNL A   1      33.484  30.679  24.405  1.00  0.00     0.163 HD
BRANCH   5   8
ATOM      8  C   UNL A   1      32.841  27.402  24.861  1.00  0.00     0.040 A 
ATOM      9  N   UNL A   1      33.770  23.110  26.268  1.00  0.00    -0.271 N 
ATOM     10  C   UNL A   1      32.551  23.602  26.630  1.00  0.00     0.261 C 
ATOM     11  C   UNL A   1      34.511  24.039  25.583  1.00  0.00     0.261 C 
ATOM     12  O   UNL A   1      31.689  23.103  27.331  1.00  0.00    -0.269 OA
ATOM     13  C   UNL A   1      32.451  24.929  26.047  1.00  0.00     0.053 A 
ATOM     14  C   UNL A   1      33.648  25.213  25.421  1.00  0.00     0.054 A 
ATOM     15  O   UNL A   1      35.666  23.983  25.214  1.00  0.00    -0.269 OA
ATOM     16  C   UNL A   1      31.416  25.832  26.106  1.00  0.00     0.015 A 
ATOM     17  C   UNL A   1      33.874  26.439  24.821  1.00  0.00     0.028 A 
ATOM     18  C   UNL A   1      31.633  27.084  25.523  1.00  0.00     0.015 A 
BRANCH   9  19
ATOM     19  C   UNL A   1      34.242  21.789  26.644  1.00  0.00     0.164 C 
BRANCH  19  20
ATOM     20  C   UNL A   1      34.428  20.819  25.441  1.00  0.00     0.084 C 
ATOM     21  C   UNL A   1      35.890  20.634  25.034  1.00  0.00     0.044 C 
ATOM     22  C   UNL A   1      33.598  21.286  24.242  1.00  0.00     0.039 C 
ATOM     23  O   UNL A   1      33.892  19.527  25.789  1.00  0.00    -0.373 OA
ATOM     24  C   UNL A   1      32.242  20.684  24.518  1.00  0.00     0.031 C 
ATOM     25  C   UNL A   1      32.590  19.380  25.205  1.00  0.00     0.161 C 
ENDBRANCH  19  20
ENDBRANCH   9  19
ENDBRANCH   5   8
ENDBRANCH   3   4
ENDBRANCH   2   3
ENDBRANCH   1   2
BRANCH   1  26
ATOM     26  C   UNL A   1      32.842  32.920  27.152  1.00  0.00     0.116 C 
BRANCH  26  27
ATOM     27  N   UNL A   1      32.661  34.210  27.801  1.00  0.00    -0.352 N 
ATOM     28  C   UNL A   1      33.366  34.730  28.861  1.00  0.00     0.251 C 
ATOM     29  H   UNL A   1      31.945  34.780  27.438  1.00  0.00     0.163 HD
ATOM     30  O   UNL A   1      33.014  35.783  29.380  1.00  0.00    -0.269 OA
BRANCH  28  31
ATOM     31  C   UNL A   1      34.520  33.971  29.385  1.00  0.00     0.039 A 
ATOM     32  C   UNL A   1      35.809  34.392  29.061  1.00  0.00     0.014 A 
ATOM     33  C   UNL A   1      34.319  32.895  30.254  1.00  0.00     0.014 A 
ATOM     34  C   UNL A   1      36.904  33.773  29.667  1.00  0.00     0.010 A 
ATOM     35  C   UNL A   1      35.406  32.336  30.916  1.00  0.00     0.010 A 
ATOM     36  C   UNL A   1      36.710  32.769  30.631  1.00  0.00    -0.014 A 
BRANCH  36  37
ATOM     37  C   UNL A   1      37.859  32.159  31.348  1.00  0.00     0.031 A 
ATOM     38  C   UNL A   1      38.641  31.049  30.704  1.00  0.00     0.074 A 
ATOM     39  C   UNL A   1      38.158  32.568  32.598  1.00  0.00     0.049 A 
ATOM     40  N   UNL A   1      39.632  30.345  31.189  1.00  0.00    -0.248 NA
ATOM     41  C   UNL A   1      38.235  30.656  29.346  1.00  0.00     0.031 C 
ATOM     42  C   UNL A   1      37.443  33.607  33.342  1.00  0.00     0.029 A 
ATOM     43  N   UNL A   1      39.137  32.155  33.468  1.00  0.00    -0.354 N 
ATOM     44  C   UNL A   1      39.961  29.423  30.202  1.00  0.00     0.074 A 
ATOM     45  C   UNL A   1      39.017  29.612  29.121  1.00  0.00     0.031 C 
ATOM     46  C   UNL A   1      38.025  33.772  34.540  1.00  0.00     0.029 A 
ATOM     47  C   UNL A   1      39.120  32.817  34.675  1.00  0.00     0.049 A 
ATOM     48  H   UNL A   1      39.790  31.452  33.249  1.00  0.00     0.167 HD
ATOM     49  C   UNL A   1      40.971  28.519  30.188  1.00  0.00     0.034 A 
ATOM     50  C   UNL A   1      39.890  32.661  35.771  1.00  0.00     0.034 A 
ATOM     51  C   UNL A   1      41.907  28.352  31.274  1.00  0.00     0.049 A 
ATOM     52  C   UNL A   1      40.987  31.626  35.745  1.00  0.00     0.074 A 
ATOM     53  C   UNL A   1      43.000  27.506  31.344  1.00  0.00     0.029 A 
ATOM     54  N   UNL A   1      41.856  29.034  32.483  1.00  0.00    -0.354 N 
ATOM     55  N   UNL A   1      41.321  30.799  34.780  1.00  0.00    -0.248 NA
ATOM     56  C   UNL A   1      41.818  31.510  36.950  1.00  0.00     0.031 C 
ATOM     57  C   UNL A   1      43.560  27.618  32.620  1.00  0.00     0.029 A 
ATOM     58  C   UNL A   1      42.875  28.601  33.318  1.00  0.00     0.049 A 
ATOM     59  H   UNL A   1      41.193  29.724  32.713  1.00  0.00     0.167 HD
ATOM     60  C   UNL A   1      42.422  30.090  35.252  1.00  0.00     0.074 A 
ATOM     61  C   UNL A   1      42.704  30.599  36.579  1.00  0.00     0.031 C 
ATOM     62  C   UNL A   1      43.139  29.110  34.643  1.00  0.00     0.034 A 
BRANCH  49  63
ATOM     63  C   UNL A   1      41.095  27.630  28.974  1.00  0.00     0.023 A 
ATOM     64  C   UNL A   1      42.085  27.842  27.998  1.00  0.00     0.031 A 
ATOM     65  C   UNL A   1      40.198  26.565  28.776  1.00  0.00     0.131 A 
ATOM     66  C   UNL A   1      42.106  27.055  26.837  1.00  0.00     0.055 A 
ATOM     67  C   UNL A   1      40.280  25.729  27.661  1.00  0.00     0.041 A 
ATOM     68  F   UNL A   1      39.216  26.325  29.660  1.00  0.00    -0.206 F 
ATOM     69  C   UNL A   1      41.229  25.982  26.675  1.00  0.00     0.022 A 
BRANCH  66  70
ATOM     70  S   UNL A   1      43.199  27.550  25.476  1.00  0.00     0.124 S 
ATOM     71  O   UNL A   1      43.697  26.257  25.013  1.00  0.00    -0.237 OA
ATOM     72  O   UNL A   1      42.287  28.244  24.574  1.00  0.00    -0.237 OA
ATOM     73  O   UNL A   1      44.197  28.396  26.128  1.00  0.00    -0.744 OA
ENDBRANCH  66  70
ENDBRANCH  49  63
BRANCH  50  74
ATOM     74  C   UNL A   1      39.652  33.489  36.990  1.00  0.00     0.023 A 
ATOM     75  C   UNL A   1      38.925  32.984  38.080  1.00  0.00     0.031 A 
ATOM     76  C   UNL A   1      40.105  34.819  37.063  1.00  0.00     0.131 A 
ATOM     77  C   UNL A   1      38.624  33.818  39.169  1.00  0.00     0.055 A 
ATOM     78  C   UNL A   1      39.857  35.626  38.175  1.00  0.00     0.041 A 
ATOM     79  F   UNL A   1      40.808  35.354  36.050  1.00  0.00    -0.206 F 
ATOM     80  C   UNL A   1      39.098  35.129  39.230  1.00  0.00     0.022 A 
BRANCH  77  81
ATOM     81  S   UNL A   1      37.514  33.193  40.461  1.00  0.00     0.124 S 
ATOM     82  O   UNL A   1      38.298  32.096  41.018  1.00  0.00    -0.237 OA
ATOM     83  O   UNL A   1      37.352  34.365  41.314  1.00  0.00    -0.237 OA
ATOM     84  O   UNL A   1      36.320  32.794  39.718  1.00  0.00    -0.744 OA
ENDBRANCH  77  81
ENDBRANCH  50  74
BRANCH  62  85
ATOM     85  C   UNL A   1      44.332  28.563  35.392  1.00  0.00     0.023 A 
ATOM     86  C   UNL A   1      44.202  27.551  36.359  1.00  0.00     0.031 A 
ATOM     87  C   UNL A   1      45.619  29.069  35.134  1.00  0.00     0.131 A 
ATOM     88  C   UNL A   1      45.330  27.120  37.075  1.00  0.00     0.055 A 
ATOM     89  C   UNL A   1      46.747  28.587  35.799  1.00  0.00     0.041 A 
ATOM     90  F   UNL A   1      45.803  30.039  34.224  1.00  0.00    -0.206 F 
ATOM     91  C   UNL A   1      46.604  27.618  36.787  1.00  0.00     0.022 A 
BRANCH  88  92
ATOM     92  S   UNL A   1      45.096  25.974  38.461  1.00  0.00     0.124 S 
ATOM     93  O   UNL A   1      46.314  26.183  39.236  1.00  0.00    -0.237 OA
ATOM     94  O   UNL A   1      43.863  26.466  39.067  1.00  0.00    -0.237 OA
ATOM     95  O   UNL A   1      44.990  24.668  37.812  1.00  0.00    -0.744 OA
ENDBRANCH  88  92
ENDBRANCH  62  85
ENDBRANCH  36  37
ENDBRANCH  28  31
ENDBRANCH  26  27
ENDBRANCH   1  26
TORSDOF 16
ENDMDL
MODEL 3
REMARK VINA RESULT:     -12.7      1.209      1.516
REMARK SMILES C[C@@]1(CN2C(=O)c3ccc(C(=O)NCCCCNC(=O)c4ccc(-c5c6nc(c(-c7cc(S(=O)(=O)[O-])ccc7F)c7ccc([nH]7)c(-c7cc(S(=O)(=O)[O-])ccc7F)c7nc(c(-c8cc(S(=O)(=O)[O-])ccc8F)c8ccc5[nH]8)C=C7)C=C6)cc4)cc3C2=O)CCCO1
REMARK SMILES IDX 16 1 15 2 14 3 13 4 11 5 12 6 10 8 4 9 5 10 86 11 6 12 7 13
REMARK SMILES IDX 85 14 87 15 8 16 84 17 9 18 3 19 2 20 1 21 88 22 91 23 89 24
REMARK SMILES IDX 90 25 17 26 18 27 19 28 20 30 21 31 22 32 83 33 23 34 82 35
REMARK SMILES IDX 24 36 25 37 26 38 76 39 27 40 81 41 75 42 77 43 28 44 80 45
REMARK SMILES IDX 74 46 73 47 29 49 61 50 41 51 60 52 42 53 45 54 59 55 78 56
REMARK SMILES IDX 43 57 44 58 58 60 79 61 46 62 30 63 31 64 39 65 32 66 38 67
REMARK SMILES IDX 40 68 37 69 33 70 34 71 35 72 36 73 62 74 63 75 71 76 64 77
REMARK SMILES IDX 70 78 72 79 69 80 65 81 66 82 67 83 68 84 47 85 48 86 56 87
REMARK SMILES IDX 49 88 55 89 57 90 54 91 50 92 51 93 52 94 53 95
REMARK H PARENT 13 7 18 29 77 48 45 59
REMARK Flexibility Score: inf
ROOT
ATOM      1  C   UNL A   1      36.016  22.772  25.402  1.00  0.00     0.023 C 
ENDROOT
BRANCH   1   2
ATOM      2  C   UNL A   1      35.510  21.460  26.005  1.00  0.00     0.023 C 
BRANCH   2   3
ATOM      3  C   UNL A   1      35.455  20.293  25.016  1.00  0.00     0.116 C 
BRANCH   3   4
ATOM      4  N   UNL A   1      34.243  19.519  25.197  1.00  0.00    -0.352 N 
ATOM      5  C   UNL A   1      32.918  19.810  25.001  1.00  0.00     0.251 C 
ATOM      6  O   UNL A   1      32.105  18.905  25.203  1.00  0.00    -0.269 OA
ATOM      7  H   UNL A   1      34.403  18.605  25.523  1.00  0.00     0.163 HD
BRANCH   5   8
ATOM      8  C   UNL A   1      32.403  21.137  24.548  1.00  0.00     0.040 A 
ATOM      9  N   UNL A   1      30.913  25.470  25.067  1.00  0.00    -0.271 N 
ATOM     10  C   UNL A   1      31.126  25.066  23.782  1.00  0.00     0.261 C 
ATOM     11  C   UNL A   1      31.244  24.492  25.970  1.00  0.00     0.261 C 
ATOM     12  O   UNL A   1      31.045  25.700  22.745  1.00  0.00    -0.269 OA
ATOM     13  C   UNL A   1      31.537  23.674  23.849  1.00  0.00     0.053 A 
ATOM     14  C   UNL A   1      31.630  23.318  25.180  1.00  0.00     0.054 A 
ATOM     15  O   UNL A   1      31.288  24.545  27.182  1.00  0.00    -0.269 OA
ATOM     16  C   UNL A   1      31.853  22.808  22.830  1.00  0.00     0.015 A 
ATOM     17  C   UNL A   1      32.061  22.061  25.560  1.00  0.00     0.028 A 
ATOM     18  C   UNL A   1      32.310  21.538  23.195  1.00  0.00     0.015 A 
BRANCH   9  19
ATOM     19  C   UNL A   1      30.468  26.807  25.421  1.00  0.00     0.164 C 
BRANCH  19  20
ATOM     20  C   UNL A   1      31.616  27.753  25.879  1.00  0.00     0.084 C 
ATOM     21  C   UNL A   1      31.660  27.961  27.393  1.00  0.00     0.044 C 
ATOM     22  C   UNL A   1      31.520  29.101  25.159  1.00  0.00     0.039 C 
ATOM     23  O   UNL A   1      32.881  27.196  25.466  1.00  0.00    -0.373 OA
ATOM     24  C   UNL A   1      32.249  28.842  23.864  1.00  0.00     0.031 C 
ATOM     25  C   UNL A   1      33.329  27.864  24.278  1.00  0.00     0.161 C 
ENDBRANCH  19  20
ENDBRANCH   9  19
ENDBRANCH   5   8
ENDBRANCH   3   4
ENDBRANCH   2   3
ENDBRANCH   1   2
BRANCH   1  26
ATOM     26  C   UNL A   1      37.388  23.214  25.896  1.00  0.00     0.116 C 
BRANCH  26  27
ATOM     27  N   UNL A   1      38.301  22.104  26.127  1.00  0.00    -0.352 N 
ATOM     28  C   UNL A   1      39.614  22.159  26.534  1.00  0.00     0.251 C 
ATOM     29  H   UNL A   1      37.935  21.204  25.971  1.00  0.00     0.163 HD
ATOM     30  O   UNL A   1      40.294  21.141  26.566  1.00  0.00    -0.269 OA
BRANCH  28  31
ATOM     31  C   UNL A   1      40.192  23.473  26.884  1.00  0.00     0.039 A 
ATOM     32  C   UNL A   1      40.091  24.521  25.970  1.00  0.00     0.014 A 
ATOM     33  C   UNL A   1      40.763  23.678  28.143  1.00  0.00     0.014 A 
ATOM     34  C   UNL A   1      40.503  25.800  26.348  1.00  0.00     0.010 A 
ATOM     35  C   UNL A   1      41.096  24.967  28.544  1.00  0.00     0.010 A 
ATOM     36  C   UNL A   1      40.969  26.042  27.652  1.00  0.00    -0.014 A 
BRANCH  36  37
ATOM     37  C   UNL A   1      41.330  27.412  28.097  1.00  0.00     0.031 A 
ATOM     38  C   UNL A   1      42.770  27.842  28.112  1.00  0.00     0.074 A 
ATOM     39  C   UNL A   1      40.366  28.246  28.541  1.00  0.00     0.049 A 
ATOM     40  N   UNL A   1      43.295  28.967  28.524  1.00  0.00    -0.248 NA
ATOM     41  C   UNL A   1      43.756  26.863  27.625  1.00  0.00     0.031 C 
ATOM     42  C   UNL A   1      38.939  27.925  28.614  1.00  0.00     0.029 A 
ATOM     43  N   UNL A   1      40.440  29.529  29.021  1.00  0.00    -0.354 N 
ATOM     44  C   UNL A   1      44.669  28.828  28.357  1.00  0.00     0.074 A 
ATOM     45  C   UNL A   1      44.898  27.484  27.872  1.00  0.00     0.031 C 
ATOM     46  C   UNL A   1      38.271  28.992  29.079  1.00  0.00     0.029 A 
ATOM     47  C   UNL A   1      39.222  30.055  29.387  1.00  0.00     0.049 A 
ATOM     48  H   UNL A   1      41.285  30.028  29.096  1.00  0.00     0.167 HD
ATOM     49  C   UNL A   1      45.645  29.745  28.566  1.00  0.00     0.034 A 
ATOM     50  C   UNL A   1      38.908  31.251  29.926  1.00  0.00     0.034 A 
ATOM     51  C   UNL A   1      45.394  31.084  29.044  1.00  0.00     0.049 A 
ATOM     52  C   UNL A   1      40.016  32.243  30.181  1.00  0.00     0.074 A 
ATOM     53  C   UNL A   1      46.300  32.111  29.239  1.00  0.00     0.029 A 
ATOM     54  N   UNL A   1      44.149  31.578  29.411  1.00  0.00    -0.354 N 
ATOM     55  N   UNL A   1      41.306  32.117  29.964  1.00  0.00    -0.248 NA
ATOM     56  C   UNL A   1      39.626  33.542  30.742  1.00  0.00     0.031 C 
ATOM     57  C   UNL A   1      45.619  33.197  29.798  1.00  0.00     0.029 A 
ATOM     58  C   UNL A   1      44.270  32.883  29.867  1.00  0.00     0.049 A 
ATOM     59  H   UNL A   1      43.304  31.077  29.356  1.00  0.00     0.167 HD
ATOM     60  C   UNL A   1      41.873  33.334  30.331  1.00  0.00     0.074 A 
ATOM     61  C   UNL A   1      40.784  34.183  30.767  1.00  0.00     0.031 C 
ATOM     62  C   UNL A   1      43.176  33.717  30.307  1.00  0.00     0.034 A 
BRANCH  49  63
ATOM     63  C   UNL A   1      47.070  29.319  28.304  1.00  0.00     0.023 A 
ATOM     64  C   UNL A   1      47.523  29.004  27.011  1.00  0.00     0.031 A 
ATOM     65  C   UNL A   1      47.986  29.207  29.365  1.00  0.00     0.131 A 
ATOM     66  C   UNL A   1      48.825  28.518  26.822  1.00  0.00     0.055 A 
ATOM     67  C   UNL A   1      49.308  28.808  29.158  1.00  0.00     0.041 A 
ATOM     68  F   UNL A   1      47.609  29.470  30.626  1.00  0.00    -0.206 F 
ATOM     69  C   UNL A   1      49.730  28.445  27.882  1.00  0.00     0.022 A 
BRANCH  66  70
ATOM     70  S   UNL A   1      49.270  27.843  25.199  1.00  0.00     0.124 S 
ATOM     71  O   UNL A   1      48.116  28.232  24.391  1.00  0.00    -0.237 OA
ATOM     72  O   UNL A   1      50.520  28.532  24.901  1.00  0.00    -0.237 OA
ATOM     73  O   UNL A   1      49.392  26.407  25.446  1.00  0.00    -0.744 OA
ENDBRANCH  66  70
ENDBRANCH  49  63
BRANCH  50  74
ATOM     74  C   UNL A   1      37.495  31.580  30.274  1.00  0.00     0.023 A 
ATOM     75  C   UNL A   1      36.596  32.043  29.300  1.00  0.00     0.031 A 
ATOM     76  C   UNL A   1      37.035  31.488  31.600  1.00  0.00     0.131 A 
ATOM     77  C   UNL A   1      35.304  32.446  29.673  1.00  0.00     0.055 A 
ATOM     78  C   UNL A   1      35.729  31.831  31.957  1.00  0.00     0.041 A 
ATOM     79  F   UNL A   1      37.851  31.049  32.573  1.00  0.00    -0.206 F 
ATOM     80  C   UNL A   1      34.860  32.329  30.991  1.00  0.00     0.022 A 
BRANCH  77  81
ATOM     81  S   UNL A   1      34.243  33.225  28.424  1.00  0.00     0.124 S 
ATOM     82  O   UNL A   1      33.606  32.065  27.812  1.00  0.00    -0.237 OA
ATOM     83  O   UNL A   1      33.384  34.073  29.243  1.00  0.00    -0.237 OA
ATOM     84  O   UNL A   1      35.191  33.940  27.571  1.00  0.00    -0.744 OA
ENDBRANCH  77  81
ENDBRANCH  50  74
BRANCH  62  85
ATOM     85  C   UNL A   1      43.484  35.138  30.716  1.00  0.00     0.023 A 
ATOM     86  C   UNL A   1      43.472  36.197  29.792  1.00  0.00     0.031 A 
ATOM     87  C   UNL A   1      43.800  35.433  32.055  1.00  0.00     0.131 A 
ATOM     88  C   UNL A   1      43.828  37.490  30.206  1.00  0.00     0.055 A 
ATOM     89  C   UNL A   1      44.085  36.733  32.475  1.00  0.00     0.041 A 
ATOM     90  F   UNL A   1      43.831  34.461  32.981  1.00  0.00    -0.206 F 
ATOM     91  C   UNL A   1      44.115  37.768  31.545  1.00  0.00     0.022 A 
BRANCH  88  92
ATOM     92  S   UNL A   1      44.012  38.786  28.951  1.00  0.00     0.124 S 
ATOM     93  O   UNL A   1      43.369  39.926  29.596  1.00  0.00    -0.237 OA
ATOM     94  O   UNL A   1      45.462  38.872  28.802  1.00  0.00    -0.237 OA
ATOM     95  O   UNL A   1      43.301  38.246  27.793  1.00  0.00    -0.744 OA
ENDBRANCH  88  92
ENDBRANCH  62  85
ENDBRANCH  36  37
ENDBRANCH  28  31
ENDBRANCH  26  27
ENDBRANCH   1  26
TORSDOF 16
ENDMDL
