MODEL 1
REMARK VINA RESULT:     -12.5      0.000      0.000
REMARK SMILES O=C(NCCCCNC(=O)c1ccccc1-c1ccc(/C=C2\C(=O)N(c3cccc(Br)c3)C(=O)N=C2O)o1)c1ccc(-c2c3nc(c(-c4cc(S(=O)(=O)[O-])ccc4F)c4ccc([nH]4)c(-c4cc(S(=O)(=O)[O-])ccc4F)c4nc(c(-c5cc(S(=O)(=O)[O-])ccc5F)c5ccc2[nH]5)C=C4)C=C3)cc1
REMARK SMILES IDX 5 1 4 2 3 3 1 4 2 5 39 7 40 8 101 9 41 10 100 11 42 12 43 13
REMARK SMILES IDX 44 14 94 15 45 16 99 17 93 18 95 19 46 20 98 21 92 22 91 23
REMARK SMILES IDX 47 25 79 26 59 27 78 28 60 29 63 30 77 31 96 32 61 33 62 34
REMARK SMILES IDX 76 36 97 37 64 38 48 39 49 40 57 41 50 42 56 43 58 44 55 45
REMARK SMILES IDX 51 46 52 47 53 48 54 49 80 50 81 51 89 52 82 53 88 54 90 55
REMARK SMILES IDX 87 56 83 57 84 58 85 59 86 60 65 61 66 62 74 63 67 64 73 65
REMARK SMILES IDX 75 66 72 67 68 68 69 69 70 70 71 71 6 72 7 73 8 74 9 75
REMARK SMILES IDX 10 77 11 78 12 79 16 80 13 81 15 82 14 83 17 84 18 85 38 86
REMARK SMILES IDX 19 87 20 88 21 89 22 90 23 91 36 92 24 93 25 94 35 95 33 96
REMARK SMILES IDX 34 97 37 98 26 100 27 101 32 102 28 103 30 104 29 105 31 106
REMARK H PARENT 3 6 95 24 63 35 8 76 37 99
REMARK Flexibility Score: inf
ROOT
ATOM      1  C   UNL A   1      46.963  37.904  26.068  1.00  0.00     0.023 C 
ENDROOT
BRANCH   1   2
ATOM      2  C   UNL A   1      47.553  37.565  27.432  1.00  0.00     0.116 C 
BRANCH   2   3
ATOM      3  N   UNL A   1      46.735  38.014  28.552  1.00  0.00    -0.352 N 
ATOM      4  O   UNL A   1      45.223  37.886  30.225  1.00  0.00    -0.269 OA
ATOM      5  C   UNL A   1      45.834  37.313  29.326  1.00  0.00     0.251 C 
ATOM      6  H   UNL A   1      46.841  38.962  28.794  1.00  0.00     0.163 HD
BRANCH   5   7
ATOM      7  C   UNL A   1      45.583  35.882  29.036  1.00  0.00     0.039 A 
ATOM      8  C   UNL A   1      44.814  35.514  27.933  1.00  0.00     0.014 A 
ATOM      9  C   UNL A   1      46.049  34.904  29.919  1.00  0.00     0.014 A 
ATOM     10  C   UNL A   1      44.327  34.214  27.840  1.00  0.00     0.010 A 
ATOM     11  C   UNL A   1      45.646  33.571  29.758  1.00  0.00     0.010 A 
ATOM     12  C   UNL A   1      44.729  33.224  28.753  1.00  0.00    -0.014 A 
BRANCH  12  13
ATOM     13  C   UNL A   1      44.166  31.848  28.627  1.00  0.00     0.031 A 
ATOM     14  C   UNL A   1      42.816  31.496  29.204  1.00  0.00     0.074 A 
ATOM     15  C   UNL A   1      44.853  30.923  27.926  1.00  0.00     0.049 A 
ATOM     16  N   UNL A   1      42.159  30.363  29.141  1.00  0.00    -0.248 NA
ATOM     17  C   UNL A   1      42.117  32.547  29.959  1.00  0.00     0.031 C 
ATOM     18  C   UNL A   1      46.167  31.141  27.315  1.00  0.00     0.029 A 
ATOM     19  N   UNL A   1      44.540  29.633  27.580  1.00  0.00    -0.354 N 
ATOM     20  C   UNL A   1      40.985  30.556  29.865  1.00  0.00     0.074 A 
ATOM     21  C   UNL A   1      41.041  31.905  30.388  1.00  0.00     0.031 C 
ATOM     22  C   UNL A   1      46.515  30.051  26.618  1.00  0.00     0.029 A 
ATOM     23  C   UNL A   1      45.494  29.026  26.796  1.00  0.00     0.049 A 
ATOM     24  H   UNL A   1      43.711  29.185  27.866  1.00  0.00     0.167 HD
ATOM     25  C   UNL A   1      39.956  29.693  30.066  1.00  0.00     0.034 A 
ATOM     26  C   UNL A   1      45.554  27.780  26.289  1.00  0.00     0.034 A 
ATOM     27  C   UNL A   1      39.912  28.352  29.528  1.00  0.00     0.049 A 
ATOM     28  C   UNL A   1      44.418  26.829  26.560  1.00  0.00     0.074 A 
ATOM     29  C   UNL A   1      38.902  27.410  29.641  1.00  0.00     0.029 A 
ATOM     30  N   UNL A   1      40.921  27.754  28.782  1.00  0.00    -0.354 N 
ATOM     31  N   UNL A   1      43.309  27.037  27.231  1.00  0.00    -0.248 NA
ATOM     32  C   UNL A   1      44.541  25.480  25.999  1.00  0.00     0.031 C 
ATOM     33  C   UNL A   1      39.334  26.223  29.039  1.00  0.00     0.029 A 
ATOM     34  C   UNL A   1      40.574  26.449  28.462  1.00  0.00     0.049 A 
ATOM     35  H   UNL A   1      41.763  28.194  28.519  1.00  0.00     0.167 HD
ATOM     36  C   UNL A   1      42.585  25.851  27.140  1.00  0.00     0.074 A 
ATOM     37  C   UNL A   1      43.378  24.944  26.335  1.00  0.00     0.031 C 
ATOM     38  C   UNL A   1      41.373  25.544  27.668  1.00  0.00     0.034 A 
BRANCH  25  39
ATOM     39  C   UNL A   1      38.816  30.152  30.950  1.00  0.00     0.023 A 
ATOM     40  C   UNL A   1      37.691  30.820  30.434  1.00  0.00     0.031 A 
ATOM     41  C   UNL A   1      38.862  29.930  32.340  1.00  0.00     0.131 A 
ATOM     42  C   UNL A   1      36.702  31.308  31.304  1.00  0.00     0.055 A 
ATOM     43  C   UNL A   1      37.834  30.342  33.190  1.00  0.00     0.041 A 
ATOM     44  F   UNL A   1      39.917  29.316  32.898  1.00  0.00    -0.206 F 
ATOM     45  C   UNL A   1      36.753  31.050  32.676  1.00  0.00     0.022 A 
BRANCH  42  46
ATOM     46  S   UNL A   1      35.431  32.417  30.638  1.00  0.00     0.124 S 
ATOM     47  O   UNL A   1      35.153  31.804  29.341  1.00  0.00    -0.237 OA
ATOM     48  O   UNL A   1      34.370  32.315  31.633  1.00  0.00    -0.237 OA
ATOM     49  O   UNL A   1      36.105  33.713  30.574  1.00  0.00    -0.744 OA
ENDBRANCH  42  46
ENDBRANCH  25  39
BRANCH  26  50
ATOM     50  C   UNL A   1      46.739  27.348  25.492  1.00  0.00     0.023 A 
ATOM     51  C   UNL A   1      46.946  27.819  24.187  1.00  0.00     0.031 A 
ATOM     52  C   UNL A   1      47.663  26.424  26.014  1.00  0.00     0.131 A 
ATOM     53  C   UNL A   1      48.020  27.331  23.430  1.00  0.00     0.055 A 
ATOM     54  C   UNL A   1      48.766  25.989  25.279  1.00  0.00     0.041 A 
ATOM     55  F   UNL A   1      47.515  25.943  27.259  1.00  0.00    -0.206 F 
ATOM     56  C   UNL A   1      48.941  26.432  23.973  1.00  0.00     0.022 A 
BRANCH  53  57
ATOM     57  S   UNL A   1      48.146  27.816  21.687  1.00  0.00     0.124 S 
ATOM     58  O   UNL A   1      49.280  28.733  21.716  1.00  0.00    -0.237 OA
ATOM     59  O   UNL A   1      48.374  26.532  21.032  1.00  0.00    -0.237 OA
ATOM     60  O   UNL A   1      46.850  28.432  21.412  1.00  0.00    -0.744 OA
ENDBRANCH  53  57
ENDBRANCH  26  50
BRANCH  38  61
ATOM     61  C   UNL A   1      40.806  24.183  27.333  1.00  0.00     0.023 A 
ATOM     62  C   UNL A   1      39.684  24.026  26.500  1.00  0.00     0.031 A 
ATOM     63  C   UNL A   1      41.377  23.026  27.892  1.00  0.00     0.131 A 
ATOM     64  C   UNL A   1      39.125  22.752  26.312  1.00  0.00     0.055 A 
ATOM     65  C   UNL A   1      40.862  21.754  27.642  1.00  0.00     0.041 A 
ATOM     66  F   UNL A   1      42.447  23.113  28.700  1.00  0.00    -0.206 F 
ATOM     67  C   UNL A   1      39.718  21.613  26.862  1.00  0.00     0.022 A 
BRANCH  64  68
ATOM     68  S   UNL A   1      37.538  22.616  25.443  1.00  0.00     0.124 S 
ATOM     69  O   UNL A   1      37.519  21.207  25.064  1.00  0.00    -0.237 OA
ATOM     70  O   UNL A   1      36.583  23.013  26.473  1.00  0.00    -0.237 OA
ATOM     71  O   UNL A   1      37.675  23.555  24.331  1.00  0.00    -0.744 OA
ENDBRANCH  64  68
ENDBRANCH  38  61
ENDBRANCH  12  13
ENDBRANCH   5   7
ENDBRANCH   2   3
ENDBRANCH   1   2
BRANCH   1  72
ATOM     72  C   UNL A   1      47.272  39.299  25.536  1.00  0.00     0.023 C 
BRANCH  72  73
ATOM     73  C   UNL A   1      46.063  40.204  25.347  1.00  0.00     0.116 C 
BRANCH  73  74
ATOM     74  N   UNL A   1      45.850  41.173  26.405  1.00  0.00    -0.352 N 
ATOM     75  C   UNL A   1      44.768  42.014  26.534  1.00  0.00     0.252 C 
ATOM     76  H   UNL A   1      46.546  41.235  27.097  1.00  0.00     0.163 HD
ATOM     77  O   UNL A   1      44.619  42.721  27.525  1.00  0.00    -0.269 OA
BRANCH  75  78
ATOM     78  C   UNL A   1      43.804  42.119  25.418  1.00  0.00     0.050 A 
ATOM     79  C   UNL A   1      42.622  41.376  25.561  1.00  0.00     0.014 A 
ATOM     80  C   UNL A   1      43.999  42.970  24.314  1.00  0.00     0.030 A 
ATOM     81  C   UNL A   1      41.601  41.508  24.624  1.00  0.00     0.001 A 
ATOM     82  C   UNL A   1      42.952  43.097  23.388  1.00  0.00     0.013 A 
ATOM     83  C   UNL A   1      41.761  42.375  23.545  1.00  0.00     0.001 A 
BRANCH  80  84
ATOM     84  C   UNL A   1      45.210  43.765  24.155  1.00  0.00     0.135 A 
ATOM     85  C   UNL A   1      45.735  44.866  24.790  1.00  0.00     0.051 A 
ATOM     86  O   UNL A   1      45.964  43.470  23.059  1.00  0.00    -0.457 OA
ATOM     87  C   UNL A   1      46.804  45.313  23.973  1.00  0.00     0.051 A 
ATOM     88  C   UNL A   1      46.870  44.486  22.855  1.00  0.00     0.128 A 
BRANCH  88  89
ATOM     89  C   UNL A   1      47.695  44.631  21.701  1.00  0.00     0.066 C 
ATOM     90  C   UNL A   1      47.343  45.208  20.533  1.00  0.00     0.106 C 
ATOM     91  C   UNL A   1      46.050  45.854  20.194  1.00  0.00     0.272 C 
ATOM     92  C   UNL A   1      48.303  45.264  19.439  1.00  0.00     0.228 C 
ATOM     93  O   UNL A   1      45.328  46.302  21.078  1.00  0.00    -0.268 OA
ATOM     94  N   UNL A   1      45.769  45.946  18.830  1.00  0.00    -0.226 N 
ATOM     95  N   UNL A   1      48.048  45.491  18.211  1.00  0.00    -0.156 NA
ATOM     96  C   UNL A   1      46.743  45.717  17.837  1.00  0.00     0.358 C 
ATOM     97  O   UNL A   1      46.481  45.745  16.637  1.00  0.00    -0.245 OA
BRANCH  92  98
ATOM     98  O   UNL A   1      49.586  45.088  19.786  1.00  0.00    -0.493 OA
ATOM     99  H   UNL A   1      49.814  44.441  20.422  1.00  0.00     0.295 HD
ENDBRANCH  92  98
BRANCH  94 100
ATOM    100  C   UNL A   1      44.423  46.307  18.439  1.00  0.00     0.055 A 
ATOM    101  C   UNL A   1      44.145  47.574  17.903  1.00  0.00     0.027 A 
ATOM    102  C   UNL A   1      43.368  45.380  18.508  1.00  0.00     0.042 A 
ATOM    103  C   UNL A   1      42.871  47.888  17.414  1.00  0.00     0.003 A 
ATOM    104  C   UNL A   1      42.099  45.696  18.020  1.00  0.00     0.020 A 
ATOM    105  C   UNL A   1      41.847  46.944  17.464  1.00  0.00     0.016 A 
ATOM    106  Br  UNL A   1      40.719  44.405  18.097  1.00  0.00    -0.051 Br
ENDBRANCH  94 100
ENDBRANCH  88  89
ENDBRANCH  80  84
ENDBRANCH  75  78
ENDBRANCH  73  74
ENDBRANCH  72  73
ENDBRANCH   1  72
TORSDOF 18
ENDMDL
MODEL 2
REMARK VINA RESULT:     -12.4      7.727     15.588
REMARK SMILES O=C(NCCCCNC(=O)c1ccccc1-c1ccc(/C=C2\C(=O)N(c3cccc(Br)c3)C(=O)N=C2O)o1)c1ccc(-c2c3nc(c(-c4cc(S(=O)(=O)[O-])ccc4F)c4ccc([nH]4)c(-c4cc(S(=O)(=O)[O-])ccc4F)c4nc(c(-c5cc(S(=O)(=O)[O-])ccc5F)c5ccc2[nH]5)C=C4)C=C3)cc1
REMARK SMILES IDX 5 1 4 2 3 3 1 4 2 5 39 7 40 8 101 9 41 10 100 11 42 12 43 13
REMARK SMILES IDX 44 14 94 15 45 16 99 17 93 18 95 19 46 20 98 21 92 22 91 23
REMARK SMILES IDX 47 25 79 26 59 27 78 28 60 29 63 30 77 31 96 32 61 33 62 34
REMARK SMILES IDX 76 36 97 37 64 38 48 39 49 40 57 41 50 42 56 43 58 44 55 45
REMARK SMILES IDX 51 46 52 47 53 48 54 49 80 50 81 51 89 52 82 53 88 54 90 55
REMARK SMILES IDX 87 56 83 57 84 58 85 59 86 60 65 61 66 62 74 63 67 64 73 65
REMARK SMILES IDX 75 66 72 67 68 68 69 69 70 70 71 71 6 72 7 73 8 74 9 75
REMARK SMILES IDX 10 77 11 78 12 79 16 80 13 81 15 82 14 83 17 84 18 85 38 86
REMARK SMILES IDX 19 87 20 88 21 89 22 90 23 91 36 92 24 93 25 94 35 95 33 96
REMARK SMILES IDX 34 97 37 98 26 100 27 101 32 102 28 103 30 104 29 105 31 106
REMARK H PARENT 3 6 95 24 63 35 8 76 37 99
REMARK Flexibility Score: inf
ROOT
ATOM      1  C   UNL A   1      38.671  20.985  25.069  1.00  0.00     0.023 C 
ENDROOT
BRANCH   1   2
ATOM      2  C   UNL A   1      39.425  20.576  26.330  1.00  0.00     0.116 C 
BRANCH   2   3
ATOM      3  N   UNL A   1      40.334  19.453  26.130  1.00  0.00    -0.352 N 
ATOM      4  O   UNL A   1      42.299  18.362  25.925  1.00  0.00    -0.269 OA
ATOM      5  C   UNL A   1      41.712  19.421  26.132  1.00  0.00     0.251 C 
ATOM      6  H   UNL A   1      39.897  18.586  25.970  1.00  0.00     0.163 HD
BRANCH   5   7
ATOM      7  C   UNL A   1      42.470  20.676  26.345  1.00  0.00     0.039 A 
ATOM      8  C   UNL A   1      42.639  21.184  27.632  1.00  0.00     0.014 A 
ATOM      9  C   UNL A   1      42.945  21.393  25.243  1.00  0.00     0.014 A 
ATOM     10  C   UNL A   1      43.070  22.496  27.799  1.00  0.00     0.010 A 
ATOM     11  C   UNL A   1      43.485  22.674  25.427  1.00  0.00     0.010 A 
ATOM     12  C   UNL A   1      43.494  23.264  26.701  1.00  0.00    -0.014 A 
BRANCH  12  13
ATOM     13  C   UNL A   1      43.931  24.672  26.926  1.00  0.00     0.031 A 
ATOM     14  C   UNL A   1      42.996  25.700  27.517  1.00  0.00     0.074 A 
ATOM     15  C   UNL A   1      45.208  25.011  26.653  1.00  0.00     0.049 A 
ATOM     16  N   UNL A   1      43.230  26.953  27.823  1.00  0.00    -0.248 NA
ATOM     17  C   UNL A   1      41.617  25.269  27.790  1.00  0.00     0.031 C 
ATOM     18  C   UNL A   1      46.211  24.108  26.083  1.00  0.00     0.029 A 
ATOM     19  N   UNL A   1      45.893  26.185  26.842  1.00  0.00    -0.354 N 
ATOM     20  C   UNL A   1      42.028  27.466  28.300  1.00  0.00     0.074 A 
ATOM     21  C   UNL A   1      41.057  26.395  28.208  1.00  0.00     0.031 C 
ATOM     22  C   UNL A   1      47.392  24.738  26.030  1.00  0.00     0.029 A 
ATOM     23  C   UNL A   1      47.219  26.113  26.484  1.00  0.00     0.049 A 
ATOM     24  H   UNL A   1      45.474  27.001  27.201  1.00  0.00     0.167 HD
ATOM     25  C   UNL A   1      41.760  28.709  28.778  1.00  0.00     0.034 A 
ATOM     26  C   UNL A   1      48.187  27.048  26.500  1.00  0.00     0.034 A 
ATOM     27  C   UNL A   1      42.744  29.765  28.874  1.00  0.00     0.049 A 
ATOM     28  C   UNL A   1      47.855  28.430  26.997  1.00  0.00     0.074 A 
ATOM     29  C   UNL A   1      42.588  31.046  29.375  1.00  0.00     0.029 A 
ATOM     30  N   UNL A   1      44.065  29.669  28.451  1.00  0.00    -0.354 N 
ATOM     31  N   UNL A   1      46.717  28.890  27.462  1.00  0.00    -0.248 NA
ATOM     32  C   UNL A   1      48.942  29.415  26.978  1.00  0.00     0.031 C 
ATOM     33  C   UNL A   1      43.783  31.747  29.181  1.00  0.00     0.029 A 
ATOM     34  C   UNL A   1      44.720  30.877  28.647  1.00  0.00     0.049 A 
ATOM     35  H   UNL A   1      44.476  28.860  28.068  1.00  0.00     0.167 HD
ATOM     36  C   UNL A   1      46.963  30.211  27.826  1.00  0.00     0.074 A 
ATOM     37  C   UNL A   1      48.361  30.464  27.541  1.00  0.00     0.031 C 
ATOM     38  C   UNL A   1      46.112  31.128  28.352  1.00  0.00     0.034 A 
BRANCH  25  39
ATOM     39  C   UNL A   1      40.334  29.014  29.185  1.00  0.00     0.023 A 
ATOM     40  C   UNL A   1      39.919  28.995  30.529  1.00  0.00     0.031 A 
ATOM     41  C   UNL A   1      39.367  29.317  28.208  1.00  0.00     0.131 A 
ATOM     42  C   UNL A   1      38.566  29.194  30.850  1.00  0.00     0.055 A 
ATOM     43  C   UNL A   1      38.041  29.599  28.541  1.00  0.00     0.041 A 
ATOM     44  F   UNL A   1      39.694  29.332  26.906  1.00  0.00    -0.206 F 
ATOM     45  C   UNL A   1      37.629  29.523  29.868  1.00  0.00     0.022 A 
BRANCH  42  46
ATOM     46  S   UNL A   1      38.019  28.866  32.548  1.00  0.00     0.124 S 
ATOM     47  O   UNL A   1      38.939  29.697  33.321  1.00  0.00    -0.237 OA
ATOM     48  O   UNL A   1      36.630  29.305  32.522  1.00  0.00    -0.237 OA
ATOM     49  O   UNL A   1      38.218  27.425  32.700  1.00  0.00    -0.744 OA
ENDBRANCH  42  46
ENDBRANCH  25  39
BRANCH  26  50
ATOM     50  C   UNL A   1      49.558  26.721  26.010  1.00  0.00     0.023 A 
ATOM     51  C   UNL A   1      49.990  27.126  24.738  1.00  0.00     0.031 A 
ATOM     52  C   UNL A   1      50.443  25.961  26.796  1.00  0.00     0.131 A 
ATOM     53  C   UNL A   1      51.252  26.730  24.270  1.00  0.00     0.055 A 
ATOM     54  C   UNL A   1      51.722  25.623  26.351  1.00  0.00     0.041 A 
ATOM     55  F   UNL A   1      50.083  25.549  28.022  1.00  0.00    -0.206 F 
ATOM     56  C   UNL A   1      52.127  25.996  25.074  1.00  0.00     0.022 A 
BRANCH  53  57
ATOM     57  S   UNL A   1      51.699  27.109  22.554  1.00  0.00     0.124 S 
ATOM     58  O   UNL A   1      50.466  26.778  21.847  1.00  0.00    -0.237 OA
ATOM     59  O   UNL A   1      52.031  28.528  22.635  1.00  0.00    -0.237 OA
ATOM     60  O   UNL A   1      52.828  26.220  22.293  1.00  0.00    -0.744 OA
ENDBRANCH  53  57
ENDBRANCH  26  50
BRANCH  38  61
ATOM     61  C   UNL A   1      46.696  32.475  28.712  1.00  0.00     0.023 A 
ATOM     62  C   UNL A   1      46.800  33.518  27.776  1.00  0.00     0.031 A 
ATOM     63  C   UNL A   1      47.193  32.702  30.008  1.00  0.00     0.131 A 
ATOM     64  C   UNL A   1      47.453  34.710  28.126  1.00  0.00     0.055 A 
ATOM     65  C   UNL A   1      47.775  33.917  30.372  1.00  0.00     0.041 A 
ATOM     66  F   UNL A   1      47.128  31.742  30.945  1.00  0.00    -0.206 F 
ATOM     67  C   UNL A   1      47.924  34.924  29.423  1.00  0.00     0.022 A 
BRANCH  64  68
ATOM     68  S   UNL A   1      47.793  35.931  26.827  1.00  0.00     0.124 S 
ATOM     69  O   UNL A   1      47.443  35.192  25.617  1.00  0.00    -0.237 OA
ATOM     70  O   UNL A   1      46.898  37.026  27.186  1.00  0.00    -0.237 OA
ATOM     71  O   UNL A   1      49.217  36.217  26.988  1.00  0.00    -0.744 OA
ENDBRANCH  64  68
ENDBRANCH  38  61
ENDBRANCH  12  13
ENDBRANCH   5   7
ENDBRANCH   2   3
ENDBRANCH   1   2
BRANCH   1  72
ATOM     72  C   UNL A   1      37.182  20.660  25.048  1.00  0.00     0.023 C 
BRANCH  72  73
ATOM     73  C   UNL A   1      36.267  21.825  24.695  1.00  0.00     0.116 C 
BRANCH  73  74
ATOM     74  N   UNL A   1      35.351  22.226  25.746  1.00  0.00    -0.352 N 
ATOM     75  C   UNL A   1      34.075  21.749  25.939  1.00  0.00     0.252 C 
ATOM     76  H   UNL A   1      35.674  22.904  26.382  1.00  0.00     0.163 HD
ATOM     77  O   UNL A   1      33.414  22.064  26.924  1.00  0.00    -0.269 OA
BRANCH  75  78
ATOM     78  C   UNL A   1      33.461  20.897  24.898  1.00  0.00     0.050 A 
ATOM     79  C   UNL A   1      33.318  19.540  25.227  1.00  0.00     0.014 A 
ATOM     80  C   UNL A   1      32.967  21.407  23.683  1.00  0.00     0.030 A 
ATOM     81  C   UNL A   1      32.638  18.685  24.365  1.00  0.00     0.001 A 
ATOM     82  C   UNL A   1      32.275  20.529  22.835  1.00  0.00     0.013 A 
ATOM     83  C   UNL A   1      32.109  19.180  23.175  1.00  0.00     0.001 A 
BRANCH  80  84
ATOM     84  C   UNL A   1      33.088  22.815  23.330  1.00  0.00     0.135 A 
ATOM     85  C   UNL A   1      33.440  23.501  22.191  1.00  0.00     0.051 A 
ATOM     86  O   UNL A   1      32.958  23.692  24.366  1.00  0.00    -0.457 OA
ATOM     87  C   UNL A   1      33.628  24.848  22.590  1.00  0.00     0.051 A 
ATOM     88  C   UNL A   1      33.413  24.927  23.963  1.00  0.00     0.128 A 
BRANCH  88  89
ATOM     89  C   UNL A   1      33.618  26.047  24.823  1.00  0.00     0.066 C 
ATOM     90  C   UNL A   1      32.755  27.063  25.033  1.00  0.00     0.106 C 
ATOM     91  C   UNL A   1      31.396  27.231  24.461  1.00  0.00     0.272 C 
ATOM     92  C   UNL A   1      33.123  28.145  25.936  1.00  0.00     0.228 C 
ATOM     93  O   UNL A   1      30.757  26.258  24.078  1.00  0.00    -0.268 OA
ATOM     94  N   UNL A   1      30.912  28.541  24.449  1.00  0.00    -0.226 N 
ATOM     95  N   UNL A   1      32.576  29.294  26.013  1.00  0.00    -0.156 NA
ATOM     96  C   UNL A   1      31.522  29.583  25.177  1.00  0.00     0.358 C 
ATOM     97  O   UNL A   1      31.129  30.745  25.122  1.00  0.00    -0.245 OA
BRANCH  92  98
ATOM     98  O   UNL A   1      34.120  27.872  26.789  1.00  0.00    -0.493 OA
ATOM     99  H   UNL A   1      34.599  27.071  26.710  1.00  0.00     0.295 HD
ENDBRANCH  92  98
BRANCH  94 100
ATOM    100  C   UNL A   1      29.727  28.818  23.666  1.00  0.00     0.055 A 
ATOM    101  C   UNL A   1      28.578  28.022  23.794  1.00  0.00     0.027 A 
ATOM    102  C   UNL A   1      29.658  29.933  22.812  1.00  0.00     0.042 A 
ATOM    103  C   UNL A   1      27.391  28.353  23.128  1.00  0.00     0.003 A 
ATOM    104  C   UNL A   1      28.474  30.260  22.150  1.00  0.00     0.020 A 
ATOM    105  C   UNL A   1      27.336  29.480  22.311  1.00  0.00     0.016 A 
ATOM    106  Br  UNL A   1      28.414  31.793  21.042  1.00  0.00    -0.051 Br
ENDBRANCH  94 100
ENDBRANCH  88  89
ENDBRANCH  80  84
ENDBRANCH  75  78
ENDBRANCH  73  74
ENDBRANCH  72  73
ENDBRANCH   1  72
TORSDOF 18
ENDMDL
MODEL 3
REMARK VINA RESULT:     -12.3      9.685     14.742
REMARK SMILES O=C(NCCCCNC(=O)c1ccccc1-c1ccc(/C=C2\C(=O)N(c3cccc(Br)c3)C(=O)N=C2O)o1)c1ccc(-c2c3nc(c(-c4cc(S(=O)(=O)[O-])ccc4F)c4ccc([nH]4)c(-c4cc(S(=O)(=O)[O-])ccc4F)c4nc(c(-c5cc(S(=O)(=O)[O-])ccc5F)c5ccc2[nH]5)C=C4)C=C3)cc1
REMARK SMILES IDX 5 1 4 2 3 3 1 4 2 5 39 7 40 8 101 9 41 10 100 11 42 12 43 13
REMARK SMILES IDX 44 14 94 15 45 16 99 17 93 18 95 19 46 20 98 21 92 22 91 23
REMARK SMILES IDX 47 25 79 26 59 27 78 28 60 29 63 30 77 31 96 32 61 33 62 34
REMARK SMILES IDX 76 36 97 37 64 38 48 39 49 40 57 41 50 42 56 43 58 44 55 45
REMARK SMILES IDX 51 46 52 47 53 48 54 49 80 50 81 51 89 52 82 53 88 54 90 55
REMARK SMILES IDX 87 56 83 57 84 58 85 59 86 60 65 61 66 62 74 63 67 64 73 65
REMARK SMILES IDX 75 66 72 67 68 68 69 69 70 70 71 71 6 72 7 73 8 74 9 75
REMARK SMILES IDX 10 77 11 78 12 79 16 80 13 81 15 82 14 83 17 84 18 85 38 86
REMARK SMILES IDX 19 87 20 88 21 89 22 90 23 91 36 92 24 93 25 94 35 95 33 96
REMARK SMILES IDX 34 97 37 98 26 100 27 101 32 102 28 103 30 104 29 105 31 106
REMARK H PARENT 3 6 95 24 63 35 8 76 37 99
REMARK Flexibility Score: inf
ROOT
ATOM      1  C   UNL A   1      35.816  33.315  28.447  1.00  0.00     0.023 C 
ENDROOT
BRANCH   1   2
ATOM      2  C   UNL A   1      34.685  32.716  29.276  1.00  0.00     0.116 C 
BRANCH   2   3
ATOM      3  N   UNL A   1      33.771  33.710  29.826  1.00  0.00    -0.352 N 
ATOM      4  O   UNL A   1      32.916  35.165  31.325  1.00  0.00    -0.269 OA
ATOM      5  C   UNL A   1      33.802  34.364  31.039  1.00  0.00     0.251 C 
ATOM      6  H   UNL A   1      33.017  33.952  29.242  1.00  0.00     0.163 HD
BRANCH   5   7
ATOM      7  C   UNL A   1      34.885  34.061  32.003  1.00  0.00     0.039 A 
ATOM      8  C   UNL A   1      35.878  35.004  32.262  1.00  0.00     0.014 A 
ATOM      9  C   UNL A   1      34.956  32.794  32.590  1.00  0.00     0.014 A 
ATOM     10  C   UNL A   1      37.043  34.611  32.914  1.00  0.00     0.010 A 
ATOM     11  C   UNL A   1      36.083  32.438  33.343  1.00  0.00     0.010 A 
ATOM     12  C   UNL A   1      37.168  33.322  33.459  1.00  0.00    -0.014 A 
BRANCH  12  13
ATOM     13  C   UNL A   1      38.442  32.939  34.133  1.00  0.00     0.031 A 
ATOM     14  C   UNL A   1      38.658  33.190  35.606  1.00  0.00     0.074 A 
ATOM     15  C   UNL A   1      39.390  32.297  33.420  1.00  0.00     0.049 A 
ATOM     16  N   UNL A   1      39.685  32.875  36.357  1.00  0.00    -0.248 NA
ATOM     17  C   UNL A   1      37.588  33.896  36.327  1.00  0.00     0.031 C 
ATOM     18  C   UNL A   1      39.300  31.991  31.990  1.00  0.00     0.029 A 
ATOM     19  N   UNL A   1      40.596  31.759  33.795  1.00  0.00    -0.354 N 
ATOM     20  C   UNL A   1      39.398  33.362  37.629  1.00  0.00     0.074 A 
ATOM     21  C   UNL A   1      38.115  34.027  37.536  1.00  0.00     0.031 C 
ATOM     22  C   UNL A   1      40.367  31.267  31.625  1.00  0.00     0.029 A 
ATOM     23  C   UNL A   1      41.258  31.124  32.770  1.00  0.00     0.049 A 
ATOM     24  H   UNL A   1      40.951  31.822  34.711  1.00  0.00     0.167 HD
ATOM     25  C   UNL A   1      40.131  33.258  38.768  1.00  0.00     0.034 A 
ATOM     26  C   UNL A   1      42.456  30.510  32.744  1.00  0.00     0.034 A 
ATOM     27  C   UNL A   1      41.406  32.582  38.847  1.00  0.00     0.049 A 
ATOM     28  C   UNL A   1      43.267  30.443  34.011  1.00  0.00     0.074 A 
ATOM     29  C   UNL A   1      42.212  32.387  39.957  1.00  0.00     0.029 A 
ATOM     30  N   UNL A   1      42.070  31.997  37.775  1.00  0.00    -0.354 N 
ATOM     31  N   UNL A   1      42.969  30.894  35.207  1.00  0.00    -0.248 NA
ATOM     32  C   UNL A   1      44.571  29.777  33.923  1.00  0.00     0.031 C 
ATOM     33  C   UNL A   1      43.393  31.762  39.543  1.00  0.00     0.029 A 
ATOM     34  C   UNL A   1      43.288  31.476  38.191  1.00  0.00     0.049 A 
ATOM     35  H   UNL A   1      41.725  31.958  36.853  1.00  0.00     0.167 HD
ATOM     36  C   UNL A   1      44.037  30.531  36.024  1.00  0.00     0.074 A 
ATOM     37  C   UNL A   1      44.974  29.811  35.184  1.00  0.00     0.031 C 
ATOM     38  C   UNL A   1      44.223  30.767  37.347  1.00  0.00     0.034 A 
BRANCH  25  39
ATOM     39  C   UNL A   1      39.597  33.937  40.013  1.00  0.00     0.023 A 
ATOM     40  C   UNL A   1      39.874  35.284  40.308  1.00  0.00     0.031 A 
ATOM     41  C   UNL A   1      38.807  33.217  40.928  1.00  0.00     0.131 A 
ATOM     42  C   UNL A   1      39.434  35.843  41.519  1.00  0.00     0.055 A 
ATOM     43  C   UNL A   1      38.299  33.804  42.090  1.00  0.00     0.041 A 
ATOM     44  F   UNL A   1      38.522  31.923  40.715  1.00  0.00    -0.206 F 
ATOM     45  C   UNL A   1      38.626  35.121  42.399  1.00  0.00     0.022 A 
BRANCH  42  46
ATOM     46  S   UNL A   1      40.061  37.476  41.999  1.00  0.00     0.124 S 
ATOM     47  O   UNL A   1      41.492  37.333  41.735  1.00  0.00    -0.237 OA
ATOM     48  O   UNL A   1      39.333  38.369  41.106  1.00  0.00    -0.237 OA
ATOM     49  O   UNL A   1      39.705  37.578  43.413  1.00  0.00    -0.744 OA
ENDBRANCH  42  46
ENDBRANCH  25  39
BRANCH  26  50
ATOM     50  C   UNL A   1      42.975  29.928  31.472  1.00  0.00     0.023 A 
ATOM     51  C   UNL A   1      43.598  30.734  30.506  1.00  0.00     0.031 A 
ATOM     52  C   UNL A   1      42.820  28.559  31.187  1.00  0.00     0.131 A 
ATOM     53  C   UNL A   1      43.999  30.176  29.283  1.00  0.00     0.055 A 
ATOM     54  C   UNL A   1      43.277  27.997  29.995  1.00  0.00     0.041 A 
ATOM     55  F   UNL A   1      42.233  27.742  32.077  1.00  0.00    -0.206 F 
ATOM     56  C   UNL A   1      43.857  28.810  29.028  1.00  0.00     0.022 A 
BRANCH  53  57
ATOM     57  S   UNL A   1      44.624  31.281  27.989  1.00  0.00     0.124 S 
ATOM     58  O   UNL A   1      46.063  31.226  28.222  1.00  0.00    -0.237 OA
ATOM     59  O   UNL A   1      44.145  30.626  26.776  1.00  0.00    -0.237 OA
ATOM     60  O   UNL A   1      43.988  32.559  28.297  1.00  0.00    -0.744 OA
ENDBRANCH  53  57
ENDBRANCH  26  50
BRANCH  38  61
ATOM     61  C   UNL A   1      45.465  30.182  37.979  1.00  0.00     0.023 A 
ATOM     62  C   UNL A   1      45.453  28.940  38.638  1.00  0.00     0.031 A 
ATOM     63  C   UNL A   1      46.673  30.902  37.953  1.00  0.00     0.131 A 
ATOM     64  C   UNL A   1      46.603  28.492  39.308  1.00  0.00     0.055 A 
ATOM     65  C   UNL A   1      47.833  30.416  38.557  1.00  0.00     0.041 A 
ATOM     66  F   UNL A   1      46.746  32.096  37.344  1.00  0.00    -0.206 F 
ATOM     67  C   UNL A   1      47.798  29.213  39.256  1.00  0.00     0.022 A 
BRANCH  64  68
ATOM     68  S   UNL A   1      46.481  27.016  40.356  1.00  0.00     0.124 S 
ATOM     69  O   UNL A   1      45.106  26.587  40.117  1.00  0.00    -0.237 OA
ATOM     70  O   UNL A   1      47.522  26.155  39.805  1.00  0.00    -0.237 OA
ATOM     71  O   UNL A   1      46.745  27.526  41.700  1.00  0.00    -0.744 OA
ENDBRANCH  64  68
ENDBRANCH  38  61
ENDBRANCH  12  13
ENDBRANCH   5   7
ENDBRANCH   2   3
ENDBRANCH   1   2
BRANCH   1  72
ATOM     72  C   UNL A   1      37.189  33.338  29.110  1.00  0.00     0.023 C 
BRANCH  72  73
ATOM     73  C   UNL A   1      37.962  32.030  29.048  1.00  0.00     0.116 C 
BRANCH  73  74
ATOM     74  N   UNL A   1      37.359  30.997  28.227  1.00  0.00    -0.352 N 
ATOM     75  C   UNL A   1      37.071  29.710  28.618  1.00  0.00     0.252 C 
ATOM     76  H   UNL A   1      37.133  31.242  27.301  1.00  0.00     0.163 HD
ATOM     77  O   UNL A   1      36.456  28.939  27.888  1.00  0.00    -0.269 OA
BRANCH  75  78
ATOM     78  C   UNL A   1      37.582  29.223  29.918  1.00  0.00     0.050 A 
ATOM     79  C   UNL A   1      36.837  29.601  31.046  1.00  0.00     0.014 A 
ATOM     80  C   UNL A   1      38.692  28.365  30.033  1.00  0.00     0.030 A 
ATOM     81  C   UNL A   1      37.165  29.090  32.297  1.00  0.00     0.001 A 
ATOM     82  C   UNL A   1      38.997  27.852  31.303  1.00  0.00     0.013 A 
ATOM     83  C   UNL A   1      38.237  28.209  32.425  1.00  0.00     0.001 A 
BRANCH  80  84
ATOM     84  C   UNL A   1      39.467  27.945  28.874  1.00  0.00     0.135 A 
ATOM     85  C   UNL A   1      40.000  28.586  27.780  1.00  0.00     0.051 A 
ATOM     86  O   UNL A   1      39.616  26.598  28.726  1.00  0.00    -0.457 OA
ATOM     87  C   UNL A   1      40.399  27.563  26.884  1.00  0.00     0.051 A 
ATOM     88  C   UNL A   1      40.067  26.337  27.452  1.00  0.00     0.128 A 
BRANCH  88  89
ATOM     89  C   UNL A   1      40.155  25.041  26.862  1.00  0.00     0.066 C 
ATOM     90  C   UNL A   1      41.287  24.343  26.631  1.00  0.00     0.106 C 
ATOM     91  C   UNL A   1      42.678  24.734  26.967  1.00  0.00     0.272 C 
ATOM     92  C   UNL A   1      41.207  23.030  26.003  1.00  0.00     0.228 C 
ATOM     93  O   UNL A   1      42.899  25.535  27.869  1.00  0.00    -0.268 OA
ATOM     94  N   UNL A   1      43.673  24.091  26.229  1.00  0.00    -0.226 N 
ATOM     95  N   UNL A   1      42.162  22.389  25.454  1.00  0.00    -0.156 NA
ATOM     96  C   UNL A   1      43.416  22.956  25.433  1.00  0.00     0.358 C 
ATOM     97  O   UNL A   1      44.280  22.425  24.741  1.00  0.00    -0.245 OA
BRANCH  92  98
ATOM     98  O   UNL A   1      40.005  22.440  26.047  1.00  0.00    -0.493 OA
ATOM     99  H   UNL A   1      39.942  21.514  26.170  1.00  0.00     0.295 HD
ENDBRANCH  92  98
BRANCH  94 100
ATOM    100  C   UNL A   1      45.020  24.615  26.307  1.00  0.00     0.055 A 
ATOM    101  C   UNL A   1      45.964  24.047  27.176  1.00  0.00     0.027 A 
ATOM    102  C   UNL A   1      45.451  25.655  25.464  1.00  0.00     0.042 A 
ATOM    103  C   UNL A   1      47.299  24.472  27.172  1.00  0.00     0.003 A 
ATOM    104  C   UNL A   1      46.781  26.076  25.462  1.00  0.00     0.020 A 
ATOM    105  C   UNL A   1      47.711  25.483  26.306  1.00  0.00     0.016 A 
ATOM    106  Br  UNL A   1      47.325  27.452  24.283  1.00  0.00    -0.051 Br
ENDBRANCH  94 100
ENDBRANCH  88  89
ENDBRANCH  80  84
ENDBRANCH  75  78
ENDBRANCH  73  74
ENDBRANCH  72  73
ENDBRANCH   1  72
TORSDOF 18
ENDMDL
