MODEL 1
REMARK VINA RESULT:     -10.2      0.000      0.000
REMARK SMILES C#CCNC(=O)C[N@@H+](CC(=O)NCCCCNC(=O)c1ccc(-c2c3nc(c(-c4cc(S(=O)(=O)[O-])ccc4F)c4ccc([nH]4)c(-c4cc(S(=O)(=O)[O-])ccc4F)c4nc(c(-c5cc(S(=O)(=O)[O-])ccc5F)c5ccc2[nH]5)C=C4)C=C3)cc1)C(C)(C)C
REMARK SMILES IDX 13 1 12 2 10 3 11 4 9 6 8 7 7 9 5 10 4 11 6 13 3 14 2 15
REMARK SMILES IDX 1 16 83 17 84 18 85 19 86 20 14 21 15 22 16 23 17 24 18 25
REMARK SMILES IDX 19 27 20 28 21 29 82 30 22 31 81 32 23 33 24 34 25 35 75 36
REMARK SMILES IDX 26 37 80 38 74 39 76 40 27 41 79 42 73 43 72 44 28 46 60 47
REMARK SMILES IDX 40 48 59 49 41 50 44 51 58 52 77 53 42 54 43 55 57 57 78 58
REMARK SMILES IDX 45 59 29 60 30 61 38 62 31 63 37 64 39 65 36 66 32 67 33 68
REMARK SMILES IDX 34 69 35 70 61 71 62 72 70 73 63 74 69 75 71 76 68 77 64 78
REMARK SMILES IDX 65 79 66 80 67 81 46 82 47 83 55 84 48 85 54 86 56 87 53 88
REMARK SMILES IDX 49 89 50 90 51 91 52 92
REMARK H PARENT 12 5 8 8 4 12 17 26 76 45 44 56
REMARK Flexibility Score: inf
ROOT
ATOM      1  C   UNL A   1      33.281  25.797  25.999  1.00  0.00     0.116 C 
ENDROOT
BRANCH   1   2
ATOM      2  N   UNL A   1      31.877  25.691  26.343  1.00  0.00    -0.351 N 
ATOM      3  C   UNL A   1      30.921  24.805  25.936  1.00  0.00     0.275 C 
ATOM      4  O   UNL A   1      29.854  24.812  26.558  1.00  0.00    -0.269 OA
ATOM      5  H   UNL A   1      31.558  26.375  26.976  1.00  0.00     0.163 HD
BRANCH   3   6
ATOM      6  C   UNL A   1      31.162  23.789  24.808  1.00  0.00     0.364 C 
BRANCH   6   7
ATOM      7  N   UNL A   1      32.113  24.171  23.717  1.00  0.00    -0.315 N 
ATOM      8  H   UNL A   1      32.843  24.715  24.178  1.00  0.00     0.349 HD
BRANCH   7   9
ATOM      9  C   UNL A   1      31.460  25.052  22.734  1.00  0.00     0.364 C 
BRANCH   9  10
ATOM     10  C   UNL A   1      32.024  26.446  22.510  1.00  0.00     0.275 C 
ATOM     11  N   UNL A   1      31.216  27.532  22.598  1.00  0.00    -0.340 N 
ATOM     12  H   UNL A   1      31.544  28.357  22.171  1.00  0.00     0.164 HD
ATOM     13  O   UNL A   1      33.171  26.612  22.089  1.00  0.00    -0.268 OA
BRANCH  11  14
ATOM     14  C   UNL A   1      29.940  27.614  23.243  1.00  0.00     0.206 C 
BRANCH  14  15
ATOM     15  C   UNL A   1      29.584  29.091  23.289  1.00  0.00    -0.085 C 
ATOM     16  C   UNL A   1      29.280  30.359  23.329  1.00  0.00     0.006 C 
ENDBRANCH  14  15
ENDBRANCH  11  14
ENDBRANCH   9  10
ENDBRANCH   7   9
BRANCH   7  17
ATOM     17  C   UNL A   1      32.946  23.075  23.133  1.00  0.00     0.090 C 
ATOM     18  C   UNL A   1      33.154  23.136  21.600  1.00  0.00     0.078 C 
ATOM     19  C   UNL A   1      34.357  23.084  23.770  1.00  0.00     0.078 C 
ATOM     20  C   UNL A   1      32.333  21.698  23.478  1.00  0.00     0.078 C 
ENDBRANCH   7  17
ENDBRANCH   6   7
ENDBRANCH   3   6
ENDBRANCH   1   2
BRANCH   1  21
ATOM     21  C   UNL A   1      33.688  27.232  25.667  1.00  0.00     0.023 C 
BRANCH  21  22
ATOM     22  C   UNL A   1      32.601  28.280  25.741  1.00  0.00     0.023 C 
BRANCH  22  23
ATOM     23  C   UNL A   1      33.033  29.649  25.278  1.00  0.00     0.116 C 
BRANCH  23  24
ATOM     24  N   UNL A   1      32.368  30.744  25.976  1.00  0.00    -0.352 N 
ATOM     25  C   UNL A   1      32.859  31.500  27.025  1.00  0.00     0.251 C 
ATOM     26  H   UNL A   1      31.463  30.972  25.664  1.00  0.00     0.163 HD
ATOM     27  O   UNL A   1      32.174  32.341  27.574  1.00  0.00    -0.269 OA
BRANCH  25  28
ATOM     28  C   UNL A   1      34.233  31.202  27.480  1.00  0.00     0.039 A 
ATOM     29  C   UNL A   1      35.153  32.245  27.602  1.00  0.00     0.014 A 
ATOM     30  C   UNL A   1      34.517  29.929  27.974  1.00  0.00     0.014 A 
ATOM     31  C   UNL A   1      36.335  32.027  28.315  1.00  0.00     0.010 A 
ATOM     32  C   UNL A   1      35.621  29.761  28.793  1.00  0.00     0.010 A 
ATOM     33  C   UNL A   1      36.550  30.802  28.963  1.00  0.00    -0.014 A 
BRANCH  33  34
ATOM     34  C   UNL A   1      37.764  30.523  29.773  1.00  0.00     0.031 A 
ATOM     35  C   UNL A   1      38.828  29.643  29.173  1.00  0.00     0.074 A 
ATOM     36  C   UNL A   1      37.860  30.939  31.051  1.00  0.00     0.049 A 
ATOM     37  N   UNL A   1      39.835  29.041  29.748  1.00  0.00    -0.248 NA
ATOM     38  C   UNL A   1      38.687  29.341  27.738  1.00  0.00     0.031 C 
ATOM     39  C   UNL A   1      36.876  31.761  31.760  1.00  0.00     0.029 A 
ATOM     40  N   UNL A   1      38.832  30.708  31.992  1.00  0.00    -0.354 N 
ATOM     41  C   UNL A   1      40.402  28.241  28.761  1.00  0.00     0.074 A 
ATOM     42  C   UNL A   1      39.580  28.380  27.580  1.00  0.00     0.031 C 
ATOM     43  C   UNL A   1      37.309  31.985  33.012  1.00  0.00     0.029 A 
ATOM     44  C   UNL A   1      38.571  31.281  33.215  1.00  0.00     0.049 A 
ATOM     45  H   UNL A   1      39.644  30.180  31.808  1.00  0.00     0.167 HD
ATOM     46  C   UNL A   1      41.524  27.485  28.825  1.00  0.00     0.034 A 
ATOM     47  C   UNL A   1      39.266  31.227  34.370  1.00  0.00     0.034 A 
ATOM     48  C   UNL A   1      42.367  27.424  29.991  1.00  0.00     0.049 A 
ATOM     49  C   UNL A   1      40.544  30.424  34.407  1.00  0.00     0.074 A 
ATOM     50  C   UNL A   1      43.564  26.753  30.159  1.00  0.00     0.029 A 
ATOM     51  N   UNL A   1      42.106  28.083  31.187  1.00  0.00    -0.354 N 
ATOM     52  N   UNL A   1      41.080  29.684  33.463  1.00  0.00    -0.248 NA
ATOM     53  C   UNL A   1      41.313  30.455  35.659  1.00  0.00     0.031 C 
ATOM     54  C   UNL A   1      44.007  26.974  31.469  1.00  0.00     0.029 A 
ATOM     55  C   UNL A   1      43.117  27.832  32.097  1.00  0.00     0.049 A 
ATOM     56  H   UNL A   1      41.318  28.646  31.360  1.00  0.00     0.167 HD
ATOM     57  C   UNL A   1      42.269  29.196  33.995  1.00  0.00     0.074 A 
ATOM     58  C   UNL A   1      42.371  29.723  35.341  1.00  0.00     0.031 C 
ATOM     59  C   UNL A   1      43.200  28.390  33.425  1.00  0.00     0.034 A 
BRANCH  46  60
ATOM     60  C   UNL A   1      41.879  26.668  27.606  1.00  0.00     0.023 A 
ATOM     61  C   UNL A   1      41.491  25.323  27.481  1.00  0.00     0.031 A 
ATOM     62  C   UNL A   1      42.678  27.217  26.589  1.00  0.00     0.131 A 
ATOM     63  C   UNL A   1      41.991  24.544  26.427  1.00  0.00     0.055 A 
ATOM     64  C   UNL A   1      43.090  26.462  25.488  1.00  0.00     0.041 A 
ATOM     65  F   UNL A   1      43.099  28.491  26.660  1.00  0.00    -0.206 F 
ATOM     66  C   UNL A   1      42.765  25.111  25.413  1.00  0.00     0.022 A 
BRANCH  63  67
ATOM     67  S   UNL A   1      41.763  22.746  26.503  1.00  0.00     0.124 S 
ATOM     68  O   UNL A   1      42.429  22.315  25.277  1.00  0.00    -0.237 OA
ATOM     69  O   UNL A   1      42.431  22.394  27.750  1.00  0.00    -0.237 OA
ATOM     70  O   UNL A   1      40.310  22.585  26.503  1.00  0.00    -0.744 OA
ENDBRANCH  63  67
ENDBRANCH  46  60
BRANCH  47  71
ATOM     71  C   UNL A   1      38.783  31.948  35.582  1.00  0.00     0.023 A 
ATOM     72  C   UNL A   1      38.205  31.247  36.653  1.00  0.00     0.031 A 
ATOM     73  C   UNL A   1      38.857  33.349  35.675  1.00  0.00     0.131 A 
ATOM     74  C   UNL A   1      37.681  31.949  37.751  1.00  0.00     0.055 A 
ATOM     75  C   UNL A   1      38.376  34.040  36.790  1.00  0.00     0.041 A 
ATOM     76  F   UNL A   1      39.408  34.067  34.685  1.00  0.00    -0.206 F 
ATOM     77  C   UNL A   1      37.773  33.340  37.831  1.00  0.00     0.022 A 
BRANCH  74  78
ATOM     78  S   UNL A   1      36.808  31.019  39.039  1.00  0.00     0.124 S 
ATOM     79  O   UNL A   1      35.577  31.789  39.180  1.00  0.00    -0.237 OA
ATOM     80  O   UNL A   1      36.674  29.702  38.424  1.00  0.00    -0.237 OA
ATOM     81  O   UNL A   1      37.717  31.082  40.181  1.00  0.00    -0.744 OA
ENDBRANCH  74  78
ENDBRANCH  47  71
BRANCH  59  82
ATOM     82  C   UNL A   1      44.442  28.099  34.223  1.00  0.00     0.023 A 
ATOM     83  C   UNL A   1      44.545  26.970  35.051  1.00  0.00     0.031 A 
ATOM     84  C   UNL A   1      45.551  28.957  34.122  1.00  0.00     0.131 A 
ATOM     85  C   UNL A   1      45.724  26.746  35.777  1.00  0.00     0.055 A 
ATOM     86  C   UNL A   1      46.738  28.705  34.810  1.00  0.00     0.041 A 
ATOM     87  F   UNL A   1      45.501  30.048  33.340  1.00  0.00    -0.206 F 
ATOM     88  C   UNL A   1      46.825  27.598  35.649  1.00  0.00     0.022 A 
BRANCH  85  89
ATOM     89  S   UNL A   1      45.787  25.350  36.931  1.00  0.00     0.124 S 
ATOM     90  O   UNL A   1      46.615  25.883  38.008  1.00  0.00    -0.237 OA
ATOM     91  O   UNL A   1      44.378  25.145  37.252  1.00  0.00    -0.237 OA
ATOM     92  O   UNL A   1      46.403  24.282  36.145  1.00  0.00    -0.744 OA
ENDBRANCH  85  89
ENDBRANCH  59  82
ENDBRANCH  33  34
ENDBRANCH  25  28
ENDBRANCH  23  24
ENDBRANCH  22  23
ENDBRANCH  21  22
ENDBRANCH   1  21
TORSDOF 20
ENDMDL
MODEL 2
REMARK VINA RESULT:     -10.1      5.979     10.765
REMARK SMILES C#CCNC(=O)C[N@@H+](CC(=O)NCCCCNC(=O)c1ccc(-c2c3nc(c(-c4cc(S(=O)(=O)[O-])ccc4F)c4ccc([nH]4)c(-c4cc(S(=O)(=O)[O-])ccc4F)c4nc(c(-c5cc(S(=O)(=O)[O-])ccc5F)c5ccc2[nH]5)C=C4)C=C3)cc1)C(C)(C)C
REMARK SMILES IDX 13 1 12 2 10 3 11 4 9 6 8 7 7 9 5 10 4 11 6 13 3 14 2 15
REMARK SMILES IDX 1 16 83 17 84 18 85 19 86 20 14 21 15 22 16 23 17 24 18 25
REMARK SMILES IDX 19 27 20 28 21 29 82 30 22 31 81 32 23 33 24 34 25 35 75 36
REMARK SMILES IDX 26 37 80 38 74 39 76 40 27 41 79 42 73 43 72 44 28 46 60 47
REMARK SMILES IDX 40 48 59 49 41 50 44 51 58 52 77 53 42 54 43 55 57 57 78 58
REMARK SMILES IDX 45 59 29 60 30 61 38 62 31 63 37 64 39 65 36 66 32 67 33 68
REMARK SMILES IDX 34 69 35 70 61 71 62 72 70 73 63 74 69 75 71 76 68 77 64 78
REMARK SMILES IDX 65 79 66 80 67 81 46 82 47 83 55 84 48 85 54 86 56 87 53 88
REMARK SMILES IDX 49 89 50 90 51 91 52 92
REMARK H PARENT 12 5 8 8 4 12 17 26 76 45 44 56
REMARK Flexibility Score: inf
ROOT
ATOM      1  C   UNL A   1      36.270  23.033  26.008  1.00  0.00     0.116 C 
ENDROOT
BRANCH   1   2
ATOM      2  N   UNL A   1      35.264  22.910  27.044  1.00  0.00    -0.351 N 
ATOM      3  C   UNL A   1      33.958  22.514  26.981  1.00  0.00     0.275 C 
ATOM      4  O   UNL A   1      33.391  22.290  28.056  1.00  0.00    -0.269 OA
ATOM      5  H   UNL A   1      35.574  23.154  27.946  1.00  0.00     0.163 HD
BRANCH   3   6
ATOM      6  C   UNL A   1      33.229  22.281  25.649  1.00  0.00     0.364 C 
BRANCH   6   7
ATOM      7  N   UNL A   1      32.433  23.414  25.082  1.00  0.00    -0.315 N 
ATOM      8  H   UNL A   1      32.701  24.230  25.633  1.00  0.00     0.349 HD
BRANCH   7   9
ATOM      9  C   UNL A   1      30.990  23.198  25.286  1.00  0.00     0.364 C 
BRANCH   9  10
ATOM     10  C   UNL A   1      30.338  23.741  26.547  1.00  0.00     0.275 C 
ATOM     11  N   UNL A   1      30.094  25.070  26.673  1.00  0.00    -0.340 N 
ATOM     12  H   UNL A   1      29.950  25.402  27.589  1.00  0.00     0.164 HD
ATOM     13  O   UNL A   1      30.168  23.026  27.538  1.00  0.00    -0.268 OA
BRANCH  11  14
ATOM     14  C   UNL A   1      30.022  26.041  25.623  1.00  0.00     0.206 C 
BRANCH  14  15
ATOM     15  C   UNL A   1      31.209  26.969  25.825  1.00  0.00    -0.085 C 
ATOM     16  C   UNL A   1      32.228  27.764  25.998  1.00  0.00     0.006 C 
ENDBRANCH  14  15
ENDBRANCH  11  14
ENDBRANCH   9  10
ENDBRANCH   7   9
BRANCH   7  17
ATOM     17  C   UNL A   1      32.816  23.893  23.718  1.00  0.00     0.090 C 
ATOM     18  C   UNL A   1      31.682  24.553  22.897  1.00  0.00     0.078 C 
ATOM     19  C   UNL A   1      33.950  24.941  23.824  1.00  0.00     0.078 C 
ATOM     20  C   UNL A   1      33.393  22.725  22.885  1.00  0.00     0.078 C 
ENDBRANCH   7  17
ENDBRANCH   6   7
ENDBRANCH   3   6
ENDBRANCH   1   2
BRANCH   1  21
ATOM     21  C   UNL A   1      36.975  21.707  25.726  1.00  0.00     0.023 C 
BRANCH  21  22
ATOM     22  C   UNL A   1      38.429  21.785  25.317  1.00  0.00     0.023 C 
BRANCH  22  23
ATOM     23  C   UNL A   1      39.397  21.390  26.404  1.00  0.00     0.116 C 
BRANCH  23  24
ATOM     24  N   UNL A   1      40.043  20.101  26.179  1.00  0.00    -0.352 N 
ATOM     25  C   UNL A   1      41.398  19.832  26.132  1.00  0.00     0.251 C 
ATOM     26  H   UNL A   1      39.442  19.333  26.043  1.00  0.00     0.163 HD
ATOM     27  O   UNL A   1      41.813  18.722  25.859  1.00  0.00    -0.269 OA
BRANCH  25  28
ATOM     28  C   UNL A   1      42.315  20.964  26.375  1.00  0.00     0.039 A 
ATOM     29  C   UNL A   1      42.663  21.801  25.313  1.00  0.00     0.014 A 
ATOM     30  C   UNL A   1      42.645  21.294  27.690  1.00  0.00     0.014 A 
ATOM     31  C   UNL A   1      43.265  23.032  25.587  1.00  0.00     0.010 A 
ATOM     32  C   UNL A   1      43.112  22.569  27.962  1.00  0.00     0.010 A 
ATOM     33  C   UNL A   1      43.441  23.447  26.916  1.00  0.00    -0.014 A 
BRANCH  33  34
ATOM     34  C   UNL A   1      44.034  24.762  27.275  1.00  0.00     0.031 A 
ATOM     35  C   UNL A   1      43.126  25.812  27.858  1.00  0.00     0.074 A 
ATOM     36  C   UNL A   1      45.315  25.054  26.976  1.00  0.00     0.049 A 
ATOM     37  N   UNL A   1      43.322  27.094  28.007  1.00  0.00    -0.248 NA
ATOM     38  C   UNL A   1      41.782  25.358  28.256  1.00  0.00     0.031 C 
ATOM     39  C   UNL A   1      46.284  24.136  26.371  1.00  0.00     0.029 A 
ATOM     40  N   UNL A   1      46.020  26.222  27.125  1.00  0.00    -0.354 N 
ATOM     41  C   UNL A   1      42.107  27.607  28.451  1.00  0.00     0.074 A 
ATOM     42  C   UNL A   1      41.167  26.508  28.471  1.00  0.00     0.031 C 
ATOM     43  C   UNL A   1      47.460  24.770  26.226  1.00  0.00     0.029 A 
ATOM     44  C   UNL A   1      47.319  26.151  26.675  1.00  0.00     0.049 A 
ATOM     45  H   UNL A   1      45.632  27.037  27.520  1.00  0.00     0.167 HD
ATOM     46  C   UNL A   1      41.810  28.871  28.836  1.00  0.00     0.034 A 
ATOM     47  C   UNL A   1      48.276  27.100  26.620  1.00  0.00     0.034 A 
ATOM     48  C   UNL A   1      42.786  29.930  28.879  1.00  0.00     0.049 A 
ATOM     49  C   UNL A   1      47.944  28.489  27.106  1.00  0.00     0.074 A 
ATOM     50  C   UNL A   1      42.630  31.233  29.315  1.00  0.00     0.029 A 
ATOM     51  N   UNL A   1      44.112  29.795  28.486  1.00  0.00    -0.354 N 
ATOM     52  N   UNL A   1      46.796  28.960  27.539  1.00  0.00    -0.248 NA
ATOM     53  C   UNL A   1      49.036  29.473  27.103  1.00  0.00     0.031 C 
ATOM     54  C   UNL A   1      43.851  31.896  29.150  1.00  0.00     0.029 A 
ATOM     55  C   UNL A   1      44.784  30.991  28.668  1.00  0.00     0.049 A 
ATOM     56  H   UNL A   1      44.514  28.969  28.132  1.00  0.00     0.167 HD
ATOM     57  C   UNL A   1      47.040  30.282  27.898  1.00  0.00     0.074 A 
ATOM     58  C   UNL A   1      48.441  30.535  27.630  1.00  0.00     0.031 C 
ATOM     59  C   UNL A   1      46.187  31.204  28.410  1.00  0.00     0.034 A 
BRANCH  46  60
ATOM     60  C   UNL A   1      40.380  29.159  29.225  1.00  0.00     0.023 A 
ATOM     61  C   UNL A   1      39.967  29.160  30.568  1.00  0.00     0.031 A 
ATOM     62  C   UNL A   1      39.402  29.362  28.237  1.00  0.00     0.131 A 
ATOM     63  C   UNL A   1      38.602  29.248  30.882  1.00  0.00     0.055 A 
ATOM     64  C   UNL A   1      38.056  29.550  28.562  1.00  0.00     0.041 A 
ATOM     65  F   UNL A   1      39.729  29.351  26.935  1.00  0.00    -0.206 F 
ATOM     66  C   UNL A   1      37.646  29.471  29.890  1.00  0.00     0.022 A 
BRANCH  63  67
ATOM     67  S   UNL A   1      38.085  28.885  32.582  1.00  0.00     0.124 S 
ATOM     68  O   UNL A   1      38.226  27.431  32.625  1.00  0.00    -0.237 OA
ATOM     69  O   UNL A   1      39.047  29.643  33.374  1.00  0.00    -0.237 OA
ATOM     70  O   UNL A   1      36.709  29.372  32.633  1.00  0.00    -0.744 OA
ENDBRANCH  63  67
ENDBRANCH  46  60
BRANCH  47  71
ATOM     71  C   UNL A   1      49.633  26.780  26.092  1.00  0.00     0.023 A 
ATOM     72  C   UNL A   1      50.010  27.165  24.795  1.00  0.00     0.031 A 
ATOM     73  C   UNL A   1      50.561  26.054  26.859  1.00  0.00     0.131 A 
ATOM     74  C   UNL A   1      51.261  26.785  24.286  1.00  0.00     0.055 A 
ATOM     75  C   UNL A   1      51.823  25.717  26.364  1.00  0.00     0.041 A 
ATOM     76  F   UNL A   1      50.256  25.668  28.108  1.00  0.00    -0.206 F 
ATOM     77  C   UNL A   1      52.175  26.072  25.066  1.00  0.00     0.022 A 
BRANCH  74  78
ATOM     78  S   UNL A   1      51.648  27.170  22.556  1.00  0.00     0.124 S 
ATOM     79  O   UNL A   1      52.067  28.564  22.648  1.00  0.00    -0.237 OA
ATOM     80  O   UNL A   1      52.698  26.202  22.258  1.00  0.00    -0.237 OA
ATOM     81  O   UNL A   1      50.380  26.945  21.866  1.00  0.00    -0.744 OA
ENDBRANCH  74  78
ENDBRANCH  47  71
BRANCH  59  82
ATOM     82  C   UNL A   1      46.766  32.541  28.788  1.00  0.00     0.023 A 
ATOM     83  C   UNL A   1      46.872  33.593  27.863  1.00  0.00     0.031 A 
ATOM     84  C   UNL A   1      47.187  32.769  30.110  1.00  0.00     0.131 A 
ATOM     85  C   UNL A   1      47.422  34.819  28.267  1.00  0.00     0.055 A 
ATOM     86  C   UNL A   1      47.690  34.004  30.517  1.00  0.00     0.041 A 
ATOM     87  F   UNL A   1      47.102  31.794  31.031  1.00  0.00    -0.206 F 
ATOM     88  C   UNL A   1      47.817  35.035  29.591  1.00  0.00     0.022 A 
BRANCH  85  89
ATOM     89  S   UNL A   1      47.661  36.118  27.026  1.00  0.00     0.124 S 
ATOM     90  O   UNL A   1      48.913  35.711  26.396  1.00  0.00    -0.237 OA
ATOM     91  O   UNL A   1      46.463  35.989  26.203  1.00  0.00    -0.237 OA
ATOM     92  O   UNL A   1      47.735  37.343  27.820  1.00  0.00    -0.744 OA
ENDBRANCH  85  89
ENDBRANCH  59  82
ENDBRANCH  33  34
ENDBRANCH  25  28
ENDBRANCH  23  24
ENDBRANCH  22  23
ENDBRANCH  21  22
ENDBRANCH   1  21
TORSDOF 20
ENDMDL
MODEL 3
REMARK VINA RESULT:      -9.9      1.900      8.252
REMARK SMILES C#CCNC(=O)C[N@@H+](CC(=O)NCCCCNC(=O)c1ccc(-c2c3nc(c(-c4cc(S(=O)(=O)[O-])ccc4F)c4ccc([nH]4)c(-c4cc(S(=O)(=O)[O-])ccc4F)c4nc(c(-c5cc(S(=O)(=O)[O-])ccc5F)c5ccc2[nH]5)C=C4)C=C3)cc1)C(C)(C)C
REMARK SMILES IDX 13 1 12 2 10 3 11 4 9 6 8 7 7 9 5 10 4 11 6 13 3 14 2 15
REMARK SMILES IDX 1 16 83 17 84 18 85 19 86 20 14 21 15 22 16 23 17 24 18 25
REMARK SMILES IDX 19 27 20 28 21 29 82 30 22 31 81 32 23 33 24 34 25 35 75 36
REMARK SMILES IDX 26 37 80 38 74 39 76 40 27 41 79 42 73 43 72 44 28 46 60 47
REMARK SMILES IDX 40 48 59 49 41 50 44 51 58 52 77 53 42 54 43 55 57 57 78 58
REMARK SMILES IDX 45 59 29 60 30 61 38 62 31 63 37 64 39 65 36 66 32 67 33 68
REMARK SMILES IDX 34 69 35 70 61 71 62 72 70 73 63 74 69 75 71 76 68 77 64 78
REMARK SMILES IDX 65 79 66 80 67 81 46 82 47 83 55 84 48 85 54 86 56 87 53 88
REMARK SMILES IDX 49 89 50 90 51 91 52 92
REMARK H PARENT 12 5 8 8 4 12 17 26 76 45 44 56
REMARK Flexibility Score: inf
ROOT
ATOM      1  C   UNL A   1      31.048  28.252  22.995  1.00  0.00     0.116 C 
ENDROOT
BRANCH   1   2
ATOM      2  N   UNL A   1      32.210  27.597  22.426  1.00  0.00    -0.351 N 
ATOM      3  C   UNL A   1      32.736  26.357  22.649  1.00  0.00     0.275 C 
ATOM      4  O   UNL A   1      33.608  25.972  21.863  1.00  0.00    -0.269 OA
ATOM      5  H   UNL A   1      32.704  28.139  21.770  1.00  0.00     0.163 HD
BRANCH   3   6
ATOM      6  C   UNL A   1      32.235  25.436  23.772  1.00  0.00     0.364 C 
BRANCH   6   7
ATOM      7  N   UNL A   1      33.059  24.231  24.106  1.00  0.00    -0.315 N 
ATOM      8  H   UNL A   1      33.670  24.095  23.302  1.00  0.00     0.349 HD
BRANCH   7   9
ATOM      9  C   UNL A   1      32.213  23.032  24.225  1.00  0.00     0.364 C 
BRANCH   9  10
ATOM     10  C   UNL A   1      32.466  21.860  23.291  1.00  0.00     0.275 C 
ATOM     11  N   UNL A   1      32.732  20.628  23.795  1.00  0.00    -0.340 N 
ATOM     12  H   UNL A   1      33.166  19.990  23.183  1.00  0.00     0.164 HD
ATOM     13  O   UNL A   1      32.598  22.027  22.076  1.00  0.00    -0.268 OA
BRANCH  11  14
ATOM     14  C   UNL A   1      32.452  20.153  25.117  1.00  0.00     0.206 C 
BRANCH  14  15
ATOM     15  C   UNL A   1      32.810  18.676  25.118  1.00  0.00    -0.085 C 
ATOM     16  C   UNL A   1      33.117  17.409  25.120  1.00  0.00     0.006 C 
ENDBRANCH  14  15
ENDBRANCH  11  14
ENDBRANCH   9  10
ENDBRANCH   7   9
BRANCH   7  17
ATOM     17  C   UNL A   1      34.086  24.392  25.181  1.00  0.00     0.090 C 
ATOM     18  C   UNL A   1      33.907  23.483  26.421  1.00  0.00     0.078 C 
ATOM     19  C   UNL A   1      35.496  24.094  24.615  1.00  0.00     0.078 C 
ATOM     20  C   UNL A   1      34.126  25.860  25.666  1.00  0.00     0.078 C 
ENDBRANCH   7  17
ENDBRANCH   6   7
ENDBRANCH   3   6
ENDBRANCH   1   2
BRANCH   1  21
ATOM     21  C   UNL A   1      31.267  28.655  24.452  1.00  0.00     0.023 C 
BRANCH  21  22
ATOM     22  C   UNL A   1      32.468  29.526  24.743  1.00  0.00     0.023 C 
BRANCH  22  23
ATOM     23  C   UNL A   1      32.699  29.789  26.209  1.00  0.00     0.116 C 
BRANCH  23  24
ATOM     24  N   UNL A   1      32.445  31.169  26.608  1.00  0.00    -0.352 N 
ATOM     25  C   UNL A   1      33.281  32.011  27.320  1.00  0.00     0.251 C 
ATOM     26  H   UNL A   1      31.576  31.546  26.339  1.00  0.00     0.163 HD
ATOM     27  O   UNL A   1      32.920  33.122  27.657  1.00  0.00    -0.269 OA
BRANCH  25  28
ATOM     28  C   UNL A   1      34.606  31.478  27.696  1.00  0.00     0.039 A 
ATOM     29  C   UNL A   1      35.643  32.368  27.983  1.00  0.00     0.014 A 
ATOM     30  C   UNL A   1      34.734  30.114  27.956  1.00  0.00     0.014 A 
ATOM     31  C   UNL A   1      36.786  31.892  28.630  1.00  0.00     0.010 A 
ATOM     32  C   UNL A   1      35.806  29.677  28.718  1.00  0.00     0.010 A 
ATOM     33  C   UNL A   1      36.850  30.555  29.052  1.00  0.00    -0.014 A 
BRANCH  33  34
ATOM     34  C   UNL A   1      38.018  29.998  29.783  1.00  0.00     0.031 A 
ATOM     35  C   UNL A   1      38.237  30.437  31.206  1.00  0.00     0.074 A 
ATOM     36  C   UNL A   1      38.925  29.221  29.159  1.00  0.00     0.049 A 
ATOM     37  N   UNL A   1      39.294  30.316  31.963  1.00  0.00    -0.248 NA
ATOM     38  C   UNL A   1      37.133  31.185  31.831  1.00  0.00     0.031 C 
ATOM     39  C   UNL A   1      38.847  28.761  27.770  1.00  0.00     0.029 A 
ATOM     40  N   UNL A   1      40.108  28.694  29.613  1.00  0.00    -0.354 N 
ATOM     41  C   UNL A   1      39.005  31.028  33.122  1.00  0.00     0.074 A 
ATOM     42  C   UNL A   1      37.708  31.638  32.931  1.00  0.00     0.031 C 
ATOM     43  C   UNL A   1      39.921  28.001  27.496  1.00  0.00     0.029 A 
ATOM     44  C   UNL A   1      40.791  27.962  28.668  1.00  0.00     0.049 A 
ATOM     45  H   UNL A   1      40.438  28.826  30.532  1.00  0.00     0.167 HD
ATOM     46  C   UNL A   1      39.740  31.139  34.255  1.00  0.00     0.034 A 
ATOM     47  C   UNL A   1      41.989  27.347  28.740  1.00  0.00     0.034 A 
ATOM     48  C   UNL A   1      40.995  30.458  34.448  1.00  0.00     0.049 A 
ATOM     49  C   UNL A   1      42.769  27.433  30.029  1.00  0.00     0.074 A 
ATOM     50  C   UNL A   1      41.800  30.432  35.571  1.00  0.00     0.029 A 
ATOM     51  N   UNL A   1      41.615  29.663  33.492  1.00  0.00    -0.354 N 
ATOM     52  N   UNL A   1      42.479  28.097  31.126  1.00  0.00    -0.248 NA
ATOM     53  C   UNL A   1      44.031  26.684  30.094  1.00  0.00     0.031 C 
ATOM     54  C   UNL A   1      42.927  29.653  35.281  1.00  0.00     0.029 A 
ATOM     55  C   UNL A   1      42.793  29.145  33.998  1.00  0.00     0.049 A 
ATOM     56  H   UNL A   1      41.266  29.494  32.587  1.00  0.00     0.167 HD
ATOM     57  C   UNL A   1      43.503  27.811  32.023  1.00  0.00     0.074 A 
ATOM     58  C   UNL A   1      44.417  26.917  31.341  1.00  0.00     0.031 C 
ATOM     59  C   UNL A   1      43.673  28.239  33.299  1.00  0.00     0.034 A 
BRANCH  46  60
ATOM     60  C   UNL A   1      39.201  32.031  35.346  1.00  0.00     0.023 A 
ATOM     61  C   UNL A   1      39.583  33.380  35.453  1.00  0.00     0.031 A 
ATOM     62  C   UNL A   1      38.352  31.510  36.338  1.00  0.00     0.131 A 
ATOM     63  C   UNL A   1      39.209  34.128  36.579  1.00  0.00     0.055 A 
ATOM     64  C   UNL A   1      37.901  32.290  37.406  1.00  0.00     0.041 A 
ATOM     65  F   UNL A   1      37.968  30.224  36.304  1.00  0.00    -0.206 F 
ATOM     66  C   UNL A   1      38.348  33.601  37.543  1.00  0.00     0.022 A 
BRANCH  63  67
ATOM     67  S   UNL A   1      40.014  35.730  36.852  1.00  0.00     0.124 S 
ATOM     68  O   UNL A   1      39.364  36.177  38.082  1.00  0.00    -0.237 OA
ATOM     69  O   UNL A   1      41.420  35.363  36.970  1.00  0.00    -0.237 OA
ATOM     70  O   UNL A   1      39.664  36.496  35.658  1.00  0.00    -0.744 OA
ENDBRANCH  63  67
ENDBRANCH  46  60
BRANCH  47  71
ATOM     71  C   UNL A   1      42.528  26.595  27.571  1.00  0.00     0.023 A 
ATOM     72  C   UNL A   1      42.192  25.246  27.366  1.00  0.00     0.031 A 
ATOM     73  C   UNL A   1      43.415  27.197  26.662  1.00  0.00     0.131 A 
ATOM     74  C   UNL A   1      42.774  24.531  26.307  1.00  0.00     0.055 A 
ATOM     75  C   UNL A   1      43.955  26.495  25.582  1.00  0.00     0.041 A 
ATOM     76  F   UNL A   1      43.763  28.486  26.805  1.00  0.00    -0.206 F 
ATOM     77  C   UNL A   1      43.645  25.150  25.408  1.00  0.00     0.022 A 
BRANCH  74  78
ATOM     78  S   UNL A   1      42.432  22.755  26.169  1.00  0.00     0.124 S 
ATOM     79  O   UNL A   1      43.212  22.215  27.276  1.00  0.00    -0.237 OA
ATOM     80  O   UNL A   1      40.982  22.713  26.324  1.00  0.00    -0.237 OA
ATOM     81  O   UNL A   1      42.925  22.417  24.836  1.00  0.00    -0.744 OA
ENDBRANCH  74  78
ENDBRANCH  47  71
BRANCH  59  82
ATOM     82  C   UNL A   1      44.844  27.683  34.062  1.00  0.00     0.023 A 
ATOM     83  C   UNL A   1      44.749  26.497  34.808  1.00  0.00     0.031 A 
ATOM     84  C   UNL A   1      46.084  28.343  34.012  1.00  0.00     0.131 A 
ATOM     85  C   UNL A   1      45.870  26.023  35.505  1.00  0.00     0.055 A 
ATOM     86  C   UNL A   1      47.208  27.843  34.669  1.00  0.00     0.041 A 
ATOM     87  F   UNL A   1      46.225  29.479  33.309  1.00  0.00    -0.206 F 
ATOM     88  C   UNL A   1      47.102  26.680  35.427  1.00  0.00     0.022 A 
BRANCH  85  89
ATOM     89  S   UNL A   1      45.689  24.558  36.556  1.00  0.00     0.124 S 
ATOM     90  O   UNL A   1      46.077  23.482  35.649  1.00  0.00    -0.237 OA
ATOM     91  O   UNL A   1      46.617  24.838  37.646  1.00  0.00    -0.237 OA
ATOM     92  O   UNL A   1      44.276  24.575  36.929  1.00  0.00    -0.744 OA
ENDBRANCH  85  89
ENDBRANCH  59  82
ENDBRANCH  33  34
ENDBRANCH  25  28
ENDBRANCH  23  24
ENDBRANCH  22  23
ENDBRANCH  21  22
ENDBRANCH   1  21
TORSDOF 20
ENDMDL
