MODEL 1
REMARK VINA RESULT:     -12.5      0.000      0.000
REMARK SMILES O=C(NCCCCNC(=O)[C@H]1C[C@](O)(c2ccccc2Cl)[C@@H](c2ccccc2Cl)O1)c1ccc(-c2c3nc(c(-c4cc(S(=O)(=O)[O-])ccc4F)c4ccc([nH]4)c(-c4cc(S(=O)(=O)[O-])ccc4F)c4nc(c(-c5cc(S(=O)(=O)[O-])ccc5F)c5ccc2[nH]5)C=C4)C=C3)cc1
REMARK SMILES IDX 4 1 3 2 1 3 2 4 31 6 32 7 93 8 33 9 92 10 34 11 35 12 36 13
REMARK SMILES IDX 86 14 37 15 91 16 85 17 87 18 38 19 90 20 84 21 83 22 39 24
REMARK SMILES IDX 71 25 51 26 70 27 52 28 55 29 69 30 88 31 53 32 54 33 68 35
REMARK SMILES IDX 89 36 56 37 40 38 41 39 49 40 42 41 48 42 50 43 47 44 43 45
REMARK SMILES IDX 44 46 45 47 46 48 72 49 73 50 81 51 74 52 80 53 82 54 79 55
REMARK SMILES IDX 75 56 76 57 77 58 78 59 57 60 58 61 66 62 59 63 65 64 67 65
REMARK SMILES IDX 64 66 60 67 61 68 62 69 63 70 5 71 6 72 7 73 8 74 9 75 10 77
REMARK SMILES IDX 11 78 12 79 30 80 13 81 22 82 15 83 16 84 20 85 17 86 19 87
REMARK SMILES IDX 21 88 18 89 14 90 23 92 24 93 28 94 25 95 27 96 29 97 26 98
REMARK H PARENT 3 5 87 23 55 34 8 76 14 91
REMARK Flexibility Score: inf
ROOT
ATOM      1  C   UNL A   1      32.649  31.985  26.899  1.00  0.00     0.116 C 
ENDROOT
BRANCH   1   2
ATOM      2  N   UNL A   1      32.498  33.382  27.270  1.00  0.00    -0.352 N 
ATOM      3  O   UNL A   1      32.889  35.289  28.401  1.00  0.00    -0.269 OA
ATOM      4  C   UNL A   1      33.225  34.130  28.166  1.00  0.00     0.251 C 
ATOM      5  H   UNL A   1      31.768  33.861  26.814  1.00  0.00     0.163 HD
BRANCH   4   6
ATOM      6  C   UNL A   1      34.386  33.538  28.869  1.00  0.00     0.039 A 
ATOM      7  C   UNL A   1      35.694  33.906  28.544  1.00  0.00     0.014 A 
ATOM      8  C   UNL A   1      34.159  32.597  29.879  1.00  0.00     0.014 A 
ATOM      9  C   UNL A   1      36.767  33.231  29.119  1.00  0.00     0.010 A 
ATOM     10  C   UNL A   1      35.241  31.980  30.516  1.00  0.00     0.010 A 
ATOM     11  C   UNL A   1      36.556  32.268  30.119  1.00  0.00    -0.014 A 
BRANCH  11  12
ATOM     12  C   UNL A   1      37.724  31.619  30.771  1.00  0.00     0.031 A 
ATOM     13  C   UNL A   1      38.565  30.609  30.038  1.00  0.00     0.074 A 
ATOM     14  C   UNL A   1      38.034  31.963  32.037  1.00  0.00     0.049 A 
ATOM     15  N   UNL A   1      39.614  29.947  30.457  1.00  0.00    -0.248 NA
ATOM     16  C   UNL A   1      38.169  30.292  28.659  1.00  0.00     0.031 C 
ATOM     17  C   UNL A   1      37.283  32.921  32.853  1.00  0.00     0.029 A 
ATOM     18  N   UNL A   1      39.055  31.560  32.858  1.00  0.00    -0.354 N 
ATOM     19  C   UNL A   1      39.997  29.125  29.403  1.00  0.00     0.074 A 
ATOM     20  C   UNL A   1      39.041  29.348  28.336  1.00  0.00     0.031 C 
ATOM     21  C   UNL A   1      37.887  33.057  34.041  1.00  0.00     0.029 A 
ATOM     22  C   UNL A   1      39.026  32.148  34.101  1.00  0.00     0.049 A 
ATOM     23  H   UNL A   1      39.743  30.911  32.584  1.00  0.00     0.167 HD
ATOM     24  C   UNL A   1      41.051  28.271  29.331  1.00  0.00     0.034 A 
ATOM     25  C   UNL A   1      39.808  31.960  35.180  1.00  0.00     0.034 A 
ATOM     26  C   UNL A   1      41.993  28.063  30.407  1.00  0.00     0.049 A 
ATOM     27  C   UNL A   1      40.947  30.982  35.089  1.00  0.00     0.074 A 
ATOM     28  C   UNL A   1      43.119  27.258  30.424  1.00  0.00     0.029 A 
ATOM     29  N   UNL A   1      41.912  28.652  31.664  1.00  0.00    -0.354 N 
ATOM     30  N   UNL A   1      41.313  30.237  34.072  1.00  0.00    -0.248 NA
ATOM     31  C   UNL A   1      41.780  30.824  36.287  1.00  0.00     0.031 C 
ATOM     32  C   UNL A   1      43.676  27.304  31.708  1.00  0.00     0.029 A 
ATOM     33  C   UNL A   1      42.944  28.199  32.473  1.00  0.00     0.049 A 
ATOM     34  H   UNL A   1      41.222  29.298  31.940  1.00  0.00     0.167 HD
ATOM     35  C   UNL A   1      42.431  29.531  34.505  1.00  0.00     0.074 A 
ATOM     36  C   UNL A   1      42.690  29.959  35.866  1.00  0.00     0.031 C 
ATOM     37  C   UNL A   1      43.178  28.614  33.838  1.00  0.00     0.034 A 
BRANCH  24  38
ATOM     38  C   UNL A   1      41.210  27.466  28.061  1.00  0.00     0.023 A 
ATOM     39  C   UNL A   1      40.884  26.100  28.000  1.00  0.00     0.031 A 
ATOM     40  C   UNL A   1      41.715  28.072  26.895  1.00  0.00     0.131 A 
ATOM     41  C   UNL A   1      41.133  25.370  26.827  1.00  0.00     0.055 A 
ATOM     42  C   UNL A   1      41.888  27.357  25.707  1.00  0.00     0.041 A 
ATOM     43  F   UNL A   1      42.063  29.368  26.894  1.00  0.00    -0.206 F 
ATOM     44  C   UNL A   1      41.611  25.994  25.673  1.00  0.00     0.022 A 
BRANCH  41  45
ATOM     45  S   UNL A   1      40.961  23.564  26.875  1.00  0.00     0.124 S 
ATOM     46  O   UNL A   1      41.373  23.264  28.246  1.00  0.00    -0.237 OA
ATOM     47  O   UNL A   1      39.546  23.374  26.579  1.00  0.00    -0.237 OA
ATOM     48  O   UNL A   1      41.884  23.103  25.841  1.00  0.00    -0.744 OA
ENDBRANCH  41  45
ENDBRANCH  24  38
BRANCH  25  49
ATOM     49  C   UNL A   1      39.511  32.684  36.448  1.00  0.00     0.023 A 
ATOM     50  C   UNL A   1      38.581  32.187  37.373  1.00  0.00     0.031 A 
ATOM     51  C   UNL A   1      40.154  33.901  36.745  1.00  0.00     0.131 A 
ATOM     52  C   UNL A   1      38.295  32.919  38.535  1.00  0.00     0.055 A 
ATOM     53  C   UNL A   1      39.905  34.598  37.927  1.00  0.00     0.041 A 
ATOM     54  F   UNL A   1      41.057  34.417  35.896  1.00  0.00    -0.206 F 
ATOM     55  C   UNL A   1      38.962  34.112  38.826  1.00  0.00     0.022 A 
BRANCH  52  56
ATOM     56  S   UNL A   1      36.984  32.322  39.637  1.00  0.00     0.124 S 
ATOM     57  O   UNL A   1      35.783  32.675  38.889  1.00  0.00    -0.237 OA
ATOM     58  O   UNL A   1      37.290  30.897  39.726  1.00  0.00    -0.237 OA
ATOM     59  O   UNL A   1      37.201  33.081  40.867  1.00  0.00    -0.744 OA
ENDBRANCH  52  56
ENDBRANCH  25  49
BRANCH  37  60
ATOM     60  C   UNL A   1      44.364  28.041  34.573  1.00  0.00     0.023 A 
ATOM     61  C   UNL A   1      44.281  26.827  35.276  1.00  0.00     0.031 A 
ATOM     62  C   UNL A   1      45.587  28.733  34.591  1.00  0.00     0.131 A 
ATOM     63  C   UNL A   1      45.381  26.370  36.016  1.00  0.00     0.055 A 
ATOM     64  C   UNL A   1      46.698  28.245  35.280  1.00  0.00     0.041 A 
ATOM     65  F   UNL A   1      45.722  29.900  33.941  1.00  0.00    -0.206 F 
ATOM     66  C   UNL A   1      46.595  27.063  36.010  1.00  0.00     0.022 A 
BRANCH  63  67
ATOM     67  S   UNL A   1      45.181  24.905  37.066  1.00  0.00     0.124 S 
ATOM     68  O   UNL A   1      44.292  24.073  36.259  1.00  0.00    -0.237 OA
ATOM     69  O   UNL A   1      46.552  24.427  37.201  1.00  0.00    -0.237 OA
ATOM     70  O   UNL A   1      44.587  25.439  38.291  1.00  0.00    -0.744 OA
ENDBRANCH  63  67
ENDBRANCH  37  60
ENDBRANCH  11  12
ENDBRANCH   4   6
ENDBRANCH   1   2
BRANCH   1  71
ATOM     71  C   UNL A   1      31.374  31.346  26.362  1.00  0.00     0.023 C 
BRANCH  71  72
ATOM     72  C   UNL A   1      31.541  30.161  25.411  1.00  0.00     0.023 C 
BRANCH  72  73
ATOM     73  C   UNL A   1      32.799  29.315  25.578  1.00  0.00     0.116 C 
BRANCH  73  74
ATOM     74  N   UNL A   1      33.725  29.388  24.468  1.00  0.00    -0.354 N 
ATOM     75  C   UNL A   1      33.831  28.567  23.384  1.00  0.00     0.249 C 
ATOM     76  H   UNL A   1      34.368  30.132  24.499  1.00  0.00     0.163 HD
ATOM     77  O   UNL A   1      34.441  29.001  22.404  1.00  0.00    -0.272 OA
BRANCH  75  78
ATOM     78  C   UNL A   1      33.238  27.144  23.424  1.00  0.00     0.211 C 
ATOM     79  C   UNL A   1      32.687  26.784  24.795  1.00  0.00     0.085 C 
ATOM     80  O   UNL A   1      32.182  27.048  22.469  1.00  0.00    -0.357 OA
ATOM     81  C   UNL A   1      31.258  26.274  24.579  1.00  0.00     0.124 C 
ATOM     82  C   UNL A   1      30.931  26.747  23.129  1.00  0.00     0.187 C 
BRANCH  81  83
ATOM     83  C   UNL A   1      31.202  24.791  25.013  1.00  0.00     0.005 A 
ATOM     84  C   UNL A   1      30.536  24.548  26.253  1.00  0.00     0.008 A 
ATOM     85  C   UNL A   1      31.723  23.652  24.373  1.00  0.00     0.047 A 
ATOM     86  C   UNL A   1      30.370  23.275  26.801  1.00  0.00     0.001 A 
ATOM     87  C   UNL A   1      31.517  22.363  24.912  1.00  0.00     0.021 A 
ATOM     88  Cl  UNL A   1      32.711  23.651  22.961  1.00  0.00    -0.084 Cl
ATOM     89  C   UNL A   1      30.847  22.172  26.116  1.00  0.00     0.002 A 
ENDBRANCH  81  83
BRANCH  81  90
ATOM     90  O   UNL A   1      30.387  26.933  25.529  1.00  0.00    -0.382 OA
ATOM     91  H   UNL A   1      29.470  26.666  25.365  1.00  0.00     0.212 HD
ENDBRANCH  81  90
BRANCH  82  92
ATOM     92  C   UNL A   1      29.979  27.930  22.933  1.00  0.00     0.003 A 
ATOM     93  C   UNL A   1      30.442  29.152  22.407  1.00  0.00     0.008 A 
ATOM     94  C   UNL A   1      28.604  27.841  23.230  1.00  0.00     0.046 A 
ATOM     95  C   UNL A   1      29.577  30.219  22.149  1.00  0.00     0.000 A 
ATOM     96  C   UNL A   1      27.735  28.908  22.957  1.00  0.00     0.021 A 
ATOM     97  Cl  UNL A   1      27.889  26.437  23.947  1.00  0.00    -0.084 Cl
ATOM     98  C   UNL A   1      28.221  30.092  22.410  1.00  0.00     0.002 A 
ENDBRANCH  82  92
ENDBRANCH  75  78
ENDBRANCH  73  74
ENDBRANCH  72  73
ENDBRANCH  71  72
ENDBRANCH   1  71
TORSDOF 17
ENDMDL
MODEL 2
REMARK VINA RESULT:     -12.5      1.802      2.311
REMARK SMILES O=C(NCCCCNC(=O)[C@H]1C[C@](O)(c2ccccc2Cl)[C@@H](c2ccccc2Cl)O1)c1ccc(-c2c3nc(c(-c4cc(S(=O)(=O)[O-])ccc4F)c4ccc([nH]4)c(-c4cc(S(=O)(=O)[O-])ccc4F)c4nc(c(-c5cc(S(=O)(=O)[O-])ccc5F)c5ccc2[nH]5)C=C4)C=C3)cc1
REMARK SMILES IDX 4 1 3 2 1 3 2 4 31 6 32 7 93 8 33 9 92 10 34 11 35 12 36 13
REMARK SMILES IDX 86 14 37 15 91 16 85 17 87 18 38 19 90 20 84 21 83 22 39 24
REMARK SMILES IDX 71 25 51 26 70 27 52 28 55 29 69 30 88 31 53 32 54 33 68 35
REMARK SMILES IDX 89 36 56 37 40 38 41 39 49 40 42 41 48 42 50 43 47 44 43 45
REMARK SMILES IDX 44 46 45 47 46 48 72 49 73 50 81 51 74 52 80 53 82 54 79 55
REMARK SMILES IDX 75 56 76 57 77 58 78 59 57 60 58 61 66 62 59 63 65 64 67 65
REMARK SMILES IDX 64 66 60 67 61 68 62 69 63 70 5 71 6 72 7 73 8 74 9 75 10 77
REMARK SMILES IDX 11 78 12 79 30 80 13 81 22 82 15 83 16 84 20 85 17 86 19 87
REMARK SMILES IDX 21 88 18 89 14 90 23 92 24 93 28 94 25 95 27 96 29 97 26 98
REMARK H PARENT 3 5 87 23 55 34 8 76 14 91
REMARK Flexibility Score: inf
ROOT
ATOM      1  C   UNL A   1      33.346  33.142  27.187  1.00  0.00     0.116 C 
ENDROOT
BRANCH   1   2
ATOM      2  N   UNL A   1      32.849  34.261  27.970  1.00  0.00    -0.352 N 
ATOM      3  O   UNL A   1      32.672  35.653  29.732  1.00  0.00    -0.269 OA
ATOM      4  C   UNL A   1      33.279  34.731  29.189  1.00  0.00     0.251 C 
ATOM      5  H   UNL A   1      32.094  34.751  27.572  1.00  0.00     0.163 HD
BRANCH   4   6
ATOM      6  C   UNL A   1      34.446  34.116  29.862  1.00  0.00     0.039 A 
ATOM      7  C   UNL A   1      35.751  34.388  29.442  1.00  0.00     0.014 A 
ATOM      8  C   UNL A   1      34.228  33.251  30.940  1.00  0.00     0.014 A 
ATOM      9  C   UNL A   1      36.818  33.686  29.997  1.00  0.00     0.010 A 
ATOM     10  C   UNL A   1      35.311  32.611  31.552  1.00  0.00     0.010 A 
ATOM     11  C   UNL A   1      36.613  32.798  31.065  1.00  0.00    -0.014 A 
BRANCH  11  12
ATOM     12  C   UNL A   1      37.782  32.122  31.691  1.00  0.00     0.031 A 
ATOM     13  C   UNL A   1      38.513  31.015  30.981  1.00  0.00     0.074 A 
ATOM     14  C   UNL A   1      38.191  32.529  32.908  1.00  0.00     0.049 A 
ATOM     15  N   UNL A   1      39.547  30.319  31.382  1.00  0.00    -0.248 NA
ATOM     16  C   UNL A   1      38.012  30.632  29.653  1.00  0.00     0.031 C 
ATOM     17  C   UNL A   1      37.550  33.585  33.698  1.00  0.00     0.029 A 
ATOM     18  N   UNL A   1      39.237  32.119  33.693  1.00  0.00    -0.354 N 
ATOM     19  C   UNL A   1      39.813  29.406  30.367  1.00  0.00     0.074 A 
ATOM     20  C   UNL A   1      38.806  29.616  29.346  1.00  0.00     0.031 C 
ATOM     21  C   UNL A   1      38.236  33.761  34.836  1.00  0.00     0.029 A 
ATOM     22  C   UNL A   1      39.322  32.788  34.891  1.00  0.00     0.049 A 
ATOM     23  H   UNL A   1      39.868  31.411  33.425  1.00  0.00     0.167 HD
ATOM     24  C   UNL A   1      40.809  28.485  30.292  1.00  0.00     0.034 A 
ATOM     25  C   UNL A   1      40.159  32.624  35.933  1.00  0.00     0.034 A 
ATOM     26  C   UNL A   1      41.804  28.290  31.322  1.00  0.00     0.049 A 
ATOM     27  C   UNL A   1      41.231  31.574  35.842  1.00  0.00     0.074 A 
ATOM     28  C   UNL A   1      42.881  27.420  31.329  1.00  0.00     0.029 A 
ATOM     29  N   UNL A   1      41.838  28.965  32.537  1.00  0.00    -0.354 N 
ATOM     30  N   UNL A   1      41.488  30.741  34.860  1.00  0.00    -0.248 NA
ATOM     31  C   UNL A   1      42.128  31.443  36.996  1.00  0.00     0.031 C 
ATOM     32  C   UNL A   1      43.520  27.516  32.570  1.00  0.00     0.029 A 
ATOM     33  C   UNL A   1      42.892  28.504  33.313  1.00  0.00     0.049 A 
ATOM     34  H   UNL A   1      41.206  29.670  32.808  1.00  0.00     0.167 HD
ATOM     35  C   UNL A   1      42.588  29.996  35.274  1.00  0.00     0.074 A 
ATOM     36  C   UNL A   1      42.958  30.498  36.583  1.00  0.00     0.031 C 
ATOM     37  C   UNL A   1      43.236  28.993  34.629  1.00  0.00     0.034 A 
BRANCH  24  38
ATOM     38  C   UNL A   1      40.840  27.589  29.075  1.00  0.00     0.023 A 
ATOM     39  C   UNL A   1      41.769  27.775  28.036  1.00  0.00     0.031 A 
ATOM     40  C   UNL A   1      39.912  26.540  28.943  1.00  0.00     0.131 A 
ATOM     41  C   UNL A   1      41.704  26.977  26.883  1.00  0.00     0.055 A 
ATOM     42  C   UNL A   1      39.901  25.699  27.827  1.00  0.00     0.041 A 
ATOM     43  F   UNL A   1      38.987  26.322  29.891  1.00  0.00    -0.206 F 
ATOM     44  C   UNL A   1      40.791  25.925  26.782  1.00  0.00     0.022 A 
BRANCH  41  45
ATOM     45  S   UNL A   1      42.731  27.426  25.457  1.00  0.00     0.124 S 
ATOM     46  O   UNL A   1      43.998  27.769  26.100  1.00  0.00    -0.237 OA
ATOM     47  O   UNL A   1      42.728  26.199  24.668  1.00  0.00    -0.237 OA
ATOM     48  O   UNL A   1      42.019  28.554  24.862  1.00  0.00    -0.744 OA
ENDBRANCH  41  45
ENDBRANCH  24  38
BRANCH  25  49
ATOM     49  C   UNL A   1      39.986  33.448  37.162  1.00  0.00     0.023 A 
ATOM     50  C   UNL A   1      39.319  32.947  38.290  1.00  0.00     0.031 A 
ATOM     51  C   UNL A   1      40.482  34.764  37.218  1.00  0.00     0.131 A 
ATOM     52  C   UNL A   1      39.138  33.767  39.413  1.00  0.00     0.055 A 
ATOM     53  C   UNL A   1      40.345  35.557  38.356  1.00  0.00     0.041 A 
ATOM     54  F   UNL A   1      41.133  35.289  36.167  1.00  0.00    -0.206 F 
ATOM     55  C   UNL A   1      39.659  35.063  39.460  1.00  0.00     0.022 A 
BRANCH  52  56
ATOM     56  S   UNL A   1      38.146  33.139  40.796  1.00  0.00     0.124 S 
ATOM     57  O   UNL A   1      36.808  33.115  40.217  1.00  0.00    -0.237 OA
ATOM     58  O   UNL A   1      38.762  31.839  41.043  1.00  0.00    -0.237 OA
ATOM     59  O   UNL A   1      38.356  34.134  41.845  1.00  0.00    -0.744 OA
ENDBRANCH  52  56
ENDBRANCH  25  49
BRANCH  37  60
ATOM     60  C   UNL A   1      44.431  28.396  35.330  1.00  0.00     0.023 A 
ATOM     61  C   UNL A   1      44.291  27.395  36.306  1.00  0.00     0.031 A 
ATOM     62  C   UNL A   1      45.726  28.857  35.035  1.00  0.00     0.131 A 
ATOM     63  C   UNL A   1      45.420  26.927  36.995  1.00  0.00     0.055 A 
ATOM     64  C   UNL A   1      46.853  28.345  35.681  1.00  0.00     0.041 A 
ATOM     65  F   UNL A   1      45.918  29.815  34.115  1.00  0.00    -0.206 F 
ATOM     66  C   UNL A   1      46.701  27.384  36.678  1.00  0.00     0.022 A 
BRANCH  63  67
ATOM     67  S   UNL A   1      45.184  25.779  38.380  1.00  0.00     0.124 S 
ATOM     68  O   UNL A   1      44.261  26.521  39.234  1.00  0.00    -0.237 OA
ATOM     69  O   UNL A   1      44.633  24.601  37.719  1.00  0.00    -0.237 OA
ATOM     70  O   UNL A   1      46.532  25.612  38.921  1.00  0.00    -0.744 OA
ENDBRANCH  63  67
ENDBRANCH  37  60
ENDBRANCH  11  12
ENDBRANCH   4   6
ENDBRANCH   1   2
BRANCH   1  71
ATOM     71  C   UNL A   1      33.339  31.814  27.932  1.00  0.00     0.023 C 
BRANCH  71  72
ATOM     72  C   UNL A   1      34.479  30.842  27.627  1.00  0.00     0.023 C 
BRANCH  72  73
ATOM     73  C   UNL A   1      34.095  29.392  27.353  1.00  0.00     0.116 C 
BRANCH  73  74
ATOM     74  N   UNL A   1      32.686  29.101  27.522  1.00  0.00    -0.354 N 
ATOM     75  C   UNL A   1      32.029  27.919  27.355  1.00  0.00     0.249 C 
ATOM     76  H   UNL A   1      32.125  29.863  27.795  1.00  0.00     0.163 HD
ATOM     77  O   UNL A   1      30.917  27.812  27.878  1.00  0.00    -0.272 OA
BRANCH  75  78
ATOM     78  C   UNL A   1      32.653  26.793  26.507  1.00  0.00     0.211 C 
ATOM     79  C   UNL A   1      31.800  25.534  26.498  1.00  0.00     0.085 C 
ATOM     80  O   UNL A   1      32.809  27.248  25.163  1.00  0.00    -0.357 OA
ATOM     81  C   UNL A   1      31.604  25.142  25.029  1.00  0.00     0.124 C 
ATOM     82  C   UNL A   1      32.027  26.432  24.260  1.00  0.00     0.187 C 
BRANCH  81  83
ATOM     83  C   UNL A   1      32.275  23.768  24.801  1.00  0.00     0.005 A 
ATOM     84  C   UNL A   1      31.458  22.637  25.107  1.00  0.00     0.008 A 
ATOM     85  C   UNL A   1      33.574  23.470  24.350  1.00  0.00     0.047 A 
ATOM     86  C   UNL A   1      31.882  21.316  24.948  1.00  0.00     0.001 A 
ATOM     87  C   UNL A   1      33.983  22.134  24.156  1.00  0.00     0.021 A 
ATOM     88  Cl  UNL A   1      34.830  24.617  24.065  1.00  0.00    -0.084 Cl
ATOM     89  C   UNL A   1      33.147  21.062  24.451  1.00  0.00     0.002 A 
ENDBRANCH  81  83
BRANCH  81  90
ATOM     90  O   UNL A   1      30.200  24.868  24.811  1.00  0.00    -0.382 OA
ATOM     91  H   UNL A   1      29.962  25.103  23.902  1.00  0.00     0.212 HD
ENDBRANCH  81  90
BRANCH  82  92
ATOM     92  C   UNL A   1      30.942  27.306  23.628  1.00  0.00     0.003 A 
ATOM     93  C   UNL A   1      29.577  27.009  23.807  1.00  0.00     0.008 A 
ATOM     94  C   UNL A   1      31.252  28.458  22.877  1.00  0.00     0.046 A 
ATOM     95  C   UNL A   1      28.569  27.835  23.303  1.00  0.00     0.000 A 
ATOM     96  C   UNL A   1      30.239  29.294  22.385  1.00  0.00     0.021 A 
ATOM     97  Cl  UNL A   1      32.877  28.925  22.506  1.00  0.00    -0.084 Cl
ATOM     98  C   UNL A   1      28.900  28.986  22.604  1.00  0.00     0.002 A 
ENDBRANCH  82  92
ENDBRANCH  75  78
ENDBRANCH  73  74
ENDBRANCH  72  73
ENDBRANCH  71  72
ENDBRANCH   1  71
TORSDOF 17
ENDMDL
MODEL 3
REMARK VINA RESULT:     -12.4      2.132      7.782
REMARK SMILES O=C(NCCCCNC(=O)[C@H]1C[C@](O)(c2ccccc2Cl)[C@@H](c2ccccc2Cl)O1)c1ccc(-c2c3nc(c(-c4cc(S(=O)(=O)[O-])ccc4F)c4ccc([nH]4)c(-c4cc(S(=O)(=O)[O-])ccc4F)c4nc(c(-c5cc(S(=O)(=O)[O-])ccc5F)c5ccc2[nH]5)C=C4)C=C3)cc1
REMARK SMILES IDX 4 1 3 2 1 3 2 4 31 6 32 7 93 8 33 9 92 10 34 11 35 12 36 13
REMARK SMILES IDX 86 14 37 15 91 16 85 17 87 18 38 19 90 20 84 21 83 22 39 24
REMARK SMILES IDX 71 25 51 26 70 27 52 28 55 29 69 30 88 31 53 32 54 33 68 35
REMARK SMILES IDX 89 36 56 37 40 38 41 39 49 40 42 41 48 42 50 43 47 44 43 45
REMARK SMILES IDX 44 46 45 47 46 48 72 49 73 50 81 51 74 52 80 53 82 54 79 55
REMARK SMILES IDX 75 56 76 57 77 58 78 59 57 60 58 61 66 62 59 63 65 64 67 65
REMARK SMILES IDX 64 66 60 67 61 68 62 69 63 70 5 71 6 72 7 73 8 74 9 75 10 77
REMARK SMILES IDX 11 78 12 79 30 80 13 81 22 82 15 83 16 84 20 85 17 86 19 87
REMARK SMILES IDX 21 88 18 89 14 90 23 92 24 93 28 94 25 95 27 96 29 97 26 98
REMARK H PARENT 3 5 87 23 55 34 8 76 14 91
REMARK Flexibility Score: inf
ROOT
ATOM      1  C   UNL A   1      33.769  33.881  27.872  1.00  0.00     0.116 C 
ENDROOT
BRANCH   1   2
ATOM      2  N   UNL A   1      33.109  34.598  28.950  1.00  0.00    -0.352 N 
ATOM      3  O   UNL A   1      32.703  35.269  31.061  1.00  0.00    -0.269 OA
ATOM      4  C   UNL A   1      33.439  34.664  30.284  1.00  0.00     0.251 C 
ATOM      5  H   UNL A   1      32.310  35.110  28.688  1.00  0.00     0.163 HD
BRANCH   4   6
ATOM      6  C   UNL A   1      34.655  33.986  30.791  1.00  0.00     0.039 A 
ATOM      7  C   UNL A   1      35.931  34.477  30.503  1.00  0.00     0.014 A 
ATOM      8  C   UNL A   1      34.512  32.836  31.575  1.00  0.00     0.014 A 
ATOM      9  C   UNL A   1      37.055  33.742  30.869  1.00  0.00     0.010 A 
ATOM     10  C   UNL A   1      35.646  32.145  32.014  1.00  0.00     0.010 A 
ATOM     11  C   UNL A   1      36.928  32.574  31.638  1.00  0.00    -0.014 A 
BRANCH  11  12
ATOM     12  C   UNL A   1      38.151  31.852  32.083  1.00  0.00     0.031 A 
ATOM     13  C   UNL A   1      38.832  32.198  33.379  1.00  0.00     0.074 A 
ATOM     14  C   UNL A   1      38.635  30.861  31.309  1.00  0.00     0.049 A 
ATOM     15  N   UNL A   1      39.905  31.671  33.914  1.00  0.00    -0.248 NA
ATOM     16  C   UNL A   1      38.239  33.284  34.171  1.00  0.00     0.031 C 
ATOM     17  C   UNL A   1      38.065  30.445  30.024  1.00  0.00     0.029 A 
ATOM     18  N   UNL A   1      39.704  30.020  31.483  1.00  0.00    -0.354 N 
ATOM     19  C   UNL A   1      40.127  32.369  35.097  1.00  0.00     0.074 A 
ATOM     20  C   UNL A   1      39.093  33.382  35.180  1.00  0.00     0.031 C 
ATOM     21  C   UNL A   1      38.768  29.410  29.544  1.00  0.00     0.029 A 
ATOM     22  C   UNL A   1      39.878  29.130  30.449  1.00  0.00     0.049 A 
ATOM     23  H   UNL A   1      40.291  30.051  32.273  1.00  0.00     0.167 HD
ATOM     24  C   UNL A   1      41.097  32.175  36.028  1.00  0.00     0.034 A 
ATOM     25  C   UNL A   1      40.836  28.209  30.234  1.00  0.00     0.034 A 
ATOM     26  C   UNL A   1      42.119  31.159  35.925  1.00  0.00     0.049 A 
ATOM     27  C   UNL A   1      41.920  28.038  31.261  1.00  0.00     0.074 A 
ATOM     28  C   UNL A   1      43.120  30.848  36.830  1.00  0.00     0.029 A 
ATOM     29  N   UNL A   1      42.283  30.297  34.847  1.00  0.00    -0.354 N 
ATOM     30  N   UNL A   1      42.096  28.685  32.390  1.00  0.00    -0.248 NA
ATOM     31  C   UNL A   1      42.932  27.011  30.989  1.00  0.00     0.031 C 
ATOM     32  C   UNL A   1      43.929  29.852  36.270  1.00  0.00     0.029 A 
ATOM     33  C   UNL A   1      43.388  29.482  35.047  1.00  0.00     0.049 A 
ATOM     34  H   UNL A   1      41.698  30.268  34.055  1.00  0.00     0.167 HD
ATOM     35  C   UNL A   1      43.232  28.132  32.970  1.00  0.00     0.074 A 
ATOM     36  C   UNL A   1      43.684  27.082  32.077  1.00  0.00     0.031 C 
ATOM     37  C   UNL A   1      43.845  28.457  34.137  1.00  0.00     0.034 A 
BRANCH  24  38
ATOM     38  C   UNL A   1      41.123  33.114  37.213  1.00  0.00     0.023 A 
ATOM     39  C   UNL A   1      40.478  32.804  38.423  1.00  0.00     0.031 A 
ATOM     40  C   UNL A   1      41.789  34.350  37.124  1.00  0.00     0.131 A 
ATOM     41  C   UNL A   1      40.451  33.743  39.466  1.00  0.00     0.055 A 
ATOM     42  C   UNL A   1      41.825  35.249  38.193  1.00  0.00     0.041 A 
ATOM     43  F   UNL A   1      42.408  34.713  35.990  1.00  0.00    -0.206 F 
ATOM     44  C   UNL A   1      41.139  34.954  39.367  1.00  0.00     0.022 A 
BRANCH  41  45
ATOM     45  S   UNL A   1      39.381  33.422  40.896  1.00  0.00     0.124 S 
ATOM     46  O   UNL A   1      38.062  33.755  40.360  1.00  0.00    -0.237 OA
ATOM     47  O   UNL A   1      39.624  32.008  41.160  1.00  0.00    -0.237 OA
ATOM     48  O   UNL A   1      39.881  34.343  41.913  1.00  0.00    -0.744 OA
ENDBRANCH  41  45
ENDBRANCH  24  38
BRANCH  25  49
ATOM     49  C   UNL A   1      40.830  27.410  28.976  1.00  0.00     0.023 A 
ATOM     50  C   UNL A   1      41.765  27.646  27.957  1.00  0.00     0.031 A 
ATOM     51  C   UNL A   1      39.871  26.401  28.773  1.00  0.00     0.131 A 
ATOM     52  C   UNL A   1      41.702  26.904  26.769  1.00  0.00     0.055 A 
ATOM     53  C   UNL A   1      39.844  25.630  27.611  1.00  0.00     0.041 A 
ATOM     54  F   UNL A   1      38.957  26.132  29.719  1.00  0.00    -0.206 F 
ATOM     55  C   UNL A   1      40.758  25.888  26.594  1.00  0.00     0.022 A 
BRANCH  52  56
ATOM     56  S   UNL A   1      42.832  27.332  25.416  1.00  0.00     0.124 S 
ATOM     57  O   UNL A   1      44.047  27.683  26.143  1.00  0.00    -0.237 OA
ATOM     58  O   UNL A   1      42.877  26.087  24.655  1.00  0.00    -0.237 OA
ATOM     59  O   UNL A   1      42.159  28.444  24.749  1.00  0.00    -0.744 OA
ENDBRANCH  52  56
ENDBRANCH  25  49
BRANCH  37  60
ATOM     60  C   UNL A   1      45.056  27.642  34.518  1.00  0.00     0.023 A 
ATOM     61  C   UNL A   1      44.938  26.426  35.214  1.00  0.00     0.031 A 
ATOM     62  C   UNL A   1      46.346  28.102  34.203  1.00  0.00     0.131 A 
ATOM     63  C   UNL A   1      46.091  25.740  35.624  1.00  0.00     0.055 A 
ATOM     64  C   UNL A   1      47.489  27.385  34.561  1.00  0.00     0.041 A 
ATOM     65  F   UNL A   1      46.518  29.258  33.544  1.00  0.00    -0.206 F 
ATOM     66  C   UNL A   1      47.365  26.204  35.288  1.00  0.00     0.022 A 
BRANCH  63  67
ATOM     67  S   UNL A   1      45.908  24.281  36.685  1.00  0.00     0.124 S 
ATOM     68  O   UNL A   1      47.076  23.487  36.313  1.00  0.00    -0.237 OA
ATOM     69  O   UNL A   1      45.934  24.862  38.023  1.00  0.00    -0.237 OA
ATOM     70  O   UNL A   1      44.621  23.719  36.278  1.00  0.00    -0.744 OA
ENDBRANCH  63  67
ENDBRANCH  37  60
ENDBRANCH  11  12
ENDBRANCH   4   6
ENDBRANCH   1   2
BRANCH   1  71
ATOM     71  C   UNL A   1      33.498  32.381  27.871  1.00  0.00     0.023 C 
BRANCH  71  72
ATOM     72  C   UNL A   1      34.693  31.462  28.123  1.00  0.00     0.023 C 
BRANCH  72  73
ATOM     73  C   UNL A   1      34.585  30.033  27.599  1.00  0.00     0.116 C 
BRANCH  73  74
ATOM     74  N   UNL A   1      33.247  29.481  27.628  1.00  0.00    -0.354 N 
ATOM     75  C   UNL A   1      32.807  28.275  27.170  1.00  0.00     0.249 C 
ATOM     76  H   UNL A   1      32.559  30.057  28.033  1.00  0.00     0.163 HD
ATOM     77  O   UNL A   1      31.724  27.868  27.600  1.00  0.00    -0.272 OA
BRANCH  75  78
ATOM     78  C   UNL A   1      33.628  27.490  26.129  1.00  0.00     0.211 C 
ATOM     79  C   UNL A   1      33.471  25.984  26.283  1.00  0.00     0.085 C 
ATOM     80  O   UNL A   1      33.203  27.860  24.818  1.00  0.00    -0.357 OA
ATOM     81  C   UNL A   1      33.098  25.434  24.901  1.00  0.00     0.124 C 
ATOM     82  C   UNL A   1      32.671  26.713  24.116  1.00  0.00     0.187 C 
BRANCH  81  83
ATOM     83  C   UNL A   1      34.234  24.497  24.431  1.00  0.00     0.005 A 
ATOM     84  C   UNL A   1      35.358  24.422  25.308  1.00  0.00     0.008 A 
ATOM     85  C   UNL A   1      34.327  23.721  23.261  1.00  0.00     0.047 A 
ATOM     86  C   UNL A   1      36.473  23.616  25.064  1.00  0.00     0.001 A 
ATOM     87  C   UNL A   1      35.438  22.879  23.039  1.00  0.00     0.021 A 
ATOM     88  Cl  UNL A   1      33.209  23.736  21.949  1.00  0.00    -0.084 Cl
ATOM     89  C   UNL A   1      36.504  22.825  23.930  1.00  0.00     0.002 A 
ENDBRANCH  81  83
BRANCH  81  90
ATOM     90  O   UNL A   1      31.969  24.541  25.054  1.00  0.00    -0.382 OA
ATOM     91  H   UNL A   1      31.975  23.889  24.336  1.00  0.00     0.212 HD
ENDBRANCH  81  90
BRANCH  82  92
ATOM     92  C   UNL A   1      31.185  26.953  23.844  1.00  0.00     0.003 A 
ATOM     93  C   UNL A   1      30.203  26.102  24.387  1.00  0.00     0.008 A 
ATOM     94  C   UNL A   1      30.731  28.046  23.078  1.00  0.00     0.046 A 
ATOM     95  C   UNL A   1      28.837  26.346  24.214  1.00  0.00     0.000 A 
ATOM     96  C   UNL A   1      29.360  28.297  22.918  1.00  0.00     0.021 A 
ATOM     97  Cl  UNL A   1      31.808  29.145  22.284  1.00  0.00    -0.084 Cl
ATOM     98  C   UNL A   1      28.415  27.452  23.492  1.00  0.00     0.002 A 
ENDBRANCH  82  92
ENDBRANCH  75  78
ENDBRANCH  73  74
ENDBRANCH  72  73
ENDBRANCH  71  72
ENDBRANCH   1  71
TORSDOF 17
ENDMDL
