MODEL 1
REMARK VINA RESULT:     -11.0      0.000      0.000
REMARK SMILES O=C(CC[N@H+]1CCC[C@H](c2nccn2Cc2cscn2)C1)NCCCCNC(=O)c1ccc(-c2c3nc(c(-c4cc(S(=O)(=O)[O-])ccc4F)c4ccc([nH]4)c(-c4cc(S(=O)(=O)[O-])ccc4F)c4nc(c(-c5cc(S(=O)(=O)[O-])ccc5F)c5ccc2[nH]5)C=C4)C=C3)cc1
REMARK SMILES IDX 23 1 22 2 1 3 2 4 3 6 4 7 5 8 6 9 21 10 7 12 9 13 8 14 10 15
REMARK SMILES IDX 11 16 14 17 12 18 13 19 15 20 16 21 17 22 20 23 18 24 19 25
REMARK SMILES IDX 24 26 25 27 26 28 27 29 28 30 29 32 30 33 31 34 92 35 32 36
REMARK SMILES IDX 91 37 33 38 34 39 35 40 85 41 36 42 90 43 84 44 86 45 37 46
REMARK SMILES IDX 89 47 83 48 82 49 38 51 70 52 50 53 69 54 51 55 54 56 68 57
REMARK SMILES IDX 87 58 52 59 53 60 67 62 88 63 55 64 39 65 40 66 48 67 41 68
REMARK SMILES IDX 47 69 49 70 46 71 42 72 43 73 44 74 45 75 71 76 72 77 80 78
REMARK SMILES IDX 73 79 79 80 81 81 78 82 74 83 75 84 76 85 77 86 56 87 57 88
REMARK SMILES IDX 65 89 58 90 64 91 66 92 63 93 59 94 60 95 61 96 62 97
REMARK H PARENT 22 5 5 11 27 31 86 50 54 61
REMARK Flexibility Score: inf
ROOT
ATOM      1  C   UNL A   1      39.041  30.057  33.977  1.00  0.00     0.116 C 
ENDROOT
BRANCH   1   2
ATOM      2  N   UNL A   1      38.060  30.689  34.845  1.00  0.00    -0.356 N 
ATOM      3  O   UNL A   1      39.622  31.743  36.156  1.00  0.00    -0.275 OA
ATOM      4  C   UNL A   1      38.460  31.632  35.777  1.00  0.00     0.225 C 
ATOM      5  H   UNL A   1      37.109  30.446  34.768  1.00  0.00     0.163 HD
BRANCH   4   6
ATOM      6  C   UNL A   1      37.374  32.594  36.235  1.00  0.00     0.161 C 
BRANCH   6   7
ATOM      7  C   UNL A   1      37.655  34.002  35.678  1.00  0.00     0.272 C 
BRANCH   7   8
ATOM      8  N   UNL A   1      37.056  34.378  34.377  1.00  0.00    -0.334 N 
ATOM      9  C   UNL A   1      38.036  34.120  33.298  1.00  0.00     0.262 C 
ATOM     10  C   UNL A   1      35.749  33.796  34.094  1.00  0.00     0.273 C 
ATOM     11  H   UNL A   1      36.852  35.376  34.429  1.00  0.00     0.348 HD
ATOM     12  C   UNL A   1      37.511  34.465  31.908  1.00  0.00     0.062 C 
ATOM     13  C   UNL A   1      35.151  34.131  32.738  1.00  0.00     0.111 C 
ATOM     14  C   UNL A   1      36.178  33.788  31.669  1.00  0.00     0.023 C 
BRANCH  13  15
ATOM     15  C   UNL A   1      34.471  35.454  32.494  1.00  0.00     0.117 A 
ATOM     16  N   UNL A   1      34.877  36.520  33.174  1.00  0.00    -0.241 NA
ATOM     17  N   UNL A   1      33.459  35.820  31.623  1.00  0.00    -0.328 N 
ATOM     18  C   UNL A   1      34.115  37.572  32.775  1.00  0.00     0.131 A 
ATOM     19  C   UNL A   1      33.259  37.178  31.785  1.00  0.00     0.108 A 
BRANCH  17  20
ATOM     20  C   UNL A   1      32.758  35.070  30.589  1.00  0.00     0.180 C 
BRANCH  20  21
ATOM     21  C   UNL A   1      33.670  34.558  29.520  1.00  0.00     0.071 A 
ATOM     22  C   UNL A   1      34.038  33.242  29.294  1.00  0.00     0.092 A 
ATOM     23  N   UNL A   1      34.159  35.446  28.571  1.00  0.00    -0.248 NA
ATOM     24  S   UNL A   1      35.109  33.137  27.960  1.00  0.00    -0.130 S 
ATOM     25  C   UNL A   1      34.983  34.831  27.755  1.00  0.00     0.175 A 
ENDBRANCH  20  21
ENDBRANCH  17  20
ENDBRANCH  13  15
ENDBRANCH   7   8
ENDBRANCH   6   7
ENDBRANCH   4   6
ENDBRANCH   1   2
BRANCH   1  26
ATOM     26  C   UNL A   1      38.506  29.679  32.589  1.00  0.00     0.023 C 
BRANCH  26  27
ATOM     27  C   UNL A   1      37.036  30.024  32.289  1.00  0.00     0.023 C 
BRANCH  27  28
ATOM     28  C   UNL A   1      36.812  30.787  30.985  1.00  0.00     0.116 C 
BRANCH  28  29
ATOM     29  N   UNL A   1      35.943  30.105  30.022  1.00  0.00    -0.352 N 
ATOM     30  C   UNL A   1      36.292  29.470  28.828  1.00  0.00     0.251 C 
ATOM     31  H   UNL A   1      34.985  30.095  30.246  1.00  0.00     0.163 HD
ATOM     32  O   UNL A   1      35.439  29.241  27.989  1.00  0.00    -0.269 OA
BRANCH  30  33
ATOM     33  C   UNL A   1      37.704  29.070  28.600  1.00  0.00     0.039 A 
ATOM     34  C   UNL A   1      38.516  29.619  27.594  1.00  0.00     0.014 A 
ATOM     35  C   UNL A   1      38.215  28.075  29.413  1.00  0.00     0.014 A 
ATOM     36  C   UNL A   1      39.852  29.197  27.475  1.00  0.00     0.010 A 
ATOM     37  C   UNL A   1      39.552  27.813  29.423  1.00  0.00     0.010 A 
ATOM     38  C   UNL A   1      40.364  28.289  28.407  1.00  0.00    -0.014 A 
BRANCH  38  39
ATOM     39  C   UNL A   1      41.745  27.801  28.459  1.00  0.00     0.031 A 
ATOM     40  C   UNL A   1      41.996  26.539  27.706  1.00  0.00     0.074 A 
ATOM     41  C   UNL A   1      42.756  28.632  28.835  1.00  0.00     0.049 A 
ATOM     42  N   UNL A   1      42.496  25.434  28.145  1.00  0.00    -0.248 NA
ATOM     43  C   UNL A   1      41.548  26.448  26.306  1.00  0.00     0.031 C 
ATOM     44  C   UNL A   1      42.645  30.041  29.263  1.00  0.00     0.029 A 
ATOM     45  N   UNL A   1      44.109  28.463  28.780  1.00  0.00    -0.354 N 
ATOM     46  C   UNL A   1      42.646  24.597  27.038  1.00  0.00     0.074 A 
ATOM     47  C   UNL A   1      41.900  25.206  25.976  1.00  0.00     0.031 C 
ATOM     48  C   UNL A   1      43.854  30.642  29.214  1.00  0.00     0.029 A 
ATOM     49  C   UNL A   1      44.858  29.634  28.932  1.00  0.00     0.049 A 
ATOM     50  H   UNL A   1      44.526  27.581  28.644  1.00  0.00     0.167 HD
ATOM     51  C   UNL A   1      43.555  23.583  27.043  1.00  0.00     0.034 A 
ATOM     52  C   UNL A   1      46.210  29.788  28.845  1.00  0.00     0.034 A 
ATOM     53  C   UNL A   1      43.997  23.319  28.395  1.00  0.00     0.049 A 
ATOM     54  C   UNL A   1      46.794  28.441  29.020  1.00  0.00     0.074 A 
ATOM     55  C   UNL A   1      43.371  22.907  29.554  1.00  0.00     0.029 A 
ATOM     56  N   UNL A   1      45.190  23.883  28.789  1.00  0.00    -0.354 N 
ATOM     57  N   UNL A   1      46.703  27.761  30.128  1.00  0.00    -0.248 NA
ATOM     58  C   UNL A   1      47.061  27.648  27.829  1.00  0.00     0.031 C 
ATOM     59  C   UNL A   1      43.983  23.670  30.590  1.00  0.00     0.029 A 
ATOM     60  C   UNL A   1      45.008  24.438  30.030  1.00  0.00     0.049 A 
ATOM     61  H   UNL A   1      46.027  23.887  28.271  1.00  0.00     0.167 HD
ATOM     62  C   UNL A   1      46.447  26.460  29.727  1.00  0.00     0.074 A 
ATOM     63  C   UNL A   1      46.807  26.427  28.310  1.00  0.00     0.031 C 
ATOM     64  C   UNL A   1      45.702  25.621  30.507  1.00  0.00     0.034 A 
BRANCH  51  65
ATOM     65  C   UNL A   1      44.331  23.078  25.842  1.00  0.00     0.023 A 
ATOM     66  C   UNL A   1      44.274  21.691  25.597  1.00  0.00     0.031 A 
ATOM     67  C   UNL A   1      45.325  23.779  25.126  1.00  0.00     0.131 A 
ATOM     68  C   UNL A   1      45.240  21.049  24.805  1.00  0.00     0.055 A 
ATOM     69  C   UNL A   1      46.245  23.144  24.282  1.00  0.00     0.041 A 
ATOM     70  F   UNL A   1      45.525  25.094  25.256  1.00  0.00    -0.206 F 
ATOM     71  C   UNL A   1      46.232  21.766  24.149  1.00  0.00     0.022 A 
BRANCH  68  72
ATOM     72  S   UNL A   1      45.287  19.239  24.820  1.00  0.00     0.124 S 
ATOM     73  O   UNL A   1      46.611  18.984  25.376  1.00  0.00    -0.237 OA
ATOM     74  O   UNL A   1      44.152  18.918  25.679  1.00  0.00    -0.237 OA
ATOM     75  O   UNL A   1      45.123  18.885  23.413  1.00  0.00    -0.744 OA
ENDBRANCH  68  72
ENDBRANCH  51  65
BRANCH  52  76
ATOM     76  C   UNL A   1      46.994  30.958  28.354  1.00  0.00     0.023 A 
ATOM     77  C   UNL A   1      46.517  31.889  27.402  1.00  0.00     0.031 A 
ATOM     78  C   UNL A   1      48.177  31.310  29.044  1.00  0.00     0.131 A 
ATOM     79  C   UNL A   1      47.210  33.106  27.181  1.00  0.00     0.055 A 
ATOM     80  C   UNL A   1      48.854  32.513  28.824  1.00  0.00     0.041 A 
ATOM     81  F   UNL A   1      48.663  30.527  30.021  1.00  0.00    -0.206 F 
ATOM     82  C   UNL A   1      48.369  33.421  27.897  1.00  0.00     0.022 A 
BRANCH  79  83
ATOM     83  S   UNL A   1      46.577  34.351  26.002  1.00  0.00     0.124 S 
ATOM     84  O   UNL A   1      46.200  35.454  26.878  1.00  0.00    -0.237 OA
ATOM     85  O   UNL A   1      47.726  34.574  25.133  1.00  0.00    -0.237 OA
ATOM     86  O   UNL A   1      45.450  33.673  25.358  1.00  0.00    -0.744 OA
ENDBRANCH  79  83
ENDBRANCH  52  76
BRANCH  64  87
ATOM     87  C   UNL A   1      45.419  26.049  31.935  1.00  0.00     0.023 A 
ATOM     88  C   UNL A   1      44.236  26.692  32.374  1.00  0.00     0.031 A 
ATOM     89  C   UNL A   1      46.358  25.675  32.911  1.00  0.00     0.131 A 
ATOM     90  C   UNL A   1      44.038  26.942  33.747  1.00  0.00     0.055 A 
ATOM     91  C   UNL A   1      46.147  25.903  34.269  1.00  0.00     0.041 A 
ATOM     92  F   UNL A   1      47.488  25.039  32.558  1.00  0.00    -0.206 F 
ATOM     93  C   UNL A   1      44.988  26.542  34.692  1.00  0.00     0.022 A 
BRANCH  90  94
ATOM     94  S   UNL A   1      42.545  27.809  34.333  1.00  0.00     0.124 S 
ATOM     95  O   UNL A   1      43.064  29.059  34.875  1.00  0.00    -0.237 OA
ATOM     96  O   UNL A   1      41.745  27.923  33.117  1.00  0.00    -0.237 OA
ATOM     97  O   UNL A   1      41.993  26.895  35.336  1.00  0.00    -0.744 OA
ENDBRANCH  90  94
ENDBRANCH  64  87
ENDBRANCH  38  39
ENDBRANCH  30  33
ENDBRANCH  28  29
ENDBRANCH  27  28
ENDBRANCH  26  27
ENDBRANCH   1  26
TORSDOF 19
ENDMDL
MODEL 2
REMARK VINA RESULT:     -10.7      4.940     11.851
REMARK SMILES O=C(CC[N@H+]1CCC[C@H](c2nccn2Cc2cscn2)C1)NCCCCNC(=O)c1ccc(-c2c3nc(c(-c4cc(S(=O)(=O)[O-])ccc4F)c4ccc([nH]4)c(-c4cc(S(=O)(=O)[O-])ccc4F)c4nc(c(-c5cc(S(=O)(=O)[O-])ccc5F)c5ccc2[nH]5)C=C4)C=C3)cc1
REMARK SMILES IDX 23 1 22 2 1 3 2 4 3 6 4 7 5 8 6 9 21 10 7 12 9 13 8 14 10 15
REMARK SMILES IDX 11 16 14 17 12 18 13 19 15 20 16 21 17 22 20 23 18 24 19 25
REMARK SMILES IDX 24 26 25 27 26 28 27 29 28 30 29 32 30 33 31 34 92 35 32 36
REMARK SMILES IDX 91 37 33 38 34 39 35 40 85 41 36 42 90 43 84 44 86 45 37 46
REMARK SMILES IDX 89 47 83 48 82 49 38 51 70 52 50 53 69 54 51 55 54 56 68 57
REMARK SMILES IDX 87 58 52 59 53 60 67 62 88 63 55 64 39 65 40 66 48 67 41 68
REMARK SMILES IDX 47 69 49 70 46 71 42 72 43 73 44 74 45 75 71 76 72 77 80 78
REMARK SMILES IDX 73 79 79 80 81 81 78 82 74 83 75 84 76 85 77 86 56 87 57 88
REMARK SMILES IDX 65 89 58 90 64 91 66 92 63 93 59 94 60 95 61 96 62 97
REMARK H PARENT 22 5 5 11 27 31 86 50 54 61
REMARK Flexibility Score: inf
ROOT
ATOM      1  C   UNL A   1      40.896  20.783  26.877  1.00  0.00     0.116 C 
ENDROOT
BRANCH   1   2
ATOM      2  N   UNL A   1      39.944  21.348  25.935  1.00  0.00    -0.356 N 
ATOM      3  O   UNL A   1      39.016  19.326  25.370  1.00  0.00    -0.275 OA
ATOM      4  C   UNL A   1      38.956  20.552  25.380  1.00  0.00     0.225 C 
ATOM      5  H   UNL A   1      40.002  22.300  25.691  1.00  0.00     0.163 HD
BRANCH   4   6
ATOM      6  C   UNL A   1      37.734  21.297  24.865  1.00  0.00     0.161 C 
BRANCH   6   7
ATOM      7  C   UNL A   1      36.455  20.668  25.449  1.00  0.00     0.272 C 
BRANCH   7   8
ATOM      8  N   UNL A   1      35.145  21.220  25.037  1.00  0.00    -0.334 N 
ATOM      9  C   UNL A   1      34.189  20.108  24.842  1.00  0.00     0.262 C 
ATOM     10  C   UNL A   1      34.609  22.274  25.891  1.00  0.00     0.273 C 
ATOM     11  H   UNL A   1      35.300  21.705  24.152  1.00  0.00     0.348 HD
ATOM     12  C   UNL A   1      32.797  20.573  24.424  1.00  0.00     0.062 C 
ATOM     13  C   UNL A   1      33.240  22.808  25.508  1.00  0.00     0.111 C 
ATOM     14  C   UNL A   1      32.288  21.629  25.383  1.00  0.00     0.023 C 
BRANCH  13  15
ATOM     15  C   UNL A   1      33.081  23.811  24.393  1.00  0.00     0.117 A 
ATOM     16  N   UNL A   1      33.745  23.621  23.259  1.00  0.00    -0.241 NA
ATOM     17  N   UNL A   1      32.306  24.953  24.289  1.00  0.00    -0.328 N 
ATOM     18  C   UNL A   1      33.432  24.649  22.428  1.00  0.00     0.131 A 
ATOM     19  C   UNL A   1      32.511  25.465  23.021  1.00  0.00     0.108 A 
BRANCH  17  20
ATOM     20  C   UNL A   1      31.320  25.537  25.189  1.00  0.00     0.180 C 
BRANCH  20  21
ATOM     21  C   UNL A   1      31.881  26.635  26.037  1.00  0.00     0.071 A 
ATOM     22  C   UNL A   1      33.137  27.210  25.936  1.00  0.00     0.092 A 
ATOM     23  N   UNL A   1      31.064  27.237  26.984  1.00  0.00    -0.248 NA
ATOM     24  S   UNL A   1      33.338  28.427  27.126  1.00  0.00    -0.130 S 
ATOM     25  C   UNL A   1      31.741  28.131  27.666  1.00  0.00     0.175 A 
ENDBRANCH  20  21
ENDBRANCH  17  20
ENDBRANCH  13  15
ENDBRANCH   7   8
ENDBRANCH   6   7
ENDBRANCH   4   6
ENDBRANCH   1   2
BRANCH   1  26
ATOM     26  C   UNL A   1      41.578  21.817  27.784  1.00  0.00     0.023 C 
BRANCH  26  27
ATOM     27  C   UNL A   1      42.687  22.678  27.152  1.00  0.00     0.023 C 
BRANCH  27  28
ATOM     28  C   UNL A   1      42.218  24.025  26.608  1.00  0.00     0.116 C 
BRANCH  28  29
ATOM     29  N   UNL A   1      40.852  24.028  26.078  1.00  0.00    -0.352 N 
ATOM     30  C   UNL A   1      39.760  24.799  26.480  1.00  0.00     0.251 C 
ATOM     31  H   UNL A   1      40.682  23.401  25.339  1.00  0.00     0.163 HD
ATOM     32  O   UNL A   1      38.631  24.463  26.171  1.00  0.00    -0.269 OA
BRANCH  30  33
ATOM     33  C   UNL A   1      39.992  26.033  27.273  1.00  0.00     0.039 A 
ATOM     34  C   UNL A   1      40.500  27.224  26.730  1.00  0.00     0.014 A 
ATOM     35  C   UNL A   1      39.718  25.971  28.627  1.00  0.00     0.014 A 
ATOM     36  C   UNL A   1      40.657  28.352  27.556  1.00  0.00     0.010 A 
ATOM     37  C   UNL A   1      39.685  27.110  29.376  1.00  0.00     0.010 A 
ATOM     38  C   UNL A   1      40.237  28.282  28.889  1.00  0.00    -0.014 A 
BRANCH  38  39
ATOM     39  C   UNL A   1      40.274  29.381  29.857  1.00  0.00     0.031 A 
ATOM     40  C   UNL A   1      38.991  30.124  30.016  1.00  0.00     0.074 A 
ATOM     41  C   UNL A   1      41.268  29.448  30.785  1.00  0.00     0.049 A 
ATOM     42  N   UNL A   1      38.780  31.389  29.881  1.00  0.00    -0.248 NA
ATOM     43  C   UNL A   1      37.756  29.361  30.260  1.00  0.00     0.031 C 
ATOM     44  C   UNL A   1      42.414  28.530  30.938  1.00  0.00     0.029 A 
ATOM     45  N   UNL A   1      41.405  30.251  31.880  1.00  0.00    -0.354 N 
ATOM     46  C   UNL A   1      37.454  31.615  30.252  1.00  0.00     0.074 A 
ATOM     47  C   UNL A   1      36.835  30.323  30.313  1.00  0.00     0.031 C 
ATOM     48  C   UNL A   1      42.983  28.690  32.154  1.00  0.00     0.029 A 
ATOM     49  C   UNL A   1      42.373  29.836  32.801  1.00  0.00     0.049 A 
ATOM     50  H   UNL A   1      40.862  31.063  32.012  1.00  0.00     0.167 HD
ATOM     51  C   UNL A   1      37.044  32.839  30.686  1.00  0.00     0.034 A 
ATOM     52  C   UNL A   1      42.676  30.384  34.011  1.00  0.00     0.034 A 
ATOM     53  C   UNL A   1      38.031  33.841  30.347  1.00  0.00     0.049 A 
ATOM     54  C   UNL A   1      42.134  31.760  33.991  1.00  0.00     0.074 A 
ATOM     55  C   UNL A   1      38.559  34.318  29.163  1.00  0.00     0.029 A 
ATOM     56  N   UNL A   1      38.919  34.209  31.333  1.00  0.00    -0.354 N 
ATOM     57  N   UNL A   1      42.574  32.691  33.192  1.00  0.00    -0.248 NA
ATOM     58  C   UNL A   1      40.792  31.978  34.513  1.00  0.00     0.031 C 
ATOM     59  C   UNL A   1      39.945  34.512  29.434  1.00  0.00     0.029 A 
ATOM     60  C   UNL A   1      40.177  34.234  30.785  1.00  0.00     0.049 A 
ATOM     61  H   UNL A   1      38.691  34.418  32.268  1.00  0.00     0.167 HD
ATOM     62  C   UNL A   1      41.437  33.351  32.755  1.00  0.00     0.074 A 
ATOM     63  C   UNL A   1      40.390  32.956  33.695  1.00  0.00     0.031 C 
ATOM     64  C   UNL A   1      41.392  33.920  31.514  1.00  0.00     0.034 A 
BRANCH  51  65
ATOM     65  C   UNL A   1      35.971  33.102  31.724  1.00  0.00     0.023 A 
ATOM     66  C   UNL A   1      34.850  33.840  31.293  1.00  0.00     0.031 A 
ATOM     67  C   UNL A   1      36.096  32.950  33.121  1.00  0.00     0.131 A 
ATOM     68  C   UNL A   1      34.010  34.493  32.210  1.00  0.00     0.055 A 
ATOM     69  C   UNL A   1      35.216  33.547  34.033  1.00  0.00     0.041 A 
ATOM     70  F   UNL A   1      37.110  32.295  33.695  1.00  0.00    -0.206 F 
ATOM     71  C   UNL A   1      34.189  34.358  33.580  1.00  0.00     0.022 A 
BRANCH  68  72
ATOM     72  S   UNL A   1      32.808  35.683  31.564  1.00  0.00     0.124 S 
ATOM     73  O   UNL A   1      31.685  35.491  32.476  1.00  0.00    -0.237 OA
ATOM     74  O   UNL A   1      33.536  36.941  31.691  1.00  0.00    -0.237 OA
ATOM     75  O   UNL A   1      32.584  35.228  30.195  1.00  0.00    -0.744 OA
ENDBRANCH  68  72
ENDBRANCH  51  65
BRANCH  52  76
ATOM     76  C   UNL A   1      43.150  29.714  35.256  1.00  0.00     0.023 A 
ATOM     77  C   UNL A   1      42.699  28.448  35.695  1.00  0.00     0.031 A 
ATOM     78  C   UNL A   1      44.286  30.242  35.911  1.00  0.00     0.131 A 
ATOM     79  C   UNL A   1      43.378  27.767  36.738  1.00  0.00     0.055 A 
ATOM     80  C   UNL A   1      44.954  29.564  36.935  1.00  0.00     0.041 A 
ATOM     81  F   UNL A   1      44.836  31.400  35.511  1.00  0.00    -0.206 F 
ATOM     82  C   UNL A   1      44.507  28.319  37.348  1.00  0.00     0.022 A 
BRANCH  79  83
ATOM     83  S   UNL A   1      42.849  26.103  37.278  1.00  0.00     0.124 S 
ATOM     84  O   UNL A   1      43.028  25.307  36.070  1.00  0.00    -0.237 OA
ATOM     85  O   UNL A   1      43.762  25.827  38.381  1.00  0.00    -0.237 OA
ATOM     86  O   UNL A   1      41.454  26.298  37.678  1.00  0.00    -0.744 OA
ENDBRANCH  79  83
ENDBRANCH  52  76
BRANCH  64  87
ATOM     87  C   UNL A   1      42.699  34.067  30.756  1.00  0.00     0.023 A 
ATOM     88  C   UNL A   1      43.184  33.158  29.785  1.00  0.00     0.031 A 
ATOM     89  C   UNL A   1      43.422  35.254  30.956  1.00  0.00     0.131 A 
ATOM     90  C   UNL A   1      44.359  33.456  29.065  1.00  0.00     0.055 A 
ATOM     91  C   UNL A   1      44.569  35.557  30.225  1.00  0.00     0.041 A 
ATOM     92  F   UNL A   1      42.998  36.168  31.845  1.00  0.00    -0.206 F 
ATOM     93  C   UNL A   1      45.046  34.656  29.280  1.00  0.00     0.022 A 
BRANCH  90  94
ATOM     94  S   UNL A   1      45.030  32.281  27.843  1.00  0.00     0.124 S 
ATOM     95  O   UNL A   1      45.654  33.143  26.845  1.00  0.00    -0.237 OA
ATOM     96  O   UNL A   1      45.941  31.471  28.647  1.00  0.00    -0.237 OA
ATOM     97  O   UNL A   1      43.842  31.565  27.371  1.00  0.00    -0.744 OA
ENDBRANCH  90  94
ENDBRANCH  64  87
ENDBRANCH  38  39
ENDBRANCH  30  33
ENDBRANCH  28  29
ENDBRANCH  27  28
ENDBRANCH  26  27
ENDBRANCH   1  26
TORSDOF 19
ENDMDL
MODEL 3
REMARK VINA RESULT:     -10.6      5.231     10.632
REMARK SMILES O=C(CC[N@H+]1CCC[C@H](c2nccn2Cc2cscn2)C1)NCCCCNC(=O)c1ccc(-c2c3nc(c(-c4cc(S(=O)(=O)[O-])ccc4F)c4ccc([nH]4)c(-c4cc(S(=O)(=O)[O-])ccc4F)c4nc(c(-c5cc(S(=O)(=O)[O-])ccc5F)c5ccc2[nH]5)C=C4)C=C3)cc1
REMARK SMILES IDX 23 1 22 2 1 3 2 4 3 6 4 7 5 8 6 9 21 10 7 12 9 13 8 14 10 15
REMARK SMILES IDX 11 16 14 17 12 18 13 19 15 20 16 21 17 22 20 23 18 24 19 25
REMARK SMILES IDX 24 26 25 27 26 28 27 29 28 30 29 32 30 33 31 34 92 35 32 36
REMARK SMILES IDX 91 37 33 38 34 39 35 40 85 41 36 42 90 43 84 44 86 45 37 46
REMARK SMILES IDX 89 47 83 48 82 49 38 51 70 52 50 53 69 54 51 55 54 56 68 57
REMARK SMILES IDX 87 58 52 59 53 60 67 62 88 63 55 64 39 65 40 66 48 67 41 68
REMARK SMILES IDX 47 69 49 70 46 71 42 72 43 73 44 74 45 75 71 76 72 77 80 78
REMARK SMILES IDX 73 79 79 80 81 81 78 82 74 83 75 84 76 85 77 86 56 87 57 88
REMARK SMILES IDX 65 89 58 90 64 91 66 92 63 93 59 94 60 95 61 96 62 97
REMARK H PARENT 22 5 5 11 27 31 86 50 54 61
REMARK Flexibility Score: inf
ROOT
ATOM      1  C   UNL A   1      36.129  23.675  25.933  1.00  0.00     0.116 C 
ENDROOT
BRANCH   1   2
ATOM      2  N   UNL A   1      35.598  22.428  25.405  1.00  0.00    -0.356 N 
ATOM      3  O   UNL A   1      33.478  22.768  26.220  1.00  0.00    -0.275 OA
ATOM      4  C   UNL A   1      34.239  22.171  25.463  1.00  0.00     0.225 C 
ATOM      5  H   UNL A   1      36.207  21.766  25.004  1.00  0.00     0.163 HD
BRANCH   4   6
ATOM      6  C   UNL A   1      33.725  21.157  24.452  1.00  0.00     0.161 C 
BRANCH   6   7
ATOM      7  C   UNL A   1      32.523  21.744  23.688  1.00  0.00     0.272 C 
BRANCH   7   8
ATOM      8  N   UNL A   1      32.433  23.214  23.536  1.00  0.00    -0.334 N 
ATOM      9  C   UNL A   1      33.262  23.635  22.385  1.00  0.00     0.262 C 
ATOM     10  C   UNL A   1      31.082  23.759  23.480  1.00  0.00     0.273 C 
ATOM     11  H   UNL A   1      32.803  23.618  24.397  1.00  0.00     0.348 HD
ATOM     12  C   UNL A   1      33.230  25.140  22.134  1.00  0.00     0.062 C 
ATOM     13  C   UNL A   1      30.979  25.260  23.268  1.00  0.00     0.111 C 
ATOM     14  C   UNL A   1      31.798  25.623  22.039  1.00  0.00     0.023 C 
BRANCH  13  15
ATOM     15  C   UNL A   1      31.180  26.222  24.412  1.00  0.00     0.117 A 
ATOM     16  N   UNL A   1      31.430  25.737  25.622  1.00  0.00    -0.241 NA
ATOM     17  N   UNL A   1      31.189  27.605  24.457  1.00  0.00    -0.328 N 
ATOM     18  C   UNL A   1      31.571  26.795  26.463  1.00  0.00     0.131 A 
ATOM     19  C   UNL A   1      31.470  27.965  25.763  1.00  0.00     0.108 A 
BRANCH  17  20
ATOM     20  C   UNL A   1      31.084  28.607  23.404  1.00  0.00     0.180 C 
BRANCH  20  21
ATOM     21  C   UNL A   1      29.708  29.183  23.281  1.00  0.00     0.071 A 
ATOM     22  C   UNL A   1      29.357  30.522  23.304  1.00  0.00     0.092 A 
ATOM     23  N   UNL A   1      28.643  28.329  23.028  1.00  0.00    -0.248 NA
ATOM     24  S   UNL A   1      27.661  30.702  23.136  1.00  0.00    -0.130 S 
ATOM     25  C   UNL A   1      27.516  29.002  23.011  1.00  0.00     0.175 A 
ENDBRANCH  20  21
ENDBRANCH  17  20
ENDBRANCH  13  15
ENDBRANCH   7   8
ENDBRANCH   6   7
ENDBRANCH   4   6
ENDBRANCH   1   2
BRANCH   1  26
ATOM     26  C   UNL A   1      37.647  23.832  25.772  1.00  0.00     0.023 C 
BRANCH  26  27
ATOM     27  C   UNL A   1      38.522  22.635  26.186  1.00  0.00     0.023 C 
BRANCH  27  28
ATOM     28  C   UNL A   1      39.753  22.997  27.013  1.00  0.00     0.116 C 
BRANCH  28  29
ATOM     29  N   UNL A   1      41.022  22.919  26.286  1.00  0.00    -0.352 N 
ATOM     30  C   UNL A   1      41.960  23.927  26.054  1.00  0.00     0.251 C 
ATOM     31  H   UNL A   1      41.243  22.036  25.910  1.00  0.00     0.163 HD
ATOM     32  O   UNL A   1      42.790  23.794  25.172  1.00  0.00    -0.269 OA
BRANCH  30  33
ATOM     33  C   UNL A   1      41.941  25.149  26.897  1.00  0.00     0.039 A 
ATOM     34  C   UNL A   1      42.501  25.217  28.182  1.00  0.00     0.014 A 
ATOM     35  C   UNL A   1      41.299  26.259  26.380  1.00  0.00     0.014 A 
ATOM     36  C   UNL A   1      42.460  26.430  28.894  1.00  0.00     0.010 A 
ATOM     37  C   UNL A   1      41.432  27.475  26.983  1.00  0.00     0.010 A 
ATOM     38  C   UNL A   1      41.922  27.563  28.275  1.00  0.00    -0.014 A 
BRANCH  38  39
ATOM     39  C   UNL A   1      41.863  28.908  28.852  1.00  0.00     0.031 A 
ATOM     40  C   UNL A   1      42.877  29.866  28.326  1.00  0.00     0.074 A 
ATOM     41  C   UNL A   1      40.746  29.326  29.511  1.00  0.00     0.049 A 
ATOM     42  N   UNL A   1      43.747  30.551  28.987  1.00  0.00    -0.248 NA
ATOM     43  C   UNL A   1      43.018  30.017  26.868  1.00  0.00     0.031 C 
ATOM     44  C   UNL A   1      39.519  28.550  29.776  1.00  0.00     0.029 A 
ATOM     45  N   UNL A   1      40.394  30.567  29.958  1.00  0.00    -0.354 N 
ATOM     46  C   UNL A   1      44.378  31.389  28.067  1.00  0.00     0.074 A 
ATOM     47  C   UNL A   1      44.009  30.902  26.770  1.00  0.00     0.031 C 
ATOM     48  C   UNL A   1      38.508  29.376  30.126  1.00  0.00     0.029 A 
ATOM     49  C   UNL A   1      39.043  30.714  30.291  1.00  0.00     0.049 A 
ATOM     50  H   UNL A   1      41.044  31.303  30.040  1.00  0.00     0.167 HD
ATOM     51  C   UNL A   1      44.977  32.545  28.466  1.00  0.00     0.034 A 
ATOM     52  C   UNL A   1      38.390  31.843  30.687  1.00  0.00     0.034 A 
ATOM     53  C   UNL A   1      45.162  32.538  29.901  1.00  0.00     0.049 A 
ATOM     54  C   UNL A   1      39.432  32.785  31.149  1.00  0.00     0.074 A 
ATOM     55  C   UNL A   1      45.867  31.743  30.782  1.00  0.00     0.029 A 
ATOM     56  N   UNL A   1      44.226  33.207  30.660  1.00  0.00    -0.354 N 
ATOM     57  N   UNL A   1      40.182  32.566  32.193  1.00  0.00    -0.248 NA
ATOM     58  C   UNL A   1      39.972  33.738  30.190  1.00  0.00     0.031 C 
ATOM     59  C   UNL A   1      45.014  31.609  31.916  1.00  0.00     0.029 A 
ATOM     60  C   UNL A   1      43.878  32.398  31.713  1.00  0.00     0.049 A 
ATOM     61  H   UNL A   1      43.870  34.106  30.479  1.00  0.00     0.167 HD
ATOM     62  C   UNL A   1      41.448  32.979  31.814  1.00  0.00     0.074 A 
ATOM     63  C   UNL A   1      41.234  33.805  30.628  1.00  0.00     0.031 C 
ATOM     64  C   UNL A   1      42.563  32.378  32.327  1.00  0.00     0.034 A 
BRANCH  51  65
ATOM     65  C   UNL A   1      45.060  33.827  27.662  1.00  0.00     0.023 A 
ATOM     66  C   UNL A   1      46.349  34.230  27.256  1.00  0.00     0.031 A 
ATOM     67  C   UNL A   1      44.050  34.803  27.525  1.00  0.00     0.131 A 
ATOM     68  C   UNL A   1      46.616  35.557  26.883  1.00  0.00     0.055 A 
ATOM     69  C   UNL A   1      44.307  36.108  27.087  1.00  0.00     0.041 A 
ATOM     70  F   UNL A   1      42.779  34.590  27.880  1.00  0.00    -0.206 F 
ATOM     71  C   UNL A   1      45.603  36.504  26.802  1.00  0.00     0.022 A 
BRANCH  68  72
ATOM     72  S   UNL A   1      48.346  36.060  26.706  1.00  0.00     0.124 S 
ATOM     73  O   UNL A   1      49.004  35.197  27.680  1.00  0.00    -0.237 OA
ATOM     74  O   UNL A   1      48.602  35.761  25.301  1.00  0.00    -0.237 OA
ATOM     75  O   UNL A   1      48.322  37.480  27.047  1.00  0.00    -0.744 OA
ENDBRANCH  68  72
ENDBRANCH  51  65
BRANCH  52  76
ATOM     76  C   UNL A   1      36.978  32.251  30.435  1.00  0.00     0.023 A 
ATOM     77  C   UNL A   1      36.173  32.939  31.373  1.00  0.00     0.031 A 
ATOM     78  C   UNL A   1      36.483  32.175  29.113  1.00  0.00     0.131 A 
ATOM     79  C   UNL A   1      34.941  33.516  30.972  1.00  0.00     0.055 A 
ATOM     80  C   UNL A   1      35.270  32.749  28.723  1.00  0.00     0.041 A 
ATOM     81  F   UNL A   1      37.213  31.611  28.136  1.00  0.00    -0.206 F 
ATOM     82  C   UNL A   1      34.496  33.430  29.650  1.00  0.00     0.022 A 
BRANCH  79  83
ATOM     83  S   UNL A   1      33.916  34.463  32.152  1.00  0.00     0.124 S 
ATOM     84  O   UNL A   1      32.881  35.025  31.293  1.00  0.00    -0.237 OA
ATOM     85  O   UNL A   1      33.491  33.435  33.094  1.00  0.00    -0.237 OA
ATOM     86  O   UNL A   1      34.848  35.447  32.706  1.00  0.00    -0.744 OA
ENDBRANCH  79  83
ENDBRANCH  52  76
BRANCH  64  87
ATOM     87  C   UNL A   1      42.384  31.465  33.526  1.00  0.00     0.023 A 
ATOM     88  C   UNL A   1      42.071  30.085  33.460  1.00  0.00     0.031 A 
ATOM     89  C   UNL A   1      42.663  32.009  34.790  1.00  0.00     0.131 A 
ATOM     90  C   UNL A   1      42.040  29.312  34.638  1.00  0.00     0.055 A 
ATOM     91  C   UNL A   1      42.655  31.237  35.950  1.00  0.00     0.041 A 
ATOM     92  F   UNL A   1      42.992  33.306  34.914  1.00  0.00    -0.206 F 
ATOM     93  C   UNL A   1      42.338  29.886  35.879  1.00  0.00     0.022 A 
BRANCH  90  94
ATOM     94  S   UNL A   1      41.595  27.545  34.586  1.00  0.00     0.124 S 
ATOM     95  O   UNL A   1      40.412  27.514  33.733  1.00  0.00    -0.237 OA
ATOM     96  O   UNL A   1      42.798  26.930  34.033  1.00  0.00    -0.237 OA
ATOM     97  O   UNL A   1      41.340  27.217  35.991  1.00  0.00    -0.744 OA
ENDBRANCH  90  94
ENDBRANCH  64  87
ENDBRANCH  38  39
ENDBRANCH  30  33
ENDBRANCH  28  29
ENDBRANCH  27  28
ENDBRANCH  26  27
ENDBRANCH   1  26
TORSDOF 19
ENDMDL
