MODEL 1
REMARK VINA RESULT:     -13.3      0.000      0.000
REMARK SMILES Nc1ccc(-c2cc(Cl)cc3c2O[C@H](C(F)(F)F)C(C(=O)NCCCCNC(=O)c2ccc(-c4c5nc(c(-c6cc(S(=O)(=O)[O-])ccc6F)c6ccc([nH]6)c(-c6cc(S(=O)(=O)[O-])ccc6F)c6nc(c(-c7cc(S(=O)(=O)[O-])ccc7F)c7ccc4[nH]7)C=C6)C=C5)cc2)=C3)cc1
REMARK SMILES IDX 25 1 24 2 23 3 22 4 20 5 21 6 19 8 6 9 7 10 12 11 8 12 11 13
REMARK SMILES IDX 13 14 9 15 10 16 93 17 14 18 5 19 2 20 3 21 95 22 4 23 94 24
REMARK SMILES IDX 1 25 15 28 16 29 17 30 18 31 26 32 27 33 28 34 29 36 30 37
REMARK SMILES IDX 31 38 92 39 32 40 91 41 33 42 34 43 35 44 85 45 36 46 90 47
REMARK SMILES IDX 84 48 86 49 37 50 89 51 83 52 82 53 38 55 70 56 50 57 69 58
REMARK SMILES IDX 51 59 54 60 68 61 87 62 52 63 53 64 67 66 88 67 55 68 39 69
REMARK SMILES IDX 40 70 48 71 41 72 47 73 49 74 46 75 42 76 43 77 44 78 45 79
REMARK SMILES IDX 71 80 72 81 80 82 73 83 79 84 81 85 78 86 74 87 75 88 76 89
REMARK SMILES IDX 77 90 56 91 57 92 65 93 58 94 64 95 66 96 63 97 59 98 60 99
REMARK SMILES IDX 61 100 62 101
REMARK H PARENT 22 7 1 26 1 27 27 35 86 54 54 65
REMARK Flexibility Score: inf
ROOT
ATOM      1  C   UNL A   1      32.862  29.699  25.242  1.00  0.00     0.023 C 
ENDROOT
BRANCH   1   2
ATOM      2  C   UNL A   1      33.106  28.235  24.860  1.00  0.00     0.023 C 
BRANCH   2   3
ATOM      3  C   UNL A   1      31.924  27.558  24.171  1.00  0.00     0.116 C 
BRANCH   3   4
ATOM      4  N   UNL A   1      31.029  26.914  25.118  1.00  0.00    -0.352 N 
ATOM      5  C   UNL A   1      30.951  25.716  25.745  1.00  0.00     0.251 C 
ATOM      6  O   UNL A   1      29.989  25.575  26.505  1.00  0.00    -0.270 OA
ATOM      7  H   UNL A   1      30.282  27.504  25.370  1.00  0.00     0.163 HD
BRANCH   5   8
ATOM      8  C   UNL A   1      31.920  24.592  25.579  1.00  0.00     0.067 C 
ATOM      9  C   UNL A   1      34.717  21.450  25.337  1.00  0.00     0.026 A 
ATOM     10  C   UNL A   1      36.081  21.751  25.469  1.00  0.00     0.033 A 
ATOM     11  C   UNL A   1      33.791  22.499  25.497  1.00  0.00     0.135 A 
ATOM     12  C   UNL A   1      36.493  23.055  25.749  1.00  0.00     0.042 A 
ATOM     13  C   UNL A   1      34.201  23.809  25.771  1.00  0.00     0.019 A 
ATOM     14  O   UNL A   1      32.457  22.180  25.438  1.00  0.00    -0.475 OA
ATOM     15  Cl  UNL A   1      38.173  23.397  25.911  1.00  0.00    -0.084 Cl
ATOM     16  C   UNL A   1      35.563  24.084  25.900  1.00  0.00     0.032 A 
ATOM     17  C   UNL A   1      33.193  24.850  25.939  1.00  0.00     0.025 C 
ATOM     18  C   UNL A   1      31.566  23.246  25.019  1.00  0.00     0.314 C 
BRANCH   9  19
ATOM     19  C   UNL A   1      34.273  20.084  25.018  1.00  0.00    -0.014 A 
ATOM     20  C   UNL A   1      33.421  17.508  24.206  1.00  0.00     0.031 A 
ATOM     21  C   UNL A   1      34.779  17.825  24.254  1.00  0.00     0.026 A 
ATOM     22  C   UNL A   1      32.499  18.460  24.645  1.00  0.00     0.026 A 
ATOM     23  C   UNL A   1      35.200  19.099  24.645  1.00  0.00     0.011 A 
ATOM     24  C   UNL A   1      32.916  19.739  25.035  1.00  0.00     0.011 A 
BRANCH  20  25
ATOM     25  N   UNL A   1      33.009  16.230  23.861  1.00  0.00    -0.399 N 
ATOM     26  H   UNL A   1      33.369  15.450  24.342  1.00  0.00     0.156 HD
ATOM     27  H   UNL A   1      32.357  16.102  23.135  1.00  0.00     0.156 HD
ENDBRANCH  20  25
ENDBRANCH   9  19
BRANCH  18  28
ATOM     28  C   UNL A   1      31.450  23.243  23.483  1.00  0.00     0.429 C 
ATOM     29  F   UNL A   1      30.228  23.688  23.097  1.00  0.00    -0.167 F 
ATOM     30  F   UNL A   1      32.361  24.050  22.891  1.00  0.00    -0.167 F 
ATOM     31  F   UNL A   1      31.613  22.010  22.950  1.00  0.00    -0.167 F 
ENDBRANCH  18  28
ENDBRANCH   5   8
ENDBRANCH   3   4
ENDBRANCH   2   3
ENDBRANCH   1   2
BRANCH   1  32
ATOM     32  C   UNL A   1      32.747  29.975  26.740  1.00  0.00     0.116 C 
BRANCH  32  33
ATOM     33  N   UNL A   1      32.578  31.380  27.084  1.00  0.00    -0.352 N 
ATOM     34  C   UNL A   1      33.507  32.220  27.661  1.00  0.00     0.251 C 
ATOM     35  H   UNL A   1      31.700  31.776  26.880  1.00  0.00     0.163 HD
ATOM     36  O   UNL A   1      33.204  33.368  27.970  1.00  0.00    -0.269 OA
BRANCH  34  37
ATOM     37  C   UNL A   1      34.852  31.683  27.957  1.00  0.00     0.039 A 
ATOM     38  C   UNL A   1      35.004  30.340  28.307  1.00  0.00     0.014 A 
ATOM     39  C   UNL A   1      35.940  32.555  28.001  1.00  0.00     0.014 A 
ATOM     40  C   UNL A   1      36.195  29.918  28.882  1.00  0.00     0.010 A 
ATOM     41  C   UNL A   1      37.165  32.104  28.502  1.00  0.00     0.010 A 
ATOM     42  C   UNL A   1      37.283  30.800  29.008  1.00  0.00    -0.014 A 
BRANCH  42  43
ATOM     43  C   UNL A   1      38.516  30.334  29.694  1.00  0.00     0.031 A 
ATOM     44  C   UNL A   1      38.834  30.774  31.098  1.00  0.00     0.074 A 
ATOM     45  C   UNL A   1      39.307  29.438  29.071  1.00  0.00     0.049 A 
ATOM     46  N   UNL A   1      39.823  30.405  31.870  1.00  0.00    -0.248 NA
ATOM     47  C   UNL A   1      37.930  31.757  31.716  1.00  0.00     0.031 C 
ATOM     48  C   UNL A   1      39.089  28.939  27.714  1.00  0.00     0.029 A 
ATOM     49  N   UNL A   1      40.422  28.764  29.501  1.00  0.00    -0.354 N 
ATOM     50  C   UNL A   1      39.671  31.115  33.056  1.00  0.00     0.074 A 
ATOM     51  C   UNL A   1      38.513  31.965  32.890  1.00  0.00     0.031 C 
ATOM     52  C   UNL A   1      39.996  27.991  27.446  1.00  0.00     0.029 A 
ATOM     53  C   UNL A   1      40.904  27.860  28.583  1.00  0.00     0.049 A 
ATOM     54  H   UNL A   1      40.838  28.914  30.381  1.00  0.00     0.167 HD
ATOM     55  C   UNL A   1      40.418  31.051  34.184  1.00  0.00     0.034 A 
ATOM     56  C   UNL A   1      41.956  27.019  28.644  1.00  0.00     0.034 A 
ATOM     57  C   UNL A   1      41.561  30.187  34.342  1.00  0.00     0.049 A 
ATOM     58  C   UNL A   1      42.777  26.973  29.906  1.00  0.00     0.074 A 
ATOM     59  C   UNL A   1      42.382  30.048  35.448  1.00  0.00     0.029 A 
ATOM     60  N   UNL A   1      42.037  29.308  33.380  1.00  0.00    -0.354 N 
ATOM     61  N   UNL A   1      42.602  27.635  31.025  1.00  0.00    -0.248 NA
ATOM     62  C   UNL A   1      43.936  26.070  29.917  1.00  0.00     0.031 C 
ATOM     63  C   UNL A   1      43.379  29.122  35.139  1.00  0.00     0.029 A 
ATOM     64  C   UNL A   1      43.149  28.636  33.861  1.00  0.00     0.049 A 
ATOM     65  H   UNL A   1      41.643  29.181  32.486  1.00  0.00     0.167 HD
ATOM     66  C   UNL A   1      43.621  27.221  31.878  1.00  0.00     0.074 A 
ATOM     67  C   UNL A   1      44.387  26.227  31.156  1.00  0.00     0.031 C 
ATOM     68  C   UNL A   1      43.901  27.637  33.138  1.00  0.00     0.034 A 
BRANCH  55  69
ATOM     69  C   UNL A   1      40.033  31.921  35.354  1.00  0.00     0.023 A 
ATOM     70  C   UNL A   1      39.111  31.454  36.310  1.00  0.00     0.031 A 
ATOM     71  C   UNL A   1      40.483  33.249  35.458  1.00  0.00     0.131 A 
ATOM     72  C   UNL A   1      38.648  32.318  37.312  1.00  0.00     0.055 A 
ATOM     73  C   UNL A   1      40.045  34.095  36.478  1.00  0.00     0.041 A 
ATOM     74  F   UNL A   1      41.365  33.740  34.573  1.00  0.00    -0.206 F 
ATOM     75  C   UNL A   1      39.114  33.634  37.404  1.00  0.00     0.022 A 
BRANCH  72  76
ATOM     76  S   UNL A   1      37.385  31.789  38.500  1.00  0.00     0.124 S 
ATOM     77  O   UNL A   1      36.296  32.722  38.213  1.00  0.00    -0.237 OA
ATOM     78  O   UNL A   1      37.144  30.406  38.096  1.00  0.00    -0.237 OA
ATOM     79  O   UNL A   1      38.026  31.965  39.798  1.00  0.00    -0.744 OA
ENDBRANCH  72  76
ENDBRANCH  55  69
BRANCH  56  80
ATOM     80  C   UNL A   1      42.234  26.127  27.482  1.00  0.00     0.023 A 
ATOM     81  C   UNL A   1      41.836  24.777  27.497  1.00  0.00     0.031 A 
ATOM     82  C   UNL A   1      43.016  26.571  26.403  1.00  0.00     0.131 A 
ATOM     83  C   UNL A   1      42.289  23.903  26.502  1.00  0.00     0.055 A 
ATOM     84  C   UNL A   1      43.403  25.714  25.371  1.00  0.00     0.041 A 
ATOM     85  F   UNL A   1      43.432  27.846  26.350  1.00  0.00    -0.206 F 
ATOM     86  C   UNL A   1      43.058  24.367  25.429  1.00  0.00     0.022 A 
BRANCH  83  87
ATOM     87  S   UNL A   1      42.034  22.113  26.654  1.00  0.00     0.124 S 
ATOM     88  O   UNL A   1      41.132  21.840  25.541  1.00  0.00    -0.237 OA
ATOM     89  O   UNL A   1      43.396  21.603  26.505  1.00  0.00    -0.237 OA
ATOM     90  O   UNL A   1      41.461  21.959  27.987  1.00  0.00    -0.744 OA
ENDBRANCH  83  87
ENDBRANCH  56  80
BRANCH  68  91
ATOM     91  C   UNL A   1      45.093  27.039  33.844  1.00  0.00     0.023 A 
ATOM     92  C   UNL A   1      44.946  25.865  34.607  1.00  0.00     0.031 A 
ATOM     93  C   UNL A   1      46.329  27.706  33.877  1.00  0.00     0.131 A 
ATOM     94  C   UNL A   1      46.008  25.413  35.400  1.00  0.00     0.055 A 
ATOM     95  C   UNL A   1      47.398  27.230  34.636  1.00  0.00     0.041 A 
ATOM     96  F   UNL A   1      46.512  28.835  33.173  1.00  0.00    -0.206 F 
ATOM     97  C   UNL A   1      47.235  26.086  35.413  1.00  0.00     0.022 A 
BRANCH  94  98
ATOM     98  S   UNL A   1      45.813  23.988  36.505  1.00  0.00     0.124 S 
ATOM     99  O   UNL A   1      46.869  23.095  36.033  1.00  0.00    -0.237 OA
ATOM    100  O   UNL A   1      46.041  24.584  37.819  1.00  0.00    -0.237 OA
ATOM    101  O   UNL A   1      44.451  23.530  36.252  1.00  0.00    -0.744 OA
ENDBRANCH  94  98
ENDBRANCH  68  91
ENDBRANCH  42  43
ENDBRANCH  34  37
ENDBRANCH  32  33
ENDBRANCH   1  32
TORSDOF 17
ENDMDL
MODEL 2
REMARK VINA RESULT:     -13.3      2.081      2.979
REMARK SMILES Nc1ccc(-c2cc(Cl)cc3c2O[C@H](C(F)(F)F)C(C(=O)NCCCCNC(=O)c2ccc(-c4c5nc(c(-c6cc(S(=O)(=O)[O-])ccc6F)c6ccc([nH]6)c(-c6cc(S(=O)(=O)[O-])ccc6F)c6nc(c(-c7cc(S(=O)(=O)[O-])ccc7F)c7ccc4[nH]7)C=C6)C=C5)cc2)=C3)cc1
REMARK SMILES IDX 25 1 24 2 23 3 22 4 20 5 21 6 19 8 6 9 7 10 12 11 8 12 11 13
REMARK SMILES IDX 13 14 9 15 10 16 93 17 14 18 5 19 2 20 3 21 95 22 4 23 94 24
REMARK SMILES IDX 1 25 15 28 16 29 17 30 18 31 26 32 27 33 28 34 29 36 30 37
REMARK SMILES IDX 31 38 92 39 32 40 91 41 33 42 34 43 35 44 85 45 36 46 90 47
REMARK SMILES IDX 84 48 86 49 37 50 89 51 83 52 82 53 38 55 70 56 50 57 69 58
REMARK SMILES IDX 51 59 54 60 68 61 87 62 52 63 53 64 67 66 88 67 55 68 39 69
REMARK SMILES IDX 40 70 48 71 41 72 47 73 49 74 46 75 42 76 43 77 44 78 45 79
REMARK SMILES IDX 71 80 72 81 80 82 73 83 79 84 81 85 78 86 74 87 75 88 76 89
REMARK SMILES IDX 77 90 56 91 57 92 65 93 58 94 64 95 66 96 63 97 59 98 60 99
REMARK SMILES IDX 61 100 62 101
REMARK H PARENT 22 7 1 26 1 27 27 35 86 54 54 65
REMARK Flexibility Score: inf
ROOT
ATOM      1  C   UNL A   1      32.048  32.265  27.481  1.00  0.00     0.023 C 
ENDROOT
BRANCH   1   2
ATOM      2  C   UNL A   1      31.203  31.699  26.335  1.00  0.00     0.023 C 
BRANCH   2   3
ATOM      3  C   UNL A   1      31.746  30.406  25.731  1.00  0.00     0.116 C 
BRANCH   3   4
ATOM      4  N   UNL A   1      33.106  30.124  26.163  1.00  0.00    -0.352 N 
ATOM      5  C   UNL A   1      33.980  29.096  26.062  1.00  0.00     0.251 C 
ATOM      6  O   UNL A   1      35.080  29.280  26.591  1.00  0.00    -0.270 OA
ATOM      7  H   UNL A   1      33.492  30.881  26.660  1.00  0.00     0.163 HD
BRANCH   5   8
ATOM      8  C   UNL A   1      33.708  27.797  25.377  1.00  0.00     0.067 C 
ATOM      9  C   UNL A   1      33.140  24.161  23.325  1.00  0.00     0.026 A 
ATOM     10  C   UNL A   1      32.907  24.198  21.941  1.00  0.00     0.033 A 
ATOM     11  C   UNL A   1      33.404  25.378  23.983  1.00  0.00     0.135 A 
ATOM     12  C   UNL A   1      32.938  25.412  21.252  1.00  0.00     0.042 A 
ATOM     13  C   UNL A   1      33.429  26.597  23.295  1.00  0.00     0.019 A 
ATOM     14  O   UNL A   1      33.702  25.323  25.322  1.00  0.00    -0.475 OA
ATOM     15  Cl  UNL A   1      32.653  25.429  19.554  1.00  0.00    -0.084 Cl
ATOM     16  C   UNL A   1      33.196  26.609  21.919  1.00  0.00     0.032 A 
ATOM     17  C   UNL A   1      33.721  27.824  24.030  1.00  0.00     0.025 C 
ATOM     18  C   UNL A   1      33.397  26.514  26.091  1.00  0.00     0.314 C 
BRANCH   9  19
ATOM     19  C   UNL A   1      33.086  22.892  24.066  1.00  0.00    -0.014 A 
ATOM     20  C   UNL A   1      32.951  20.353  25.314  1.00  0.00     0.031 A 
ATOM     21  C   UNL A   1      34.153  20.820  24.783  1.00  0.00     0.026 A 
ATOM     22  C   UNL A   1      31.839  21.196  25.289  1.00  0.00     0.026 A 
ATOM     23  C   UNL A   1      34.219  22.069  24.158  1.00  0.00     0.011 A 
ATOM     24  C   UNL A   1      31.899  22.447  24.661  1.00  0.00     0.011 A 
BRANCH  20  25
ATOM     25  N   UNL A   1      32.899  19.134  25.972  1.00  0.00    -0.399 N 
ATOM     26  H   UNL A   1      33.666  18.834  26.513  1.00  0.00     0.156 HD
ATOM     27  H   UNL A   1      32.097  18.568  25.899  1.00  0.00     0.156 HD
ENDBRANCH  20  25
ENDBRANCH   9  19
BRANCH  18  28
ATOM     28  C   UNL A   1      31.944  26.441  26.596  1.00  0.00     0.429 C 
ATOM     29  F   UNL A   1      31.615  25.165  26.918  1.00  0.00    -0.167 F 
ATOM     30  F   UNL A   1      31.742  27.186  27.708  1.00  0.00    -0.167 F 
ATOM     31  F   UNL A   1      31.049  26.863  25.673  1.00  0.00    -0.167 F 
ENDBRANCH  18  28
ENDBRANCH   5   8
ENDBRANCH   3   4
ENDBRANCH   2   3
ENDBRANCH   1   2
BRANCH   1  32
ATOM     32  C   UNL A   1      32.745  33.593  27.188  1.00  0.00     0.116 C 
BRANCH  32  33
ATOM     33  N   UNL A   1      32.580  34.603  28.224  1.00  0.00    -0.352 N 
ATOM     34  C   UNL A   1      33.370  34.798  29.337  1.00  0.00     0.251 C 
ATOM     35  H   UNL A   1      31.818  35.217  28.117  1.00  0.00     0.163 HD
ATOM     36  O   UNL A   1      33.070  35.642  30.175  1.00  0.00    -0.269 OA
BRANCH  34  37
ATOM     37  C   UNL A   1      34.546  33.923  29.527  1.00  0.00     0.039 A 
ATOM     38  C   UNL A   1      34.435  32.765  30.297  1.00  0.00     0.014 A 
ATOM     39  C   UNL A   1      35.787  34.330  29.033  1.00  0.00     0.014 A 
ATOM     40  C   UNL A   1      35.587  32.124  30.732  1.00  0.00     0.010 A 
ATOM     41  C   UNL A   1      36.939  33.631  29.403  1.00  0.00     0.010 A 
ATOM     42  C   UNL A   1      36.855  32.562  30.309  1.00  0.00    -0.014 A 
BRANCH  42  43
ATOM     43  C   UNL A   1      38.068  31.896  30.851  1.00  0.00     0.031 A 
ATOM     44  C   UNL A   1      38.530  32.160  32.259  1.00  0.00     0.074 A 
ATOM     45  C   UNL A   1      38.703  30.982  30.091  1.00  0.00     0.049 A 
ATOM     46  N   UNL A   1      39.519  31.609  32.915  1.00  0.00    -0.248 NA
ATOM     47  C   UNL A   1      37.794  33.173  33.031  1.00  0.00     0.031 C 
ATOM     48  C   UNL A   1      38.335  30.645  28.717  1.00  0.00     0.029 A 
ATOM     49  N   UNL A   1      39.757  30.149  30.370  1.00  0.00    -0.354 N 
ATOM     50  C   UNL A   1      39.533  32.214  34.167  1.00  0.00     0.074 A 
ATOM     51  C   UNL A   1      38.475  33.199  34.169  1.00  0.00     0.031 C 
ATOM     52  C   UNL A   1      39.103  29.632  28.295  1.00  0.00     0.029 A 
ATOM     53  C   UNL A   1      40.064  29.291  29.341  1.00  0.00     0.049 A 
ATOM     54  H   UNL A   1      40.246  30.166  31.224  1.00  0.00     0.167 HD
ATOM     55  C   UNL A   1      40.343  31.957  35.223  1.00  0.00     0.034 A 
ATOM     56  C   UNL A   1      41.011  28.335  29.243  1.00  0.00     0.034 A 
ATOM     57  C   UNL A   1      41.383  30.959  35.214  1.00  0.00     0.049 A 
ATOM     58  C   UNL A   1      41.904  28.075  30.428  1.00  0.00     0.074 A 
ATOM     59  C   UNL A   1      42.255  30.623  36.234  1.00  0.00     0.029 A 
ATOM     60  N   UNL A   1      41.685  30.130  34.143  1.00  0.00    -0.354 N 
ATOM     61  N   UNL A   1      41.885  28.640  31.612  1.00  0.00    -0.248 NA
ATOM     62  C   UNL A   1      42.945  27.051  30.268  1.00  0.00     0.031 C 
ATOM     63  C   UNL A   1      43.112  29.625  35.767  1.00  0.00     0.029 A 
ATOM     64  C   UNL A   1      42.739  29.294  34.473  1.00  0.00     0.049 A 
ATOM     65  H   UNL A   1      41.219  30.135  33.275  1.00  0.00     0.167 HD
ATOM     66  C   UNL A   1      42.904  28.035  32.342  1.00  0.00     0.074 A 
ATOM     67  C   UNL A   1      43.496  27.036  31.476  1.00  0.00     0.031 C 
ATOM     68  C   UNL A   1      43.316  28.293  33.608  1.00  0.00     0.034 A 
BRANCH  55  69
ATOM     69  C   UNL A   1      40.144  32.747  36.493  1.00  0.00     0.023 A 
ATOM     70  C   UNL A   1      39.162  32.357  37.422  1.00  0.00     0.031 A 
ATOM     71  C   UNL A   1      40.839  33.946  36.724  1.00  0.00     0.131 A 
ATOM     72  C   UNL A   1      38.883  33.174  38.526  1.00  0.00     0.055 A 
ATOM     73  C   UNL A   1      40.583  34.740  37.843  1.00  0.00     0.041 A 
ATOM     74  F   UNL A   1      41.788  34.359  35.868  1.00  0.00    -0.206 F 
ATOM     75  C   UNL A   1      39.592  34.360  38.744  1.00  0.00     0.022 A 
BRANCH  72  76
ATOM     76  S   UNL A   1      37.557  32.761  39.692  1.00  0.00     0.124 S 
ATOM     77  O   UNL A   1      38.047  31.511  40.270  1.00  0.00    -0.237 OA
ATOM     78  O   UNL A   1      37.570  33.912  40.591  1.00  0.00    -0.237 OA
ATOM     79  O   UNL A   1      36.374  32.633  38.848  1.00  0.00    -0.744 OA
ENDBRANCH  72  76
ENDBRANCH  55  69
BRANCH  56  80
ATOM     80  C   UNL A   1      41.101  27.534  27.989  1.00  0.00     0.023 A 
ATOM     81  C   UNL A   1      40.701  26.186  27.964  1.00  0.00     0.031 A 
ATOM     82  C   UNL A   1      41.712  28.063  26.839  1.00  0.00     0.131 A 
ATOM     83  C   UNL A   1      40.990  25.391  26.848  1.00  0.00     0.055 A 
ATOM     84  C   UNL A   1      41.930  27.288  25.699  1.00  0.00     0.041 A 
ATOM     85  F   UNL A   1      42.123  29.340  26.819  1.00  0.00    -0.206 F 
ATOM     86  C   UNL A   1      41.588  25.938  25.708  1.00  0.00     0.022 A 
BRANCH  83  87
ATOM     87  S   UNL A   1      40.749  23.594  26.902  1.00  0.00     0.124 S 
ATOM     88  O   UNL A   1      41.096  23.283  28.284  1.00  0.00    -0.237 OA
ATOM     89  O   UNL A   1      39.333  23.470  26.562  1.00  0.00    -0.237 OA
ATOM     90  O   UNL A   1      41.672  23.092  25.890  1.00  0.00    -0.744 OA
ENDBRANCH  83  87
ENDBRANCH  56  80
BRANCH  68  91
ATOM     91  C   UNL A   1      44.474  27.499  34.162  1.00  0.00     0.023 A 
ATOM     92  C   UNL A   1      44.236  26.401  35.009  1.00  0.00     0.031 A 
ATOM     93  C   UNL A   1      45.801  27.917  33.967  1.00  0.00     0.131 A 
ATOM     94  C   UNL A   1      45.309  25.779  35.660  1.00  0.00     0.055 A 
ATOM     95  C   UNL A   1      46.871  27.268  34.584  1.00  0.00     0.041 A 
ATOM     96  F   UNL A   1      46.076  28.966  33.175  1.00  0.00    -0.206 F 
ATOM     97  C   UNL A   1      46.626  26.203  35.446  1.00  0.00     0.022 A 
BRANCH  94  98
ATOM     98  S   UNL A   1      45.033  24.454  36.867  1.00  0.00     0.124 S 
ATOM     99  O   UNL A   1      43.765  24.858  37.472  1.00  0.00    -0.237 OA
ATOM    100  O   UNL A   1      44.968  23.269  36.015  1.00  0.00    -0.237 OA
ATOM    101  O   UNL A   1      46.194  24.531  37.747  1.00  0.00    -0.744 OA
ENDBRANCH  94  98
ENDBRANCH  68  91
ENDBRANCH  42  43
ENDBRANCH  34  37
ENDBRANCH  32  33
ENDBRANCH   1  32
TORSDOF 17
ENDMDL
MODEL 3
REMARK VINA RESULT:     -13.3      5.047      8.248
REMARK SMILES Nc1ccc(-c2cc(Cl)cc3c2O[C@H](C(F)(F)F)C(C(=O)NCCCCNC(=O)c2ccc(-c4c5nc(c(-c6cc(S(=O)(=O)[O-])ccc6F)c6ccc([nH]6)c(-c6cc(S(=O)(=O)[O-])ccc6F)c6nc(c(-c7cc(S(=O)(=O)[O-])ccc7F)c7ccc4[nH]7)C=C6)C=C5)cc2)=C3)cc1
REMARK SMILES IDX 25 1 24 2 23 3 22 4 20 5 21 6 19 8 6 9 7 10 12 11 8 12 11 13
REMARK SMILES IDX 13 14 9 15 10 16 93 17 14 18 5 19 2 20 3 21 95 22 4 23 94 24
REMARK SMILES IDX 1 25 15 28 16 29 17 30 18 31 26 32 27 33 28 34 29 36 30 37
REMARK SMILES IDX 31 38 92 39 32 40 91 41 33 42 34 43 35 44 85 45 36 46 90 47
REMARK SMILES IDX 84 48 86 49 37 50 89 51 83 52 82 53 38 55 70 56 50 57 69 58
REMARK SMILES IDX 51 59 54 60 68 61 87 62 52 63 53 64 67 66 88 67 55 68 39 69
REMARK SMILES IDX 40 70 48 71 41 72 47 73 49 74 46 75 42 76 43 77 44 78 45 79
REMARK SMILES IDX 71 80 72 81 80 82 73 83 79 84 81 85 78 86 74 87 75 88 76 89
REMARK SMILES IDX 77 90 56 91 57 92 65 93 58 94 64 95 66 96 63 97 59 98 60 99
REMARK SMILES IDX 61 100 62 101
REMARK H PARENT 22 7 1 26 1 27 27 35 86 54 54 65
REMARK Flexibility Score: inf
ROOT
ATOM      1  C   UNL A   1      36.430  20.751  25.388  1.00  0.00     0.023 C 
ENDROOT
BRANCH   1   2
ATOM      2  C   UNL A   1      35.462  21.735  26.055  1.00  0.00     0.023 C 
BRANCH   2   3
ATOM      3  C   UNL A   1      34.123  21.885  25.338  1.00  0.00     0.116 C 
BRANCH   3   4
ATOM      4  N   UNL A   1      34.284  22.107  23.909  1.00  0.00    -0.352 N 
ATOM      5  C   UNL A   1      34.025  23.103  23.030  1.00  0.00     0.251 C 
ATOM      6  O   UNL A   1      34.334  22.870  21.857  1.00  0.00    -0.270 OA
ATOM      7  H   UNL A   1      34.687  21.326  23.465  1.00  0.00     0.163 HD
BRANCH   5   8
ATOM      8  C   UNL A   1      33.410  24.419  23.375  1.00  0.00     0.067 C 
ATOM      9  C   UNL A   1      31.881  28.235  24.298  1.00  0.00     0.026 A 
ATOM     10  C   UNL A   1      32.405  28.921  25.404  1.00  0.00     0.033 A 
ATOM     11  C   UNL A   1      32.455  26.995  23.957  1.00  0.00     0.135 A 
ATOM     12  C   UNL A   1      33.463  28.378  26.135  1.00  0.00     0.042 A 
ATOM     13  C   UNL A   1      33.511  26.445  24.693  1.00  0.00     0.019 A 
ATOM     14  O   UNL A   1      31.984  26.367  22.830  1.00  0.00    -0.475 OA
ATOM     15  Cl  UNL A   1      34.091  29.243  27.486  1.00  0.00    -0.084 Cl
ATOM     16  C   UNL A   1      34.017  27.146  25.788  1.00  0.00     0.032 A 
ATOM     17  C   UNL A   1      34.073  25.162  24.282  1.00  0.00     0.025 C 
ATOM     18  C   UNL A   1      32.116  24.923  22.805  1.00  0.00     0.314 C 
BRANCH   9  19
ATOM     19  C   UNL A   1      30.751  28.786  23.534  1.00  0.00    -0.014 A 
ATOM     20  C   UNL A   1      28.580  29.676  21.948  1.00  0.00     0.031 A 
ATOM     21  C   UNL A   1      28.363  28.845  23.046  1.00  0.00     0.026 A 
ATOM     22  C   UNL A   1      29.878  30.123  21.697  1.00  0.00     0.026 A 
ATOM     23  C   UNL A   1      29.434  28.396  23.825  1.00  0.00     0.011 A 
ATOM     24  C   UNL A   1      30.955  29.675  22.472  1.00  0.00     0.011 A 
BRANCH  20  25
ATOM     25  N   UNL A   1      27.511  30.154  21.206  1.00  0.00    -0.399 N 
ATOM     26  H   UNL A   1      26.863  29.525  20.813  1.00  0.00     0.156 HD
ATOM     27  H   UNL A   1      27.401  31.123  21.069  1.00  0.00     0.156 HD
ENDBRANCH  20  25
ENDBRANCH   9  19
BRANCH  18  28
ATOM     28  C   UNL A   1      30.878  24.282  23.461  1.00  0.00     0.429 C 
ATOM     29  F   UNL A   1      30.522  23.152  22.802  1.00  0.00    -0.167 F 
ATOM     30  F   UNL A   1      31.098  23.928  24.749  1.00  0.00    -0.167 F 
ATOM     31  F   UNL A   1      29.803  25.103  23.458  1.00  0.00    -0.167 F 
ENDBRANCH  18  28
ENDBRANCH   5   8
ENDBRANCH   3   4
ENDBRANCH   2   3
ENDBRANCH   1   2
BRANCH   1  32
ATOM     32  C   UNL A   1      37.866  21.247  25.232  1.00  0.00     0.116 C 
BRANCH  32  33
ATOM     33  N   UNL A   1      38.884  20.291  25.649  1.00  0.00    -0.352 N 
ATOM     34  C   UNL A   1      40.012  20.543  26.399  1.00  0.00     0.251 C 
ATOM     35  H   UNL A   1      38.749  19.359  25.363  1.00  0.00     0.163 HD
ATOM     36  O   UNL A   1      40.831  19.655  26.613  1.00  0.00    -0.269 OA
BRANCH  34  37
ATOM     37  C   UNL A   1      40.244  21.922  26.881  1.00  0.00     0.039 A 
ATOM     38  C   UNL A   1      39.615  22.995  26.248  1.00  0.00     0.014 A 
ATOM     39  C   UNL A   1      41.186  22.144  27.887  1.00  0.00     0.014 A 
ATOM     40  C   UNL A   1      40.068  24.286  26.488  1.00  0.00     0.010 A 
ATOM     41  C   UNL A   1      41.578  23.451  28.187  1.00  0.00     0.010 A 
ATOM     42  C   UNL A   1      41.070  24.528  27.444  1.00  0.00    -0.014 A 
BRANCH  42  43
ATOM     43  C   UNL A   1      41.579  25.913  27.621  1.00  0.00     0.031 A 
ATOM     44  C   UNL A   1      40.813  26.919  28.438  1.00  0.00     0.074 A 
ATOM     45  C   UNL A   1      42.784  26.234  27.111  1.00  0.00     0.049 A 
ATOM     46  N   UNL A   1      41.148  28.143  28.758  1.00  0.00    -0.248 NA
ATOM     47  C   UNL A   1      39.502  26.504  28.962  1.00  0.00     0.031 C 
ATOM     48  C   UNL A   1      43.613  25.335  26.310  1.00  0.00     0.029 A 
ATOM     49  N   UNL A   1      43.535  27.378  27.216  1.00  0.00    -0.354 N 
ATOM     50  C   UNL A   1      40.089  28.648  29.506  1.00  0.00     0.074 A 
ATOM     51  C   UNL A   1      39.085  27.609  29.565  1.00  0.00     0.031 C 
ATOM     52  C   UNL A   1      44.783  25.932  26.052  1.00  0.00     0.029 A 
ATOM     53  C   UNL A   1      44.766  27.282  26.610  1.00  0.00     0.049 A 
ATOM     54  H   UNL A   1      43.222  28.188  27.679  1.00  0.00     0.167 HD
ATOM     55  C   UNL A   1      39.976  29.858  30.103  1.00  0.00     0.034 A 
ATOM     56  C   UNL A   1      45.771  28.176  26.511  1.00  0.00     0.034 A 
ATOM     57  C   UNL A   1      40.992  30.878  30.051  1.00  0.00     0.049 A 
ATOM     58  C   UNL A   1      45.616  29.519  27.176  1.00  0.00     0.074 A 
ATOM     59  C   UNL A   1      40.972  32.137  30.625  1.00  0.00     0.029 A 
ATOM     60  N   UNL A   1      42.213  30.757  29.402  1.00  0.00    -0.354 N 
ATOM     61  N   UNL A   1      44.618  29.968  27.900  1.00  0.00    -0.248 NA
ATOM     62  C   UNL A   1      46.718  30.477  27.013  1.00  0.00     0.031 C 
ATOM     63  C   UNL A   1      42.156  32.793  30.286  1.00  0.00     0.029 A 
ATOM     64  C   UNL A   1      42.945  31.924  29.549  1.00  0.00     0.049 A 
ATOM     65  H   UNL A   1      42.514  29.960  28.909  1.00  0.00     0.167 HD
ATOM     66  C   UNL A   1      44.975  31.256  28.288  1.00  0.00     0.074 A 
ATOM     67  C   UNL A   1      46.296  31.500  27.746  1.00  0.00     0.031 C 
ATOM     68  C   UNL A   1      44.267  32.155  29.015  1.00  0.00     0.034 A 
BRANCH  55  69
ATOM     69  C   UNL A   1      38.720  30.162  30.882  1.00  0.00     0.023 A 
ATOM     70  C   UNL A   1      37.717  30.974  30.320  1.00  0.00     0.031 A 
ATOM     71  C   UNL A   1      38.570  29.750  32.218  1.00  0.00     0.131 A 
ATOM     72  C   UNL A   1      36.622  31.371  31.100  1.00  0.00     0.055 A 
ATOM     73  C   UNL A   1      37.461  30.119  32.980  1.00  0.00     0.041 A 
ATOM     74  F   UNL A   1      39.498  28.972  32.799  1.00  0.00    -0.206 F 
ATOM     75  C   UNL A   1      36.487  30.943  32.425  1.00  0.00     0.022 A 
BRANCH  72  76
ATOM     76  S   UNL A   1      35.362  32.498  30.446  1.00  0.00     0.124 S 
ATOM     77  O   UNL A   1      36.136  33.720  30.234  1.00  0.00    -0.237 OA
ATOM     78  O   UNL A   1      34.936  31.811  29.230  1.00  0.00    -0.237 OA
ATOM     79  O   UNL A   1      34.368  32.571  31.511  1.00  0.00    -0.744 OA
ENDBRANCH  72  76
ENDBRANCH  55  69
BRANCH  56  80
ATOM     80  C   UNL A   1      47.019  27.783  25.795  1.00  0.00     0.023 A 
ATOM     81  C   UNL A   1      47.198  28.094  24.435  1.00  0.00     0.031 A 
ATOM     82  C   UNL A   1      47.985  26.978  26.421  1.00  0.00     0.131 A 
ATOM     83  C   UNL A   1      48.268  27.535  23.726  1.00  0.00     0.055 A 
ATOM     84  C   UNL A   1      49.093  26.485  25.730  1.00  0.00     0.041 A 
ATOM     85  F   UNL A   1      47.851  26.644  27.714  1.00  0.00    -0.206 F 
ATOM     86  C   UNL A   1      49.226  26.745  24.369  1.00  0.00     0.022 A 
BRANCH  83  87
ATOM     87  S   UNL A   1      48.359  27.681  21.919  1.00  0.00     0.124 S 
ATOM     88  O   UNL A   1      48.578  26.298  21.514  1.00  0.00    -0.237 OA
ATOM     89  O   UNL A   1      47.046  28.234  21.596  1.00  0.00    -0.237 OA
ATOM     90  O   UNL A   1      49.480  28.589  21.704  1.00  0.00    -0.744 OA
ENDBRANCH  83  87
ENDBRANCH  56  80
BRANCH  68  91
ATOM     91  C   UNL A   1      44.881  33.508  29.279  1.00  0.00     0.023 A 
ATOM     92  C   UNL A   1      44.700  34.558  28.360  1.00  0.00     0.031 A 
ATOM     93  C   UNL A   1      45.757  33.710  30.359  1.00  0.00     0.131 A 
ATOM     94  C   UNL A   1      45.414  35.752  28.518  1.00  0.00     0.055 A 
ATOM     95  C   UNL A   1      46.435  34.917  30.536  1.00  0.00     0.041 A 
ATOM     96  F   UNL A   1      45.970  32.734  31.256  1.00  0.00    -0.206 F 
ATOM     97  C   UNL A   1      46.275  35.939  29.605  1.00  0.00     0.022 A 
BRANCH  94  98
ATOM     98  S   UNL A   1      45.317  37.073  27.279  1.00  0.00     0.124 S 
ATOM     99  O   UNL A   1      45.829  38.222  28.023  1.00  0.00    -0.237 OA
ATOM    100  O   UNL A   1      46.194  36.572  26.224  1.00  0.00    -0.237 OA
ATOM    101  O   UNL A   1      43.899  37.134  26.939  1.00  0.00    -0.744 OA
ENDBRANCH  94  98
ENDBRANCH  68  91
ENDBRANCH  42  43
ENDBRANCH  34  37
ENDBRANCH  32  33
ENDBRANCH   1  32
TORSDOF 17
ENDMDL
