MODEL 1
REMARK VINA RESULT:     -12.7      0.000      0.000
REMARK SMILES O=C(NCCCCNC(=O)[C@H]1CS[C@H](c2nc3ccccc3s2)[NH2+]1)c1ccc(-c2c3nc(c(-c4cc(S(=O)(=O)[O-])ccc4F)c4ccc([nH]4)c(-c4cc(S(=O)(=O)[O-])ccc4F)c4nc(c(-c5cc(S(=O)(=O)[O-])ccc5F)c5ccc2[nH]5)C=C4)C=C3)cc1
REMARK SMILES IDX 4 1 3 2 1 3 2 4 25 6 26 7 87 8 27 9 86 10 28 11 29 12 30 13
REMARK SMILES IDX 80 14 31 15 85 16 79 17 81 18 32 19 84 20 78 21 77 22 33 24
REMARK SMILES IDX 65 25 45 26 64 27 46 28 49 29 63 30 82 31 47 32 48 33 62 35
REMARK SMILES IDX 83 36 50 37 34 38 35 39 43 40 36 41 42 42 44 43 41 44 37 45
REMARK SMILES IDX 38 46 39 47 40 48 66 49 67 50 75 51 68 52 74 53 76 54 73 55
REMARK SMILES IDX 69 56 70 57 71 58 72 59 51 60 52 61 60 62 53 63 59 64 61 65
REMARK SMILES IDX 58 66 54 67 55 68 56 69 57 70 5 71 6 72 7 73 8 74 9 75 10 77
REMARK SMILES IDX 11 78 12 79 24 80 13 81 14 82 15 85 16 86 23 87 17 88 22 89
REMARK SMILES IDX 18 90 21 91 19 92 20 93
REMARK H PARENT 3 5 81 23 49 34 8 76 24 83 24 84
REMARK Flexibility Score: inf
ROOT
ATOM      1  C   UNL A   1      36.689  22.003  25.796  1.00  0.00     0.116 C 
ENDROOT
BRANCH   1   2
ATOM      2  N   UNL A   1      37.661  20.925  25.677  1.00  0.00    -0.352 N 
ATOM      3  O   UNL A   1      39.750  20.045  25.749  1.00  0.00    -0.269 OA
ATOM      4  C   UNL A   1      39.008  20.991  25.971  1.00  0.00     0.251 C 
ATOM      5  H   UNL A   1      37.322  20.060  25.356  1.00  0.00     0.163 HD
BRANCH   4   6
ATOM      6  C   UNL A   1      39.533  22.260  26.516  1.00  0.00     0.039 A 
ATOM      7  C   UNL A   1      39.135  23.470  25.946  1.00  0.00     0.014 A 
ATOM      8  C   UNL A   1      40.501  22.229  27.522  1.00  0.00     0.014 A 
ATOM      9  C   UNL A   1      39.823  24.631  26.266  1.00  0.00     0.010 A 
ATOM     10  C   UNL A   1      41.124  23.418  27.912  1.00  0.00     0.010 A 
ATOM     11  C   UNL A   1      40.816  24.621  27.260  1.00  0.00    -0.014 A 
BRANCH  11  12
ATOM     12  C   UNL A   1      41.463  25.907  27.623  1.00  0.00     0.031 A 
ATOM     13  C   UNL A   1      42.825  26.274  27.105  1.00  0.00     0.074 A 
ATOM     14  C   UNL A   1      40.758  26.774  28.376  1.00  0.00     0.049 A 
ATOM     15  N   UNL A   1      43.504  27.378  27.288  1.00  0.00    -0.248 NA
ATOM     16  C   UNL A   1      43.521  25.274  26.281  1.00  0.00     0.031 C 
ATOM     17  C   UNL A   1      39.429  26.509  28.936  1.00  0.00     0.029 A 
ATOM     18  N   UNL A   1      41.032  28.057  28.771  1.00  0.00    -0.354 N 
ATOM     19  C   UNL A   1      44.710  27.204  26.619  1.00  0.00     0.074 A 
ATOM     20  C   UNL A   1      44.680  25.875  26.045  1.00  0.00     0.031 C 
ATOM     21  C   UNL A   1      38.978  27.615  29.543  1.00  0.00     0.029 A 
ATOM     22  C   UNL A   1      40.011  28.642  29.484  1.00  0.00     0.049 A 
ATOM     23  H   UNL A   1      41.878  28.517  28.565  1.00  0.00     0.167 HD
ATOM     24  C   UNL A   1      45.742  28.077  26.495  1.00  0.00     0.034 A 
ATOM     25  C   UNL A   1      39.920  29.862  30.042  1.00  0.00     0.034 A 
ATOM     26  C   UNL A   1      45.749  29.400  27.076  1.00  0.00     0.049 A 
ATOM     27  C   UNL A   1      41.078  30.806  29.887  1.00  0.00     0.074 A 
ATOM     28  C   UNL A   1      46.741  30.365  27.019  1.00  0.00     0.029 A 
ATOM     29  N   UNL A   1      44.711  29.949  27.821  1.00  0.00    -0.354 N 
ATOM     30  N   UNL A   1      42.218  30.616  29.261  1.00  0.00    -0.248 NA
ATOM     31  C   UNL A   1      40.938  32.126  30.508  1.00  0.00     0.031 C 
ATOM     32  C   UNL A   1      46.325  31.473  27.770  1.00  0.00     0.029 A 
ATOM     33  C   UNL A   1      45.047  31.227  28.242  1.00  0.00     0.049 A 
ATOM     34  H   UNL A   1      43.860  29.495  28.020  1.00  0.00     0.167 HD
ATOM     35  C   UNL A   1      42.933  31.796  29.420  1.00  0.00     0.074 A 
ATOM     36  C   UNL A   1      42.077  32.704  30.157  1.00  0.00     0.031 C 
ATOM     37  C   UNL A   1      44.190  32.101  29.008  1.00  0.00     0.034 A 
BRANCH  24  38
ATOM     38  C   UNL A   1      46.966  27.612  25.741  1.00  0.00     0.023 A 
ATOM     39  C   UNL A   1      47.163  27.920  24.384  1.00  0.00     0.031 A 
ATOM     40  C   UNL A   1      47.951  26.848  26.393  1.00  0.00     0.131 A 
ATOM     41  C   UNL A   1      48.291  27.426  23.710  1.00  0.00     0.055 A 
ATOM     42  C   UNL A   1      49.104  26.415  25.734  1.00  0.00     0.041 A 
ATOM     43  F   UNL A   1      47.807  26.505  27.683  1.00  0.00    -0.206 F 
ATOM     44  C   UNL A   1      49.274  26.696  24.382  1.00  0.00     0.022 A 
BRANCH  41  45
ATOM     45  S   UNL A   1      48.407  27.664  21.916  1.00  0.00     0.124 S 
ATOM     46  O   UNL A   1      47.102  28.246  21.610  1.00  0.00    -0.237 OA
ATOM     47  O   UNL A   1      49.551  28.559  21.788  1.00  0.00    -0.237 OA
ATOM     48  O   UNL A   1      48.612  26.311  21.402  1.00  0.00    -0.744 OA
ENDBRANCH  41  45
ENDBRANCH  24  38
BRANCH  25  49
ATOM     49  C   UNL A   1      38.713  30.236  30.830  1.00  0.00     0.023 A 
ATOM     50  C   UNL A   1      37.656  30.952  30.249  1.00  0.00     0.031 A 
ATOM     51  C   UNL A   1      38.611  29.898  32.193  1.00  0.00     0.131 A 
ATOM     52  C   UNL A   1      36.560  31.339  31.035  1.00  0.00     0.055 A 
ATOM     53  C   UNL A   1      37.495  30.236  32.956  1.00  0.00     0.041 A 
ATOM     54  F   UNL A   1      39.593  29.208  32.796  1.00  0.00    -0.206 F 
ATOM     55  C   UNL A   1      36.466  30.974  32.381  1.00  0.00     0.022 A 
BRANCH  52  56
ATOM     56  S   UNL A   1      35.295  32.405  30.296  1.00  0.00     0.124 S 
ATOM     57  O   UNL A   1      34.890  31.628  29.130  1.00  0.00    -0.237 OA
ATOM     58  O   UNL A   1      34.316  32.503  31.374  1.00  0.00    -0.237 OA
ATOM     59  O   UNL A   1      36.020  33.640  30.001  1.00  0.00    -0.744 OA
ENDBRANCH  52  56
ENDBRANCH  25  49
BRANCH  37  60
ATOM     60  C   UNL A   1      44.687  33.480  29.357  1.00  0.00     0.023 A 
ATOM     61  C   UNL A   1      44.506  34.563  28.477  1.00  0.00     0.031 A 
ATOM     62  C   UNL A   1      45.401  33.702  30.546  1.00  0.00     0.131 A 
ATOM     63  C   UNL A   1      45.097  35.800  28.764  1.00  0.00     0.055 A 
ATOM     64  C   UNL A   1      45.936  34.953  30.856  1.00  0.00     0.041 A 
ATOM     65  F   UNL A   1      45.604  32.701  31.418  1.00  0.00    -0.206 F 
ATOM     66  C   UNL A   1      45.801  36.006  29.954  1.00  0.00     0.022 A 
BRANCH  63  67
ATOM     67  S   UNL A   1      45.033  37.105  27.506  1.00  0.00     0.124 S 
ATOM     68  O   UNL A   1      46.117  36.717  26.610  1.00  0.00    -0.237 OA
ATOM     69  O   UNL A   1      43.682  36.957  26.974  1.00  0.00    -0.237 OA
ATOM     70  O   UNL A   1      45.268  38.330  28.269  1.00  0.00    -0.744 OA
ENDBRANCH  63  67
ENDBRANCH  37  60
ENDBRANCH  11  12
ENDBRANCH   4   6
ENDBRANCH   1   2
BRANCH   1  71
ATOM     71  C   UNL A   1      35.252  21.535  25.964  1.00  0.00     0.023 C 
BRANCH  71  72
ATOM     72  C   UNL A   1      34.822  20.422  25.013  1.00  0.00     0.023 C 
BRANCH  72  73
ATOM     73  C   UNL A   1      33.334  20.069  25.050  1.00  0.00     0.116 C 
BRANCH  73  74
ATOM     74  N   UNL A   1      32.693  20.254  23.765  1.00  0.00    -0.351 N 
ATOM     75  C   UNL A   1      32.268  21.346  23.083  1.00  0.00     0.279 C 
ATOM     76  H   UNL A   1      32.531  19.409  23.285  1.00  0.00     0.163 HD
ATOM     77  O   UNL A   1      31.806  21.116  21.956  1.00  0.00    -0.268 OA
BRANCH  75  78
ATOM     78  C   UNL A   1      32.388  22.825  23.552  1.00  0.00     0.284 C 
ATOM     79  C   UNL A   1      33.579  23.676  23.137  1.00  0.00     0.151 C 
ATOM     80  N   UNL A   1      31.087  23.537  23.285  1.00  0.00    -0.319 N 
ATOM     81  S   UNL A   1      32.919  24.710  21.821  1.00  0.00    -0.085 SA
ATOM     82  C   UNL A   1      31.345  24.870  22.719  1.00  0.00     0.303 C 
ATOM     83  H   UNL A   1      30.571  23.635  24.159  1.00  0.00     0.348 HD
ATOM     84  H   UNL A   1      30.541  22.992  22.617  1.00  0.00     0.348 HD
BRANCH  82  85
ATOM     85  C   UNL A   1      31.499  26.006  23.727  1.00  0.00     0.163 A 
ATOM     86  N   UNL A   1      32.568  26.781  23.769  1.00  0.00    -0.234 NA
ATOM     87  S   UNL A   1      30.368  26.289  24.999  1.00  0.00    -0.112 S 
ATOM     88  C   UNL A   1      32.642  27.422  24.987  1.00  0.00     0.082 A 
ATOM     89  C   UNL A   1      31.533  27.255  25.817  1.00  0.00     0.055 A 
ATOM     90  C   UNL A   1      33.739  28.171  25.456  1.00  0.00     0.030 A 
ATOM     91  C   UNL A   1      31.484  27.812  27.105  1.00  0.00     0.021 A 
ATOM     92  C   UNL A   1      33.712  28.706  26.746  1.00  0.00     0.002 A 
ATOM     93  C   UNL A   1      32.598  28.525  27.559  1.00  0.00     0.002 A 
ENDBRANCH  82  85
ENDBRANCH  75  78
ENDBRANCH  73  74
ENDBRANCH  72  73
ENDBRANCH  71  72
ENDBRANCH   1  71
TORSDOF 15
ENDMDL
MODEL 2
REMARK VINA RESULT:     -12.7      1.683      2.151
REMARK SMILES O=C(NCCCCNC(=O)[C@H]1CS[C@H](c2nc3ccccc3s2)[NH2+]1)c1ccc(-c2c3nc(c(-c4cc(S(=O)(=O)[O-])ccc4F)c4ccc([nH]4)c(-c4cc(S(=O)(=O)[O-])ccc4F)c4nc(c(-c5cc(S(=O)(=O)[O-])ccc5F)c5ccc2[nH]5)C=C4)C=C3)cc1
REMARK SMILES IDX 4 1 3 2 1 3 2 4 25 6 26 7 87 8 27 9 86 10 28 11 29 12 30 13
REMARK SMILES IDX 80 14 31 15 85 16 79 17 81 18 32 19 84 20 78 21 77 22 33 24
REMARK SMILES IDX 65 25 45 26 64 27 46 28 49 29 63 30 82 31 47 32 48 33 62 35
REMARK SMILES IDX 83 36 50 37 34 38 35 39 43 40 36 41 42 42 44 43 41 44 37 45
REMARK SMILES IDX 38 46 39 47 40 48 66 49 67 50 75 51 68 52 74 53 76 54 73 55
REMARK SMILES IDX 69 56 70 57 71 58 72 59 51 60 52 61 60 62 53 63 59 64 61 65
REMARK SMILES IDX 58 66 54 67 55 68 56 69 57 70 5 71 6 72 7 73 8 74 9 75 10 77
REMARK SMILES IDX 11 78 12 79 24 80 13 81 14 82 15 85 16 86 23 87 17 88 22 89
REMARK SMILES IDX 18 90 21 91 19 92 20 93
REMARK H PARENT 3 5 81 23 49 34 8 76 24 83 24 84
REMARK Flexibility Score: inf
ROOT
ATOM      1  C   UNL A   1      37.019  21.801  25.559  1.00  0.00     0.116 C 
ENDROOT
BRANCH   1   2
ATOM      2  N   UNL A   1      37.960  20.691  25.633  1.00  0.00    -0.352 N 
ATOM      3  O   UNL A   1      39.990  19.762  26.029  1.00  0.00    -0.269 OA
ATOM      4  C   UNL A   1      39.260  20.740  26.094  1.00  0.00     0.251 C 
ATOM      5  H   UNL A   1      37.635  19.817  25.323  1.00  0.00     0.163 HD
BRANCH   4   6
ATOM      6  C   UNL A   1      39.755  22.027  26.625  1.00  0.00     0.039 A 
ATOM      7  C   UNL A   1      39.295  23.221  26.070  1.00  0.00     0.014 A 
ATOM      8  C   UNL A   1      40.755  22.030  27.600  1.00  0.00     0.014 A 
ATOM      9  C   UNL A   1      39.950  24.406  26.371  1.00  0.00     0.010 A 
ATOM     10  C   UNL A   1      41.346  23.241  27.972  1.00  0.00     0.010 A 
ATOM     11  C   UNL A   1      40.974  24.432  27.334  1.00  0.00    -0.014 A 
BRANCH  11  12
ATOM     12  C   UNL A   1      41.584  25.741  27.679  1.00  0.00     0.031 A 
ATOM     13  C   UNL A   1      42.933  26.140  27.151  1.00  0.00     0.074 A 
ATOM     14  C   UNL A   1      40.857  26.596  28.423  1.00  0.00     0.049 A 
ATOM     15  N   UNL A   1      43.581  27.266  27.319  1.00  0.00    -0.248 NA
ATOM     16  C   UNL A   1      43.656  25.151  26.338  1.00  0.00     0.031 C 
ATOM     17  C   UNL A   1      39.538  26.300  28.991  1.00  0.00     0.029 A 
ATOM     18  N   UNL A   1      41.095  27.891  28.801  1.00  0.00    -0.354 N 
ATOM     19  C   UNL A   1      44.790  27.118  26.648  1.00  0.00     0.074 A 
ATOM     20  C   UNL A   1      44.796  25.781  26.091  1.00  0.00     0.031 C 
ATOM     21  C   UNL A   1      39.056  27.399  29.586  1.00  0.00     0.029 A 
ATOM     22  C   UNL A   1      40.059  28.455  29.510  1.00  0.00     0.049 A 
ATOM     23  H   UNL A   1      41.927  28.373  28.587  1.00  0.00     0.167 HD
ATOM     24  C   UNL A   1      45.796  28.019  26.510  1.00  0.00     0.034 A 
ATOM     25  C   UNL A   1      39.935  29.679  30.054  1.00  0.00     0.034 A 
ATOM     26  C   UNL A   1      45.766  29.349  27.074  1.00  0.00     0.049 A 
ATOM     27  C   UNL A   1      41.065  30.654  29.884  1.00  0.00     0.074 A 
ATOM     28  C   UNL A   1      46.730  30.341  27.002  1.00  0.00     0.029 A 
ATOM     29  N   UNL A   1      44.715  29.876  27.816  1.00  0.00    -0.354 N 
ATOM     30  N   UNL A   1      42.208  30.489  29.256  1.00  0.00    -0.248 NA
ATOM     31  C   UNL A   1      40.889  31.977  30.489  1.00  0.00     0.031 C 
ATOM     32  C   UNL A   1      46.285  31.445  27.741  1.00  0.00     0.029 A 
ATOM     33  C   UNL A   1      45.015  31.169  28.220  1.00  0.00     0.049 A 
ATOM     34  H   UNL A   1      43.878  29.401  28.024  1.00  0.00     0.167 HD
ATOM     35  C   UNL A   1      42.889  31.691  29.398  1.00  0.00     0.074 A 
ATOM     36  C   UNL A   1      42.010  32.583  30.127  1.00  0.00     0.031 C 
ATOM     37  C   UNL A   1      44.136  32.027  28.978  1.00  0.00     0.034 A 
BRANCH  24  38
ATOM     38  C   UNL A   1      47.030  27.580  25.758  1.00  0.00     0.023 A 
ATOM     39  C   UNL A   1      47.217  27.881  24.398  1.00  0.00     0.031 A 
ATOM     40  C   UNL A   1      48.037  26.848  26.414  1.00  0.00     0.131 A 
ATOM     41  C   UNL A   1      48.357  27.411  23.726  1.00  0.00     0.055 A 
ATOM     42  C   UNL A   1      49.199  26.440  25.757  1.00  0.00     0.041 A 
ATOM     43  F   UNL A   1      47.904  26.513  27.707  1.00  0.00    -0.206 F 
ATOM     44  C   UNL A   1      49.360  26.714  24.402  1.00  0.00     0.022 A 
BRANCH  41  45
ATOM     45  S   UNL A   1      48.464  27.637  21.929  1.00  0.00     0.124 S 
ATOM     46  O   UNL A   1      48.661  26.263  21.471  1.00  0.00    -0.237 OA
ATOM     47  O   UNL A   1      47.174  28.237  21.608  1.00  0.00    -0.237 OA
ATOM     48  O   UNL A   1      49.620  28.514  21.761  1.00  0.00    -0.744 OA
ENDBRANCH  41  45
ENDBRANCH  24  38
BRANCH  25  49
ATOM     49  C   UNL A   1      38.720  30.028  30.841  1.00  0.00     0.023 A 
ATOM     50  C   UNL A   1      37.698  30.816  30.293  1.00  0.00     0.031 A 
ATOM     51  C   UNL A   1      38.576  29.591  32.171  1.00  0.00     0.131 A 
ATOM     52  C   UNL A   1      36.594  31.175  31.082  1.00  0.00     0.055 A 
ATOM     53  C   UNL A   1      37.451  29.904  32.934  1.00  0.00     0.041 A 
ATOM     54  F   UNL A   1      39.524  28.829  32.742  1.00  0.00    -0.206 F 
ATOM     55  C   UNL A   1      36.458  30.712  32.393  1.00  0.00     0.022 A 
BRANCH  52  56
ATOM     56  S   UNL A   1      35.376  32.330  30.397  1.00  0.00     0.124 S 
ATOM     57  O   UNL A   1      36.183  33.525  30.183  1.00  0.00    -0.237 OA
ATOM     58  O   UNL A   1      34.937  31.627  29.196  1.00  0.00    -0.237 OA
ATOM     59  O   UNL A   1      34.374  32.435  31.457  1.00  0.00    -0.744 OA
ENDBRANCH  52  56
ENDBRANCH  25  49
BRANCH  37  60
ATOM     60  C   UNL A   1      44.594  33.424  29.309  1.00  0.00     0.023 A 
ATOM     61  C   UNL A   1      44.268  34.512  28.478  1.00  0.00     0.031 A 
ATOM     62  C   UNL A   1      45.413  33.661  30.424  1.00  0.00     0.131 A 
ATOM     63  C   UNL A   1      44.820  35.774  28.734  1.00  0.00     0.055 A 
ATOM     64  C   UNL A   1      45.912  34.934  30.709  1.00  0.00     0.041 A 
ATOM     65  F   UNL A   1      45.756  32.657  31.247  1.00  0.00    -0.206 F 
ATOM     66  C   UNL A   1      45.631  35.995  29.851  1.00  0.00     0.022 A 
BRANCH  63  67
ATOM     67  S   UNL A   1      44.560  37.097  27.521  1.00  0.00     0.124 S 
ATOM     68  O   UNL A   1      43.611  36.483  26.599  1.00  0.00    -0.237 OA
ATOM     69  O   UNL A   1      44.035  38.179  28.348  1.00  0.00    -0.237 OA
ATOM     70  O   UNL A   1      45.896  37.328  26.973  1.00  0.00    -0.744 OA
ENDBRANCH  63  67
ENDBRANCH  37  60
ENDBRANCH  11  12
ENDBRANCH   4   6
ENDBRANCH   1   2
BRANCH   1  71
ATOM     71  C   UNL A   1      35.631  21.413  25.076  1.00  0.00     0.023 C 
BRANCH  71  72
ATOM     72  C   UNL A   1      34.506  21.669  26.076  1.00  0.00     0.023 C 
BRANCH  72  73
ATOM     73  C   UNL A   1      33.155  22.034  25.460  1.00  0.00     0.116 C 
BRANCH  73  74
ATOM     74  N   UNL A   1      32.116  22.180  26.459  1.00  0.00    -0.351 N 
ATOM     75  C   UNL A   1      31.244  23.174  26.760  1.00  0.00     0.279 C 
ATOM     76  H   UNL A   1      32.024  21.391  27.042  1.00  0.00     0.163 HD
ATOM     77  O   UNL A   1      30.441  22.912  27.668  1.00  0.00    -0.268 OA
BRANCH  75  78
ATOM     78  C   UNL A   1      31.119  24.539  26.025  1.00  0.00     0.284 C 
ATOM     79  C   UNL A   1      32.355  25.373  25.723  1.00  0.00     0.151 C 
ATOM     80  N   UNL A   1      30.262  24.365  24.798  1.00  0.00    -0.319 N 
ATOM     81  S   UNL A   1      32.650  25.069  23.974  1.00  0.00    -0.085 SA
ATOM     82  C   UNL A   1      30.858  25.078  23.657  1.00  0.00     0.303 C 
ATOM     83  H   UNL A   1      29.332  24.739  24.981  1.00  0.00     0.348 HD
ATOM     84  H   UNL A   1      30.200  23.372  24.574  1.00  0.00     0.348 HD
BRANCH  82  85
ATOM     85  C   UNL A   1      30.426  26.531  23.478  1.00  0.00     0.163 A 
ATOM     86  N   UNL A   1      29.199  26.947  23.739  1.00  0.00    -0.234 NA
ATOM     87  S   UNL A   1      31.447  27.732  22.776  1.00  0.00    -0.112 S 
ATOM     88  C   UNL A   1      28.965  28.155  23.117  1.00  0.00     0.082 A 
ATOM     89  C   UNL A   1      30.077  28.738  22.509  1.00  0.00     0.055 A 
ATOM     90  C   UNL A   1      27.716  28.797  23.015  1.00  0.00     0.030 A 
ATOM     91  C   UNL A   1      29.983  29.946  21.799  1.00  0.00     0.021 A 
ATOM     92  C   UNL A   1      27.605  29.985  22.288  1.00  0.00     0.002 A 
ATOM     93  C   UNL A   1      28.726  30.549  21.686  1.00  0.00     0.002 A 
ENDBRANCH  82  85
ENDBRANCH  75  78
ENDBRANCH  73  74
ENDBRANCH  72  73
ENDBRANCH  71  72
ENDBRANCH   1  71
TORSDOF 15
ENDMDL
MODEL 3
REMARK VINA RESULT:     -12.6      5.047     10.363
REMARK SMILES O=C(NCCCCNC(=O)[C@H]1CS[C@H](c2nc3ccccc3s2)[NH2+]1)c1ccc(-c2c3nc(c(-c4cc(S(=O)(=O)[O-])ccc4F)c4ccc([nH]4)c(-c4cc(S(=O)(=O)[O-])ccc4F)c4nc(c(-c5cc(S(=O)(=O)[O-])ccc5F)c5ccc2[nH]5)C=C4)C=C3)cc1
REMARK SMILES IDX 4 1 3 2 1 3 2 4 25 6 26 7 87 8 27 9 86 10 28 11 29 12 30 13
REMARK SMILES IDX 80 14 31 15 85 16 79 17 81 18 32 19 84 20 78 21 77 22 33 24
REMARK SMILES IDX 65 25 45 26 64 27 46 28 49 29 63 30 82 31 47 32 48 33 62 35
REMARK SMILES IDX 83 36 50 37 34 38 35 39 43 40 36 41 42 42 44 43 41 44 37 45
REMARK SMILES IDX 38 46 39 47 40 48 66 49 67 50 75 51 68 52 74 53 76 54 73 55
REMARK SMILES IDX 69 56 70 57 71 58 72 59 51 60 52 61 60 62 53 63 59 64 61 65
REMARK SMILES IDX 58 66 54 67 55 68 56 69 57 70 5 71 6 72 7 73 8 74 9 75 10 77
REMARK SMILES IDX 11 78 12 79 24 80 13 81 14 82 15 85 16 86 23 87 17 88 22 89
REMARK SMILES IDX 18 90 21 91 19 92 20 93
REMARK H PARENT 3 5 81 23 49 34 8 76 24 83 24 84
REMARK Flexibility Score: inf
ROOT
ATOM      1  C   UNL A   1      33.278  29.360  25.540  1.00  0.00     0.116 C 
ENDROOT
BRANCH   1   2
ATOM      2  N   UNL A   1      32.687  30.583  26.066  1.00  0.00    -0.352 N 
ATOM      3  O   UNL A   1      32.579  32.351  27.482  1.00  0.00    -0.269 OA
ATOM      4  C   UNL A   1      33.206  31.392  27.057  1.00  0.00     0.251 C 
ATOM      5  H   UNL A   1      31.830  30.862  25.673  1.00  0.00     0.163 HD
BRANCH   4   6
ATOM      6  C   UNL A   1      34.523  31.032  27.621  1.00  0.00     0.039 A 
ATOM      7  C   UNL A   1      34.737  29.737  28.094  1.00  0.00     0.014 A 
ATOM      8  C   UNL A   1      35.500  32.018  27.773  1.00  0.00     0.014 A 
ATOM      9  C   UNL A   1      35.860  29.472  28.863  1.00  0.00     0.010 A 
ATOM     10  C   UNL A   1      36.676  31.719  28.466  1.00  0.00     0.010 A 
ATOM     11  C   UNL A   1      36.848  30.455  29.048  1.00  0.00    -0.014 A 
BRANCH  11  12
ATOM     12  C   UNL A   1      38.069  30.092  29.810  1.00  0.00     0.031 A 
ATOM     13  C   UNL A   1      38.272  30.545  31.228  1.00  0.00     0.074 A 
ATOM     14  C   UNL A   1      38.962  29.278  29.215  1.00  0.00     0.049 A 
ATOM     15  N   UNL A   1      39.258  30.273  32.045  1.00  0.00    -0.248 NA
ATOM     16  C   UNL A   1      37.243  31.423  31.806  1.00  0.00     0.031 C 
ATOM     17  C   UNL A   1      38.861  28.788  27.836  1.00  0.00     0.029 A 
ATOM     18  N   UNL A   1      40.104  28.689  29.691  1.00  0.00    -0.354 N 
ATOM     19  C   UNL A   1      38.981  30.954  33.225  1.00  0.00     0.074 A 
ATOM     20  C   UNL A   1      37.743  31.675  33.008  1.00  0.00     0.031 C 
ATOM     21  C   UNL A   1      39.857  27.924  27.601  1.00  0.00     0.029 A 
ATOM     22  C   UNL A   1      40.711  27.855  28.780  1.00  0.00     0.049 A 
ATOM     23  H   UNL A   1      40.456  28.846  30.596  1.00  0.00     0.167 HD
ATOM     24  C   UNL A   1      39.693  30.970  34.380  1.00  0.00     0.034 A 
ATOM     25  C   UNL A   1      41.838  27.127  28.876  1.00  0.00     0.034 A 
ATOM     26  C   UNL A   1      40.926  30.240  34.573  1.00  0.00     0.049 A 
ATOM     27  C   UNL A   1      42.605  27.165  30.167  1.00  0.00     0.074 A 
ATOM     28  C   UNL A   1      41.733  30.188  35.698  1.00  0.00     0.029 A 
ATOM     29  N   UNL A   1      41.531  29.431  33.618  1.00  0.00    -0.354 N 
ATOM     30  N   UNL A   1      42.332  27.828  31.268  1.00  0.00    -0.248 NA
ATOM     31  C   UNL A   1      43.826  26.356  30.231  1.00  0.00     0.031 C 
ATOM     32  C   UNL A   1      42.848  29.392  35.405  1.00  0.00     0.029 A 
ATOM     33  C   UNL A   1      42.707  28.893  34.121  1.00  0.00     0.049 A 
ATOM     34  H   UNL A   1      41.176  29.264  32.715  1.00  0.00     0.167 HD
ATOM     35  C   UNL A   1      43.355  27.518  32.155  1.00  0.00     0.074 A 
ATOM     36  C   UNL A   1      44.220  26.573  31.477  1.00  0.00     0.031 C 
ATOM     37  C   UNL A   1      43.572  27.981  33.412  1.00  0.00     0.034 A 
BRANCH  24  38
ATOM     38  C   UNL A   1      39.182  31.837  35.506  1.00  0.00     0.023 A 
ATOM     39  C   UNL A   1      38.503  31.296  36.610  1.00  0.00     0.031 A 
ATOM     40  C   UNL A   1      39.380  33.230  35.473  1.00  0.00     0.131 A 
ATOM     41  C   UNL A   1      38.002  32.144  37.610  1.00  0.00     0.055 A 
ATOM     42  C   UNL A   1      38.937  34.062  36.503  1.00  0.00     0.041 A 
ATOM     43  F   UNL A   1      40.005  33.806  34.434  1.00  0.00    -0.206 F 
ATOM     44  C   UNL A   1      38.236  33.521  37.576  1.00  0.00     0.022 A 
BRANCH  41  45
ATOM     45  S   UNL A   1      36.951  31.436  38.908  1.00  0.00     0.124 S 
ATOM     46  O   UNL A   1      36.760  30.072  38.422  1.00  0.00    -0.237 OA
ATOM     47  O   UNL A   1      37.780  31.578  40.100  1.00  0.00    -0.237 OA
ATOM     48  O   UNL A   1      35.754  32.274  38.876  1.00  0.00    -0.744 OA
ENDBRANCH  41  45
ENDBRANCH  24  38
BRANCH  25  49
ATOM     49  C   UNL A   1      42.325  26.345  27.706  1.00  0.00     0.023 A 
ATOM     50  C   UNL A   1      41.920  25.018  27.497  1.00  0.00     0.031 A 
ATOM     51  C   UNL A   1      43.226  26.913  26.786  1.00  0.00     0.131 A 
ATOM     52  C   UNL A   1      42.444  24.291  26.417  1.00  0.00     0.055 A 
ATOM     53  C   UNL A   1      43.701  26.204  25.683  1.00  0.00     0.041 A 
ATOM     54  F   UNL A   1      43.640  28.182  26.937  1.00  0.00    -0.206 F 
ATOM     55  C   UNL A   1      43.320  24.879  25.501  1.00  0.00     0.022 A 
BRANCH  52  56
ATOM     56  S   UNL A   1      42.031  22.531  26.274  1.00  0.00     0.124 S 
ATOM     57  O   UNL A   1      40.573  22.563  26.288  1.00  0.00    -0.237 OA
ATOM     58  O   UNL A   1      42.653  22.179  25.001  1.00  0.00    -0.237 OA
ATOM     59  O   UNL A   1      42.655  21.938  27.455  1.00  0.00    -0.744 OA
ENDBRANCH  52  56
ENDBRANCH  25  49
BRANCH  37  60
ATOM     60  C   UNL A   1      44.798  27.453  34.112  1.00  0.00     0.023 A 
ATOM     61  C   UNL A   1      44.740  26.292  34.905  1.00  0.00     0.031 A 
ATOM     62  C   UNL A   1      46.017  28.148  34.038  1.00  0.00     0.131 A 
ATOM     63  C   UNL A   1      45.859  25.903  35.652  1.00  0.00     0.055 A 
ATOM     64  C   UNL A   1      47.146  27.720  34.738  1.00  0.00     0.041 A 
ATOM     65  F   UNL A   1      46.124  29.263  33.298  1.00  0.00    -0.206 F 
ATOM     66  C   UNL A   1      47.066  26.602  35.565  1.00  0.00     0.022 A 
BRANCH  63  67
ATOM     67  S   UNL A   1      45.681  24.536  36.831  1.00  0.00     0.124 S 
ATOM     68  O   UNL A   1      45.517  23.388  35.946  1.00  0.00    -0.237 OA
ATOM     69  O   UNL A   1      46.939  24.596  37.570  1.00  0.00    -0.237 OA
ATOM     70  O   UNL A   1      44.493  24.900  37.602  1.00  0.00    -0.744 OA
ENDBRANCH  63  67
ENDBRANCH  37  60
ENDBRANCH  11  12
ENDBRANCH   4   6
ENDBRANCH   1   2
BRANCH   1  71
ATOM     71  C   UNL A   1      32.705  28.911  24.206  1.00  0.00     0.023 C 
BRANCH  71  72
ATOM     72  C   UNL A   1      31.327  29.475  23.874  1.00  0.00     0.023 C 
BRANCH  72  73
ATOM     73  C   UNL A   1      30.566  28.737  22.771  1.00  0.00     0.116 C 
BRANCH  73  74
ATOM     74  N   UNL A   1      29.526  27.879  23.300  1.00  0.00    -0.351 N 
ATOM     75  C   UNL A   1      29.520  26.614  23.788  1.00  0.00     0.279 C 
ATOM     76  H   UNL A   1      28.638  28.303  23.308  1.00  0.00     0.163 HD
ATOM     77  O   UNL A   1      28.424  26.220  24.215  1.00  0.00    -0.268 OA
BRANCH  75  78
ATOM     78  C   UNL A   1      30.754  25.677  23.928  1.00  0.00     0.284 C 
ATOM     79  C   UNL A   1      31.476  25.540  25.260  1.00  0.00     0.151 C 
ATOM     80  N   UNL A   1      30.422  24.329  23.343  1.00  0.00    -0.319 N 
ATOM     81  S   UNL A   1      30.883  23.965  25.899  1.00  0.00    -0.085 SA
ATOM     82  C   UNL A   1      30.917  23.259  24.222  1.00  0.00     0.303 C 
ATOM     83  H   UNL A   1      30.860  24.242  22.427  1.00  0.00     0.348 HD
ATOM     84  H   UNL A   1      29.409  24.245  23.255  1.00  0.00     0.348 HD
BRANCH  82  85
ATOM     85  C   UNL A   1      32.340  22.775  23.951  1.00  0.00     0.163 A 
ATOM     86  N   UNL A   1      32.930  21.850  24.688  1.00  0.00    -0.234 NA
ATOM     87  S   UNL A   1      33.361  23.492  22.760  1.00  0.00    -0.112 S 
ATOM     88  C   UNL A   1      34.296  21.900  24.506  1.00  0.00     0.082 A 
ATOM     89  C   UNL A   1      34.733  22.764  23.502  1.00  0.00     0.055 A 
ATOM     90  C   UNL A   1      35.251  21.199  25.266  1.00  0.00     0.030 A 
ATOM     91  C   UNL A   1      36.098  22.953  23.231  1.00  0.00     0.021 A 
ATOM     92  C   UNL A   1      36.612  21.400  25.025  1.00  0.00     0.002 A 
ATOM     93  C   UNL A   1      37.028  22.268  24.020  1.00  0.00     0.002 A 
ENDBRANCH  82  85
ENDBRANCH  75  78
ENDBRANCH  73  74
ENDBRANCH  72  73
ENDBRANCH  71  72
ENDBRANCH   1  71
TORSDOF 15
ENDMDL
