MODEL 1
REMARK VINA RESULT:     -13.3      0.000      0.000
REMARK SMILES N#Cc1ccc(Cl)cc1NC(=O)Cn1nc(C(=O)NCCCCNC(=O)c2ccc(-c3c4nc(c(-c5cc(S(=O)(=O)[O-])ccc5F)c5ccc([nH]5)c(-c5cc(S(=O)(=O)[O-])ccc5F)c5nc(c(-c6cc(S(=O)(=O)[O-])ccc6F)c6ccc3[nH]6)C=C5)C=C4)cc2)c2ccccc2c1=O
REMARK SMILES IDX 21 1 20 2 19 3 17 4 18 5 16 7 14 8 15 9 96 10 95 11 97 12
REMARK SMILES IDX 90 13 94 14 91 15 93 16 92 17 13 18 11 19 10 20 12 22 9 23
REMARK SMILES IDX 3 24 4 25 5 26 8 27 6 28 7 29 2 30 1 31 22 32 23 33 24 34
REMARK SMILES IDX 25 35 26 37 27 38 28 39 89 40 29 41 88 42 30 43 31 44 32 45
REMARK SMILES IDX 82 46 33 47 87 48 81 49 83 50 34 51 86 52 80 53 79 54 35 56
REMARK SMILES IDX 67 57 47 58 66 59 48 60 51 61 65 62 84 63 49 64 50 65 64 67
REMARK SMILES IDX 85 68 52 69 36 70 37 71 45 72 38 73 44 74 46 75 43 76 39 77
REMARK SMILES IDX 40 78 41 79 42 80 68 81 69 82 77 83 70 84 76 85 78 86 75 87
REMARK SMILES IDX 71 88 72 89 73 90 74 91 53 92 54 93 62 94 55 95 61 96 63 97
REMARK SMILES IDX 60 98 56 99 57 100 58 101 59 102
REMARK H PARENT 19 6 10 21 24 36 83 55 51 66
REMARK Flexibility Score: inf
ROOT
ATOM      1  C   UNL A   1      35.016  22.476  26.296  1.00  0.00     0.023 C 
ENDROOT
BRANCH   1   2
ATOM      2  C   UNL A   1      33.526  22.606  25.997  1.00  0.00     0.116 C 
BRANCH   2   3
ATOM      3  N   UNL A   1      32.524  22.850  27.021  1.00  0.00    -0.351 N 
ATOM      4  C   UNL A   1      31.276  23.465  26.805  1.00  0.00     0.272 C 
ATOM      5  O   UNL A   1      30.303  23.230  27.510  1.00  0.00    -0.267 OA
ATOM      6  H   UNL A   1      32.734  22.561  27.938  1.00  0.00     0.163 HD
BRANCH   4   7
ATOM      7  C   UNL A   1      31.179  24.615  25.788  1.00  0.00     0.156 A 
ATOM      8  N   UNL A   1      32.249  24.834  23.827  1.00  0.00    -0.219 N 
ATOM      9  N   UNL A   1      31.146  24.329  24.527  1.00  0.00    -0.163 NA
ATOM     10  C   UNL A   1      33.374  25.350  24.544  1.00  0.00     0.275 A 
ATOM     11  C   UNL A   1      33.022  26.062  25.808  1.00  0.00     0.051 A 
ATOM     12  O   UNL A   1      34.537  25.320  24.160  1.00  0.00    -0.267 OA
ATOM     13  C   UNL A   1      31.710  25.905  26.198  1.00  0.00     0.020 A 
ATOM     14  C   UNL A   1      33.775  27.106  26.330  1.00  0.00     0.014 A 
ATOM     15  C   UNL A   1      30.987  26.986  26.681  1.00  0.00     0.011 A 
ATOM     16  C   UNL A   1      33.097  28.146  26.971  1.00  0.00     0.001 A 
ATOM     17  C   UNL A   1      31.696  28.135  27.037  1.00  0.00     0.001 A 
BRANCH   8  18
ATOM     18  C   UNL A   1      32.415  24.282  22.484  1.00  0.00     0.248 C 
BRANCH  18  19
ATOM     19  C   UNL A   1      32.582  25.335  21.404  1.00  0.00     0.246 C 
ATOM     20  N   UNL A   1      32.084  26.604  21.393  1.00  0.00    -0.323 N 
ATOM     21  H   UNL A   1      32.360  27.064  20.568  1.00  0.00     0.170 HD
ATOM     22  O   UNL A   1      33.276  25.048  20.413  1.00  0.00    -0.273 OA
BRANCH  20  23
ATOM     23  C   UNL A   1      31.293  27.476  22.194  1.00  0.00     0.060 A 
ATOM     24  C   UNL A   1      31.973  28.485  22.928  1.00  0.00     0.076 A 
ATOM     25  C   UNL A   1      31.292  29.371  23.779  1.00  0.00     0.023 A 
ATOM     26  C   UNL A   1      29.924  29.261  23.944  1.00  0.00     0.022 A 
ATOM     27  C   UNL A   1      29.901  27.430  22.326  1.00  0.00     0.048 A 
ATOM     28  C   UNL A   1      29.236  28.292  23.231  1.00  0.00     0.043 A 
ATOM     29  Cl  UNL A   1      27.552  28.204  23.577  1.00  0.00    -0.084 Cl
BRANCH  24  30
ATOM     30  C   UNL A   1      33.401  28.624  22.881  1.00  0.00     0.101 C 
ATOM     31  N   UNL A   1      34.550  28.752  22.853  1.00  0.00    -0.192 NA
ENDBRANCH  24  30
ENDBRANCH  20  23
ENDBRANCH  18  19
ENDBRANCH   8  18
ENDBRANCH   4   7
ENDBRANCH   2   3
ENDBRANCH   1   2
BRANCH   1  32
ATOM     32  C   UNL A   1      35.781  21.437  25.466  1.00  0.00     0.023 C 
BRANCH  32  33
ATOM     33  C   UNL A   1      37.187  21.774  24.955  1.00  0.00     0.116 C 
BRANCH  33  34
ATOM     34  N   UNL A   1      38.246  20.787  25.085  1.00  0.00    -0.352 N 
ATOM     35  C   UNL A   1      39.339  20.879  25.942  1.00  0.00     0.251 C 
ATOM     36  H   UNL A   1      38.185  19.984  24.519  1.00  0.00     0.163 HD
ATOM     37  O   UNL A   1      40.121  19.942  26.068  1.00  0.00    -0.269 OA
BRANCH  35  38
ATOM     38  C   UNL A   1      39.589  22.169  26.638  1.00  0.00     0.039 A 
ATOM     39  C   UNL A   1      38.949  23.339  26.224  1.00  0.00     0.014 A 
ATOM     40  C   UNL A   1      40.612  22.229  27.587  1.00  0.00     0.014 A 
ATOM     41  C   UNL A   1      39.489  24.575  26.577  1.00  0.00     0.010 A 
ATOM     42  C   UNL A   1      41.090  23.474  28.011  1.00  0.00     0.010 A 
ATOM     43  C   UNL A   1      40.592  24.659  27.446  1.00  0.00    -0.014 A 
BRANCH  43  44
ATOM     44  C   UNL A   1      41.244  25.975  27.721  1.00  0.00     0.031 A 
ATOM     45  C   UNL A   1      42.623  26.286  27.181  1.00  0.00     0.074 A 
ATOM     46  C   UNL A   1      40.589  26.912  28.435  1.00  0.00     0.049 A 
ATOM     47  N   UNL A   1      43.349  27.364  27.343  1.00  0.00    -0.248 NA
ATOM     48  C   UNL A   1      43.273  25.253  26.358  1.00  0.00     0.031 C 
ATOM     49  C   UNL A   1      39.251  26.745  28.997  1.00  0.00     0.029 A 
ATOM     50  N   UNL A   1      40.950  28.185  28.805  1.00  0.00    -0.354 N 
ATOM     51  C   UNL A   1      44.543  27.133  26.664  1.00  0.00     0.074 A 
ATOM     52  C   UNL A   1      44.460  25.796  26.121  1.00  0.00     0.031 C 
ATOM     53  C   UNL A   1      38.887  27.880  29.609  1.00  0.00     0.029 A 
ATOM     54  C   UNL A   1      39.993  28.833  29.553  1.00  0.00     0.049 A 
ATOM     55  H   UNL A   1      41.810  28.595  28.558  1.00  0.00     0.167 HD
ATOM     56  C   UNL A   1      45.600  27.966  26.494  1.00  0.00     0.034 A 
ATOM     57  C   UNL A   1      40.004  30.043  30.152  1.00  0.00     0.034 A 
ATOM     58  C   UNL A   1      45.660  29.308  27.019  1.00  0.00     0.049 A 
ATOM     59  C   UNL A   1      41.210  30.932  29.989  1.00  0.00     0.074 A 
ATOM     60  C   UNL A   1      46.673  30.239  26.864  1.00  0.00     0.029 A 
ATOM     61  N   UNL A   1      44.682  29.915  27.793  1.00  0.00    -0.354 N 
ATOM     62  N   UNL A   1      42.306  30.716  29.299  1.00  0.00    -0.248 NA
ATOM     63  C   UNL A   1      41.186  32.230  30.677  1.00  0.00     0.031 C 
ATOM     64  C   UNL A   1      46.348  31.370  27.609  1.00  0.00     0.029 A 
ATOM     65  C   UNL A   1      45.086  31.192  28.150  1.00  0.00     0.049 A 
ATOM     66  H   UNL A   1      43.826  29.500  28.049  1.00  0.00     0.167 HD
ATOM     67  C   UNL A   1      43.085  31.861  29.447  1.00  0.00     0.074 A 
ATOM     68  C   UNL A   1      42.324  32.777  30.270  1.00  0.00     0.031 C 
ATOM     69  C   UNL A   1      44.320  32.121  28.951  1.00  0.00     0.034 A 
BRANCH  56  70
ATOM     70  C   UNL A   1      46.794  27.488  25.694  1.00  0.00     0.023 A 
ATOM     71  C   UNL A   1      46.989  27.952  24.378  1.00  0.00     0.031 A 
ATOM     72  C   UNL A   1      47.632  26.460  26.162  1.00  0.00     0.131 A 
ATOM     73  C   UNL A   1      47.957  27.353  23.560  1.00  0.00     0.055 A 
ATOM     74  C   UNL A   1      48.632  25.904  25.362  1.00  0.00     0.041 A 
ATOM     75  F   UNL A   1      47.487  25.975  27.406  1.00  0.00    -0.206 F 
ATOM     76  C   UNL A   1      48.786  26.339  24.049  1.00  0.00     0.022 A 
BRANCH  73  77
ATOM     77  S   UNL A   1      48.117  27.799  21.809  1.00  0.00     0.124 S 
ATOM     78  O   UNL A   1      46.839  28.459  21.550  1.00  0.00    -0.237 OA
ATOM     79  O   UNL A   1      49.282  28.679  21.824  1.00  0.00    -0.237 OA
ATOM     80  O   UNL A   1      48.301  26.518  21.136  1.00  0.00    -0.744 OA
ENDBRANCH  73  77
ENDBRANCH  56  70
BRANCH  57  81
ATOM     81  C   UNL A   1      38.802  30.479  30.924  1.00  0.00     0.023 A 
ATOM     82  C   UNL A   1      37.703  31.073  30.274  1.00  0.00     0.031 A 
ATOM     83  C   UNL A   1      38.783  30.418  32.326  1.00  0.00     0.131 A 
ATOM     84  C   UNL A   1      36.680  31.659  31.029  1.00  0.00     0.055 A 
ATOM     85  C   UNL A   1      37.718  30.927  33.072  1.00  0.00     0.041 A 
ATOM     86  F   UNL A   1      39.812  29.874  32.994  1.00  0.00    -0.206 F 
ATOM     87  C   UNL A   1      36.669  31.572  32.424  1.00  0.00     0.022 A 
BRANCH  84  88
ATOM     88  S   UNL A   1      35.416  32.690  30.234  1.00  0.00     0.124 S 
ATOM     89  O   UNL A   1      36.131  33.944  30.024  1.00  0.00    -0.237 OA
ATOM     90  O   UNL A   1      35.123  31.920  29.027  1.00  0.00    -0.237 OA
ATOM     91  O   UNL A   1      34.338  32.734  31.217  1.00  0.00    -0.744 OA
ENDBRANCH  84  88
ENDBRANCH  57  81
BRANCH  69  92
ATOM     92  C   UNL A   1      44.965  33.458  29.246  1.00  0.00     0.023 A 
ATOM     93  C   UNL A   1      44.859  34.508  28.314  1.00  0.00     0.031 A 
ATOM     94  C   UNL A   1      45.817  33.638  30.350  1.00  0.00     0.131 A 
ATOM     95  C   UNL A   1      45.634  35.665  28.471  1.00  0.00     0.055 A 
ATOM     96  C   UNL A   1      46.540  34.817  30.535  1.00  0.00     0.041 A 
ATOM     97  F   UNL A   1      45.967  32.663  31.262  1.00  0.00    -0.206 F 
ATOM     98  C   UNL A   1      46.465  35.830  29.584  1.00  0.00     0.022 A 
BRANCH  95  99
ATOM     99  S   UNL A   1      45.677  36.945  27.186  1.00  0.00     0.124 S 
ATOM    100  O   UNL A   1      44.256  37.225  26.989  1.00  0.00    -0.237 OA
ATOM    101  O   UNL A   1      46.437  38.008  27.837  1.00  0.00    -0.237 OA
ATOM    102  O   UNL A   1      46.343  36.294  26.062  1.00  0.00    -0.744 OA
ENDBRANCH  95  99
ENDBRANCH  69  92
ENDBRANCH  43  44
ENDBRANCH  35  38
ENDBRANCH  33  34
ENDBRANCH  32  33
ENDBRANCH   1  32
TORSDOF 18
ENDMDL
MODEL 2
REMARK VINA RESULT:     -13.2      0.774      7.173
REMARK SMILES N#Cc1ccc(Cl)cc1NC(=O)Cn1nc(C(=O)NCCCCNC(=O)c2ccc(-c3c4nc(c(-c5cc(S(=O)(=O)[O-])ccc5F)c5ccc([nH]5)c(-c5cc(S(=O)(=O)[O-])ccc5F)c5nc(c(-c6cc(S(=O)(=O)[O-])ccc6F)c6ccc3[nH]6)C=C5)C=C4)cc2)c2ccccc2c1=O
REMARK SMILES IDX 21 1 20 2 19 3 17 4 18 5 16 7 14 8 15 9 96 10 95 11 97 12
REMARK SMILES IDX 90 13 94 14 91 15 93 16 92 17 13 18 11 19 10 20 12 22 9 23
REMARK SMILES IDX 3 24 4 25 5 26 8 27 6 28 7 29 2 30 1 31 22 32 23 33 24 34
REMARK SMILES IDX 25 35 26 37 27 38 28 39 89 40 29 41 88 42 30 43 31 44 32 45
REMARK SMILES IDX 82 46 33 47 87 48 81 49 83 50 34 51 86 52 80 53 79 54 35 56
REMARK SMILES IDX 67 57 47 58 66 59 48 60 51 61 65 62 84 63 49 64 50 65 64 67
REMARK SMILES IDX 85 68 52 69 36 70 37 71 45 72 38 73 44 74 46 75 43 76 39 77
REMARK SMILES IDX 40 78 41 79 42 80 68 81 69 82 77 83 70 84 76 85 78 86 75 87
REMARK SMILES IDX 71 88 72 89 73 90 74 91 53 92 54 93 62 94 55 95 61 96 63 97
REMARK SMILES IDX 60 98 56 99 57 100 58 101 59 102
REMARK H PARENT 19 6 10 21 24 36 83 55 51 66
REMARK Flexibility Score: inf
ROOT
ATOM      1  C   UNL A   1      34.907  22.619  26.543  1.00  0.00     0.023 C 
ENDROOT
BRANCH   1   2
ATOM      2  C   UNL A   1      33.434  22.711  26.158  1.00  0.00     0.116 C 
BRANCH   2   3
ATOM      3  N   UNL A   1      32.371  22.960  27.118  1.00  0.00    -0.351 N 
ATOM      4  C   UNL A   1      31.138  23.575  26.824  1.00  0.00     0.272 C 
ATOM      5  O   UNL A   1      30.124  23.343  27.469  1.00  0.00    -0.267 OA
ATOM      6  H   UNL A   1      32.524  22.675  28.047  1.00  0.00     0.163 HD
BRANCH   4   7
ATOM      7  C   UNL A   1      31.105  24.720  25.798  1.00  0.00     0.156 A 
ATOM      8  N   UNL A   1      32.234  24.894  23.866  1.00  0.00    -0.219 N 
ATOM      9  N   UNL A   1      31.098  24.427  24.538  1.00  0.00    -0.163 NA
ATOM     10  C   UNL A   1      33.355  25.381  24.611  1.00  0.00     0.275 A 
ATOM     11  C   UNL A   1      32.989  26.111  25.861  1.00  0.00     0.051 A 
ATOM     12  O   UNL A   1      34.526  25.313  24.260  1.00  0.00    -0.267 OA
ATOM     13  C   UNL A   1      31.663  25.997  26.215  1.00  0.00     0.020 A 
ATOM     14  C   UNL A   1      33.759  27.135  26.397  1.00  0.00     0.014 A 
ATOM     15  C   UNL A   1      30.960  27.101  26.672  1.00  0.00     0.011 A 
ATOM     16  C   UNL A   1      33.095  28.199  27.014  1.00  0.00     0.001 A 
ATOM     17  C   UNL A   1      31.693  28.231  27.041  1.00  0.00     0.001 A 
BRANCH   8  18
ATOM     18  C   UNL A   1      32.421  24.329  22.532  1.00  0.00     0.248 C 
BRANCH  18  19
ATOM     19  C   UNL A   1      32.606  25.371  21.443  1.00  0.00     0.246 C 
ATOM     20  N   UNL A   1      32.106  26.638  21.411  1.00  0.00    -0.323 N 
ATOM     21  H   UNL A   1      32.396  27.090  20.586  1.00  0.00     0.170 HD
ATOM     22  O   UNL A   1      33.317  25.074  20.468  1.00  0.00    -0.273 OA
BRANCH  20  23
ATOM     23  C   UNL A   1      31.300  27.517  22.188  1.00  0.00     0.060 A 
ATOM     24  C   UNL A   1      31.966  28.522  22.940  1.00  0.00     0.076 A 
ATOM     25  C   UNL A   1      31.269  29.414  23.771  1.00  0.00     0.023 A 
ATOM     26  C   UNL A   1      29.896  29.315  23.897  1.00  0.00     0.022 A 
ATOM     27  C   UNL A   1      29.905  27.483  22.281  1.00  0.00     0.048 A 
ATOM     28  C   UNL A   1      29.220  28.351  23.166  1.00  0.00     0.043 A 
ATOM     29  Cl  UNL A   1      27.527  28.276  23.465  1.00  0.00    -0.084 Cl
BRANCH  24  30
ATOM     30  C   UNL A   1      33.397  28.650  22.933  1.00  0.00     0.101 C 
ATOM     31  N   UNL A   1      34.547  28.772  22.932  1.00  0.00    -0.192 NA
ENDBRANCH  24  30
ENDBRANCH  20  23
ENDBRANCH  18  19
ENDBRANCH   8  18
ENDBRANCH   4   7
ENDBRANCH   2   3
ENDBRANCH   1   2
BRANCH   1  32
ATOM     32  C   UNL A   1      35.772  21.695  25.678  1.00  0.00     0.023 C 
BRANCH  32  33
ATOM     33  C   UNL A   1      37.163  22.165  25.238  1.00  0.00     0.116 C 
BRANCH  33  34
ATOM     34  N   UNL A   1      38.275  21.229  25.277  1.00  0.00    -0.352 N 
ATOM     35  C   UNL A   1      39.398  21.338  26.092  1.00  0.00     0.251 C 
ATOM     36  H   UNL A   1      38.230  20.452  24.675  1.00  0.00     0.163 HD
ATOM     37  O   UNL A   1      40.231  20.438  26.141  1.00  0.00    -0.269 OA
BRANCH  35  38
ATOM     38  C   UNL A   1      39.613  22.605  26.840  1.00  0.00     0.039 A 
ATOM     39  C   UNL A   1      38.929  23.768  26.483  1.00  0.00     0.014 A 
ATOM     40  C   UNL A   1      40.646  22.660  27.778  1.00  0.00     0.014 A 
ATOM     41  C   UNL A   1      39.432  25.007  26.882  1.00  0.00     0.010 A 
ATOM     42  C   UNL A   1      41.087  23.902  28.249  1.00  0.00     0.010 A 
ATOM     43  C   UNL A   1      40.542  25.092  27.741  1.00  0.00    -0.014 A 
BRANCH  43  44
ATOM     44  C   UNL A   1      41.153  26.417  28.064  1.00  0.00     0.031 A 
ATOM     45  C   UNL A   1      40.354  27.487  28.774  1.00  0.00     0.074 A 
ATOM     46  C   UNL A   1      42.440  26.657  27.747  1.00  0.00     0.049 A 
ATOM     47  N   UNL A   1      40.714  28.701  29.110  1.00  0.00    -0.248 NA
ATOM     48  C   UNL A   1      38.970  27.155  29.152  1.00  0.00     0.031 C 
ATOM     49  C   UNL A   1      43.324  25.705  27.077  1.00  0.00     0.029 A 
ATOM     50  N   UNL A   1      43.232  27.763  27.947  1.00  0.00    -0.354 N 
ATOM     51  C   UNL A   1      39.604  29.282  29.716  1.00  0.00     0.074 A 
ATOM     52  C   UNL A   1      38.543  28.301  29.668  1.00  0.00     0.031 C 
ATOM     53  C   UNL A   1      44.542  26.250  26.952  1.00  0.00     0.029 A 
ATOM     54  C   UNL A   1      44.512  27.620  27.461  1.00  0.00     0.049 A 
ATOM     55  H   UNL A   1      42.913  28.580  28.395  1.00  0.00     0.167 HD
ATOM     56  C   UNL A   1      39.486  30.511  30.278  1.00  0.00     0.034 A 
ATOM     57  C   UNL A   1      45.541  28.490  27.404  1.00  0.00     0.034 A 
ATOM     58  C   UNL A   1      40.560  31.471  30.344  1.00  0.00     0.049 A 
ATOM     59  C   UNL A   1      45.372  29.868  27.991  1.00  0.00     0.074 A 
ATOM     60  C   UNL A   1      40.546  32.726  30.929  1.00  0.00     0.029 A 
ATOM     61  N   UNL A   1      41.831  31.296  29.817  1.00  0.00    -0.354 N 
ATOM     62  N   UNL A   1      44.332  30.379  28.607  1.00  0.00    -0.248 NA
ATOM     63  C   UNL A   1      46.512  30.788  27.885  1.00  0.00     0.031 C 
ATOM     64  C   UNL A   1      41.773  33.339  30.684  1.00  0.00     0.029 A 
ATOM     65  C   UNL A   1      42.594  32.434  30.034  1.00  0.00     0.049 A 
ATOM     66  H   UNL A   1      42.146  30.483  29.359  1.00  0.00     0.167 HD
ATOM     67  C   UNL A   1      44.703  31.666  28.986  1.00  0.00     0.074 A 
ATOM     68  C   UNL A   1      46.072  31.847  28.554  1.00  0.00     0.031 C 
ATOM     69  C   UNL A   1      43.970  32.611  29.627  1.00  0.00     0.034 A 
BRANCH  56  70
ATOM     70  C   UNL A   1      38.164  30.917  30.895  1.00  0.00     0.023 A 
ATOM     71  C   UNL A   1      37.194  31.572  30.110  1.00  0.00     0.031 A 
ATOM     72  C   UNL A   1      37.934  30.814  32.279  1.00  0.00     0.131 A 
ATOM     73  C   UNL A   1      36.068  32.142  30.720  1.00  0.00     0.055 A 
ATOM     74  C   UNL A   1      36.784  31.336  32.874  1.00  0.00     0.041 A 
ATOM     75  F   UNL A   1      38.827  30.206  33.076  1.00  0.00    -0.206 F 
ATOM     76  C   UNL A   1      35.854  32.020  32.097  1.00  0.00     0.022 A 
BRANCH  73  77
ATOM     77  S   UNL A   1      34.890  33.145  29.772  1.00  0.00     0.124 S 
ATOM     78  O   UNL A   1      34.003  33.639  30.823  1.00  0.00    -0.237 OA
ATOM     79  O   UNL A   1      35.761  34.148  29.168  1.00  0.00    -0.237 OA
ATOM     80  O   UNL A   1      34.285  32.193  28.846  1.00  0.00    -0.744 OA
ENDBRANCH  73  77
ENDBRANCH  56  70
BRANCH  57  81
ATOM     81  C   UNL A   1      46.831  28.047  26.795  1.00  0.00     0.023 A 
ATOM     82  C   UNL A   1      47.059  28.177  25.412  1.00  0.00     0.031 A 
ATOM     83  C   UNL A   1      47.802  27.382  27.562  1.00  0.00     0.131 A 
ATOM     84  C   UNL A   1      48.180  27.573  24.830  1.00  0.00     0.055 A 
ATOM     85  C   UNL A   1      48.962  26.859  26.989  1.00  0.00     0.041 A 
ATOM     86  F   UNL A   1      47.626  27.220  28.883  1.00  0.00    -0.206 F 
ATOM     87  C   UNL A   1      49.146  26.934  25.612  1.00  0.00     0.022 A 
BRANCH  84  88
ATOM     88  S   UNL A   1      48.342  27.463  23.025  1.00  0.00     0.124 S 
ATOM     89  O   UNL A   1      48.284  26.023  22.801  1.00  0.00    -0.237 OA
ATOM     90  O   UNL A   1      47.175  28.220  22.578  1.00  0.00    -0.237 OA
ATOM     91  O   UNL A   1      49.630  28.094  22.755  1.00  0.00    -0.744 OA
ENDBRANCH  84  88
ENDBRANCH  57  81
BRANCH  69  92
ATOM     92  C   UNL A   1      44.606  33.948  29.939  1.00  0.00     0.023 A 
ATOM     93  C   UNL A   1      44.537  34.994  28.998  1.00  0.00     0.031 A 
ATOM     94  C   UNL A   1      45.416  34.132  31.073  1.00  0.00     0.131 A 
ATOM     95  C   UNL A   1      45.308  36.149  29.178  1.00  0.00     0.055 A 
ATOM     96  C   UNL A   1      46.134  35.312  31.279  1.00  0.00     0.041 A 
ATOM     97  F   UNL A   1      45.529  33.162  31.996  1.00  0.00    -0.206 F 
ATOM     98  C   UNL A   1      46.097  36.319  30.320  1.00  0.00     0.022 A 
BRANCH  95  99
ATOM     99  S   UNL A   1      45.403  37.422  27.888  1.00  0.00     0.124 S 
ATOM    100  O   UNL A   1      46.313  38.396  28.490  1.00  0.00    -0.237 OA
ATOM    101  O   UNL A   1      45.949  36.675  26.759  1.00  0.00    -0.237 OA
ATOM    102  O   UNL A   1      44.024  37.873  27.735  1.00  0.00    -0.744 OA
ENDBRANCH  95  99
ENDBRANCH  69  92
ENDBRANCH  43  44
ENDBRANCH  35  38
ENDBRANCH  33  34
ENDBRANCH  32  33
ENDBRANCH   1  32
TORSDOF 18
ENDMDL
MODEL 3
REMARK VINA RESULT:     -12.8      4.735      7.497
REMARK SMILES N#Cc1ccc(Cl)cc1NC(=O)Cn1nc(C(=O)NCCCCNC(=O)c2ccc(-c3c4nc(c(-c5cc(S(=O)(=O)[O-])ccc5F)c5ccc([nH]5)c(-c5cc(S(=O)(=O)[O-])ccc5F)c5nc(c(-c6cc(S(=O)(=O)[O-])ccc6F)c6ccc3[nH]6)C=C5)C=C4)cc2)c2ccccc2c1=O
REMARK SMILES IDX 21 1 20 2 19 3 17 4 18 5 16 7 14 8 15 9 96 10 95 11 97 12
REMARK SMILES IDX 90 13 94 14 91 15 93 16 92 17 13 18 11 19 10 20 12 22 9 23
REMARK SMILES IDX 3 24 4 25 5 26 8 27 6 28 7 29 2 30 1 31 22 32 23 33 24 34
REMARK SMILES IDX 25 35 26 37 27 38 28 39 89 40 29 41 88 42 30 43 31 44 32 45
REMARK SMILES IDX 82 46 33 47 87 48 81 49 83 50 34 51 86 52 80 53 79 54 35 56
REMARK SMILES IDX 67 57 47 58 66 59 48 60 51 61 65 62 84 63 49 64 50 65 64 67
REMARK SMILES IDX 85 68 52 69 36 70 37 71 45 72 38 73 44 74 46 75 43 76 39 77
REMARK SMILES IDX 40 78 41 79 42 80 68 81 69 82 77 83 70 84 76 85 78 86 75 87
REMARK SMILES IDX 71 88 72 89 73 90 74 91 53 92 54 93 62 94 55 95 61 96 63 97
REMARK SMILES IDX 60 98 56 99 57 100 58 101 59 102
REMARK H PARENT 19 6 10 21 24 36 83 55 51 66
REMARK Flexibility Score: inf
ROOT
ATOM      1  C   UNL A   1      32.662  28.576  27.154  1.00  0.00     0.023 C 
ENDROOT
BRANCH   1   2
ATOM      2  C   UNL A   1      32.116  27.413  26.332  1.00  0.00     0.116 C 
BRANCH   2   3
ATOM      3  N   UNL A   1      30.789  26.851  26.525  1.00  0.00    -0.351 N 
ATOM      4  C   UNL A   1      30.061  26.137  25.554  1.00  0.00     0.272 C 
ATOM      5  O   UNL A   1      29.226  25.294  25.856  1.00  0.00    -0.267 OA
ATOM      6  H   UNL A   1      30.367  26.980  27.405  1.00  0.00     0.163 HD
BRANCH   4   7
ATOM      7  C   UNL A   1      30.166  26.566  24.081  1.00  0.00     0.156 A 
ATOM      8  N   UNL A   1      31.995  27.184  22.936  1.00  0.00    -0.219 N 
ATOM      9  N   UNL A   1      31.168  26.144  23.380  1.00  0.00    -0.163 NA
ATOM     10  C   UNL A   1      31.839  28.500  23.475  1.00  0.00     0.275 A 
ATOM     11  C   UNL A   1      30.426  28.875  23.778  1.00  0.00     0.051 A 
ATOM     12  O   UNL A   1      32.736  29.323  23.612  1.00  0.00    -0.267 OA
ATOM     13  C   UNL A   1      29.536  27.824  23.714  1.00  0.00     0.020 A 
ATOM     14  C   UNL A   1      29.955  30.179  23.719  1.00  0.00     0.014 A 
ATOM     15  C   UNL A   1      28.296  27.990  23.117  1.00  0.00     0.011 A 
ATOM     16  C   UNL A   1      28.646  30.385  23.272  1.00  0.00     0.001 A 
ATOM     17  C   UNL A   1      27.866  29.294  22.861  1.00  0.00     0.001 A 
BRANCH   8  18
ATOM     18  C   UNL A   1      33.288  26.745  22.415  1.00  0.00     0.248 C 
BRANCH  18  19
ATOM     19  C   UNL A   1      33.278  25.331  21.862  1.00  0.00     0.246 C 
ATOM     20  N   UNL A   1      33.348  24.163  22.560  1.00  0.00    -0.323 N 
ATOM     21  H   UNL A   1      33.312  23.400  21.939  1.00  0.00     0.170 HD
ATOM     22  O   UNL A   1      33.164  25.188  20.632  1.00  0.00    -0.273 OA
BRANCH  20  23
ATOM     23  C   UNL A   1      33.455  23.694  23.900  1.00  0.00     0.060 A 
ATOM     24  C   UNL A   1      34.712  23.175  24.313  1.00  0.00     0.076 A 
ATOM     25  C   UNL A   1      34.912  22.650  25.600  1.00  0.00     0.023 A 
ATOM     26  C   UNL A   1      33.865  22.602  26.500  1.00  0.00     0.022 A 
ATOM     27  C   UNL A   1      32.430  23.695  24.853  1.00  0.00     0.048 A 
ATOM     28  C   UNL A   1      32.631  23.111  26.126  1.00  0.00     0.043 A 
ATOM     29  Cl  UNL A   1      31.389  22.925  27.303  1.00  0.00    -0.084 Cl
BRANCH  24  30
ATOM     30  C   UNL A   1      35.835  23.112  23.421  1.00  0.00     0.101 C 
ATOM     31  N   UNL A   1      36.732  23.077  22.691  1.00  0.00    -0.192 NA
ENDBRANCH  24  30
ENDBRANCH  20  23
ENDBRANCH  18  19
ENDBRANCH   8  18
ENDBRANCH   4   7
ENDBRANCH   2   3
ENDBRANCH   1   2
BRANCH   1  32
ATOM     32  C   UNL A   1      31.827  29.863  27.136  1.00  0.00     0.023 C 
BRANCH  32  33
ATOM     33  C   UNL A   1      32.405  31.122  26.480  1.00  0.00     0.116 C 
BRANCH  33  34
ATOM     34  N   UNL A   1      32.296  32.397  27.171  1.00  0.00    -0.352 N 
ATOM     35  C   UNL A   1      33.339  33.070  27.800  1.00  0.00     0.251 C 
ATOM     36  H   UNL A   1      31.408  32.820  27.197  1.00  0.00     0.163 HD
ATOM     37  O   UNL A   1      33.178  34.197  28.257  1.00  0.00    -0.269 OA
BRANCH  35  38
ATOM     38  C   UNL A   1      34.633  32.361  27.983  1.00  0.00     0.039 A 
ATOM     39  C   UNL A   1      34.663  31.008  28.324  1.00  0.00     0.014 A 
ATOM     40  C   UNL A   1      35.810  33.113  27.995  1.00  0.00     0.014 A 
ATOM     41  C   UNL A   1      35.816  30.473  28.900  1.00  0.00     0.010 A 
ATOM     42  C   UNL A   1      36.990  32.543  28.488  1.00  0.00     0.010 A 
ATOM     43  C   UNL A   1      36.985  31.245  29.025  1.00  0.00    -0.014 A 
BRANCH  43  44
ATOM     44  C   UNL A   1      38.174  30.710  29.755  1.00  0.00     0.031 A 
ATOM     45  C   UNL A   1      39.111  29.724  29.093  1.00  0.00     0.074 A 
ATOM     46  C   UNL A   1      38.437  31.130  31.008  1.00  0.00     0.049 A 
ATOM     47  N   UNL A   1      40.174  29.138  29.585  1.00  0.00    -0.248 NA
ATOM     48  C   UNL A   1      38.815  29.341  27.703  1.00  0.00     0.031 C 
ATOM     49  C   UNL A   1      37.623  32.090  31.752  1.00  0.00     0.029 A 
ATOM     50  N   UNL A   1      39.456  30.815  31.875  1.00  0.00    -0.354 N 
ATOM     51  C   UNL A   1      40.660  28.306  28.579  1.00  0.00     0.074 A 
ATOM     52  C   UNL A   1      39.752  28.433  27.461  1.00  0.00     0.031 C 
ATOM     53  C   UNL A   1      38.190  32.313  32.945  1.00  0.00     0.029 A 
ATOM     54  C   UNL A   1      39.365  31.456  33.089  1.00  0.00     0.049 A 
ATOM     55  H   UNL A   1      40.182  30.189  31.647  1.00  0.00     0.167 HD
ATOM     56  C   UNL A   1      41.768  27.525  28.581  1.00  0.00     0.034 A 
ATOM     57  C   UNL A   1      40.118  31.356  34.204  1.00  0.00     0.034 A 
ATOM     58  C   UNL A   1      42.682  27.427  29.694  1.00  0.00     0.049 A 
ATOM     59  C   UNL A   1      41.319  30.444  34.199  1.00  0.00     0.074 A 
ATOM     60  C   UNL A   1      43.853  26.692  29.772  1.00  0.00     0.029 A 
ATOM     61  N   UNL A   1      42.538  28.073  30.913  1.00  0.00    -0.354 N 
ATOM     62  N   UNL A   1      41.791  29.708  33.221  1.00  0.00    -0.248 NA
ATOM     63  C   UNL A   1      42.096  30.350  35.443  1.00  0.00     0.031 C 
ATOM     64  C   UNL A   1      44.369  26.826  31.059  1.00  0.00     0.029 A 
ATOM     65  C   UNL A   1      43.580  27.723  31.758  1.00  0.00     0.049 A 
ATOM     66  H   UNL A   1      41.806  28.689  31.143  1.00  0.00     0.167 HD
ATOM     67  C   UNL A   1      42.933  29.088  33.721  1.00  0.00     0.074 A 
ATOM     68  C   UNL A   1      43.096  29.557  35.081  1.00  0.00     0.031 C 
ATOM     69  C   UNL A   1      43.763  28.207  33.109  1.00  0.00     0.034 A 
BRANCH  56  70
ATOM     70  C   UNL A   1      42.100  26.712  27.348  1.00  0.00     0.023 A 
ATOM     71  C   UNL A   1      41.775  25.341  27.302  1.00  0.00     0.031 A 
ATOM     72  C   UNL A   1      42.880  27.240  26.303  1.00  0.00     0.131 A 
ATOM     73  C   UNL A   1      42.271  24.538  26.265  1.00  0.00     0.055 A 
ATOM     74  C   UNL A   1      43.326  26.448  25.244  1.00  0.00     0.041 A 
ATOM     75  F   UNL A   1      43.225  28.538  26.299  1.00  0.00    -0.206 F 
ATOM     76  C   UNL A   1      43.037  25.086  25.231  1.00  0.00     0.022 A 
BRANCH  73  77
ATOM     77  S   UNL A   1      42.024  22.740  26.267  1.00  0.00     0.124 S 
ATOM     78  O   UNL A   1      42.697  22.345  25.032  1.00  0.00    -0.237 OA
ATOM     79  O   UNL A   1      42.698  22.342  27.499  1.00  0.00    -0.237 OA
ATOM     80  O   UNL A   1      40.574  22.585  26.260  1.00  0.00    -0.744 OA
ENDBRANCH  73  77
ENDBRANCH  56  70
BRANCH  57  81
ATOM     81  C   UNL A   1      39.762  32.183  35.395  1.00  0.00     0.023 A 
ATOM     82  C   UNL A   1      39.004  31.640  36.450  1.00  0.00     0.031 A 
ATOM     83  C   UNL A   1      40.071  33.552  35.443  1.00  0.00     0.131 A 
ATOM     84  C   UNL A   1      38.507  32.478  37.455  1.00  0.00     0.055 A 
ATOM     85  C   UNL A   1      39.646  34.367  36.495  1.00  0.00     0.041 A 
ATOM     86  F   UNL A   1      40.780  34.121  34.456  1.00  0.00    -0.206 F 
ATOM     87  C   UNL A   1      38.841  33.834  37.497  1.00  0.00     0.022 A 
BRANCH  84  88
ATOM     88  S   UNL A   1      37.285  31.868  38.650  1.00  0.00     0.124 S 
ATOM     89  O   UNL A   1      37.126  30.477  38.242  1.00  0.00    -0.237 OA
ATOM     90  O   UNL A   1      37.979  32.080  39.918  1.00  0.00    -0.237 OA
ATOM     91  O   UNL A   1      36.126  32.728  38.428  1.00  0.00    -0.744 OA
ENDBRANCH  84  88
ENDBRANCH  57  81
BRANCH  69  92
ATOM     92  C   UNL A   1      44.958  27.673  33.868  1.00  0.00     0.023 A 
ATOM     93  C   UNL A   1      44.833  26.499  34.636  1.00  0.00     0.031 A 
ATOM     94  C   UNL A   1      46.153  28.406  33.971  1.00  0.00     0.131 A 
ATOM     95  C   UNL A   1      45.857  26.125  35.514  1.00  0.00     0.055 A 
ATOM     96  C   UNL A   1      47.197  27.994  34.801  1.00  0.00     0.041 A 
ATOM     97  F   UNL A   1      46.320  29.540  33.272  1.00  0.00    -0.206 F 
ATOM     98  C   UNL A   1      47.045  26.860  35.593  1.00  0.00     0.022 A 
BRANCH  95  99
ATOM     99  S   UNL A   1      45.644  24.738  36.666  1.00  0.00     0.124 S 
ATOM    100  O   UNL A   1      44.922  25.370  37.769  1.00  0.00    -0.237 OA
ATOM    101  O   UNL A   1      44.864  23.795  35.870  1.00  0.00    -0.237 OA
ATOM    102  O   UNL A   1      47.008  24.323  36.975  1.00  0.00    -0.744 OA
ENDBRANCH  95  99
ENDBRANCH  69  92
ENDBRANCH  43  44
ENDBRANCH  35  38
ENDBRANCH  33  34
ENDBRANCH  32  33
ENDBRANCH   1  32
TORSDOF 18
ENDMDL
