MODEL 1
REMARK VINA RESULT:     -10.2      0.000      0.000
REMARK SMILES CCOc1cccc(-c2ccc([C@@H](C)C(=O)NCCCCNC(=O)c3ccc(-c4c5nc(c(-c6cc(S(=O)(=O)[O-])ccc6F)c6ccc([nH]6)c(-c6cc(S(=O)(=O)[O-])ccc6F)c6nc(c(-c7cc(S(=O)(=O)[O-])ccc7F)c7ccc4[nH]7)C=C6)C=C5)cc3)cc2F)c1
REMARK SMILES IDX 19 1 18 2 17 3 15 4 16 5 13 7 14 8 12 9 9 10 10 11 89 12
REMARK SMILES IDX 11 13 88 14 90 15 8 16 4 17 5 18 91 19 6 20 7 21 3 22 2 23
REMARK SMILES IDX 1 24 20 25 21 26 22 27 23 28 24 30 25 31 26 32 87 33 27 34
REMARK SMILES IDX 86 35 28 36 29 37 30 38 80 39 31 40 85 41 79 42 81 43 32 44
REMARK SMILES IDX 84 45 78 46 77 47 33 49 65 50 45 51 64 52 46 53 49 54 63 55
REMARK SMILES IDX 82 56 47 57 48 58 62 60 83 61 50 62 34 63 35 64 43 65 36 66
REMARK SMILES IDX 42 67 44 68 41 69 37 70 38 71 39 72 40 73 66 74 67 75 75 76
REMARK SMILES IDX 68 77 74 78 76 79 73 80 69 81 70 82 71 83 72 84 51 85 52 86
REMARK SMILES IDX 60 87 53 88 59 89 61 90 58 91 54 92 55 93 56 94 57 95
REMARK H PARENT 17 6 22 29 81 48 49 59
REMARK Flexibility Score: inf
ROOT
ATOM      1  C   UNL A   1      42.244  19.445  26.907  1.00  0.00     0.023 C 
ENDROOT
BRANCH   1   2
ATOM      2  C   UNL A   1      42.848  19.679  25.523  1.00  0.00     0.116 C 
BRANCH   2   3
ATOM      3  N   UNL A   1      44.293  19.768  25.567  1.00  0.00    -0.356 N 
ATOM      4  C   UNL A   1      45.134  20.831  25.441  1.00  0.00     0.227 C 
ATOM      5  O   UNL A   1      46.346  20.584  25.447  1.00  0.00    -0.274 OA
ATOM      6  H   UNL A   1      44.748  18.908  25.715  1.00  0.00     0.163 HD
BRANCH   4   7
ATOM      7  C   UNL A   1      44.656  22.286  25.298  1.00  0.00     0.105 C 
ATOM      8  C   UNL A   1      45.271  23.039  24.119  1.00  0.00     0.023 C 
BRANCH   7   9
ATOM      9  C   UNL A   1      44.600  23.034  26.620  1.00  0.00    -0.033 A 
ATOM     10  C   UNL A   1      44.415  24.198  29.240  1.00  0.00     0.018 A 
ATOM     11  C   UNL A   1      45.636  24.117  28.545  1.00  0.00     0.012 A 
ATOM     12  C   UNL A   1      43.283  23.742  28.541  1.00  0.00     0.131 A 
ATOM     13  C   UNL A   1      45.721  23.578  27.250  1.00  0.00     0.005 A 
ATOM     14  C   UNL A   1      43.371  23.150  27.280  1.00  0.00     0.044 A 
ATOM     15  F   UNL A   1      42.054  23.853  29.071  1.00  0.00    -0.206 F 
BRANCH  10  16
ATOM     16  C   UNL A   1      44.352  24.683  30.645  1.00  0.00    -0.012 A 
ATOM     17  C   UNL A   1      44.022  26.511  32.245  1.00  0.00     0.119 A 
ATOM     18  C   UNL A   1      44.156  25.638  33.315  1.00  0.00     0.046 A 
ATOM     19  C   UNL A   1      44.133  26.043  30.935  1.00  0.00     0.055 A 
ATOM     20  C   UNL A   1      44.371  24.285  33.066  1.00  0.00     0.004 A 
ATOM     21  C   UNL A   1      44.472  23.817  31.749  1.00  0.00     0.009 A 
BRANCH  17  22
ATOM     22  O   UNL A   1      43.896  27.848  32.503  1.00  0.00    -0.494 OA
BRANCH  22  23
ATOM     23  C   UNL A   1      42.609  28.198  33.025  1.00  0.00     0.226 C 
ATOM     24  C   UNL A   1      41.699  28.771  31.948  1.00  0.00     0.049 C 
ENDBRANCH  22  23
ENDBRANCH  17  22
ENDBRANCH  10  16
ENDBRANCH   7   9
ENDBRANCH   4   7
ENDBRANCH   2   3
ENDBRANCH   1   2
BRANCH   1  25
ATOM     25  C   UNL A   1      40.988  20.261  27.212  1.00  0.00     0.023 C 
BRANCH  25  26
ATOM     26  C   UNL A   1      40.743  21.452  26.288  1.00  0.00     0.116 C 
BRANCH  26  27
ATOM     27  N   UNL A   1      39.342  21.681  25.976  1.00  0.00    -0.352 N 
ATOM     28  C   UNL A   1      38.605  22.837  26.153  1.00  0.00     0.251 C 
ATOM     29  H   UNL A   1      38.856  20.917  25.592  1.00  0.00     0.163 HD
ATOM     30  O   UNL A   1      37.413  22.848  25.915  1.00  0.00    -0.269 OA
BRANCH  28  31
ATOM     31  C   UNL A   1      39.288  24.035  26.689  1.00  0.00     0.039 A 
ATOM     32  C   UNL A   1      40.048  24.823  25.822  1.00  0.00     0.014 A 
ATOM     33  C   UNL A   1      39.115  24.417  28.022  1.00  0.00     0.014 A 
ATOM     34  C   UNL A   1      40.562  26.043  26.268  1.00  0.00     0.010 A 
ATOM     35  C   UNL A   1      39.567  25.663  28.446  1.00  0.00     0.010 A 
ATOM     36  C   UNL A   1      40.283  26.493  27.570  1.00  0.00    -0.014 A 
BRANCH  36  37
ATOM     37  C   UNL A   1      40.719  27.835  28.038  1.00  0.00     0.031 A 
ATOM     38  C   UNL A   1      42.181  28.179  28.059  1.00  0.00     0.074 A 
ATOM     39  C   UNL A   1      39.809  28.698  28.530  1.00  0.00     0.049 A 
ATOM     40  N   UNL A   1      42.777  29.237  28.548  1.00  0.00    -0.248 NA
ATOM     41  C   UNL A   1      43.097  27.180  27.490  1.00  0.00     0.031 C 
ATOM     42  C   UNL A   1      38.366  28.457  28.609  1.00  0.00     0.029 A 
ATOM     43  N   UNL A   1      39.964  29.949  29.075  1.00  0.00    -0.354 N 
ATOM     44  C   UNL A   1      44.138  29.021  28.366  1.00  0.00     0.074 A 
ATOM     45  C   UNL A   1      44.278  27.706  27.775  1.00  0.00     0.031 C 
ATOM     46  C   UNL A   1      37.769  29.528  29.154  1.00  0.00     0.029 A 
ATOM     47  C   UNL A   1      38.786  30.516  29.502  1.00  0.00     0.049 A 
ATOM     48  H   UNL A   1      40.836  30.397  29.154  1.00  0.00     0.167 HD
ATOM     49  C   UNL A   1      45.175  29.851  28.648  1.00  0.00     0.034 A 
ATOM     50  C   UNL A   1      38.553  31.693  30.115  1.00  0.00     0.034 A 
ATOM     51  C   UNL A   1      45.016  31.167  29.214  1.00  0.00     0.049 A 
ATOM     52  C   UNL A   1      39.717  32.604  30.409  1.00  0.00     0.074 A 
ATOM     53  C   UNL A   1      45.987  32.115  29.484  1.00  0.00     0.029 A 
ATOM     54  N   UNL A   1      43.802  31.722  29.602  1.00  0.00    -0.354 N 
ATOM     55  N   UNL A   1      40.996  32.404  30.190  1.00  0.00    -0.248 NA
ATOM     56  C   UNL A   1      39.404  33.901  31.022  1.00  0.00     0.031 C 
ATOM     57  C   UNL A   1      45.368  33.221  30.080  1.00  0.00     0.029 A 
ATOM     58  C   UNL A   1      44.003  32.989  30.126  1.00  0.00     0.049 A 
ATOM     59  H   UNL A   1      42.926  31.279  29.517  1.00  0.00     0.167 HD
ATOM     60  C   UNL A   1      41.637  33.564  30.614  1.00  0.00     0.074 A 
ATOM     61  C   UNL A   1      40.603  34.461  31.091  1.00  0.00     0.031 C 
ATOM     62  C   UNL A   1      42.960  33.866  30.603  1.00  0.00     0.034 A 
BRANCH  49  63
ATOM     63  C   UNL A   1      46.565  29.338  28.362  1.00  0.00     0.023 A 
ATOM     64  C   UNL A   1      47.246  28.510  29.272  1.00  0.00     0.031 A 
ATOM     65  C   UNL A   1      47.240  29.718  27.188  1.00  0.00     0.131 A 
ATOM     66  C   UNL A   1      48.584  28.163  29.039  1.00  0.00     0.055 A 
ATOM     67  C   UNL A   1      48.544  29.298  26.920  1.00  0.00     0.041 A 
ATOM     68  F   UNL A   1      46.649  30.523  26.291  1.00  0.00    -0.206 F 
ATOM     69  C   UNL A   1      49.231  28.530  27.856  1.00  0.00     0.022 A 
BRANCH  66  70
ATOM     70  S   UNL A   1      49.512  27.356  30.372  1.00  0.00     0.124 S 
ATOM     71  O   UNL A   1      48.884  26.038  30.411  1.00  0.00    -0.237 OA
ATOM     72  O   UNL A   1      50.882  27.397  29.874  1.00  0.00    -0.237 OA
ATOM     73  O   UNL A   1      49.246  28.200  31.535  1.00  0.00    -0.744 OA
ENDBRANCH  66  70
ENDBRANCH  49  63
BRANCH  50  74
ATOM     74  C   UNL A   1      37.167  32.084  30.498  1.00  0.00     0.023 A 
ATOM     75  C   UNL A   1      36.301  32.676  29.567  1.00  0.00     0.031 A 
ATOM     76  C   UNL A   1      36.701  31.902  31.813  1.00  0.00     0.131 A 
ATOM     77  C   UNL A   1      35.027  33.106  29.970  1.00  0.00     0.055 A 
ATOM     78  C   UNL A   1      35.417  32.291  32.199  1.00  0.00     0.041 A 
ATOM     79  F   UNL A   1      37.487  31.330  32.739  1.00  0.00    -0.206 F 
ATOM     80  C   UNL A   1      34.576  32.909  31.278  1.00  0.00     0.022 A 
BRANCH  77  81
ATOM     81  S   UNL A   1      33.992  33.994  28.775  1.00  0.00     0.124 S 
ATOM     82  O   UNL A   1      34.929  34.977  28.242  1.00  0.00    -0.237 OA
ATOM     83  O   UNL A   1      33.597  32.925  27.864  1.00  0.00    -0.237 OA
ATOM     84  O   UNL A   1      32.914  34.539  29.598  1.00  0.00    -0.744 OA
ENDBRANCH  77  81
ENDBRANCH  50  74
BRANCH  62  85
ATOM     85  C   UNL A   1      43.350  35.242  31.079  1.00  0.00     0.023 A 
ATOM     86  C   UNL A   1      43.449  36.328  30.194  1.00  0.00     0.031 A 
ATOM     87  C   UNL A   1      43.634  35.461  32.438  1.00  0.00     0.131 A 
ATOM     88  C   UNL A   1      43.869  37.579  30.671  1.00  0.00     0.055 A 
ATOM     89  C   UNL A   1      44.002  36.719  32.915  1.00  0.00     0.041 A 
ATOM     90  F   UNL A   1      43.554  34.456  33.324  1.00  0.00    -0.206 F 
ATOM     91  C   UNL A   1      44.133  37.785  32.029  1.00  0.00     0.022 A 
BRANCH  88  92
ATOM     92  S   UNL A   1      44.137  38.922  29.482  1.00  0.00     0.124 S 
ATOM     93  O   UNL A   1      45.305  38.447  28.746  1.00  0.00    -0.237 OA
ATOM     94  O   UNL A   1      42.881  38.937  28.739  1.00  0.00    -0.237 OA
ATOM     95  O   UNL A   1      44.370  40.090  30.329  1.00  0.00    -0.744 OA
ENDBRANCH  88  92
ENDBRANCH  62  85
ENDBRANCH  36  37
ENDBRANCH  28  31
ENDBRANCH  26  27
ENDBRANCH  25  26
ENDBRANCH   1  25
TORSDOF 18
ENDMDL
MODEL 2
REMARK VINA RESULT:      -9.9      5.844     10.353
REMARK SMILES CCOc1cccc(-c2ccc([C@@H](C)C(=O)NCCCCNC(=O)c3ccc(-c4c5nc(c(-c6cc(S(=O)(=O)[O-])ccc6F)c6ccc([nH]6)c(-c6cc(S(=O)(=O)[O-])ccc6F)c6nc(c(-c7cc(S(=O)(=O)[O-])ccc7F)c7ccc4[nH]7)C=C6)C=C5)cc3)cc2F)c1
REMARK SMILES IDX 19 1 18 2 17 3 15 4 16 5 13 7 14 8 12 9 9 10 10 11 89 12
REMARK SMILES IDX 11 13 88 14 90 15 8 16 4 17 5 18 91 19 6 20 7 21 3 22 2 23
REMARK SMILES IDX 1 24 20 25 21 26 22 27 23 28 24 30 25 31 26 32 87 33 27 34
REMARK SMILES IDX 86 35 28 36 29 37 30 38 80 39 31 40 85 41 79 42 81 43 32 44
REMARK SMILES IDX 84 45 78 46 77 47 33 49 65 50 45 51 64 52 46 53 49 54 63 55
REMARK SMILES IDX 82 56 47 57 48 58 62 60 83 61 50 62 34 63 35 64 43 65 36 66
REMARK SMILES IDX 42 67 44 68 41 69 37 70 38 71 39 72 40 73 66 74 67 75 75 76
REMARK SMILES IDX 68 77 74 78 76 79 73 80 69 81 70 82 71 83 72 84 51 85 52 86
REMARK SMILES IDX 60 87 53 88 59 89 61 90 58 91 54 92 55 93 56 94 57 95
REMARK H PARENT 17 6 22 29 81 48 49 59
REMARK Flexibility Score: inf
ROOT
ATOM      1  C   UNL A   1      33.519  26.618  25.972  1.00  0.00     0.023 C 
ENDROOT
BRANCH   1   2
ATOM      2  C   UNL A   1      34.489  25.499  25.590  1.00  0.00     0.116 C 
BRANCH   2   3
ATOM      3  N   UNL A   1      34.057  24.210  26.088  1.00  0.00    -0.356 N 
ATOM      4  C   UNL A   1      33.355  23.205  25.496  1.00  0.00     0.227 C 
ATOM      5  O   UNL A   1      33.066  22.236  26.208  1.00  0.00    -0.274 OA
ATOM      6  H   UNL A   1      34.319  24.027  27.019  1.00  0.00     0.163 HD
BRANCH   4   7
ATOM      7  C   UNL A   1      32.919  23.221  24.022  1.00  0.00     0.105 C 
ATOM      8  C   UNL A   1      34.066  23.071  23.024  1.00  0.00     0.023 C 
BRANCH   7   9
ATOM      9  C   UNL A   1      31.890  24.294  23.709  1.00  0.00    -0.033 A 
ATOM     10  C   UNL A   1      30.054  26.473  23.340  1.00  0.00     0.018 A 
ATOM     11  C   UNL A   1      31.015  26.136  22.370  1.00  0.00     0.012 A 
ATOM     12  C   UNL A   1      30.001  25.631  24.465  1.00  0.00     0.131 A 
ATOM     13  C   UNL A   1      31.892  25.050  22.534  1.00  0.00     0.005 A 
ATOM     14  C   UNL A   1      30.909  24.588  24.663  1.00  0.00     0.044 A 
ATOM     15  F   UNL A   1      29.065  25.803  25.412  1.00  0.00    -0.206 F 
BRANCH  10  16
ATOM     16  C   UNL A   1      29.196  27.680  23.197  1.00  0.00    -0.012 A 
ATOM     17  C   UNL A   1      28.912  30.009  22.486  1.00  0.00     0.119 A 
ATOM     18  C   UNL A   1      27.572  29.986  22.843  1.00  0.00     0.046 A 
ATOM     19  C   UNL A   1      29.712  28.881  22.673  1.00  0.00     0.055 A 
ATOM     20  C   UNL A   1      27.026  28.815  23.362  1.00  0.00     0.004 A 
ATOM     21  C   UNL A   1      27.831  27.680  23.540  1.00  0.00     0.009 A 
BRANCH  17  22
ATOM     22  O   UNL A   1      29.456  31.188  22.057  1.00  0.00    -0.494 OA
BRANCH  22  23
ATOM     23  C   UNL A   1      28.496  32.249  21.975  1.00  0.00     0.226 C 
ATOM     24  C   UNL A   1      27.951  32.408  20.563  1.00  0.00     0.049 C 
ENDBRANCH  22  23
ENDBRANCH  17  22
ENDBRANCH  10  16
ENDBRANCH   7   9
ENDBRANCH   4   7
ENDBRANCH   2   3
ENDBRANCH   1   2
BRANCH   1  25
ATOM     25  C   UNL A   1      33.249  27.644  24.872  1.00  0.00     0.023 C 
BRANCH  25  26
ATOM     26  C   UNL A   1      33.879  29.017  25.091  1.00  0.00     0.116 C 
BRANCH  26  27
ATOM     27  N   UNL A   1      32.927  30.055  25.450  1.00  0.00    -0.352 N 
ATOM     28  C   UNL A   1      32.948  30.890  26.551  1.00  0.00     0.251 C 
ATOM     29  H   UNL A   1      32.171  30.179  24.831  1.00  0.00     0.163 HD
ATOM     30  O   UNL A   1      32.029  31.661  26.756  1.00  0.00    -0.269 OA
BRANCH  28  31
ATOM     31  C   UNL A   1      34.079  30.782  27.499  1.00  0.00     0.039 A 
ATOM     32  C   UNL A   1      34.303  29.565  28.146  1.00  0.00     0.014 A 
ATOM     33  C   UNL A   1      34.955  31.854  27.687  1.00  0.00     0.014 A 
ATOM     34  C   UNL A   1      35.458  29.393  28.913  1.00  0.00     0.010 A 
ATOM     35  C   UNL A   1      36.138  31.660  28.393  1.00  0.00     0.010 A 
ATOM     36  C   UNL A   1      36.407  30.425  29.002  1.00  0.00    -0.014 A 
BRANCH  36  37
ATOM     37  C   UNL A   1      37.697  30.235  29.716  1.00  0.00     0.031 A 
ATOM     38  C   UNL A   1      38.774  29.390  29.098  1.00  0.00     0.074 A 
ATOM     39  C   UNL A   1      37.856  30.741  30.954  1.00  0.00     0.049 A 
ATOM     40  N   UNL A   1      39.913  28.994  29.607  1.00  0.00    -0.248 NA
ATOM     41  C   UNL A   1      38.516  28.892  27.739  1.00  0.00     0.031 C 
ATOM     42  C   UNL A   1      36.861  31.535  31.680  1.00  0.00     0.029 A 
ATOM     43  N   UNL A   1      38.907  30.649  31.832  1.00  0.00    -0.354 N 
ATOM     44  C   UNL A   1      40.496  28.181  28.641  1.00  0.00     0.074 A 
ATOM     45  C   UNL A   1      39.558  28.098  27.542  1.00  0.00     0.031 C 
ATOM     46  C   UNL A   1      37.356  31.869  32.882  1.00  0.00     0.029 A 
ATOM     47  C   UNL A   1      38.683  31.281  33.033  1.00  0.00     0.049 A 
ATOM     48  H   UNL A   1      39.743  30.174  31.622  1.00  0.00     0.167 HD
ATOM     49  C   UNL A   1      41.712  27.578  28.661  1.00  0.00     0.034 A 
ATOM     50  C   UNL A   1      39.455  31.366  34.134  1.00  0.00     0.034 A 
ATOM     51  C   UNL A   1      42.644  27.692  29.755  1.00  0.00     0.049 A 
ATOM     52  C   UNL A   1      40.805  30.697  34.132  1.00  0.00     0.074 A 
ATOM     53  C   UNL A   1      43.924  27.175  29.856  1.00  0.00     0.029 A 
ATOM     54  N   UNL A   1      42.396  28.371  30.942  1.00  0.00    -0.354 N 
ATOM     55  N   UNL A   1      41.362  29.969  33.192  1.00  0.00    -0.248 NA
ATOM     56  C   UNL A   1      41.633  30.871  35.332  1.00  0.00     0.031 C 
ATOM     57  C   UNL A   1      44.429  27.498  31.122  1.00  0.00     0.029 A 
ATOM     58  C   UNL A   1      43.490  28.268  31.787  1.00  0.00     0.049 A 
ATOM     59  H   UNL A   1      41.564  28.854  31.152  1.00  0.00     0.167 HD
ATOM     60  C   UNL A   1      42.618  29.622  33.679  1.00  0.00     0.074 A 
ATOM     61  C   UNL A   1      42.739  30.228  34.989  1.00  0.00     0.031 C 
ATOM     62  C   UNL A   1      43.589  28.874  33.094  1.00  0.00     0.034 A 
BRANCH  49  63
ATOM     63  C   UNL A   1      42.078  26.728  27.470  1.00  0.00     0.023 A 
ATOM     64  C   UNL A   1      41.744  25.363  27.408  1.00  0.00     0.031 A 
ATOM     65  C   UNL A   1      42.813  27.273  26.401  1.00  0.00     0.131 A 
ATOM     66  C   UNL A   1      42.216  24.573  26.351  1.00  0.00     0.055 A 
ATOM     67  C   UNL A   1      43.207  26.499  25.309  1.00  0.00     0.041 A 
ATOM     68  F   UNL A   1      43.178  28.565  26.413  1.00  0.00    -0.206 F 
ATOM     69  C   UNL A   1      42.925  25.136  25.287  1.00  0.00     0.022 A 
BRANCH  66  70
ATOM     70  S   UNL A   1      42.023  22.773  26.465  1.00  0.00     0.124 S 
ATOM     71  O   UNL A   1      42.844  22.464  27.633  1.00  0.00    -0.237 OA
ATOM     72  O   UNL A   1      40.584  22.619  26.637  1.00  0.00    -0.237 OA
ATOM     73  O   UNL A   1      42.556  22.289  25.193  1.00  0.00    -0.744 OA
ENDBRANCH  66  70
ENDBRANCH  49  63
BRANCH  50  74
ATOM     74  C   UNL A   1      38.977  32.107  35.335  1.00  0.00     0.023 A 
ATOM     75  C   UNL A   1      38.399  31.428  36.419  1.00  0.00     0.031 A 
ATOM     76  C   UNL A   1      39.059  33.510  35.401  1.00  0.00     0.131 A 
ATOM     77  C   UNL A   1      37.886  32.153  37.506  1.00  0.00     0.055 A 
ATOM     78  C   UNL A   1      38.587  34.224  36.505  1.00  0.00     0.041 A 
ATOM     79  F   UNL A   1      39.613  34.205  34.395  1.00  0.00    -0.206 F 
ATOM     80  C   UNL A   1      37.985  33.545  37.560  1.00  0.00     0.022 A 
BRANCH  77  81
ATOM     81  S   UNL A   1      37.021  31.250  38.819  1.00  0.00     0.124 S 
ATOM     82  O   UNL A   1      36.943  29.907  38.257  1.00  0.00    -0.237 OA
ATOM     83  O   UNL A   1      37.926  31.422  39.951  1.00  0.00    -0.237 OA
ATOM     84  O   UNL A   1      35.746  31.956  38.932  1.00  0.00    -0.744 OA
ENDBRANCH  77  81
ENDBRANCH  50  74
BRANCH  62  85
ATOM     85  C   UNL A   1      44.881  28.719  33.853  1.00  0.00     0.023 A 
ATOM     86  C   UNL A   1      45.092  27.652  34.742  1.00  0.00     0.031 A 
ATOM     87  C   UNL A   1      45.912  29.662  33.687  1.00  0.00     0.131 A 
ATOM     88  C   UNL A   1      46.289  27.578  35.470  1.00  0.00     0.055 A 
ATOM     89  C   UNL A   1      47.119  29.555  34.376  1.00  0.00     0.041 A 
ATOM     90  F   UNL A   1      45.759  30.700  32.850  1.00  0.00    -0.206 F 
ATOM     91  C   UNL A   1      47.310  28.515  35.282  1.00  0.00     0.022 A 
BRANCH  88  92
ATOM     92  S   UNL A   1      46.470  26.279  36.723  1.00  0.00     0.124 S 
ATOM     93  O   UNL A   1      47.425  25.376  36.088  1.00  0.00    -0.237 OA
ATOM     94  O   UNL A   1      46.968  27.024  37.875  1.00  0.00    -0.237 OA
ATOM     95  O   UNL A   1      45.115  25.749  36.867  1.00  0.00    -0.744 OA
ENDBRANCH  88  92
ENDBRANCH  62  85
ENDBRANCH  36  37
ENDBRANCH  28  31
ENDBRANCH  26  27
ENDBRANCH  25  26
ENDBRANCH   1  25
TORSDOF 18
ENDMDL
MODEL 3
REMARK VINA RESULT:      -9.8      5.608     10.636
REMARK SMILES CCOc1cccc(-c2ccc([C@@H](C)C(=O)NCCCCNC(=O)c3ccc(-c4c5nc(c(-c6cc(S(=O)(=O)[O-])ccc6F)c6ccc([nH]6)c(-c6cc(S(=O)(=O)[O-])ccc6F)c6nc(c(-c7cc(S(=O)(=O)[O-])ccc7F)c7ccc4[nH]7)C=C6)C=C5)cc3)cc2F)c1
REMARK SMILES IDX 19 1 18 2 17 3 15 4 16 5 13 7 14 8 12 9 9 10 10 11 89 12
REMARK SMILES IDX 11 13 88 14 90 15 8 16 4 17 5 18 91 19 6 20 7 21 3 22 2 23
REMARK SMILES IDX 1 24 20 25 21 26 22 27 23 28 24 30 25 31 26 32 87 33 27 34
REMARK SMILES IDX 86 35 28 36 29 37 30 38 80 39 31 40 85 41 79 42 81 43 32 44
REMARK SMILES IDX 84 45 78 46 77 47 33 49 65 50 45 51 64 52 46 53 49 54 63 55
REMARK SMILES IDX 82 56 47 57 48 58 62 60 83 61 50 62 34 63 35 64 43 65 36 66
REMARK SMILES IDX 42 67 44 68 41 69 37 70 38 71 39 72 40 73 66 74 67 75 75 76
REMARK SMILES IDX 68 77 74 78 76 79 73 80 69 81 70 82 71 83 72 84 51 85 52 86
REMARK SMILES IDX 60 87 53 88 59 89 61 90 58 91 54 92 55 93 56 94 57 95
REMARK H PARENT 17 6 22 29 81 48 49 59
REMARK Flexibility Score: inf
ROOT
ATOM      1  C   UNL A   1      32.475  29.527  26.187  1.00  0.00     0.023 C 
ENDROOT
BRANCH   1   2
ATOM      2  C   UNL A   1      32.747  28.312  27.073  1.00  0.00     0.116 C 
BRANCH   2   3
ATOM      3  N   UNL A   1      31.614  27.411  27.127  1.00  0.00    -0.356 N 
ATOM      4  C   UNL A   1      31.087  26.571  26.196  1.00  0.00     0.227 C 
ATOM      5  O   UNL A   1      30.052  25.972  26.511  1.00  0.00    -0.274 OA
ATOM      6  H   UNL A   1      31.142  27.406  27.991  1.00  0.00     0.163 HD
BRANCH   4   7
ATOM      7  C   UNL A   1      31.706  26.338  24.808  1.00  0.00     0.105 C 
ATOM      8  C   UNL A   1      30.807  26.741  23.640  1.00  0.00     0.023 C 
BRANCH   7   9
ATOM      9  C   UNL A   1      32.415  24.999  24.681  1.00  0.00    -0.033 A 
ATOM     10  C   UNL A   1      33.562  22.366  24.634  1.00  0.00     0.018 A 
ATOM     11  C   UNL A   1      32.962  22.938  23.497  1.00  0.00     0.012 A 
ATOM     12  C   UNL A   1      33.631  23.192  25.769  1.00  0.00     0.131 A 
ATOM     13  C   UNL A   1      32.430  24.238  23.510  1.00  0.00     0.005 A 
ATOM     14  C   UNL A   1      33.050  24.461  25.807  1.00  0.00     0.044 A 
ATOM     15  F   UNL A   1      34.261  22.784  26.883  1.00  0.00    -0.206 F 
BRANCH  10  16
ATOM     16  C   UNL A   1      34.037  20.956  24.634  1.00  0.00    -0.012 A 
ATOM     17  C   UNL A   1      33.610  18.573  24.245  1.00  0.00     0.119 A 
ATOM     18  C   UNL A   1      34.924  18.257  24.557  1.00  0.00     0.046 A 
ATOM     19  C   UNL A   1      33.172  19.897  24.298  1.00  0.00     0.055 A 
ATOM     20  C   UNL A   1      35.809  19.277  24.892  1.00  0.00     0.004 A 
ATOM     21  C   UNL A   1      35.368  20.608  24.934  1.00  0.00     0.009 A 
BRANCH  17  22
ATOM     22  O   UNL A   1      32.730  17.555  24.001  1.00  0.00    -0.494 OA
BRANCH  22  23
ATOM     23  C   UNL A   1      33.309  16.258  24.195  1.00  0.00     0.226 C 
ATOM     24  C   UNL A   1      32.775  15.585  25.451  1.00  0.00     0.049 C 
ENDBRANCH  22  23
ENDBRANCH  17  22
ENDBRANCH  10  16
ENDBRANCH   7   9
ENDBRANCH   4   7
ENDBRANCH   2   3
ENDBRANCH   1   2
BRANCH   1  25
ATOM     25  C   UNL A   1      32.012  30.780  26.931  1.00  0.00     0.023 C 
BRANCH  25  26
ATOM     26  C   UNL A   1      33.118  31.765  27.301  1.00  0.00     0.116 C 
BRANCH  26  27
ATOM     27  N   UNL A   1      32.661  33.136  27.457  1.00  0.00    -0.352 N 
ATOM     28  C   UNL A   1      33.146  34.106  28.314  1.00  0.00     0.251 C 
ATOM     29  H   UNL A   1      31.912  33.409  26.879  1.00  0.00     0.163 HD
ATOM     30  O   UNL A   1      32.602  35.192  28.383  1.00  0.00    -0.269 OA
BRANCH  28  31
ATOM     31  C   UNL A   1      34.298  33.773  29.180  1.00  0.00     0.039 A 
ATOM     32  C   UNL A   1      34.093  32.947  30.288  1.00  0.00     0.014 A 
ATOM     33  C   UNL A   1      35.584  34.211  28.855  1.00  0.00     0.014 A 
ATOM     34  C   UNL A   1      35.190  32.487  31.019  1.00  0.00     0.010 A 
ATOM     35  C   UNL A   1      36.681  33.697  29.540  1.00  0.00     0.010 A 
ATOM     36  C   UNL A   1      36.495  32.821  30.620  1.00  0.00    -0.014 A 
BRANCH  36  37
ATOM     37  C   UNL A   1      37.686  32.257  31.307  1.00  0.00     0.031 A 
ATOM     38  C   UNL A   1      38.453  31.134  30.669  1.00  0.00     0.074 A 
ATOM     39  C   UNL A   1      38.013  32.689  32.541  1.00  0.00     0.049 A 
ATOM     40  N   UNL A   1      39.435  30.418  31.156  1.00  0.00    -0.248 NA
ATOM     41  C   UNL A   1      38.032  30.739  29.318  1.00  0.00     0.031 C 
ATOM     42  C   UNL A   1      37.312  33.739  33.284  1.00  0.00     0.029 A 
ATOM     43  N   UNL A   1      39.008  32.288  33.397  1.00  0.00    -0.354 N 
ATOM     44  C   UNL A   1      39.733  29.473  30.181  1.00  0.00     0.074 A 
ATOM     45  C   UNL A   1      38.789  29.673  29.101  1.00  0.00     0.031 C 
ATOM     46  C   UNL A   1      37.908  33.908  34.476  1.00  0.00     0.029 A 
ATOM     47  C   UNL A   1      39.005  32.955  34.600  1.00  0.00     0.049 A 
ATOM     48  H   UNL A   1      39.663  31.589  33.171  1.00  0.00     0.167 HD
ATOM     49  C   UNL A   1      40.717  28.538  30.177  1.00  0.00     0.034 A 
ATOM     50  C   UNL A   1      39.791  32.805  35.685  1.00  0.00     0.034 A 
ATOM     51  C   UNL A   1      41.664  28.369  31.251  1.00  0.00     0.049 A 
ATOM     52  C   UNL A   1      40.883  31.768  35.656  1.00  0.00     0.074 A 
ATOM     53  C   UNL A   1      42.737  27.497  31.327  1.00  0.00     0.029 A 
ATOM     54  N   UNL A   1      41.652  29.087  32.441  1.00  0.00    -0.354 N 
ATOM     55  N   UNL A   1      41.182  30.911  34.707  1.00  0.00    -0.248 NA
ATOM     56  C   UNL A   1      41.750  31.686  36.838  1.00  0.00     0.031 C 
ATOM     57  C   UNL A   1      43.341  27.652  32.581  1.00  0.00     0.029 A 
ATOM     58  C   UNL A   1      42.684  28.663  33.264  1.00  0.00     0.049 A 
ATOM     59  H   UNL A   1      41.003  29.792  32.667  1.00  0.00     0.167 HD
ATOM     60  C   UNL A   1      42.290  30.207  35.169  1.00  0.00     0.074 A 
ATOM     61  C   UNL A   1      42.611  30.747  36.474  1.00  0.00     0.031 C 
ATOM     62  C   UNL A   1      42.985  29.209  34.566  1.00  0.00     0.034 A 
BRANCH  49  63
ATOM     63  C   UNL A   1      40.792  27.622  28.981  1.00  0.00     0.023 A 
ATOM     64  C   UNL A   1      41.737  27.820  27.959  1.00  0.00     0.031 A 
ATOM     65  C   UNL A   1      39.878  26.563  28.833  1.00  0.00     0.131 A 
ATOM     66  C   UNL A   1      41.692  27.033  26.799  1.00  0.00     0.055 A 
ATOM     67  C   UNL A   1      39.893  25.729  27.714  1.00  0.00     0.041 A 
ATOM     68  F   UNL A   1      38.939  26.336  29.766  1.00  0.00    -0.206 F 
ATOM     69  C   UNL A   1      40.792  25.972  26.680  1.00  0.00     0.022 A 
BRANCH  66  70
ATOM     70  S   UNL A   1      42.722  27.517  25.387  1.00  0.00     0.124 S 
ATOM     71  O   UNL A   1      43.976  27.873  26.047  1.00  0.00    -0.237 OA
ATOM     72  O   UNL A   1      42.747  26.301  24.582  1.00  0.00    -0.237 OA
ATOM     73  O   UNL A   1      41.995  28.640  24.800  1.00  0.00    -0.744 OA
ENDBRANCH  66  70
ENDBRANCH  49  63
BRANCH  50  74
ATOM     74  C   UNL A   1      39.577  33.650  36.893  1.00  0.00     0.023 A 
ATOM     75  C   UNL A   1      38.961  33.126  38.040  1.00  0.00     0.031 A 
ATOM     76  C   UNL A   1      39.956  35.004  36.906  1.00  0.00     0.131 A 
ATOM     77  C   UNL A   1      38.701  33.961  39.138  1.00  0.00     0.055 A 
ATOM     78  C   UNL A   1      39.734  35.820  38.018  1.00  0.00     0.041 A 
ATOM     79  F   UNL A   1      40.558  35.551  35.838  1.00  0.00    -0.206 F 
ATOM     80  C   UNL A   1      39.092  35.302  39.138  1.00  0.00     0.022 A 
BRANCH  77  81
ATOM     81  S   UNL A   1      37.776  33.282  40.543  1.00  0.00     0.124 S 
ATOM     82  O   UNL A   1      36.469  33.031  39.946  1.00  0.00    -0.237 OA
ATOM     83  O   UNL A   1      38.564  32.103  40.882  1.00  0.00    -0.237 OA
ATOM     84  O   UNL A   1      37.816  34.361  41.528  1.00  0.00    -0.744 OA
ENDBRANCH  77  81
ENDBRANCH  50  74
BRANCH  62  85
ATOM     85  C   UNL A   1      44.189  28.677  35.299  1.00  0.00     0.023 A 
ATOM     86  C   UNL A   1      44.067  27.738  36.336  1.00  0.00     0.031 A 
ATOM     87  C   UNL A   1      45.476  29.128  34.956  1.00  0.00     0.131 A 
ATOM     88  C   UNL A   1      45.211  27.312  37.027  1.00  0.00     0.055 A 
ATOM     89  C   UNL A   1      46.614  28.664  35.614  1.00  0.00     0.041 A 
ATOM     90  F   UNL A   1      45.646  30.027  33.973  1.00  0.00    -0.206 F 
ATOM     91  C   UNL A   1      46.486  27.758  36.664  1.00  0.00     0.022 A 
BRANCH  88  92
ATOM     92  S   UNL A   1      45.008  26.219  38.461  1.00  0.00     0.124 S 
ATOM     93  O   UNL A   1      45.424  24.929  37.920  1.00  0.00    -0.237 OA
ATOM     94  O   UNL A   1      45.909  26.819  39.440  1.00  0.00    -0.237 OA
ATOM     95  O   UNL A   1      43.586  26.330  38.779  1.00  0.00    -0.744 OA
ENDBRANCH  88  92
ENDBRANCH  62  85
ENDBRANCH  36  37
ENDBRANCH  28  31
ENDBRANCH  26  27
ENDBRANCH  25  26
ENDBRANCH   1  25
TORSDOF 18
ENDMDL
