MODEL 1
REMARK VINA RESULT:     -12.5      0.000      0.000
REMARK SMILES Cc1ccc(C[C@H](C(=O)NCCCCNC(=O)c2ccc(-c3c4nc(c(-c5cc(S(=O)(=O)[O-])ccc5F)c5ccc([nH]5)c(-c5cc(S(=O)(=O)[O-])ccc5F)c5nc(c(-c6cc(S(=O)(=O)[O-])ccc6F)c6ccc3[nH]6)C=C5)C=C4)cc2)[C@@H]2CCCC[C@@H]2O)cc1
REMARK SMILES IDX 13 1 12 2 11 3 10 4 8 5 9 6 7 8 6 9 5 10 1 11 2 12 3 13
REMARK SMILES IDX 89 14 4 15 88 16 81 17 82 18 86 19 83 20 85 21 84 22 87 23
REMARK SMILES IDX 14 25 15 26 16 27 17 29 18 30 19 31 80 32 20 33 79 34 21 35
REMARK SMILES IDX 22 36 23 37 73 38 24 39 78 40 72 41 74 42 25 43 77 44 71 45
REMARK SMILES IDX 70 46 26 48 58 49 38 50 57 51 39 52 42 53 56 54 75 55 40 56
REMARK SMILES IDX 41 57 55 59 76 60 43 61 27 62 28 63 36 64 29 65 35 66 37 67
REMARK SMILES IDX 34 68 30 69 31 70 32 71 33 72 59 73 60 74 68 75 61 76 67 77
REMARK SMILES IDX 69 78 66 79 62 80 63 81 64 82 65 83 44 84 45 85 53 86 46 87
REMARK SMILES IDX 52 88 54 89 51 90 47 91 48 92 49 93 50 94
REMARK H PARENT 10 7 87 24 15 28 74 47 42 58
REMARK Flexibility Score: inf
ROOT
ATOM      1  C   UNL A   1      33.100  30.806  27.233  1.00  0.00     0.023 C 
ENDROOT
BRANCH   1   2
ATOM      2  C   UNL A   1      32.009  29.744  27.281  1.00  0.00     0.023 C 
BRANCH   2   3
ATOM      3  C   UNL A   1      32.481  28.281  27.410  1.00  0.00     0.116 C 
BRANCH   3   4
ATOM      4  N   UNL A   1      31.386  27.358  27.134  1.00  0.00    -0.356 N 
ATOM      5  C   UNL A   1      31.087  26.486  26.150  1.00  0.00     0.223 C 
ATOM      6  O   UNL A   1      30.058  25.842  26.397  1.00  0.00    -0.275 OA
ATOM      7  H   UNL A   1      30.697  27.376  27.839  1.00  0.00     0.163 HD
BRANCH   5   8
ATOM      8  C   UNL A   1      31.935  26.211  24.872  1.00  0.00     0.088 C 
BRANCH   8   9
ATOM      9  C   UNL A   1      32.109  24.641  24.776  1.00  0.00     0.049 C 
BRANCH   9  10
ATOM     10  C   UNL A   1      33.488  23.984  24.804  1.00  0.00    -0.047 A 
ATOM     11  C   UNL A   1      37.426  22.156  24.751  1.00  0.00     0.044 C 
ATOM     12  C   UNL A   1      36.060  22.771  24.750  1.00  0.00    -0.051 A 
ATOM     13  C   UNL A   1      35.515  23.241  25.944  1.00  0.00     0.004 A 
ATOM     14  C   UNL A   1      35.324  22.925  23.573  1.00  0.00     0.004 A 
ATOM     15  C   UNL A   1      34.245  23.827  25.968  1.00  0.00     0.004 A 
ATOM     16  C   UNL A   1      34.064  23.539  23.599  1.00  0.00     0.004 A 
ENDBRANCH   9  10
ENDBRANCH   8   9
BRANCH   8  17
ATOM     17  C   UNL A   1      31.453  26.869  23.513  1.00  0.00     0.030 C 
ATOM     18  C   UNL A   1      32.193  26.420  22.224  1.00  0.00     0.007 C 
ATOM     19  C   UNL A   1      31.561  28.410  23.410  1.00  0.00     0.118 C 
ATOM     20  C   UNL A   1      33.655  26.873  22.165  1.00  0.00     0.001 C 
ATOM     21  C   UNL A   1      32.998  28.917  23.523  1.00  0.00     0.032 C 
ATOM     22  C   UNL A   1      33.823  28.380  22.358  1.00  0.00     0.003 C 
BRANCH  19  23
ATOM     23  O   UNL A   1      30.717  29.068  24.304  1.00  0.00    -0.393 OA
ATOM     24  H   UNL A   1      31.178  29.200  25.147  1.00  0.00     0.210 HD
ENDBRANCH  19  23
ENDBRANCH   8  17
ENDBRANCH   5   8
ENDBRANCH   3   4
ENDBRANCH   2   3
ENDBRANCH   1   2
BRANCH   1  25
ATOM     25  C   UNL A   1      34.436  30.319  27.749  1.00  0.00     0.116 C 
BRANCH  25  26
ATOM     26  N   UNL A   1      35.029  31.167  28.779  1.00  0.00    -0.352 N 
ATOM     27  C   UNL A   1      36.152  30.909  29.556  1.00  0.00     0.251 C 
ATOM     28  H   UNL A   1      34.579  32.027  28.943  1.00  0.00     0.163 HD
ATOM     29  O   UNL A   1      36.540  31.683  30.413  1.00  0.00    -0.269 OA
BRANCH  27  30
ATOM     30  C   UNL A   1      36.947  29.701  29.224  1.00  0.00     0.039 A 
ATOM     31  C   UNL A   1      37.282  28.844  30.275  1.00  0.00     0.014 A 
ATOM     32  C   UNL A   1      37.611  29.625  28.006  1.00  0.00     0.014 A 
ATOM     33  C   UNL A   1      38.456  28.100  30.190  1.00  0.00     0.010 A 
ATOM     34  C   UNL A   1      38.847  29.014  27.983  1.00  0.00     0.010 A 
ATOM     35  C   UNL A   1      39.298  28.290  29.094  1.00  0.00    -0.014 A 
BRANCH  35  36
ATOM     36  C   UNL A   1      40.687  27.841  29.058  1.00  0.00     0.031 A 
ATOM     37  C   UNL A   1      41.009  26.481  28.575  1.00  0.00     0.074 A 
ATOM     38  C   UNL A   1      41.692  28.663  29.437  1.00  0.00     0.049 A 
ATOM     39  N   UNL A   1      42.083  25.835  28.875  1.00  0.00    -0.248 NA
ATOM     40  C   UNL A   1      40.099  25.717  27.729  1.00  0.00     0.031 C 
ATOM     41  C   UNL A   1      43.128  28.442  29.279  1.00  0.00     0.029 A 
ATOM     42  N   UNL A   1      41.604  29.751  30.304  1.00  0.00    -0.354 N 
ATOM     43  C   UNL A   1      42.132  24.705  28.093  1.00  0.00     0.074 A 
ATOM     44  C   UNL A   1      40.860  24.667  27.414  1.00  0.00     0.031 C 
ATOM     45  C   UNL A   1      43.776  29.135  30.228  1.00  0.00     0.029 A 
ATOM     46  C   UNL A   1      42.776  29.733  31.091  1.00  0.00     0.049 A 
ATOM     47  H   UNL A   1      40.869  30.404  30.357  1.00  0.00     0.167 HD
ATOM     48  C   UNL A   1      43.281  23.977  28.032  1.00  0.00     0.034 A 
ATOM     49  C   UNL A   1      42.694  29.598  32.447  1.00  0.00     0.034 A 
ATOM     50  C   UNL A   1      44.298  24.486  28.950  1.00  0.00     0.049 A 
ATOM     51  C   UNL A   1      43.338  28.331  32.976  1.00  0.00     0.074 A 
ATOM     52  C   UNL A   1      45.410  25.302  28.822  1.00  0.00     0.029 A 
ATOM     53  N   UNL A   1      44.066  24.371  30.308  1.00  0.00    -0.354 N 
ATOM     54  N   UNL A   1      43.931  27.434  32.233  1.00  0.00    -0.248 NA
ATOM     55  C   UNL A   1      43.279  27.930  34.382  1.00  0.00     0.031 C 
ATOM     56  C   UNL A   1      45.806  25.716  30.131  1.00  0.00     0.029 A 
ATOM     57  C   UNL A   1      44.951  25.130  31.047  1.00  0.00     0.049 A 
ATOM     58  H   UNL A   1      43.355  23.815  30.700  1.00  0.00     0.167 HD
ATOM     59  C   UNL A   1      44.245  26.343  33.001  1.00  0.00     0.074 A 
ATOM     60  C   UNL A   1      43.826  26.705  34.343  1.00  0.00     0.031 C 
ATOM     61  C   UNL A   1      44.775  25.193  32.490  1.00  0.00     0.034 A 
BRANCH  48  62
ATOM     62  C   UNL A   1      43.554  22.931  26.981  1.00  0.00     0.023 A 
ATOM     63  C   UNL A   1      42.902  21.686  27.072  1.00  0.00     0.031 A 
ATOM     64  C   UNL A   1      44.448  23.070  25.901  1.00  0.00     0.131 A 
ATOM     65  C   UNL A   1      43.219  20.629  26.199  1.00  0.00     0.055 A 
ATOM     66  C   UNL A   1      44.821  21.999  25.080  1.00  0.00     0.041 A 
ATOM     67  F   UNL A   1      44.952  24.262  25.553  1.00  0.00    -0.206 F 
ATOM     68  C   UNL A   1      44.213  20.764  25.235  1.00  0.00     0.022 A 
BRANCH  65  69
ATOM     69  S   UNL A   1      42.291  19.078  26.324  1.00  0.00     0.124 S 
ATOM     70  O   UNL A   1      43.076  18.177  25.487  1.00  0.00    -0.237 OA
ATOM     71  O   UNL A   1      42.320  18.818  27.759  1.00  0.00    -0.237 OA
ATOM     72  O   UNL A   1      40.975  19.427  25.788  1.00  0.00    -0.744 OA
ENDBRANCH  65  69
ENDBRANCH  48  62
BRANCH  49  73
ATOM     73  C   UNL A   1      41.492  30.287  33.009  1.00  0.00     0.023 A 
ATOM     74  C   UNL A   1      41.540  31.699  33.037  1.00  0.00     0.031 A 
ATOM     75  C   UNL A   1      40.234  29.676  33.089  1.00  0.00     0.131 A 
ATOM     76  C   UNL A   1      40.364  32.445  32.894  1.00  0.00     0.055 A 
ATOM     77  C   UNL A   1      39.057  30.436  33.075  1.00  0.00     0.041 A 
ATOM     78  F   UNL A   1      40.111  28.342  33.035  1.00  0.00    -0.206 F 
ATOM     79  C   UNL A   1      39.118  31.822  32.916  1.00  0.00     0.022 A 
BRANCH  76  80
ATOM     80  S   UNL A   1      40.515  34.167  32.316  1.00  0.00     0.124 S 
ATOM     81  O   UNL A   1      40.513  34.910  33.571  1.00  0.00    -0.237 OA
ATOM     82  O   UNL A   1      41.781  34.147  31.583  1.00  0.00    -0.237 OA
ATOM     83  O   UNL A   1      39.338  34.346  31.469  1.00  0.00    -0.744 OA
ENDBRANCH  76  80
ENDBRANCH  49  73
BRANCH  61  84
ATOM     84  C   UNL A   1      45.132  24.017  33.357  1.00  0.00     0.023 A 
ATOM     85  C   UNL A   1      46.430  23.858  33.871  1.00  0.00     0.031 A 
ATOM     86  C   UNL A   1      44.212  22.987  33.643  1.00  0.00     0.131 A 
ATOM     87  C   UNL A   1      46.747  22.763  34.690  1.00  0.00     0.055 A 
ATOM     88  C   UNL A   1      44.558  21.851  34.380  1.00  0.00     0.041 A 
ATOM     89  F   UNL A   1      42.929  23.063  33.261  1.00  0.00    -0.206 F 
ATOM     90  C   UNL A   1      45.830  21.740  34.921  1.00  0.00     0.022 A 
BRANCH  87  91
ATOM     91  S   UNL A   1      48.351  22.753  35.530  1.00  0.00     0.124 S 
ATOM     92  O   UNL A   1      48.689  24.171  35.593  1.00  0.00    -0.237 OA
ATOM     93  O   UNL A   1      48.012  22.123  36.803  1.00  0.00    -0.237 OA
ATOM     94  O   UNL A   1      49.196  21.949  34.648  1.00  0.00    -0.744 OA
ENDBRANCH  87  91
ENDBRANCH  61  84
ENDBRANCH  35  36
ENDBRANCH  27  30
ENDBRANCH  25  26
ENDBRANCH   1  25
TORSDOF 18
ENDMDL
MODEL 2
REMARK VINA RESULT:     -12.3      4.150     10.594
REMARK SMILES Cc1ccc(C[C@H](C(=O)NCCCCNC(=O)c2ccc(-c3c4nc(c(-c5cc(S(=O)(=O)[O-])ccc5F)c5ccc([nH]5)c(-c5cc(S(=O)(=O)[O-])ccc5F)c5nc(c(-c6cc(S(=O)(=O)[O-])ccc6F)c6ccc3[nH]6)C=C5)C=C4)cc2)[C@@H]2CCCC[C@@H]2O)cc1
REMARK SMILES IDX 13 1 12 2 11 3 10 4 8 5 9 6 7 8 6 9 5 10 1 11 2 12 3 13
REMARK SMILES IDX 89 14 4 15 88 16 81 17 82 18 86 19 83 20 85 21 84 22 87 23
REMARK SMILES IDX 14 25 15 26 16 27 17 29 18 30 19 31 80 32 20 33 79 34 21 35
REMARK SMILES IDX 22 36 23 37 73 38 24 39 78 40 72 41 74 42 25 43 77 44 71 45
REMARK SMILES IDX 70 46 26 48 58 49 38 50 57 51 39 52 42 53 56 54 75 55 40 56
REMARK SMILES IDX 41 57 55 59 76 60 43 61 27 62 28 63 36 64 29 65 35 66 37 67
REMARK SMILES IDX 34 68 30 69 31 70 32 71 33 72 59 73 60 74 68 75 61 76 67 77
REMARK SMILES IDX 69 78 66 79 62 80 63 81 64 82 65 83 44 84 45 85 53 86 46 87
REMARK SMILES IDX 52 88 54 89 51 90 47 91 48 92 49 93 50 94
REMARK H PARENT 10 7 87 24 15 28 74 47 42 58
REMARK Flexibility Score: inf
ROOT
ATOM      1  C   UNL A   1      38.445  21.683  25.751  1.00  0.00     0.023 C 
ENDROOT
BRANCH   1   2
ATOM      2  C   UNL A   1      37.282  21.795  24.775  1.00  0.00     0.023 C 
BRANCH   2   3
ATOM      3  C   UNL A   1      36.863  23.223  24.367  1.00  0.00     0.116 C 
BRANCH   3   4
ATOM      4  N   UNL A   1      35.887  23.187  23.284  1.00  0.00    -0.356 N 
ATOM      5  C   UNL A   1      34.553  23.357  23.185  1.00  0.00     0.223 C 
ATOM      6  O   UNL A   1      34.166  23.314  22.009  1.00  0.00    -0.275 OA
ATOM      7  H   UNL A   1      36.304  22.991  22.414  1.00  0.00     0.163 HD
BRANCH   5   8
ATOM      8  C   UNL A   1      33.571  23.660  24.356  1.00  0.00     0.088 C 
BRANCH   8   9
ATOM      9  C   UNL A   1      32.744  24.940  23.931  1.00  0.00     0.049 C 
BRANCH   9  10
ATOM     10  C   UNL A   1      32.712  26.198  24.798  1.00  0.00    -0.047 A 
ATOM     11  C   UNL A   1      32.485  29.758  27.273  1.00  0.00     0.044 C 
ATOM     12  C   UNL A   1      32.547  28.541  26.402  1.00  0.00    -0.051 A 
ATOM     13  C   UNL A   1      33.718  27.784  26.358  1.00  0.00     0.004 A 
ATOM     14  C   UNL A   1      31.448  28.114  25.655  1.00  0.00     0.004 A 
ATOM     15  C   UNL A   1      33.799  26.639  25.559  1.00  0.00     0.004 A 
ATOM     16  C   UNL A   1      31.525  26.950  24.879  1.00  0.00     0.004 A 
ENDBRANCH   9  10
ENDBRANCH   8   9
BRANCH   8  17
ATOM     17  C   UNL A   1      32.660  22.474  24.879  1.00  0.00     0.030 C 
ATOM     18  C   UNL A   1      31.570  22.844  25.920  1.00  0.00     0.007 C 
ATOM     19  C   UNL A   1      33.382  21.303  25.590  1.00  0.00     0.118 C 
ATOM     20  C   UNL A   1      32.135  23.280  27.275  1.00  0.00     0.001 C 
ATOM     21  C   UNL A   1      34.110  21.736  26.862  1.00  0.00     0.032 C 
ATOM     22  C   UNL A   1      33.099  22.258  27.878  1.00  0.00     0.003 C 
BRANCH  19  23
ATOM     23  O   UNL A   1      34.226  20.595  24.736  1.00  0.00    -0.393 OA
ATOM     24  H   UNL A   1      34.194  20.988  23.850  1.00  0.00     0.210 HD
ENDBRANCH  19  23
ENDBRANCH   8  17
ENDBRANCH   5   8
ENDBRANCH   3   4
ENDBRANCH   2   3
ENDBRANCH   1   2
BRANCH   1  25
ATOM     25  C   UNL A   1      38.933  23.020  26.261  1.00  0.00     0.116 C 
BRANCH  25  26
ATOM     26  N   UNL A   1      40.386  23.154  26.310  1.00  0.00    -0.352 N 
ATOM     27  C   UNL A   1      41.132  24.308  26.516  1.00  0.00     0.251 C 
ATOM     28  H   UNL A   1      40.901  22.324  26.180  1.00  0.00     0.163 HD
ATOM     29  O   UNL A   1      42.350  24.304  26.506  1.00  0.00    -0.269 OA
BRANCH  27  30
ATOM     30  C   UNL A   1      40.392  25.542  26.877  1.00  0.00     0.039 A 
ATOM     31  C   UNL A   1      40.780  26.730  26.252  1.00  0.00     0.014 A 
ATOM     32  C   UNL A   1      39.607  25.566  28.022  1.00  0.00     0.014 A 
ATOM     33  C   UNL A   1      40.605  27.935  26.927  1.00  0.00     0.010 A 
ATOM     34  C   UNL A   1      39.573  26.733  28.757  1.00  0.00     0.010 A 
ATOM     35  C   UNL A   1      40.118  27.912  28.234  1.00  0.00    -0.014 A 
BRANCH  35  36
ATOM     36  C   UNL A   1      40.214  29.047  29.149  1.00  0.00     0.031 A 
ATOM     37  C   UNL A   1      39.132  30.053  29.188  1.00  0.00     0.074 A 
ATOM     38  C   UNL A   1      41.270  29.177  29.984  1.00  0.00     0.049 A 
ATOM     39  N   UNL A   1      39.276  31.263  29.609  1.00  0.00    -0.248 NA
ATOM     40  C   UNL A   1      37.785  29.773  28.704  1.00  0.00     0.031 C 
ATOM     41  C   UNL A   1      41.422  30.131  31.081  1.00  0.00     0.029 A 
ATOM     42  N   UNL A   1      42.545  28.640  29.814  1.00  0.00    -0.354 N 
ATOM     43  C   UNL A   1      38.029  31.837  29.688  1.00  0.00     0.074 A 
ATOM     44  C   UNL A   1      37.137  30.874  29.089  1.00  0.00     0.031 C 
ATOM     45  C   UNL A   1      42.730  30.345  31.285  1.00  0.00     0.029 A 
ATOM     46  C   UNL A   1      43.456  29.623  30.258  1.00  0.00     0.049 A 
ATOM     47  H   UNL A   1      42.766  27.751  29.455  1.00  0.00     0.167 HD
ATOM     48  C   UNL A   1      37.872  33.023  30.339  1.00  0.00     0.034 A 
ATOM     49  C   UNL A   1      44.376  30.150  29.397  1.00  0.00     0.034 A 
ATOM     50  C   UNL A   1      39.152  33.578  30.776  1.00  0.00     0.049 A 
ATOM     51  C   UNL A   1      44.202  31.637  29.152  1.00  0.00     0.074 A 
ATOM     52  C   UNL A   1      39.852  33.598  31.971  1.00  0.00     0.029 A 
ATOM     53  N   UNL A   1      40.043  34.002  29.807  1.00  0.00    -0.354 N 
ATOM     54  N   UNL A   1      43.276  32.377  29.701  1.00  0.00    -0.248 NA
ATOM     55  C   UNL A   1      45.009  32.388  28.188  1.00  0.00     0.031 C 
ATOM     56  C   UNL A   1      41.196  33.992  31.688  1.00  0.00     0.029 A 
ATOM     57  C   UNL A   1      41.299  34.234  30.330  1.00  0.00     0.049 A 
ATOM     58  H   UNL A   1      39.809  34.123  28.859  1.00  0.00     0.167 HD
ATOM     59  C   UNL A   1      43.295  33.624  29.133  1.00  0.00     0.074 A 
ATOM     60  C   UNL A   1      44.404  33.587  28.198  1.00  0.00     0.031 C 
ATOM     61  C   UNL A   1      42.375  34.592  29.418  1.00  0.00     0.034 A 
BRANCH  48  62
ATOM     62  C   UNL A   1      36.535  33.574  30.765  1.00  0.00     0.023 A 
ATOM     63  C   UNL A   1      35.685  34.131  29.790  1.00  0.00     0.031 A 
ATOM     64  C   UNL A   1      36.051  33.615  32.087  1.00  0.00     0.131 A 
ATOM     65  C   UNL A   1      34.488  34.778  30.148  1.00  0.00     0.055 A 
ATOM     66  C   UNL A   1      34.901  34.324  32.454  1.00  0.00     0.041 A 
ATOM     67  F   UNL A   1      36.635  32.919  33.073  1.00  0.00    -0.206 F 
ATOM     68  C   UNL A   1      34.117  34.922  31.482  1.00  0.00     0.022 A 
BRANCH  65  69
ATOM     69  S   UNL A   1      33.404  35.408  28.839  1.00  0.00     0.124 S 
ATOM     70  O   UNL A   1      34.346  36.091  27.959  1.00  0.00    -0.237 OA
ATOM     71  O   UNL A   1      32.806  34.183  28.321  1.00  0.00    -0.237 OA
ATOM     72  O   UNL A   1      32.482  36.287  29.557  1.00  0.00    -0.744 OA
ENDBRANCH  65  69
ENDBRANCH  48  62
BRANCH  49  73
ATOM     73  C   UNL A   1      44.872  29.137  28.415  1.00  0.00     0.023 A 
ATOM     74  C   UNL A   1      45.733  28.141  28.930  1.00  0.00     0.031 A 
ATOM     75  C   UNL A   1      44.225  28.876  27.201  1.00  0.00     0.131 A 
ATOM     76  C   UNL A   1      45.732  26.857  28.374  1.00  0.00     0.055 A 
ATOM     77  C   UNL A   1      44.331  27.625  26.578  1.00  0.00     0.041 A 
ATOM     78  F   UNL A   1      43.369  29.762  26.672  1.00  0.00    -0.206 F 
ATOM     79  C   UNL A   1      45.037  26.591  27.195  1.00  0.00     0.022 A 
BRANCH  76  80
ATOM     80  S   UNL A   1      46.341  25.484  29.405  1.00  0.00     0.124 S 
ATOM     81  O   UNL A   1      46.260  26.051  30.746  1.00  0.00    -0.237 OA
ATOM     82  O   UNL A   1      45.391  24.413  29.102  1.00  0.00    -0.237 OA
ATOM     83  O   UNL A   1      47.690  25.247  28.895  1.00  0.00    -0.744 OA
ENDBRANCH  76  80
ENDBRANCH  49  73
BRANCH  61  84
ATOM     84  C   UNL A   1      42.431  35.962  28.800  1.00  0.00     0.023 A 
ATOM     85  C   UNL A   1      42.940  37.062  29.510  1.00  0.00     0.031 A 
ATOM     86  C   UNL A   1      41.919  36.227  27.512  1.00  0.00     0.131 A 
ATOM     87  C   UNL A   1      42.999  38.333  28.916  1.00  0.00     0.055 A 
ATOM     88  C   UNL A   1      41.893  37.511  26.961  1.00  0.00     0.041 A 
ATOM     89  F   UNL A   1      41.469  35.244  26.718  1.00  0.00    -0.206 F 
ATOM     90  C   UNL A   1      42.448  38.573  27.659  1.00  0.00     0.022 A 
BRANCH  87  91
ATOM     91  S   UNL A   1      43.900  39.645  29.779  1.00  0.00     0.124 S 
ATOM     92  O   UNL A   1      43.316  40.858  29.217  1.00  0.00    -0.237 OA
ATOM     93  O   UNL A   1      43.564  39.365  31.172  1.00  0.00    -0.237 OA
ATOM     94  O   UNL A   1      45.295  39.400  29.419  1.00  0.00    -0.744 OA
ENDBRANCH  87  91
ENDBRANCH  61  84
ENDBRANCH  35  36
ENDBRANCH  27  30
ENDBRANCH  25  26
ENDBRANCH   1  25
TORSDOF 18
ENDMDL
MODEL 3
REMARK VINA RESULT:     -12.2      4.302     10.477
REMARK SMILES Cc1ccc(C[C@H](C(=O)NCCCCNC(=O)c2ccc(-c3c4nc(c(-c5cc(S(=O)(=O)[O-])ccc5F)c5ccc([nH]5)c(-c5cc(S(=O)(=O)[O-])ccc5F)c5nc(c(-c6cc(S(=O)(=O)[O-])ccc6F)c6ccc3[nH]6)C=C5)C=C4)cc2)[C@@H]2CCCC[C@@H]2O)cc1
REMARK SMILES IDX 13 1 12 2 11 3 10 4 8 5 9 6 7 8 6 9 5 10 1 11 2 12 3 13
REMARK SMILES IDX 89 14 4 15 88 16 81 17 82 18 86 19 83 20 85 21 84 22 87 23
REMARK SMILES IDX 14 25 15 26 16 27 17 29 18 30 19 31 80 32 20 33 79 34 21 35
REMARK SMILES IDX 22 36 23 37 73 38 24 39 78 40 72 41 74 42 25 43 77 44 71 45
REMARK SMILES IDX 70 46 26 48 58 49 38 50 57 51 39 52 42 53 56 54 75 55 40 56
REMARK SMILES IDX 41 57 55 59 76 60 43 61 27 62 28 63 36 64 29 65 35 66 37 67
REMARK SMILES IDX 34 68 30 69 31 70 32 71 33 72 59 73 60 74 68 75 61 76 67 77
REMARK SMILES IDX 69 78 66 79 62 80 63 81 64 82 65 83 44 84 45 85 53 86 46 87
REMARK SMILES IDX 52 88 54 89 51 90 47 91 48 92 49 93 50 94
REMARK H PARENT 10 7 87 24 15 28 74 47 42 58
REMARK Flexibility Score: inf
ROOT
ATOM      1  C   UNL A   1      38.324  21.856  25.739  1.00  0.00     0.023 C 
ENDROOT
BRANCH   1   2
ATOM      2  C   UNL A   1      37.383  21.999  24.551  1.00  0.00     0.023 C 
BRANCH   2   3
ATOM      3  C   UNL A   1      36.586  23.318  24.461  1.00  0.00     0.116 C 
BRANCH   3   4
ATOM      4  N   UNL A   1      35.673  23.295  23.324  1.00  0.00    -0.356 N 
ATOM      5  C   UNL A   1      34.335  23.347  23.163  1.00  0.00     0.223 C 
ATOM      6  O   UNL A   1      34.012  23.381  21.968  1.00  0.00    -0.275 OA
ATOM      7  H   UNL A   1      36.150  23.223  22.465  1.00  0.00     0.163 HD
BRANCH   5   8
ATOM      8  C   UNL A   1      33.272  23.442  24.299  1.00  0.00     0.088 C 
BRANCH   8   9
ATOM      9  C   UNL A   1      33.528  22.211  25.259  1.00  0.00     0.049 C 
BRANCH   9  10
ATOM     10  C   UNL A   1      33.542  20.775  24.736  1.00  0.00    -0.047 A 
ATOM     11  C   UNL A   1      33.665  16.662  23.352  1.00  0.00     0.044 C 
ATOM     12  C   UNL A   1      33.648  18.083  23.826  1.00  0.00    -0.051 A 
ATOM     13  C   UNL A   1      32.536  18.884  23.565  1.00  0.00     0.004 A 
ATOM     14  C   UNL A   1      34.704  18.625  24.561  1.00  0.00     0.004 A 
ATOM     15  C   UNL A   1      32.493  20.210  24.004  1.00  0.00     0.004 A 
ATOM     16  C   UNL A   1      34.642  19.947  25.024  1.00  0.00     0.004 A 
ENDBRANCH   9  10
ENDBRANCH   8   9
BRANCH   8  17
ATOM     17  C   UNL A   1      33.143  24.820  25.071  1.00  0.00     0.030 C 
ATOM     18  C   UNL A   1      32.191  24.840  26.298  1.00  0.00     0.007 C 
ATOM     19  C   UNL A   1      32.620  26.028  24.256  1.00  0.00     0.118 C 
ATOM     20  C   UNL A   1      30.713  24.668  25.934  1.00  0.00     0.001 C 
ATOM     21  C   UNL A   1      31.203  25.821  23.724  1.00  0.00     0.032 C 
ATOM     22  C   UNL A   1      30.233  25.678  24.892  1.00  0.00     0.003 C 
BRANCH  19  23
ATOM     23  O   UNL A   1      33.496  26.408  23.240  1.00  0.00    -0.393 OA
ATOM     24  H   UNL A   1      32.991  26.619  22.440  1.00  0.00     0.210 HD
ENDBRANCH  19  23
ENDBRANCH   8  17
ENDBRANCH   5   8
ENDBRANCH   3   4
ENDBRANCH   2   3
ENDBRANCH   1   2
BRANCH   1  25
ATOM     25  C   UNL A   1      38.833  23.179  26.266  1.00  0.00     0.116 C 
BRANCH  25  26
ATOM     26  N   UNL A   1      40.288  23.275  26.350  1.00  0.00    -0.352 N 
ATOM     27  C   UNL A   1      41.057  24.407  26.586  1.00  0.00     0.251 C 
ATOM     28  H   UNL A   1      40.784  22.434  26.224  1.00  0.00     0.163 HD
ATOM     29  O   UNL A   1      42.275  24.373  26.604  1.00  0.00    -0.269 OA
BRANCH  27  30
ATOM     30  C   UNL A   1      40.340  25.657  26.941  1.00  0.00     0.039 A 
ATOM     31  C   UNL A   1      40.748  26.834  26.309  1.00  0.00     0.014 A 
ATOM     32  C   UNL A   1      39.557  25.701  28.088  1.00  0.00     0.014 A 
ATOM     33  C   UNL A   1      40.596  28.046  26.978  1.00  0.00     0.010 A 
ATOM     34  C   UNL A   1      39.546  26.872  28.817  1.00  0.00     0.010 A 
ATOM     35  C   UNL A   1      40.111  28.038  28.287  1.00  0.00    -0.014 A 
BRANCH  35  36
ATOM     36  C   UNL A   1      40.229  29.176  29.195  1.00  0.00     0.031 A 
ATOM     37  C   UNL A   1      39.155  30.190  29.247  1.00  0.00     0.074 A 
ATOM     38  C   UNL A   1      41.299  29.302  30.013  1.00  0.00     0.049 A 
ATOM     39  N   UNL A   1      39.313  31.400  29.662  1.00  0.00    -0.248 NA
ATOM     40  C   UNL A   1      37.799  29.916  28.786  1.00  0.00     0.031 C 
ATOM     41  C   UNL A   1      41.475  30.260  31.104  1.00  0.00     0.029 A 
ATOM     42  N   UNL A   1      42.568  28.757  29.825  1.00  0.00    -0.354 N 
ATOM     43  C   UNL A   1      38.071  31.982  29.758  1.00  0.00     0.074 A 
ATOM     44  C   UNL A   1      37.164  31.023  29.177  1.00  0.00     0.031 C 
ATOM     45  C   UNL A   1      42.788  30.466  31.286  1.00  0.00     0.029 A 
ATOM     46  C   UNL A   1      43.492  29.735  30.250  1.00  0.00     0.049 A 
ATOM     47  H   UNL A   1      42.777  27.864  29.466  1.00  0.00     0.167 HD
ATOM     48  C   UNL A   1      37.933  33.172  30.406  1.00  0.00     0.034 A 
ATOM     49  C   UNL A   1      44.401  30.253  29.372  1.00  0.00     0.034 A 
ATOM     50  C   UNL A   1      39.223  33.720  30.821  1.00  0.00     0.049 A 
ATOM     51  C   UNL A   1      44.234  31.740  29.124  1.00  0.00     0.074 A 
ATOM     52  C   UNL A   1      39.942  33.741  32.005  1.00  0.00     0.029 A 
ATOM     53  N   UNL A   1      40.101  34.134  29.837  1.00  0.00    -0.354 N 
ATOM     54  N   UNL A   1      43.321  32.487  29.685  1.00  0.00    -0.248 NA
ATOM     55  C   UNL A   1      45.030  32.482  28.145  1.00  0.00     0.031 C 
ATOM     56  C   UNL A   1      41.283  34.124  31.699  1.00  0.00     0.029 A 
ATOM     57  C   UNL A   1      41.367  34.361  30.338  1.00  0.00     0.049 A 
ATOM     58  H   UNL A   1      39.853  34.254  28.892  1.00  0.00     0.167 HD
ATOM     59  C   UNL A   1      43.339  33.733  29.113  1.00  0.00     0.074 A 
ATOM     60  C   UNL A   1      44.434  33.684  28.160  1.00  0.00     0.031 C 
ATOM     61  C   UNL A   1      42.430  34.708  29.408  1.00  0.00     0.034 A 
BRANCH  48  62
ATOM     62  C   UNL A   1      36.606  33.733  30.852  1.00  0.00     0.023 A 
ATOM     63  C   UNL A   1      35.724  34.251  29.883  1.00  0.00     0.031 A 
ATOM     64  C   UNL A   1      36.162  33.823  32.185  1.00  0.00     0.131 A 
ATOM     65  C   UNL A   1      34.535  34.907  30.252  1.00  0.00     0.055 A 
ATOM     66  C   UNL A   1      35.020  34.540  32.560  1.00  0.00     0.041 A 
ATOM     67  F   UNL A   1      36.778  33.167  33.178  1.00  0.00    -0.206 F 
ATOM     68  C   UNL A   1      34.204  35.099  31.590  1.00  0.00     0.022 A 
BRANCH  65  69
ATOM     69  S   UNL A   1      33.410  35.483  28.953  1.00  0.00     0.124 S 
ATOM     70  O   UNL A   1      32.570  36.436  29.671  1.00  0.00    -0.237 OA
ATOM     71  O   UNL A   1      34.335  36.043  27.974  1.00  0.00    -0.237 OA
ATOM     72  O   UNL A   1      32.730  34.260  28.528  1.00  0.00    -0.744 OA
ENDBRANCH  65  69
ENDBRANCH  48  62
BRANCH  49  73
ATOM     73  C   UNL A   1      44.875  29.233  28.387  1.00  0.00     0.023 A 
ATOM     74  C   UNL A   1      45.731  28.228  28.894  1.00  0.00     0.031 A 
ATOM     75  C   UNL A   1      44.211  28.976  27.181  1.00  0.00     0.131 A 
ATOM     76  C   UNL A   1      45.710  26.943  28.340  1.00  0.00     0.055 A 
ATOM     77  C   UNL A   1      44.296  27.723  26.559  1.00  0.00     0.041 A 
ATOM     78  F   UNL A   1      43.359  29.870  26.660  1.00  0.00    -0.206 F 
ATOM     79  C   UNL A   1      44.999  26.682  27.170  1.00  0.00     0.022 A 
BRANCH  76  80
ATOM     80  S   UNL A   1      46.316  25.565  29.367  1.00  0.00     0.124 S 
ATOM     81  O   UNL A   1      47.661  26.012  29.713  1.00  0.00    -0.237 OA
ATOM     82  O   UNL A   1      45.348  25.535  30.462  1.00  0.00    -0.237 OA
ATOM     83  O   UNL A   1      46.240  24.413  28.471  1.00  0.00    -0.744 OA
ENDBRANCH  76  80
ENDBRANCH  49  73
BRANCH  61  84
ATOM     84  C   UNL A   1      42.485  36.075  28.784  1.00  0.00     0.023 A 
ATOM     85  C   UNL A   1      42.891  37.198  29.523  1.00  0.00     0.031 A 
ATOM     86  C   UNL A   1      42.073  36.312  27.455  1.00  0.00     0.131 A 
ATOM     87  C   UNL A   1      42.951  38.467  28.924  1.00  0.00     0.055 A 
ATOM     88  C   UNL A   1      42.045  37.590  26.892  1.00  0.00     0.041 A 
ATOM     89  F   UNL A   1      41.729  35.308  26.636  1.00  0.00    -0.206 F 
ATOM     90  C   UNL A   1      42.499  38.678  27.624  1.00  0.00     0.022 A 
BRANCH  87  91
ATOM     91  S   UNL A   1      43.726  39.818  29.847  1.00  0.00     0.124 S 
ATOM     92  O   UNL A   1      42.632  40.771  30.000  1.00  0.00    -0.237 OA
ATOM     93  O   UNL A   1      44.150  39.136  31.067  1.00  0.00    -0.237 OA
ATOM     94  O   UNL A   1      44.813  40.254  28.972  1.00  0.00    -0.744 OA
ENDBRANCH  87  91
ENDBRANCH  61  84
ENDBRANCH  35  36
ENDBRANCH  27  30
ENDBRANCH  25  26
ENDBRANCH   1  25
TORSDOF 18
ENDMDL
