MODEL 1
REMARK VINA RESULT:     -12.0      0.000      0.000
REMARK SMILES Cn1nc(C(=O)N2C[C@@H](O)C[C@H]2C(=O)NCCCCNC(=O)c2ccc(-c3c4nc(c(-c5cc(S(=O)(=O)[O-])ccc5F)c5ccc([nH]5)c(-c5cc(S(=O)(=O)[O-])ccc5F)c5nc(c(-c6cc(S(=O)(=O)[O-])ccc6F)c6ccc3[nH]6)C=C5)C=C4)cc2)ccc1=O
REMARK SMILES IDX 18 1 17 2 16 3 15 4 13 5 14 6 12 8 7 9 8 10 9 11 11 12 5 13
REMARK SMILES IDX 6 14 4 15 1 16 2 17 3 18 88 19 87 20 89 21 86 22 10 23 19 25
REMARK SMILES IDX 20 26 21 27 22 29 23 30 24 31 85 32 25 33 84 34 26 35 27 36
REMARK SMILES IDX 28 37 78 38 29 39 83 40 77 41 79 42 30 43 82 44 76 45 75 46
REMARK SMILES IDX 31 48 63 49 43 50 62 51 44 52 47 53 61 54 80 55 45 56 46 57
REMARK SMILES IDX 60 59 81 60 48 61 32 62 33 63 41 64 34 65 40 66 42 67 39 68
REMARK SMILES IDX 35 69 36 70 37 71 38 72 64 73 65 74 73 75 66 76 72 77 74 78
REMARK SMILES IDX 71 79 67 80 68 81 69 82 70 83 49 84 50 85 58 86 51 87 57 88
REMARK SMILES IDX 59 89 56 90 52 91 53 92 54 93 55 94
REMARK H PARENT 15 7 10 24 20 28 79 47 47 58
REMARK Flexibility Score: inf
ROOT
ATOM      1  C   UNL A   1      31.427  32.150  26.737  1.00  0.00     0.023 C 
ENDROOT
BRANCH   1   2
ATOM      2  C   UNL A   1      31.544  30.631  26.603  1.00  0.00     0.023 C 
BRANCH   2   3
ATOM      3  C   UNL A   1      31.510  30.122  25.169  1.00  0.00     0.116 C 
BRANCH   3   4
ATOM      4  N   UNL A   1      32.814  29.748  24.673  1.00  0.00    -0.354 N 
ATOM      5  C   UNL A   1      33.328  28.522  24.369  1.00  0.00     0.242 C 
ATOM      6  O   UNL A   1      34.362  28.499  23.693  1.00  0.00    -0.273 OA
ATOM      7  H   UNL A   1      33.433  30.501  24.531  1.00  0.00     0.163 HD
BRANCH   5   8
ATOM      8  C   UNL A   1      32.573  27.212  24.667  1.00  0.00     0.177 C 
ATOM      9  N   UNL A   1      32.535  26.200  23.610  1.00  0.00    -0.323 N 
ATOM     10  C   UNL A   1      33.056  24.923  24.067  1.00  0.00     0.152 C 
ATOM     11  C   UNL A   1      33.009  25.009  25.590  1.00  0.00     0.136 C 
ATOM     12  C   UNL A   1      33.129  26.500  25.904  1.00  0.00     0.069 C 
BRANCH   9  13
ATOM     13  C   UNL A   1      31.681  26.432  22.541  1.00  0.00     0.275 C 
ATOM     14  O   UNL A   1      31.939  26.121  21.384  1.00  0.00    -0.267 OA
BRANCH  13  15
ATOM     15  C   UNL A   1      30.410  27.235  22.777  1.00  0.00     0.149 A 
ATOM     16  C   UNL A   1      29.037  30.351  21.671  1.00  0.00     0.178 C 
ATOM     17  N   UNL A   1      29.107  29.066  22.340  1.00  0.00    -0.232 N 
ATOM     18  N   UNL A   1      30.286  28.377  22.170  1.00  0.00    -0.165 NA
ATOM     19  C   UNL A   1      28.018  28.579  23.053  1.00  0.00     0.266 A 
ATOM     20  C   UNL A   1      28.211  27.263  23.706  1.00  0.00     0.076 A 
ATOM     21  O   UNL A   1      26.940  29.154  23.177  1.00  0.00    -0.268 OA
ATOM     22  C   UNL A   1      29.368  26.604  23.604  1.00  0.00     0.042 A 
ENDBRANCH  13  15
ENDBRANCH   9  13
BRANCH  11  23
ATOM     23  O   UNL A   1      34.051  24.267  26.206  1.00  0.00    -0.391 OA
ATOM     24  H   UNL A   1      34.769  24.129  25.569  1.00  0.00     0.211 HD
ENDBRANCH  11  23
ENDBRANCH   5   8
ENDBRANCH   3   4
ENDBRANCH   2   3
ENDBRANCH   1   2
BRANCH   1  25
ATOM     25  C   UNL A   1      32.722  32.883  27.078  1.00  0.00     0.116 C 
BRANCH  25  26
ATOM     26  N   UNL A   1      32.501  34.162  27.739  1.00  0.00    -0.352 N 
ATOM     27  C   UNL A   1      33.183  34.687  28.811  1.00  0.00     0.251 C 
ATOM     28  H   UNL A   1      31.775  34.717  27.374  1.00  0.00     0.163 HD
ATOM     29  O   UNL A   1      32.830  35.744  29.323  1.00  0.00    -0.269 OA
BRANCH  27  30
ATOM     30  C   UNL A   1      34.330  33.933  29.350  1.00  0.00     0.039 A 
ATOM     31  C   UNL A   1      35.622  34.306  28.971  1.00  0.00     0.014 A 
ATOM     32  C   UNL A   1      34.120  32.917  30.287  1.00  0.00     0.014 A 
ATOM     33  C   UNL A   1      36.716  33.694  29.583  1.00  0.00     0.010 A 
ATOM     34  C   UNL A   1      35.212  32.341  30.926  1.00  0.00     0.010 A 
ATOM     35  C   UNL A   1      36.516  32.728  30.582  1.00  0.00    -0.014 A 
BRANCH  35  36
ATOM     36  C   UNL A   1      37.664  32.108  31.283  1.00  0.00     0.031 A 
ATOM     37  C   UNL A   1      38.394  30.962  30.649  1.00  0.00     0.074 A 
ATOM     38  C   UNL A   1      38.001  32.534  32.516  1.00  0.00     0.049 A 
ATOM     39  N   UNL A   1      39.399  30.269  31.113  1.00  0.00    -0.248 NA
ATOM     40  C   UNL A   1      37.919  30.523  29.326  1.00  0.00     0.031 C 
ATOM     41  C   UNL A   1      37.328  33.606  33.247  1.00  0.00     0.029 A 
ATOM     42  N   UNL A   1      38.982  32.106  33.374  1.00  0.00    -0.354 N 
ATOM     43  C   UNL A   1      39.674  29.311  30.147  1.00  0.00     0.074 A 
ATOM     44  C   UNL A   1      38.699  29.478  29.093  1.00  0.00     0.031 C 
ATOM     45  C   UNL A   1      37.923  33.762  34.441  1.00  0.00     0.029 A 
ATOM     46  C   UNL A   1      39.002  32.785  34.570  1.00  0.00     0.049 A 
ATOM     47  H   UNL A   1      39.611  31.382  33.156  1.00  0.00     0.167 HD
ATOM     48  C   UNL A   1      40.668  28.392  30.131  1.00  0.00     0.034 A 
ATOM     49  C   UNL A   1      39.802  32.638  35.647  1.00  0.00     0.034 A 
ATOM     50  C   UNL A   1      41.642  28.248  31.178  1.00  0.00     0.049 A 
ATOM     51  C   UNL A   1      40.904  31.612  35.606  1.00  0.00     0.074 A 
ATOM     52  C   UNL A   1      42.728  27.392  31.222  1.00  0.00     0.029 A 
ATOM     53  N   UNL A   1      41.652  28.971  32.361  1.00  0.00    -0.354 N 
ATOM     54  N   UNL A   1      41.220  30.782  34.638  1.00  0.00    -0.248 NA
ATOM     55  C   UNL A   1      41.768  31.506  36.790  1.00  0.00     0.031 C 
ATOM     56  C   UNL A   1      43.372  27.570  32.449  1.00  0.00     0.029 A 
ATOM     57  C   UNL A   1      42.714  28.568  33.151  1.00  0.00     0.049 A 
ATOM     58  H   UNL A   1      41.001  29.669  32.602  1.00  0.00     0.167 HD
ATOM     59  C   UNL A   1      42.332  30.076  35.086  1.00  0.00     0.074 A 
ATOM     60  C   UNL A   1      42.642  30.584  36.406  1.00  0.00     0.031 C 
ATOM     61  C   UNL A   1      43.028  29.096  34.457  1.00  0.00     0.034 A 
BRANCH  48  62
ATOM     62  C   UNL A   1      40.772  27.487  28.934  1.00  0.00     0.023 A 
ATOM     63  C   UNL A   1      41.704  27.763  27.917  1.00  0.00     0.031 A 
ATOM     64  C   UNL A   1      39.895  26.402  28.764  1.00  0.00     0.131 A 
ATOM     65  C   UNL A   1      41.726  26.967  26.766  1.00  0.00     0.055 A 
ATOM     66  C   UNL A   1      39.942  25.593  27.629  1.00  0.00     0.041 A 
ATOM     67  F   UNL A   1      38.994  26.099  29.714  1.00  0.00    -0.206 F 
ATOM     68  C   UNL A   1      40.855  25.880  26.620  1.00  0.00     0.022 A 
BRANCH  65  69
ATOM     69  S   UNL A   1      42.869  27.319  25.404  1.00  0.00     0.124 S 
ATOM     70  O   UNL A   1      44.089  27.687  26.122  1.00  0.00    -0.237 OA
ATOM     71  O   UNL A   1      42.916  26.037  24.708  1.00  0.00    -0.237 OA
ATOM     72  O   UNL A   1      42.226  28.410  24.680  1.00  0.00    -0.744 OA
ENDBRANCH  65  69
ENDBRANCH  48  62
BRANCH  49  73
ATOM     73  C   UNL A   1      39.622  33.551  36.810  1.00  0.00     0.023 A 
ATOM     74  C   UNL A   1      40.490  34.637  37.025  1.00  0.00     0.031 A 
ATOM     75  C   UNL A   1      38.644  33.279  37.782  1.00  0.00     0.131 A 
ATOM     76  C   UNL A   1      40.394  35.377  38.211  1.00  0.00     0.055 A 
ATOM     77  C   UNL A   1      38.517  34.054  38.935  1.00  0.00     0.041 A 
ATOM     78  F   UNL A   1      37.805  32.244  37.622  1.00  0.00    -0.206 F 
ATOM     79  C   UNL A   1      39.403  35.102  39.159  1.00  0.00     0.022 A 
BRANCH  76  80
ATOM     80  S   UNL A   1      41.610  36.665  38.605  1.00  0.00     0.124 S 
ATOM     81  O   UNL A   1      40.774  37.712  39.183  1.00  0.00    -0.237 OA
ATOM     82  O   UNL A   1      42.484  35.965  39.543  1.00  0.00    -0.237 OA
ATOM     83  O   UNL A   1      42.206  36.980  37.312  1.00  0.00    -0.744 OA
ENDBRANCH  76  80
ENDBRANCH  49  73
BRANCH  61  84
ATOM     84  C   UNL A   1      44.216  28.491  35.161  1.00  0.00     0.023 A 
ATOM     85  C   UNL A   1      44.020  27.488  36.129  1.00  0.00     0.031 A 
ATOM     86  C   UNL A   1      45.506  29.019  34.994  1.00  0.00     0.131 A 
ATOM     87  C   UNL A   1      45.094  27.075  36.927  1.00  0.00     0.055 A 
ATOM     88  C   UNL A   1      46.581  28.576  35.766  1.00  0.00     0.041 A 
ATOM     89  F   UNL A   1      45.736  29.983  34.089  1.00  0.00    -0.206 F 
ATOM     90  C   UNL A   1      46.375  27.610  36.746  1.00  0.00     0.022 A 
BRANCH  87  91
ATOM     91  S   UNL A   1      44.854  25.883  38.273  1.00  0.00     0.124 S 
ATOM     92  O   UNL A   1      44.435  24.686  37.548  1.00  0.00    -0.237 OA
ATOM     93  O   UNL A   1      46.188  25.820  38.865  1.00  0.00    -0.237 OA
ATOM     94  O   UNL A   1      43.825  26.496  39.106  1.00  0.00    -0.744 OA
ENDBRANCH  87  91
ENDBRANCH  61  84
ENDBRANCH  35  36
ENDBRANCH  27  30
ENDBRANCH  25  26
ENDBRANCH   1  25
TORSDOF 17
ENDMDL
MODEL 2
REMARK VINA RESULT:     -11.8      1.893      7.776
REMARK SMILES Cn1nc(C(=O)N2C[C@@H](O)C[C@H]2C(=O)NCCCCNC(=O)c2ccc(-c3c4nc(c(-c5cc(S(=O)(=O)[O-])ccc5F)c5ccc([nH]5)c(-c5cc(S(=O)(=O)[O-])ccc5F)c5nc(c(-c6cc(S(=O)(=O)[O-])ccc6F)c6ccc3[nH]6)C=C5)C=C4)cc2)ccc1=O
REMARK SMILES IDX 18 1 17 2 16 3 15 4 13 5 14 6 12 8 7 9 8 10 9 11 11 12 5 13
REMARK SMILES IDX 6 14 4 15 1 16 2 17 3 18 88 19 87 20 89 21 86 22 10 23 19 25
REMARK SMILES IDX 20 26 21 27 22 29 23 30 24 31 85 32 25 33 84 34 26 35 27 36
REMARK SMILES IDX 28 37 78 38 29 39 83 40 77 41 79 42 30 43 82 44 76 45 75 46
REMARK SMILES IDX 31 48 63 49 43 50 62 51 44 52 47 53 61 54 80 55 45 56 46 57
REMARK SMILES IDX 60 59 81 60 48 61 32 62 33 63 41 64 34 65 40 66 42 67 39 68
REMARK SMILES IDX 35 69 36 70 37 71 38 72 64 73 65 74 73 75 66 76 72 77 74 78
REMARK SMILES IDX 71 79 67 80 68 81 69 82 70 83 49 84 50 85 58 86 51 87 57 88
REMARK SMILES IDX 59 89 56 90 52 91 53 92 54 93 55 94
REMARK H PARENT 15 7 10 24 20 28 79 47 47 58
REMARK Flexibility Score: inf
ROOT
ATOM      1  C   UNL A   1      31.382  32.226  26.565  1.00  0.00     0.023 C 
ENDROOT
BRANCH   1   2
ATOM      2  C   UNL A   1      31.426  30.697  26.516  1.00  0.00     0.023 C 
BRANCH   2   3
ATOM      3  C   UNL A   1      31.405  30.112  25.110  1.00  0.00     0.116 C 
BRANCH   3   4
ATOM      4  N   UNL A   1      32.712  29.706  24.650  1.00  0.00    -0.354 N 
ATOM      5  C   UNL A   1      33.204  28.467  24.363  1.00  0.00     0.242 C 
ATOM      6  O   UNL A   1      34.255  28.417  23.714  1.00  0.00    -0.273 OA
ATOM      7  H   UNL A   1      33.352  30.443  24.523  1.00  0.00     0.163 HD
BRANCH   5   8
ATOM      8  C   UNL A   1      32.411  27.176  24.644  1.00  0.00     0.177 C 
ATOM      9  N   UNL A   1      32.348  26.177  23.577  1.00  0.00    -0.323 N 
ATOM     10  C   UNL A   1      32.831  24.881  24.023  1.00  0.00     0.152 C 
ATOM     11  C   UNL A   1      32.780  24.952  25.546  1.00  0.00     0.136 C 
ATOM     12  C   UNL A   1      32.941  26.436  25.876  1.00  0.00     0.069 C 
BRANCH   9  13
ATOM     13  C   UNL A   1      31.505  26.444  22.507  1.00  0.00     0.275 C 
ATOM     14  O   UNL A   1      31.748  26.114  21.351  1.00  0.00    -0.267 OA
BRANCH  13  15
ATOM     15  C   UNL A   1      30.276  27.309  22.739  1.00  0.00     0.149 A 
ATOM     16  C   UNL A   1      29.061  30.489  21.627  1.00  0.00     0.178 C 
ATOM     17  N   UNL A   1      29.066  29.202  22.297  1.00  0.00    -0.232 N 
ATOM     18  N   UNL A   1      30.210  28.455  22.131  1.00  0.00    -0.165 NA
ATOM     19  C   UNL A   1      27.952  28.769  23.007  1.00  0.00     0.266 A 
ATOM     20  C   UNL A   1      28.078  27.446  23.661  1.00  0.00     0.076 A 
ATOM     21  O   UNL A   1      26.904  29.397  23.128  1.00  0.00    -0.268 OA
ATOM     22  C   UNL A   1      29.201  26.731  23.563  1.00  0.00     0.042 A 
ENDBRANCH  13  15
ENDBRANCH   9  13
BRANCH  11  23
ATOM     23  O   UNL A   1      33.797  24.175  26.159  1.00  0.00    -0.391 OA
ATOM     24  H   UNL A   1      34.662  24.572  25.973  1.00  0.00     0.211 HD
ENDBRANCH  11  23
ENDBRANCH   5   8
ENDBRANCH   3   4
ENDBRANCH   2   3
ENDBRANCH   1   2
BRANCH   1  25
ATOM     25  C   UNL A   1      32.711  32.913  26.870  1.00  0.00     0.116 C 
BRANCH  25  26
ATOM     26  N   UNL A   1      32.558  34.141  27.639  1.00  0.00    -0.352 N 
ATOM     27  C   UNL A   1      33.305  34.560  28.714  1.00  0.00     0.251 C 
ATOM     28  H   UNL A   1      31.833  34.742  27.354  1.00  0.00     0.163 HD
ATOM     29  O   UNL A   1      33.007  35.582  29.324  1.00  0.00    -0.269 OA
BRANCH  27  30
ATOM     30  C   UNL A   1      34.452  33.736  29.136  1.00  0.00     0.039 A 
ATOM     31  C   UNL A   1      35.743  34.153  28.801  1.00  0.00     0.014 A 
ATOM     32  C   UNL A   1      34.245  32.603  29.927  1.00  0.00     0.014 A 
ATOM     33  C   UNL A   1      36.839  33.460  29.315  1.00  0.00     0.010 A 
ATOM     34  C   UNL A   1      35.339  31.941  30.473  1.00  0.00     0.010 A 
ATOM     35  C   UNL A   1      36.642  32.367  30.175  1.00  0.00    -0.014 A 
BRANCH  35  36
ATOM     36  C   UNL A   1      37.793  31.654  30.775  1.00  0.00     0.031 A 
ATOM     37  C   UNL A   1      38.248  32.005  32.159  1.00  0.00     0.074 A 
ATOM     38  C   UNL A   1      38.466  30.742  30.046  1.00  0.00     0.049 A 
ATOM     39  N   UNL A   1      39.248  31.519  32.845  1.00  0.00    -0.248 NA
ATOM     40  C   UNL A   1      37.491  33.056  32.860  1.00  0.00     0.031 C 
ATOM     41  C   UNL A   1      38.141  30.359  28.673  1.00  0.00     0.029 A 
ATOM     42  N   UNL A   1      39.568  29.985  30.354  1.00  0.00    -0.354 N 
ATOM     43  C   UNL A   1      39.246  32.205  34.052  1.00  0.00     0.074 A 
ATOM     44  C   UNL A   1      38.178  33.176  33.986  1.00  0.00     0.031 C 
ATOM     45  C   UNL A   1      39.018  29.430  28.258  1.00  0.00     0.029 A 
ATOM     46  C   UNL A   1      39.981  29.169  29.327  1.00  0.00     0.049 A 
ATOM     47  H   UNL A   1      40.021  30.023  31.227  1.00  0.00     0.167 HD
ATOM     48  C   UNL A   1      40.048  32.022  35.126  1.00  0.00     0.034 A 
ATOM     49  C   UNL A   1      41.016  28.307  29.255  1.00  0.00     0.034 A 
ATOM     50  C   UNL A   1      41.097  31.039  35.185  1.00  0.00     0.049 A 
ATOM     51  C   UNL A   1      41.894  28.115  30.465  1.00  0.00     0.074 A 
ATOM     52  C   UNL A   1      41.919  30.731  36.254  1.00  0.00     0.029 A 
ATOM     53  N   UNL A   1      41.468  30.209  34.139  1.00  0.00    -0.354 N 
ATOM     54  N   UNL A   1      41.814  28.697  31.639  1.00  0.00    -0.248 NA
ATOM     55  C   UNL A   1      42.992  27.146  30.351  1.00  0.00     0.031 C 
ATOM     56  C   UNL A   1      42.815  29.742  35.841  1.00  0.00     0.029 A 
ATOM     57  C   UNL A   1      42.522  29.401  34.529  1.00  0.00     0.049 A 
ATOM     58  H   UNL A   1      41.046  30.196  33.249  1.00  0.00     0.167 HD
ATOM     59  C   UNL A   1      42.833  28.146  32.410  1.00  0.00     0.074 A 
ATOM     60  C   UNL A   1      43.508  27.176  31.574  1.00  0.00     0.031 C 
ATOM     61  C   UNL A   1      43.174  28.422  33.693  1.00  0.00     0.034 A 
BRANCH  48  62
ATOM     62  C   UNL A   1      39.811  32.879  36.339  1.00  0.00     0.023 A 
ATOM     63  C   UNL A   1      38.947  32.441  37.358  1.00  0.00     0.031 A 
ATOM     64  C   UNL A   1      40.375  34.163  36.444  1.00  0.00     0.131 A 
ATOM     65  C   UNL A   1      38.661  33.288  38.434  1.00  0.00     0.055 A 
ATOM     66  C   UNL A   1      40.111  34.991  37.534  1.00  0.00     0.041 A 
ATOM     67  F   UNL A   1      41.210  34.619  35.496  1.00  0.00    -0.206 F 
ATOM     68  C   UNL A   1      39.244  34.557  38.531  1.00  0.00     0.022 A 
BRANCH  65  69
ATOM     69  S   UNL A   1      37.509  32.789  39.742  1.00  0.00     0.124 S 
ATOM     70  O   UNL A   1      36.273  32.579  38.990  1.00  0.00    -0.237 OA
ATOM     71  O   UNL A   1      38.140  31.577  40.257  1.00  0.00    -0.237 OA
ATOM     72  O   UNL A   1      37.494  33.930  40.650  1.00  0.00    -0.744 OA
ENDBRANCH  65  69
ENDBRANCH  48  62
BRANCH  49  73
ATOM     73  C   UNL A   1      41.209  27.511  28.011  1.00  0.00     0.023 A 
ATOM     74  C   UNL A   1      40.892  26.141  27.966  1.00  0.00     0.031 A 
ATOM     75  C   UNL A   1      41.818  28.090  26.885  1.00  0.00     0.131 A 
ATOM     76  C   UNL A   1      41.236  25.387  26.836  1.00  0.00     0.055 A 
ATOM     77  C   UNL A   1      42.107  27.347  25.740  1.00  0.00     0.041 A 
ATOM     78  F   UNL A   1      42.149  29.391  26.892  1.00  0.00    -0.206 F 
ATOM     79  C   UNL A   1      41.827  25.985  25.717  1.00  0.00     0.022 A 
BRANCH  76  80
ATOM     80  S   UNL A   1      41.010  23.587  26.815  1.00  0.00     0.124 S 
ATOM     81  O   UNL A   1      41.396  23.211  28.171  1.00  0.00    -0.237 OA
ATOM     82  O   UNL A   1      39.586  23.475  26.510  1.00  0.00    -0.237 OA
ATOM     83  O   UNL A   1      41.912  23.141  25.759  1.00  0.00    -0.744 OA
ENDBRANCH  76  80
ENDBRANCH  49  73
BRANCH  61  84
ATOM     84  C   UNL A   1      44.325  27.670  34.311  1.00  0.00     0.023 A 
ATOM     85  C   UNL A   1      44.073  26.544  35.119  1.00  0.00     0.031 A 
ATOM     86  C   UNL A   1      45.639  28.161  34.238  1.00  0.00     0.131 A 
ATOM     87  C   UNL A   1      45.116  25.973  35.858  1.00  0.00     0.055 A 
ATOM     88  C   UNL A   1      46.682  27.564  34.946  1.00  0.00     0.041 A 
ATOM     89  F   UNL A   1      45.922  29.238  33.487  1.00  0.00    -0.206 F 
ATOM     90  C   UNL A   1      46.421  26.473  35.770  1.00  0.00     0.022 A 
BRANCH  87  91
ATOM     91  S   UNL A   1      44.806  24.606  37.010  1.00  0.00     0.124 S 
ATOM     92  O   UNL A   1      43.605  25.062  37.705  1.00  0.00    -0.237 OA
ATOM     93  O   UNL A   1      44.613  23.479  36.101  1.00  0.00    -0.237 OA
ATOM     94  O   UNL A   1      46.013  24.556  37.827  1.00  0.00    -0.744 OA
ENDBRANCH  87  91
ENDBRANCH  61  84
ENDBRANCH  35  36
ENDBRANCH  27  30
ENDBRANCH  25  26
ENDBRANCH   1  25
TORSDOF 17
ENDMDL
MODEL 3
REMARK VINA RESULT:     -11.7      1.665      2.186
REMARK SMILES Cn1nc(C(=O)N2C[C@@H](O)C[C@H]2C(=O)NCCCCNC(=O)c2ccc(-c3c4nc(c(-c5cc(S(=O)(=O)[O-])ccc5F)c5ccc([nH]5)c(-c5cc(S(=O)(=O)[O-])ccc5F)c5nc(c(-c6cc(S(=O)(=O)[O-])ccc6F)c6ccc3[nH]6)C=C5)C=C4)cc2)ccc1=O
REMARK SMILES IDX 18 1 17 2 16 3 15 4 13 5 14 6 12 8 7 9 8 10 9 11 11 12 5 13
REMARK SMILES IDX 6 14 4 15 1 16 2 17 3 18 88 19 87 20 89 21 86 22 10 23 19 25
REMARK SMILES IDX 20 26 21 27 22 29 23 30 24 31 85 32 25 33 84 34 26 35 27 36
REMARK SMILES IDX 28 37 78 38 29 39 83 40 77 41 79 42 30 43 82 44 76 45 75 46
REMARK SMILES IDX 31 48 63 49 43 50 62 51 44 52 47 53 61 54 80 55 45 56 46 57
REMARK SMILES IDX 60 59 81 60 48 61 32 62 33 63 41 64 34 65 40 66 42 67 39 68
REMARK SMILES IDX 35 69 36 70 37 71 38 72 64 73 65 74 73 75 66 76 72 77 74 78
REMARK SMILES IDX 71 79 67 80 68 81 69 82 70 83 49 84 50 85 58 86 51 87 57 88
REMARK SMILES IDX 59 89 56 90 52 91 53 92 54 93 55 94
REMARK H PARENT 15 7 10 24 20 28 79 47 47 58
REMARK Flexibility Score: inf
ROOT
ATOM      1  C   UNL A   1      32.061  30.847  26.785  1.00  0.00     0.023 C 
ENDROOT
BRANCH   1   2
ATOM      2  C   UNL A   1      32.088  29.367  27.172  1.00  0.00     0.023 C 
BRANCH   2   3
ATOM      3  C   UNL A   1      33.145  28.547  26.447  1.00  0.00     0.116 C 
BRANCH   3   4
ATOM      4  N   UNL A   1      33.522  29.114  25.172  1.00  0.00    -0.354 N 
ATOM      5  C   UNL A   1      33.248  28.698  23.903  1.00  0.00     0.242 C 
ATOM      6  O   UNL A   1      33.438  29.512  22.993  1.00  0.00    -0.273 OA
ATOM      7  H   UNL A   1      34.064  29.934  25.230  1.00  0.00     0.163 HD
BRANCH   5   8
ATOM      8  C   UNL A   1      32.548  27.358  23.604  1.00  0.00     0.177 C 
ATOM      9  N   UNL A   1      31.340  27.398  22.779  1.00  0.00    -0.323 N 
ATOM     10  C   UNL A   1      31.457  26.541  21.611  1.00  0.00     0.152 C 
ATOM     11  C   UNL A   1      32.600  25.587  21.944  1.00  0.00     0.136 C 
ATOM     12  C   UNL A   1      33.488  26.362  22.919  1.00  0.00     0.069 C 
BRANCH   9  13
ATOM     13  C   UNL A   1      30.175  27.856  23.379  1.00  0.00     0.275 C 
ATOM     14  O   UNL A   1      29.446  27.154  24.071  1.00  0.00    -0.267 OA
BRANCH  13  15
ATOM     15  C   UNL A   1      29.690  29.263  23.063  1.00  0.00     0.149 A 
ATOM     16  C   UNL A   1      27.950  30.896  20.394  1.00  0.00     0.178 C 
ATOM     17  N   UNL A   1      28.589  30.722  21.685  1.00  0.00    -0.232 N 
ATOM     18  N   UNL A   1      29.080  29.460  21.933  1.00  0.00    -0.165 NA
ATOM     19  C   UNL A   1      28.636  31.768  22.598  1.00  0.00     0.266 A 
ATOM     20  C   UNL A   1      29.327  31.478  23.877  1.00  0.00     0.076 A 
ATOM     21  O   UNL A   1      28.163  32.886  22.417  1.00  0.00    -0.268 OA
ATOM     22  C   UNL A   1      29.863  30.278  24.115  1.00  0.00     0.042 A 
ENDBRANCH  13  15
ENDBRANCH   9  13
BRANCH  11  23
ATOM     23  O   UNL A   1      33.326  25.189  20.791  1.00  0.00    -0.391 OA
ATOM     24  H   UNL A   1      33.169  25.825  20.076  1.00  0.00     0.211 HD
ENDBRANCH  11  23
ENDBRANCH   5   8
ENDBRANCH   3   4
ENDBRANCH   2   3
ENDBRANCH   1   2
BRANCH   1  25
ATOM     25  C   UNL A   1      33.199  31.696  27.350  1.00  0.00     0.116 C 
BRANCH  25  26
ATOM     26  N   UNL A   1      32.822  33.086  27.571  1.00  0.00    -0.352 N 
ATOM     27  C   UNL A   1      33.365  33.973  28.469  1.00  0.00     0.251 C 
ATOM     28  H   UNL A   1      32.091  33.430  27.009  1.00  0.00     0.163 HD
ATOM     29  O   UNL A   1      32.888  35.095  28.608  1.00  0.00    -0.269 OA
BRANCH  27  30
ATOM     30  C   UNL A   1      34.514  33.535  29.282  1.00  0.00     0.039 A 
ATOM     31  C   UNL A   1      34.285  32.707  30.384  1.00  0.00     0.014 A 
ATOM     32  C   UNL A   1      35.813  33.884  28.902  1.00  0.00     0.014 A 
ATOM     33  C   UNL A   1      35.373  32.174  31.074  1.00  0.00     0.010 A 
ATOM     34  C   UNL A   1      36.894  33.316  29.564  1.00  0.00     0.010 A 
ATOM     35  C   UNL A   1      36.683  32.455  30.651  1.00  0.00    -0.014 A 
BRANCH  35  36
ATOM     36  C   UNL A   1      37.850  31.853  31.337  1.00  0.00     0.031 A 
ATOM     37  C   UNL A   1      38.603  30.734  30.682  1.00  0.00     0.074 A 
ATOM     38  C   UNL A   1      38.184  32.269  32.574  1.00  0.00     0.049 A 
ATOM     39  N   UNL A   1      39.628  30.059  31.131  1.00  0.00    -0.248 NA
ATOM     40  C   UNL A   1      38.131  30.302  29.356  1.00  0.00     0.031 C 
ATOM     41  C   UNL A   1      37.491  33.315  33.324  1.00  0.00     0.029 A 
ATOM     42  N   UNL A   1      39.181  31.853  33.420  1.00  0.00    -0.354 N 
ATOM     43  C   UNL A   1      39.920  29.122  30.150  1.00  0.00     0.074 A 
ATOM     44  C   UNL A   1      38.935  29.280  29.104  1.00  0.00     0.031 C 
ATOM     45  C   UNL A   1      38.088  33.468  34.516  1.00  0.00     0.029 A 
ATOM     46  C   UNL A   1      39.192  32.516  34.626  1.00  0.00     0.049 A 
ATOM     47  H   UNL A   1      39.826  31.148  33.188  1.00  0.00     0.167 HD
ATOM     48  C   UNL A   1      40.935  28.227  30.115  1.00  0.00     0.034 A 
ATOM     49  C   UNL A   1      40.002  32.373  35.695  1.00  0.00     0.034 A 
ATOM     50  C   UNL A   1      41.920  28.092  31.154  1.00  0.00     0.049 A 
ATOM     51  C   UNL A   1      41.128  31.374  35.633  1.00  0.00     0.074 A 
ATOM     52  C   UNL A   1      43.026  27.262  31.179  1.00  0.00     0.029 A 
ATOM     53  N   UNL A   1      41.920  28.799  32.347  1.00  0.00    -0.354 N 
ATOM     54  N   UNL A   1      41.457  30.567  34.652  1.00  0.00    -0.248 NA
ATOM     55  C   UNL A   1      42.001  31.273  36.810  1.00  0.00     0.031 C 
ATOM     56  C   UNL A   1      43.673  27.438  32.405  1.00  0.00     0.029 A 
ATOM     57  C   UNL A   1      42.996  28.410  33.126  1.00  0.00     0.049 A 
ATOM     58  H   UNL A   1      41.253  29.477  32.602  1.00  0.00     0.167 HD
ATOM     59  C   UNL A   1      42.589  29.881  35.084  1.00  0.00     0.074 A 
ATOM     60  C   UNL A   1      42.895  30.378  36.408  1.00  0.00     0.031 C 
ATOM     61  C   UNL A   1      43.305  28.927  34.437  1.00  0.00     0.034 A 
BRANCH  48  62
ATOM     62  C   UNL A   1      41.054  27.342  28.905  1.00  0.00     0.023 A 
ATOM     63  C   UNL A   1      42.015  27.620  27.916  1.00  0.00     0.031 A 
ATOM     64  C   UNL A   1      40.164  26.275  28.694  1.00  0.00     0.131 A 
ATOM     65  C   UNL A   1      42.052  26.845  26.751  1.00  0.00     0.055 A 
ATOM     66  C   UNL A   1      40.225  25.486  27.545  1.00  0.00     0.041 A 
ATOM     67  F   UNL A   1      39.235  25.971  29.616  1.00  0.00    -0.206 F 
ATOM     68  C   UNL A   1      41.168  25.775  26.564  1.00  0.00     0.022 A 
BRANCH  65  69
ATOM     69  S   UNL A   1      43.234  27.201  25.424  1.00  0.00     0.124 S 
ATOM     70  O   UNL A   1      44.331  27.829  26.158  1.00  0.00    -0.237 OA
ATOM     71  O   UNL A   1      43.515  25.868  24.901  1.00  0.00    -0.237 OA
ATOM     72  O   UNL A   1      42.499  28.091  24.531  1.00  0.00    -0.744 OA
ENDBRANCH  65  69
ENDBRANCH  48  62
BRANCH  49  73
ATOM     73  C   UNL A   1      39.807  33.266  36.873  1.00  0.00     0.023 A 
ATOM     74  C   UNL A   1      39.165  32.807  38.036  1.00  0.00     0.031 A 
ATOM     75  C   UNL A   1      40.166  34.622  36.802  1.00  0.00     0.131 A 
ATOM     76  C   UNL A   1      38.853  33.712  39.059  1.00  0.00     0.055 A 
ATOM     77  C   UNL A   1      39.905  35.508  37.848  1.00  0.00     0.041 A 
ATOM     78  F   UNL A   1      40.769  35.104  35.704  1.00  0.00    -0.206 F 
ATOM     79  C   UNL A   1      39.234  35.056  38.979  1.00  0.00     0.022 A 
BRANCH  76  80
ATOM     80  S   UNL A   1      37.865  33.195  40.490  1.00  0.00     0.124 S 
ATOM     81  O   UNL A   1      38.443  31.894  40.811  1.00  0.00    -0.237 OA
ATOM     82  O   UNL A   1      38.149  34.264  41.444  1.00  0.00    -0.237 OA
ATOM     83  O   UNL A   1      36.502  33.166  39.973  1.00  0.00    -0.744 OA
ENDBRANCH  76  80
ENDBRANCH  49  73
BRANCH  61  84
ATOM     84  C   UNL A   1      44.511  28.341  35.125  1.00  0.00     0.023 A 
ATOM     85  C   UNL A   1      44.342  27.364  36.124  1.00  0.00     0.031 A 
ATOM     86  C   UNL A   1      45.796  28.866  34.911  1.00  0.00     0.131 A 
ATOM     87  C   UNL A   1      45.436  26.972  36.904  1.00  0.00     0.055 A 
ATOM     88  C   UNL A   1      46.891  28.443  35.666  1.00  0.00     0.041 A 
ATOM     89  F   UNL A   1      46.001  29.806  33.975  1.00  0.00    -0.206 F 
ATOM     90  C   UNL A   1      46.711  27.502  36.676  1.00  0.00     0.022 A 
BRANCH  87  91
ATOM     91  S   UNL A   1      45.233  25.816  38.286  1.00  0.00     0.124 S 
ATOM     92  O   UNL A   1      44.305  26.538  39.154  1.00  0.00    -0.237 OA
ATOM     93  O   UNL A   1      44.678  24.640  37.620  1.00  0.00    -0.237 OA
ATOM     94  O   UNL A   1      46.583  25.661  38.817  1.00  0.00    -0.744 OA
ENDBRANCH  87  91
ENDBRANCH  61  84
ENDBRANCH  35  36
ENDBRANCH  27  30
ENDBRANCH  25  26
ENDBRANCH   1  25
TORSDOF 17
ENDMDL
