MODEL 1
REMARK VINA RESULT:     -12.9      0.000      0.000
REMARK SMILES Cc1c(C(=O)NCCCCNC(=O)c2ccc(-c3c4nc(c(-c5cc(S(=O)(=O)[O-])ccc5F)c5ccc([nH]5)c(-c5cc(S(=O)(=O)[O-])ccc5F)c5nc(c(-c6cc(S(=O)(=O)[O-])ccc6F)c6ccc3[nH]6)C=C5)C=C4)cc2)sc2c1=C(CSc1nncn1-c1ccccc1)CC(=O)N=2
REMARK SMILES IDX 8 1 7 2 6 3 4 4 5 5 3 7 1 8 2 9 79 10 77 11 78 12 80 13
REMARK SMILES IDX 97 14 94 15 95 16 96 17 81 18 82 19 83 20 84 21 87 22 85 23
REMARK SMILES IDX 86 24 88 25 89 26 93 27 90 28 92 29 91 30 9 31 10 32 11 33
REMARK SMILES IDX 12 34 13 36 14 37 15 38 76 39 16 40 75 41 17 42 18 43 19 44
REMARK SMILES IDX 69 45 20 46 74 47 68 48 70 49 21 50 73 51 67 52 66 53 22 55
REMARK SMILES IDX 54 56 34 57 53 58 35 59 38 60 52 61 71 62 36 63 37 64 51 66
REMARK SMILES IDX 72 67 39 68 23 69 24 70 32 71 25 72 31 73 33 74 30 75 26 76
REMARK SMILES IDX 27 77 28 78 29 79 55 80 56 81 64 82 57 83 63 84 65 85 62 86
REMARK SMILES IDX 58 87 59 88 60 89 61 90 40 91 41 92 49 93 42 94 48 95 50 96
REMARK SMILES IDX 47 97 43 98 44 99 45 100 46 101
REMARK H PARENT 6 6 11 35 70 54 38 65
REMARK Flexibility Score: inf
ROOT
ATOM      1  C   UNL A   1      36.574  20.853  25.043  1.00  0.00     0.023 C 
ENDROOT
BRANCH   1   2
ATOM      2  C   UNL A   1      36.619  21.978  26.123  1.00  0.00     0.116 C 
BRANCH   2   3
ATOM      3  N   UNL A   1      35.259  22.337  26.617  1.00  0.00    -0.351 N 
ATOM      4  C   UNL A   1      34.101  23.030  26.556  1.00  0.00     0.261 C 
ATOM      5  O   UNL A   1      33.358  22.610  27.469  1.00  0.00    -0.268 OA
ATOM      6  H   UNL A   1      35.141  21.761  27.408  1.00  0.00     0.163 HD
BRANCH   4   7
ATOM      7  C   UNL A   1      33.491  24.118  25.644  1.00  0.00     0.098 A 
ATOM      8  C   UNL A   1      31.050  23.676  24.965  1.00  0.00     0.047 C 
ATOM      9  C   UNL A   1      32.298  24.485  25.091  1.00  0.00    -0.018 A 
ATOM     10  C   UNL A   1      32.398  25.421  23.961  1.00  0.00     0.016 A 
ATOM     11  S   UNL A   1      34.806  24.770  24.500  1.00  0.00    -0.110 S 
ATOM     12  C   UNL A   1      33.659  25.189  23.247  1.00  0.00     0.128 A 
ATOM     13  C   UNL A   1      31.484  26.133  23.273  1.00  0.00    -0.040 C 
ATOM     14  N   UNL A   1      33.907  25.253  21.989  1.00  0.00    -0.202 NA
ATOM     15  C   UNL A   1      31.478  25.850  21.783  1.00  0.00     0.135 C 
ATOM     16  C   UNL A   1      32.851  25.587  21.164  1.00  0.00     0.251 C 
ATOM     17  O   UNL A   1      32.956  25.606  19.938  1.00  0.00    -0.272 OA
BRANCH  13  18
ATOM     18  C   UNL A   1      30.345  27.037  23.695  1.00  0.00     0.110 C 
BRANCH  18  19
ATOM     19  S   UNL A   1      29.862  28.322  22.541  1.00  0.00    -0.081 SA
BRANCH  19  20
ATOM     20  C   UNL A   1      30.054  29.755  23.523  1.00  0.00     0.195 A 
ATOM     21  N   UNL A   1      29.196  30.753  23.562  1.00  0.00    -0.123 NA
ATOM     22  N   UNL A   1      30.983  29.905  24.544  1.00  0.00    -0.277 N 
ATOM     23  N   UNL A   1      29.548  31.576  24.606  1.00  0.00    -0.138 NA
ATOM     24  C   UNL A   1      30.603  31.054  25.186  1.00  0.00     0.231 A 
BRANCH  22  25
ATOM     25  C   UNL A   1      31.902  28.953  25.027  1.00  0.00     0.049 A 
ATOM     26  C   UNL A   1      31.626  28.329  26.243  1.00  0.00     0.027 A 
ATOM     27  C   UNL A   1      33.188  28.932  24.457  1.00  0.00     0.027 A 
ATOM     28  C   UNL A   1      32.684  27.954  27.032  1.00  0.00     0.002 A 
ATOM     29  C   UNL A   1      34.246  28.496  25.231  1.00  0.00     0.002 A 
ATOM     30  C   UNL A   1      33.977  28.101  26.534  1.00  0.00     0.000 A 
ENDBRANCH  22  25
ENDBRANCH  19  20
ENDBRANCH  18  19
ENDBRANCH  13  18
ENDBRANCH   4   7
ENDBRANCH   2   3
ENDBRANCH   1   2
BRANCH   1  31
ATOM     31  C   UNL A   1      37.817  19.959  24.866  1.00  0.00     0.023 C 
BRANCH  31  32
ATOM     32  C   UNL A   1      38.996  20.256  25.782  1.00  0.00     0.116 C 
BRANCH  32  33
ATOM     33  N   UNL A   1      39.995  19.181  25.909  1.00  0.00    -0.352 N 
ATOM     34  C   UNL A   1      41.381  19.352  25.965  1.00  0.00     0.251 C 
ATOM     35  H   UNL A   1      39.656  18.258  25.962  1.00  0.00     0.163 HD
ATOM     36  O   UNL A   1      42.158  18.429  25.723  1.00  0.00    -0.269 OA
BRANCH  34  37
ATOM     37  C   UNL A   1      41.877  20.679  26.371  1.00  0.00     0.039 A 
ATOM     38  C   UNL A   1      42.274  21.694  25.491  1.00  0.00     0.014 A 
ATOM     39  C   UNL A   1      41.794  20.910  27.736  1.00  0.00     0.014 A 
ATOM     40  C   UNL A   1      42.492  22.975  26.007  1.00  0.00     0.010 A 
ATOM     41  C   UNL A   1      41.739  22.193  28.178  1.00  0.00     0.010 A 
ATOM     42  C   UNL A   1      42.202  23.213  27.357  1.00  0.00    -0.014 A 
BRANCH  42  43
ATOM     43  C   UNL A   1      42.312  24.511  28.009  1.00  0.00     0.031 A 
ATOM     44  C   UNL A   1      41.045  25.281  28.134  1.00  0.00     0.074 A 
ATOM     45  C   UNL A   1      43.414  24.781  28.751  1.00  0.00     0.049 A 
ATOM     46  N   UNL A   1      40.783  26.445  27.641  1.00  0.00    -0.248 NA
ATOM     47  C   UNL A   1      39.875  24.645  28.765  1.00  0.00     0.031 C 
ATOM     48  C   UNL A   1      44.601  23.937  28.969  1.00  0.00     0.029 A 
ATOM     49  N   UNL A   1      43.634  25.801  29.616  1.00  0.00    -0.354 N 
ATOM     50  C   UNL A   1      39.504  26.788  28.074  1.00  0.00     0.074 A 
ATOM     51  C   UNL A   1      38.930  25.571  28.581  1.00  0.00     0.031 C 
ATOM     52  C   UNL A   1      45.254  24.343  30.080  1.00  0.00     0.029 A 
ATOM     53  C   UNL A   1      44.641  25.570  30.552  1.00  0.00     0.049 A 
ATOM     54  H   UNL A   1      43.123  26.641  29.585  1.00  0.00     0.167 HD
ATOM     55  C   UNL A   1      39.111  28.092  28.161  1.00  0.00     0.034 A 
ATOM     56  C   UNL A   1      44.922  26.317  31.656  1.00  0.00     0.034 A 
ATOM     57  C   UNL A   1      40.083  28.953  27.521  1.00  0.00     0.049 A 
ATOM     58  C   UNL A   1      44.331  27.660  31.393  1.00  0.00     0.074 A 
ATOM     59  C   UNL A   1      40.559  29.066  26.229  1.00  0.00     0.029 A 
ATOM     60  N   UNL A   1      41.026  29.563  28.322  1.00  0.00    -0.354 N 
ATOM     61  N   UNL A   1      44.732  28.426  30.411  1.00  0.00    -0.248 NA
ATOM     62  C   UNL A   1      42.964  27.904  31.838  1.00  0.00     0.031 C 
ATOM     63  C   UNL A   1      41.967  29.235  26.383  1.00  0.00     0.029 A 
ATOM     64  C   UNL A   1      42.256  29.337  27.747  1.00  0.00     0.049 A 
ATOM     65  H   UNL A   1      40.852  30.066  29.149  1.00  0.00     0.167 HD
ATOM     66  C   UNL A   1      43.569  28.915  29.829  1.00  0.00     0.074 A 
ATOM     67  C   UNL A   1      42.516  28.636  30.809  1.00  0.00     0.031 C 
ATOM     68  C   UNL A   1      43.499  29.204  28.492  1.00  0.00     0.034 A 
BRANCH  55  69
ATOM     69  C   UNL A   1      38.043  28.664  29.066  1.00  0.00     0.023 A 
ATOM     70  C   UNL A   1      37.179  29.633  28.513  1.00  0.00     0.031 A 
ATOM     71  C   UNL A   1      37.980  28.522  30.469  1.00  0.00     0.131 A 
ATOM     72  C   UNL A   1      36.395  30.463  29.332  1.00  0.00     0.055 A 
ATOM     73  C   UNL A   1      37.149  29.305  31.276  1.00  0.00     0.041 A 
ATOM     74  F   UNL A   1      38.780  27.691  31.146  1.00  0.00    -0.206 F 
ATOM     75  C   UNL A   1      36.373  30.306  30.714  1.00  0.00     0.022 A 
BRANCH  72  76
ATOM     76  S   UNL A   1      35.545  31.872  28.571  1.00  0.00     0.124 S 
ATOM     77  O   UNL A   1      35.003  31.272  27.356  1.00  0.00    -0.237 OA
ATOM     78  O   UNL A   1      34.576  32.229  29.601  1.00  0.00    -0.237 OA
ATOM     79  O   UNL A   1      36.618  32.841  28.360  1.00  0.00    -0.744 OA
ENDBRANCH  72  76
ENDBRANCH  55  69
BRANCH  56  80
ATOM     80  C   UNL A   1      45.330  25.799  33.001  1.00  0.00     0.023 A 
ATOM     81  C   UNL A   1      45.043  24.495  33.467  1.00  0.00     0.031 A 
ATOM     82  C   UNL A   1      46.224  26.559  33.796  1.00  0.00     0.131 A 
ATOM     83  C   UNL A   1      45.628  24.016  34.671  1.00  0.00     0.055 A 
ATOM     84  C   UNL A   1      46.795  26.082  34.980  1.00  0.00     0.041 A 
ATOM     85  F   UNL A   1      46.643  27.773  33.404  1.00  0.00    -0.206 F 
ATOM     86  C   UNL A   1      46.504  24.805  35.419  1.00  0.00     0.022 A 
BRANCH  83  87
ATOM     87  S   UNL A   1      45.326  22.311  35.253  1.00  0.00     0.124 S 
ATOM     88  O   UNL A   1      45.356  22.467  36.702  1.00  0.00    -0.237 OA
ATOM     89  O   UNL A   1      44.029  22.002  34.659  1.00  0.00    -0.237 OA
ATOM     90  O   UNL A   1      46.447  21.554  34.694  1.00  0.00    -0.744 OA
ENDBRANCH  83  87
ENDBRANCH  56  80
BRANCH  68  91
ATOM     91  C   UNL A   1      44.776  29.174  27.663  1.00  0.00     0.023 A 
ATOM     92  C   UNL A   1      45.289  28.032  27.001  1.00  0.00     0.031 A 
ATOM     93  C   UNL A   1      45.398  30.406  27.394  1.00  0.00     0.131 A 
ATOM     94  C   UNL A   1      46.378  28.153  26.112  1.00  0.00     0.055 A 
ATOM     95  C   UNL A   1      46.458  30.527  26.495  1.00  0.00     0.041 A 
ATOM     96  F   UNL A   1      44.946  31.534  27.966  1.00  0.00    -0.206 F 
ATOM     97  C   UNL A   1      46.955  29.399  25.852  1.00  0.00     0.022 A 
BRANCH  94  98
ATOM     98  S   UNL A   1      47.078  26.685  25.284  1.00  0.00     0.124 S 
ATOM     99  O   UNL A   1      45.913  26.046  24.682  1.00  0.00    -0.237 OA
ATOM    100  O   UNL A   1      48.038  27.271  24.352  1.00  0.00    -0.237 OA
ATOM    101  O   UNL A   1      47.684  25.931  26.384  1.00  0.00    -0.744 OA
ENDBRANCH  94  98
ENDBRANCH  68  91
ENDBRANCH  42  43
ENDBRANCH  34  37
ENDBRANCH  32  33
ENDBRANCH  31  32
ENDBRANCH   1  31
TORSDOF 18
ENDMDL
MODEL 2
REMARK VINA RESULT:     -12.7      3.961      5.642
REMARK SMILES Cc1c(C(=O)NCCCCNC(=O)c2ccc(-c3c4nc(c(-c5cc(S(=O)(=O)[O-])ccc5F)c5ccc([nH]5)c(-c5cc(S(=O)(=O)[O-])ccc5F)c5nc(c(-c6cc(S(=O)(=O)[O-])ccc6F)c6ccc3[nH]6)C=C5)C=C4)cc2)sc2c1=C(CSc1nncn1-c1ccccc1)CC(=O)N=2
REMARK SMILES IDX 8 1 7 2 6 3 4 4 5 5 3 7 1 8 2 9 79 10 77 11 78 12 80 13
REMARK SMILES IDX 97 14 94 15 95 16 96 17 81 18 82 19 83 20 84 21 87 22 85 23
REMARK SMILES IDX 86 24 88 25 89 26 93 27 90 28 92 29 91 30 9 31 10 32 11 33
REMARK SMILES IDX 12 34 13 36 14 37 15 38 76 39 16 40 75 41 17 42 18 43 19 44
REMARK SMILES IDX 69 45 20 46 74 47 68 48 70 49 21 50 73 51 67 52 66 53 22 55
REMARK SMILES IDX 54 56 34 57 53 58 35 59 38 60 52 61 71 62 36 63 37 64 51 66
REMARK SMILES IDX 72 67 39 68 23 69 24 70 32 71 25 72 31 73 33 74 30 75 26 76
REMARK SMILES IDX 27 77 28 78 29 79 55 80 56 81 64 82 57 83 63 84 65 85 62 86
REMARK SMILES IDX 58 87 59 88 60 89 61 90 40 91 41 92 49 93 42 94 48 95 50 96
REMARK SMILES IDX 47 97 43 98 44 99 45 100 46 101
REMARK H PARENT 6 6 11 35 70 54 38 65
REMARK Flexibility Score: inf
ROOT
ATOM      1  C   UNL A   1      41.723  21.774  27.090  1.00  0.00     0.023 C 
ENDROOT
BRANCH   1   2
ATOM      2  C   UNL A   1      40.390  21.434  26.351  1.00  0.00     0.116 C 
BRANCH   2   3
ATOM      3  N   UNL A   1      39.441  22.584  26.350  1.00  0.00    -0.351 N 
ATOM      4  C   UNL A   1      38.300  23.201  25.972  1.00  0.00     0.261 C 
ATOM      5  O   UNL A   1      38.247  24.298  26.568  1.00  0.00    -0.268 OA
ATOM      6  H   UNL A   1      39.876  23.244  26.938  1.00  0.00     0.163 HD
BRANCH   4   7
ATOM      7  C   UNL A   1      37.088  22.868  25.073  1.00  0.00     0.098 A 
ATOM      8  C   UNL A   1      35.126  24.514  25.298  1.00  0.00     0.047 C 
ATOM      9  C   UNL A   1      35.889  23.389  24.682  1.00  0.00    -0.018 A 
ATOM     10  C   UNL A   1      34.953  22.421  24.091  1.00  0.00     0.016 A 
ATOM     11  S   UNL A   1      36.910  21.021  24.941  1.00  0.00    -0.110 S 
ATOM     12  C   UNL A   1      35.181  21.099  24.685  1.00  0.00     0.128 A 
ATOM     13  C   UNL A   1      33.777  22.554  23.447  1.00  0.00    -0.040 C 
ATOM     14  N   UNL A   1      34.334  20.181  24.981  1.00  0.00    -0.202 NA
ATOM     15  C   UNL A   1      32.632  21.799  24.096  1.00  0.00     0.135 C 
ATOM     16  C   UNL A   1      33.006  20.451  24.712  1.00  0.00     0.251 C 
ATOM     17  O   UNL A   1      32.102  19.676  25.022  1.00  0.00    -0.272 OA
BRANCH  13  18
ATOM     18  C   UNL A   1      33.316  23.433  22.304  1.00  0.00     0.110 C 
BRANCH  18  19
ATOM     19  S   UNL A   1      31.954  24.550  22.641  1.00  0.00    -0.081 SA
BRANCH  19  20
ATOM     20  C   UNL A   1      32.752  26.102  22.552  1.00  0.00     0.195 A 
ATOM     21  N   UNL A   1      33.842  26.341  21.854  1.00  0.00    -0.123 NA
ATOM     22  N   UNL A   1      32.213  27.304  22.992  1.00  0.00    -0.277 N 
ATOM     23  N   UNL A   1      34.040  27.703  21.827  1.00  0.00    -0.138 NA
ATOM     24  C   UNL A   1      33.058  28.261  22.496  1.00  0.00     0.231 A 
BRANCH  22  25
ATOM     25  C   UNL A   1      30.934  27.532  23.536  1.00  0.00     0.049 A 
ATOM     26  C   UNL A   1      30.441  26.617  24.465  1.00  0.00     0.027 A 
ATOM     27  C   UNL A   1      30.092  28.447  22.878  1.00  0.00     0.027 A 
ATOM     28  C   UNL A   1      29.086  26.407  24.510  1.00  0.00     0.002 A 
ATOM     29  C   UNL A   1      28.725  28.273  22.973  1.00  0.00     0.002 A 
ATOM     30  C   UNL A   1      28.258  27.199  23.718  1.00  0.00     0.000 A 
ENDBRANCH  22  25
ENDBRANCH  19  20
ENDBRANCH  18  19
ENDBRANCH  13  18
ENDBRANCH   4   7
ENDBRANCH   2   3
ENDBRANCH   1   2
BRANCH   1  31
ATOM     31  C   UNL A   1      41.684  22.809  28.230  1.00  0.00     0.023 C 
BRANCH  31  32
ATOM     32  C   UNL A   1      42.386  24.134  27.961  1.00  0.00     0.116 C 
BRANCH  32  33
ATOM     33  N   UNL A   1      42.283  24.646  26.584  1.00  0.00    -0.352 N 
ATOM     34  C   UNL A   1      41.462  25.692  26.156  1.00  0.00     0.251 C 
ATOM     35  H   UNL A   1      42.845  24.212  25.902  1.00  0.00     0.163 HD
ATOM     36  O   UNL A   1      41.162  25.838  24.972  1.00  0.00    -0.269 OA
BRANCH  34  37
ATOM     37  C   UNL A   1      41.002  26.645  27.182  1.00  0.00     0.039 A 
ATOM     38  C   UNL A   1      40.410  26.291  28.402  1.00  0.00     0.014 A 
ATOM     39  C   UNL A   1      41.330  27.963  26.903  1.00  0.00     0.014 A 
ATOM     40  C   UNL A   1      40.247  27.283  29.374  1.00  0.00     0.010 A 
ATOM     41  C   UNL A   1      41.420  28.845  27.933  1.00  0.00     0.010 A 
ATOM     42  C   UNL A   1      40.775  28.557  29.129  1.00  0.00    -0.014 A 
BRANCH  42  43
ATOM     43  C   UNL A   1      40.741  29.662  30.078  1.00  0.00     0.031 A 
ATOM     44  C   UNL A   1      39.410  30.297  30.283  1.00  0.00     0.074 A 
ATOM     45  C   UNL A   1      41.770  29.814  30.947  1.00  0.00     0.049 A 
ATOM     46  N   UNL A   1      39.086  31.527  30.061  1.00  0.00    -0.248 NA
ATOM     47  C   UNL A   1      38.260  29.454  30.652  1.00  0.00     0.031 C 
ATOM     48  C   UNL A   1      43.006  29.019  31.049  1.00  0.00     0.029 A 
ATOM     49  N   UNL A   1      41.856  30.605  32.043  1.00  0.00    -0.354 N 
ATOM     50  C   UNL A   1      37.760  31.672  30.463  1.00  0.00     0.074 A 
ATOM     51  C   UNL A   1      37.256  30.335  30.620  1.00  0.00     0.031 C 
ATOM     52  C   UNL A   1      43.557  29.184  32.272  1.00  0.00     0.029 A 
ATOM     53  C   UNL A   1      42.819  30.219  32.973  1.00  0.00     0.049 A 
ATOM     54  H   UNL A   1      41.281  31.393  32.173  1.00  0.00     0.167 HD
ATOM     55  C   UNL A   1      37.259  32.889  30.826  1.00  0.00     0.034 A 
ATOM     56  C   UNL A   1      42.972  30.692  34.242  1.00  0.00     0.034 A 
ATOM     57  C   UNL A   1      38.195  33.939  30.486  1.00  0.00     0.049 A 
ATOM     58  C   UNL A   1      42.292  32.019  34.260  1.00  0.00     0.074 A 
ATOM     59  C   UNL A   1      38.737  34.392  29.299  1.00  0.00     0.029 A 
ATOM     60  N   UNL A   1      39.036  34.396  31.480  1.00  0.00    -0.354 N 
ATOM     61  N   UNL A   1      42.689  33.024  33.521  1.00  0.00    -0.248 NA
ATOM     62  C   UNL A   1      40.886  32.060  34.642  1.00  0.00     0.031 C 
ATOM     63  C   UNL A   1      40.116  34.608  29.598  1.00  0.00     0.029 A 
ATOM     64  C   UNL A   1      40.313  34.395  30.966  1.00  0.00     0.049 A 
ATOM     65  H   UNL A   1      38.772  34.671  32.387  1.00  0.00     0.167 HD
ATOM     66  C   UNL A   1      41.527  33.564  32.984  1.00  0.00     0.074 A 
ATOM     67  C   UNL A   1      40.443  32.989  33.784  1.00  0.00     0.031 C 
ATOM     68  C   UNL A   1      41.515  34.164  31.752  1.00  0.00     0.034 A 
BRANCH  55  69
ATOM     69  C   UNL A   1      36.095  33.155  31.755  1.00  0.00     0.023 A 
ATOM     70  C   UNL A   1      35.006  33.885  31.232  1.00  0.00     0.031 A 
ATOM     71  C   UNL A   1      36.093  32.975  33.154  1.00  0.00     0.131 A 
ATOM     72  C   UNL A   1      34.051  34.475  32.078  1.00  0.00     0.055 A 
ATOM     73  C   UNL A   1      35.103  33.509  33.988  1.00  0.00     0.041 A 
ATOM     74  F   UNL A   1      37.087  32.361  33.805  1.00  0.00    -0.206 F 
ATOM     75  C   UNL A   1      34.092  34.291  33.456  1.00  0.00     0.022 A 
BRANCH  72  76
ATOM     76  S   UNL A   1      32.861  35.637  31.357  1.00  0.00     0.124 S 
ATOM     77  O   UNL A   1      31.751  35.551  32.300  1.00  0.00    -0.237 OA
ATOM     78  O   UNL A   1      33.619  36.884  31.364  1.00  0.00    -0.237 OA
ATOM     79  O   UNL A   1      32.598  35.074  30.034  1.00  0.00    -0.744 OA
ENDBRANCH  72  76
ENDBRANCH  55  69
BRANCH  56  80
ATOM     80  C   UNL A   1      43.338  29.890  35.453  1.00  0.00     0.023 A 
ATOM     81  C   UNL A   1      42.846  28.592  35.720  1.00  0.00     0.031 A 
ATOM     82  C   UNL A   1      44.385  30.343  36.294  1.00  0.00     0.131 A 
ATOM     83  C   UNL A   1      43.388  27.823  36.787  1.00  0.00     0.055 A 
ATOM     84  C   UNL A   1      44.912  29.582  37.342  1.00  0.00     0.041 A 
ATOM     85  F   UNL A   1      44.995  31.519  36.075  1.00  0.00    -0.206 F 
ATOM     86  C   UNL A   1      44.420  28.314  37.589  1.00  0.00     0.022 A 
BRANCH  83  87
ATOM     87  S   UNL A   1      42.814  26.118  37.106  1.00  0.00     0.124 S 
ATOM     88  O   UNL A   1      41.540  26.339  37.778  1.00  0.00    -0.237 OA
ATOM     89  O   UNL A   1      42.752  25.551  35.762  1.00  0.00    -0.237 OA
ATOM     90  O   UNL A   1      43.866  25.555  37.954  1.00  0.00    -0.744 OA
ENDBRANCH  83  87
ENDBRANCH  56  80
BRANCH  68  91
ATOM     91  C   UNL A   1      42.839  34.416  31.041  1.00  0.00     0.023 A 
ATOM     92  C   UNL A   1      43.380  33.603  30.018  1.00  0.00     0.031 A 
ATOM     93  C   UNL A   1      43.485  35.639  31.301  1.00  0.00     0.131 A 
ATOM     94  C   UNL A   1      44.520  34.024  29.301  1.00  0.00     0.055 A 
ATOM     95  C   UNL A   1      44.596  36.064  30.573  1.00  0.00     0.041 A 
ATOM     96  F   UNL A   1      43.009  36.473  32.240  1.00  0.00    -0.206 F 
ATOM     97  C   UNL A   1      45.121  35.256  29.572  1.00  0.00     0.022 A 
BRANCH  94  98
ATOM     98  S   UNL A   1      45.255  32.967  28.008  1.00  0.00     0.124 S 
ATOM     99  O   UNL A   1      44.147  32.731  27.089  1.00  0.00    -0.237 OA
ATOM    100  O   UNL A   1      46.343  33.797  27.497  1.00  0.00    -0.237 OA
ATOM    101  O   UNL A   1      45.695  31.781  28.747  1.00  0.00    -0.744 OA
ENDBRANCH  94  98
ENDBRANCH  68  91
ENDBRANCH  42  43
ENDBRANCH  34  37
ENDBRANCH  32  33
ENDBRANCH  31  32
ENDBRANCH   1  31
TORSDOF 18
ENDMDL
MODEL 3
REMARK VINA RESULT:     -12.6      2.366      3.282
REMARK SMILES Cc1c(C(=O)NCCCCNC(=O)c2ccc(-c3c4nc(c(-c5cc(S(=O)(=O)[O-])ccc5F)c5ccc([nH]5)c(-c5cc(S(=O)(=O)[O-])ccc5F)c5nc(c(-c6cc(S(=O)(=O)[O-])ccc6F)c6ccc3[nH]6)C=C5)C=C4)cc2)sc2c1=C(CSc1nncn1-c1ccccc1)CC(=O)N=2
REMARK SMILES IDX 8 1 7 2 6 3 4 4 5 5 3 7 1 8 2 9 79 10 77 11 78 12 80 13
REMARK SMILES IDX 97 14 94 15 95 16 96 17 81 18 82 19 83 20 84 21 87 22 85 23
REMARK SMILES IDX 86 24 88 25 89 26 93 27 90 28 92 29 91 30 9 31 10 32 11 33
REMARK SMILES IDX 12 34 13 36 14 37 15 38 76 39 16 40 75 41 17 42 18 43 19 44
REMARK SMILES IDX 69 45 20 46 74 47 68 48 70 49 21 50 73 51 67 52 66 53 22 55
REMARK SMILES IDX 54 56 34 57 53 58 35 59 38 60 52 61 71 62 36 63 37 64 51 66
REMARK SMILES IDX 72 67 39 68 23 69 24 70 32 71 25 72 31 73 33 74 30 75 26 76
REMARK SMILES IDX 27 77 28 78 29 79 55 80 56 81 64 82 57 83 63 84 65 85 62 86
REMARK SMILES IDX 58 87 59 88 60 89 61 90 40 91 41 92 49 93 42 94 48 95 50 96
REMARK SMILES IDX 47 97 43 98 44 99 45 100 46 101
REMARK H PARENT 6 6 11 35 70 54 38 65
REMARK Flexibility Score: inf
ROOT
ATOM      1  C   UNL A   1      36.569  20.303  24.833  1.00  0.00     0.023 C 
ENDROOT
BRANCH   1   2
ATOM      2  C   UNL A   1      35.580  21.128  25.715  1.00  0.00     0.116 C 
BRANCH   2   3
ATOM      3  N   UNL A   1      34.176  21.034  25.222  1.00  0.00    -0.351 N 
ATOM      4  C   UNL A   1      33.007  21.573  24.813  1.00  0.00     0.261 C 
ATOM      5  O   UNL A   1      32.254  20.634  24.475  1.00  0.00    -0.268 OA
ATOM      6  H   UNL A   1      34.016  20.064  25.164  1.00  0.00     0.163 HD
BRANCH   4   7
ATOM      7  C   UNL A   1      32.432  22.994  24.620  1.00  0.00     0.098 A 
ATOM      8  C   UNL A   1      34.163  24.738  23.862  1.00  0.00     0.047 C 
ATOM      9  C   UNL A   1      32.791  24.225  24.151  1.00  0.00    -0.018 A 
ATOM     10  C   UNL A   1      31.929  25.333  24.587  1.00  0.00     0.016 A 
ATOM     11  S   UNL A   1      31.109  23.300  25.893  1.00  0.00    -0.110 S 
ATOM     12  C   UNL A   1      31.378  25.028  25.912  1.00  0.00     0.128 A 
ATOM     13  C   UNL A   1      31.842  26.628  24.224  1.00  0.00    -0.040 C 
ATOM     14  N   UNL A   1      31.142  25.817  26.898  1.00  0.00    -0.202 NA
ATOM     15  C   UNL A   1      32.029  27.602  25.373  1.00  0.00     0.135 C 
ATOM     16  C   UNL A   1      31.442  27.152  26.711  1.00  0.00     0.251 C 
ATOM     17  O   UNL A   1      31.327  27.984  27.611  1.00  0.00    -0.272 OA
BRANCH  13  18
ATOM     18  C   UNL A   1      31.763  27.324  22.883  1.00  0.00     0.110 C 
BRANCH  18  19
ATOM     19  S   UNL A   1      30.753  28.804  22.797  1.00  0.00    -0.081 SA
BRANCH  19  20
ATOM     20  C   UNL A   1      29.155  28.144  23.052  1.00  0.00     0.195 A 
ATOM     21  N   UNL A   1      28.909  26.994  23.644  1.00  0.00    -0.123 NA
ATOM     22  N   UNL A   1      27.967  28.845  22.894  1.00  0.00    -0.277 N 
ATOM     23  N   UNL A   1      27.555  26.919  23.880  1.00  0.00    -0.138 NA
ATOM     24  C   UNL A   1      27.012  28.029  23.440  1.00  0.00     0.231 A 
BRANCH  22  25
ATOM     25  C   UNL A   1      27.800  30.203  22.556  1.00  0.00     0.049 A 
ATOM     26  C   UNL A   1      27.933  30.569  21.217  1.00  0.00     0.027 A 
ATOM     27  C   UNL A   1      27.856  31.151  23.594  1.00  0.00     0.027 A 
ATOM     28  C   UNL A   1      28.424  31.818  20.934  1.00  0.00     0.002 A 
ATOM     29  C   UNL A   1      28.292  32.428  23.298  1.00  0.00     0.002 A 
ATOM     30  C   UNL A   1      28.650  32.704  21.986  1.00  0.00     0.000 A 
ENDBRANCH  22  25
ENDBRANCH  19  20
ENDBRANCH  18  19
ENDBRANCH  13  18
ENDBRANCH   4   7
ENDBRANCH   2   3
ENDBRANCH   1   2
BRANCH   1  31
ATOM     31  C   UNL A   1      38.027  20.787  24.720  1.00  0.00     0.023 C 
BRANCH  31  32
ATOM     32  C   UNL A   1      38.888  20.625  25.966  1.00  0.00     0.116 C 
BRANCH  32  33
ATOM     33  N   UNL A   1      39.815  19.480  25.961  1.00  0.00    -0.352 N 
ATOM     34  C   UNL A   1      41.210  19.554  25.961  1.00  0.00     0.251 C 
ATOM     35  H   UNL A   1      39.415  18.581  25.960  1.00  0.00     0.163 HD
ATOM     36  O   UNL A   1      41.909  18.603  25.611  1.00  0.00    -0.269 OA
BRANCH  34  37
ATOM     37  C   UNL A   1      41.815  20.808  26.443  1.00  0.00     0.039 A 
ATOM     38  C   UNL A   1      42.305  21.833  25.622  1.00  0.00     0.014 A 
ATOM     39  C   UNL A   1      41.741  20.969  27.818  1.00  0.00     0.014 A 
ATOM     40  C   UNL A   1      42.628  23.060  26.211  1.00  0.00     0.010 A 
ATOM     41  C   UNL A   1      41.793  22.225  28.332  1.00  0.00     0.010 A 
ATOM     42  C   UNL A   1      42.349  23.246  27.571  1.00  0.00    -0.014 A 
BRANCH  42  43
ATOM     43  C   UNL A   1      42.565  24.491  28.296  1.00  0.00     0.031 A 
ATOM     44  C   UNL A   1      41.451  25.476  28.235  1.00  0.00     0.074 A 
ATOM     45  C   UNL A   1      43.544  24.544  29.231  1.00  0.00     0.049 A 
ATOM     46  N   UNL A   1      41.491  26.676  27.762  1.00  0.00    -0.248 NA
ATOM     47  C   UNL A   1      40.094  25.052  28.620  1.00  0.00     0.031 C 
ATOM     48  C   UNL A   1      44.506  23.495  29.611  1.00  0.00     0.029 A 
ATOM     49  N   UNL A   1      43.780  25.492  30.170  1.00  0.00    -0.354 N 
ATOM     50  C   UNL A   1      40.235  27.238  27.982  1.00  0.00     0.074 A 
ATOM     51  C   UNL A   1      39.374  26.136  28.319  1.00  0.00     0.031 C 
ATOM     52  C   UNL A   1      45.009  23.757  30.838  1.00  0.00     0.029 A 
ATOM     53  C   UNL A   1      44.545  25.067  31.255  1.00  0.00     0.049 A 
ATOM     54  H   UNL A   1      43.438  26.411  30.092  1.00  0.00     0.167 HD
ATOM     55  C   UNL A   1      40.067  28.590  28.063  1.00  0.00     0.034 A 
ATOM     56  C   UNL A   1      44.748  25.731  32.427  1.00  0.00     0.034 A 
ATOM     57  C   UNL A   1      41.275  29.271  27.646  1.00  0.00     0.049 A 
ATOM     58  C   UNL A   1      44.460  27.163  32.132  1.00  0.00     0.074 A 
ATOM     59  C   UNL A   1      41.989  29.319  26.463  1.00  0.00     0.029 A 
ATOM     60  N   UNL A   1      42.150  29.687  28.628  1.00  0.00    -0.354 N 
ATOM     61  N   UNL A   1      45.159  27.861  31.273  1.00  0.00    -0.248 NA
ATOM     62  C   UNL A   1      43.099  27.644  32.342  1.00  0.00     0.031 C 
ATOM     63  C   UNL A   1      43.353  29.227  26.869  1.00  0.00     0.029 A 
ATOM     64  C   UNL A   1      43.405  29.251  28.267  1.00  0.00     0.049 A 
ATOM     65  H   UNL A   1      41.920  30.199  29.436  1.00  0.00     0.167 HD
ATOM     66  C   UNL A   1      44.224  28.562  30.522  1.00  0.00     0.074 A 
ATOM     67  C   UNL A   1      42.980  28.462  31.288  1.00  0.00     0.031 C 
ATOM     68  C   UNL A   1      44.449  28.882  29.209  1.00  0.00     0.034 A 
BRANCH  55  69
ATOM     69  C   UNL A   1      38.970  29.330  28.794  1.00  0.00     0.023 A 
ATOM     70  C   UNL A   1      39.068  29.405  30.200  1.00  0.00     0.031 A 
ATOM     71  C   UNL A   1      37.732  29.730  28.247  1.00  0.00     0.131 A 
ATOM     72  C   UNL A   1      37.959  29.755  30.990  1.00  0.00     0.055 A 
ATOM     73  C   UNL A   1      36.651  30.142  29.034  1.00  0.00     0.041 A 
ATOM     74  F   UNL A   1      37.464  29.657  26.939  1.00  0.00    -0.206 F 
ATOM     75  C   UNL A   1      36.749  30.126  30.415  1.00  0.00     0.022 A 
BRANCH  72  76
ATOM     76  S   UNL A   1      38.078  29.540  32.786  1.00  0.00     0.124 S 
ATOM     77  O   UNL A   1      37.493  28.216  32.968  1.00  0.00    -0.237 OA
ATOM     78  O   UNL A   1      39.516  29.645  33.007  1.00  0.00    -0.237 OA
ATOM     79  O   UNL A   1      37.283  30.648  33.312  1.00  0.00    -0.744 OA
ENDBRANCH  72  76
ENDBRANCH  55  69
BRANCH  56  80
ATOM     80  C   UNL A   1      44.809  25.124  33.796  1.00  0.00     0.023 A 
ATOM     81  C   UNL A   1      45.566  25.657  34.864  1.00  0.00     0.031 A 
ATOM     82  C   UNL A   1      43.916  24.075  34.130  1.00  0.00     0.131 A 
ATOM     83  C   UNL A   1      45.421  25.136  36.179  1.00  0.00     0.055 A 
ATOM     84  C   UNL A   1      43.779  23.566  35.425  1.00  0.00     0.041 A 
ATOM     85  F   UNL A   1      43.078  23.557  33.218  1.00  0.00    -0.206 F 
ATOM     86  C   UNL A   1      44.527  24.100  36.458  1.00  0.00     0.022 A 
BRANCH  83  87
ATOM     87  S   UNL A   1      46.339  25.856  37.585  1.00  0.00     0.124 S 
ATOM     88  O   UNL A   1      47.721  25.767  37.132  1.00  0.00    -0.237 OA
ATOM     89  O   UNL A   1      45.769  27.196  37.679  1.00  0.00    -0.237 OA
ATOM     90  O   UNL A   1      46.002  24.972  38.703  1.00  0.00    -0.744 OA
ENDBRANCH  83  87
ENDBRANCH  56  80
BRANCH  68  91
ATOM     91  C   UNL A   1      45.830  28.635  28.616  1.00  0.00     0.023 A 
ATOM     92  C   UNL A   1      46.243  27.433  27.993  1.00  0.00     0.031 A 
ATOM     93  C   UNL A   1      46.699  29.737  28.527  1.00  0.00     0.131 A 
ATOM     94  C   UNL A   1      47.480  27.370  27.316  1.00  0.00     0.055 A 
ATOM     95  C   UNL A   1      47.909  29.680  27.835  1.00  0.00     0.041 A 
ATOM     96  F   UNL A   1      46.358  30.917  29.072  1.00  0.00    -0.206 F 
ATOM     97  C   UNL A   1      48.306  28.494  27.229  1.00  0.00     0.022 A 
BRANCH  94  98
ATOM     98  S   UNL A   1      48.047  25.817  26.544  1.00  0.00     0.124 S 
ATOM     99  O   UNL A   1      46.885  25.371  25.783  1.00  0.00    -0.237 OA
ATOM    100  O   UNL A   1      49.197  26.253  25.757  1.00  0.00    -0.237 OA
ATOM    101  O   UNL A   1      48.383  24.971  27.691  1.00  0.00    -0.744 OA
ENDBRANCH  94  98
ENDBRANCH  68  91
ENDBRANCH  42  43
ENDBRANCH  34  37
ENDBRANCH  32  33
ENDBRANCH  31  32
ENDBRANCH   1  31
TORSDOF 18
ENDMDL
