MODEL 1
REMARK VINA RESULT:     -12.1      0.000      0.000
REMARK SMILES CC1CCN(C(=O)N[C@@H]2C=C[C@H](C(=O)NCCCCNC(=O)c3ccc(-c4c5nc(c(-c6cc(S(=O)(=O)[O-])ccc6F)c6ccc([nH]6)c(-c6cc(S(=O)(=O)[O-])ccc6F)c6nc(c(-c7cc(S(=O)(=O)[O-])ccc7F)c7ccc4[nH]7)C=C6)C=C5)cc3)C2)CC1
REMARK SMILES IDX 18 1 17 2 16 3 15 4 13 5 14 6 12 8 9 9 10 10 86 11 11 12
REMARK SMILES IDX 8 13 1 14 2 15 3 16 88 17 4 18 87 19 5 20 6 21 7 22 19 24
REMARK SMILES IDX 20 25 21 26 22 28 23 29 24 30 85 31 25 32 84 33 26 34 27 35
REMARK SMILES IDX 28 36 78 37 29 38 83 39 77 40 79 41 30 42 82 43 76 44 75 45
REMARK SMILES IDX 31 47 63 48 43 49 62 50 44 51 47 52 61 53 80 54 45 55 46 56
REMARK SMILES IDX 60 58 81 59 48 60 32 61 33 62 41 63 34 64 40 65 42 66 39 67
REMARK SMILES IDX 35 68 36 69 37 70 38 71 64 72 65 73 73 74 66 75 72 76 74 77
REMARK SMILES IDX 71 78 67 79 68 80 69 81 70 82 49 83 50 84 58 85 51 86 57 87
REMARK SMILES IDX 59 88 56 89 52 90 53 91 54 92 55 93
REMARK H PARENT 15 7 8 23 20 27 79 46 47 57
REMARK Flexibility Score: inf
ROOT
ATOM      1  C   UNL A   1      31.410  32.679  26.515  1.00  0.00     0.023 C 
ENDROOT
BRANCH   1   2
ATOM      2  C   UNL A   1      31.255  31.181  26.235  1.00  0.00     0.023 C 
BRANCH   2   3
ATOM      3  C   UNL A   1      32.179  30.233  26.990  1.00  0.00     0.116 C 
BRANCH   3   4
ATOM      4  N   UNL A   1      31.586  28.937  27.194  1.00  0.00    -0.356 N 
ATOM      5  C   UNL A   1      31.954  27.716  26.733  1.00  0.00     0.227 C 
ATOM      6  O   UNL A   1      31.382  26.766  27.264  1.00  0.00    -0.274 OA
ATOM      7  H   UNL A   1      30.780  28.937  27.761  1.00  0.00     0.163 HD
BRANCH   5   8
ATOM      8  C   UNL A   1      33.051  27.562  25.671  1.00  0.00     0.103 C 
ATOM      9  C   UNL A   1      31.850  26.984  23.612  1.00  0.00     0.107 C 
ATOM     10  C   UNL A   1      32.478  25.770  24.282  1.00  0.00    -0.006 C 
ATOM     11  C   UNL A   1      32.692  28.066  24.272  1.00  0.00     0.047 C 
ATOM     12  C   UNL A   1      33.171  26.098  25.385  1.00  0.00    -0.016 C 
BRANCH   9  13
ATOM     13  N   UNL A   1      30.405  26.867  23.749  1.00  0.00    -0.332 N 
ATOM     14  C   UNL A   1      28.692  32.759  23.151  1.00  0.00     0.008 C 
ATOM     15  C   UNL A   1      28.465  31.389  22.511  1.00  0.00    -0.011 C 
ATOM     16  C   UNL A   1      27.650  30.515  23.472  1.00  0.00     0.025 C 
ATOM     17  C   UNL A   1      29.798  30.720  22.108  1.00  0.00     0.025 C 
ATOM     18  C   UNL A   1      27.560  29.074  22.985  1.00  0.00     0.121 C 
ATOM     19  C   UNL A   1      29.650  29.223  21.789  1.00  0.00     0.121 C 
ATOM     20  N   UNL A   1      28.902  28.512  22.807  1.00  0.00    -0.325 N 
ATOM     21  C   UNL A   1      29.202  27.395  23.518  1.00  0.00     0.317 C 
ATOM     22  O   UNL A   1      28.297  26.729  24.047  1.00  0.00    -0.249 OA
ATOM     23  H   UNL A   1      30.244  26.019  24.223  1.00  0.00     0.165 HD
ENDBRANCH   9  13
ENDBRANCH   5   8
ENDBRANCH   3   4
ENDBRANCH   2   3
ENDBRANCH   1   2
BRANCH   1  24
ATOM     24  C   UNL A   1      32.675  33.129  27.233  1.00  0.00     0.116 C 
BRANCH  24  25
ATOM     25  N   UNL A   1      32.523  34.437  27.843  1.00  0.00    -0.352 N 
ATOM     26  C   UNL A   1      33.143  34.954  28.951  1.00  0.00     0.251 C 
ATOM     27  H   UNL A   1      31.885  35.039  27.396  1.00  0.00     0.163 HD
ATOM     28  O   UNL A   1      32.725  36.013  29.429  1.00  0.00    -0.269 OA
BRANCH  26  29
ATOM     29  C   UNL A   1      34.272  34.243  29.588  1.00  0.00     0.039 A 
ATOM     30  C   UNL A   1      35.574  34.558  29.191  1.00  0.00     0.014 A 
ATOM     31  C   UNL A   1      34.060  33.260  30.561  1.00  0.00     0.014 A 
ATOM     32  C   UNL A   1      36.660  33.929  29.804  1.00  0.00     0.010 A 
ATOM     33  C   UNL A   1      35.146  32.690  31.225  1.00  0.00     0.010 A 
ATOM     34  C   UNL A   1      36.459  33.013  30.850  1.00  0.00    -0.014 A 
BRANCH  34  35
ATOM     35  C   UNL A   1      37.615  32.385  31.549  1.00  0.00     0.031 A 
ATOM     36  C   UNL A   1      38.373  31.255  30.904  1.00  0.00     0.074 A 
ATOM     37  C   UNL A   1      37.960  32.809  32.782  1.00  0.00     0.049 A 
ATOM     38  N   UNL A   1      39.381  30.562  31.369  1.00  0.00    -0.248 NA
ATOM     39  C   UNL A   1      37.922  30.834  29.570  1.00  0.00     0.031 C 
ATOM     40  C   UNL A   1      37.283  33.873  33.528  1.00  0.00     0.029 A 
ATOM     41  N   UNL A   1      38.961  32.402  33.628  1.00  0.00    -0.354 N 
ATOM     42  C   UNL A   1      39.678  29.617  30.391  1.00  0.00     0.074 A 
ATOM     43  C   UNL A   1      38.701  29.789  29.336  1.00  0.00     0.031 C 
ATOM     44  C   UNL A   1      37.910  34.056  34.701  1.00  0.00     0.029 A 
ATOM     45  C   UNL A   1      38.999  33.091  34.819  1.00  0.00     0.049 A 
ATOM     46  H   UNL A   1      39.595  31.682  33.403  1.00  0.00     0.167 HD
ATOM     47  C   UNL A   1      40.684  28.708  30.365  1.00  0.00     0.034 A 
ATOM     48  C   UNL A   1      39.808  32.956  35.889  1.00  0.00     0.034 A 
ATOM     49  C   UNL A   1      41.655  28.554  31.423  1.00  0.00     0.049 A 
ATOM     50  C   UNL A   1      40.894  31.908  35.853  1.00  0.00     0.074 A 
ATOM     51  C   UNL A   1      42.746  27.703  31.473  1.00  0.00     0.029 A 
ATOM     52  N   UNL A   1      41.646  29.254  32.623  1.00  0.00    -0.354 N 
ATOM     53  N   UNL A   1      41.195  31.062  34.895  1.00  0.00    -0.248 NA
ATOM     54  C   UNL A   1      41.753  31.806  37.039  1.00  0.00     0.031 C 
ATOM     55  C   UNL A   1      43.345  27.830  32.731  1.00  0.00     0.029 A 
ATOM     56  C   UNL A   1      42.687  28.826  33.434  1.00  0.00     0.049 A 
ATOM     57  H   UNL A   1      40.996  29.953  32.863  1.00  0.00     0.167 HD
ATOM     58  C   UNL A   1      42.302  30.350  35.352  1.00  0.00     0.074 A 
ATOM     59  C   UNL A   1      42.622  30.881  36.661  1.00  0.00     0.031 C 
ATOM     60  C   UNL A   1      42.991  29.351  34.745  1.00  0.00     0.034 A 
BRANCH  47  61
ATOM     61  C   UNL A   1      40.765  27.789  29.168  1.00  0.00     0.023 A 
ATOM     62  C   UNL A   1      41.680  28.011  28.123  1.00  0.00     0.031 A 
ATOM     63  C   UNL A   1      39.905  26.681  29.060  1.00  0.00     0.131 A 
ATOM     64  C   UNL A   1      41.663  27.188  26.987  1.00  0.00     0.055 A 
ATOM     65  C   UNL A   1      39.951  25.814  27.967  1.00  0.00     0.041 A 
ATOM     66  F   UNL A   1      38.995  26.427  30.014  1.00  0.00    -0.206 F 
ATOM     67  C   UNL A   1      40.823  26.074  26.914  1.00  0.00     0.022 A 
BRANCH  64  68
ATOM     68  S   UNL A   1      42.647  27.679  25.545  1.00  0.00     0.124 S 
ATOM     69  O   UNL A   1      42.573  26.480  24.715  1.00  0.00    -0.237 OA
ATOM     70  O   UNL A   1      41.923  28.845  25.051  1.00  0.00    -0.237 OA
ATOM     71  O   UNL A   1      43.967  27.956  26.109  1.00  0.00    -0.744 OA
ENDBRANCH  64  68
ENDBRANCH  47  61
BRANCH  48  72
ATOM     72  C   UNL A   1      39.626  33.820  37.092  1.00  0.00     0.023 A 
ATOM     73  C   UNL A   1      38.969  33.339  38.237  1.00  0.00     0.031 A 
ATOM     74  C   UNL A   1      40.057  35.159  37.098  1.00  0.00     0.131 A 
ATOM     75  C   UNL A   1      38.714  34.201  39.314  1.00  0.00     0.055 A 
ATOM     76  C   UNL A   1      39.856  35.996  38.198  1.00  0.00     0.041 A 
ATOM     77  F   UNL A   1      40.691  35.673  36.032  1.00  0.00    -0.206 F 
ATOM     78  C   UNL A   1      39.166  35.521  39.308  1.00  0.00     0.022 A 
BRANCH  75  79
ATOM     79  S   UNL A   1      37.689  33.599  40.685  1.00  0.00     0.124 S 
ATOM     80  O   UNL A   1      36.650  32.861  39.975  1.00  0.00    -0.237 OA
ATOM     81  O   UNL A   1      38.641  32.797  41.445  1.00  0.00    -0.237 OA
ATOM     82  O   UNL A   1      37.246  34.827  41.342  1.00  0.00    -0.744 OA
ENDBRANCH  75  79
ENDBRANCH  48  72
BRANCH  60  83
ATOM     83  C   UNL A   1      44.194  28.802  35.476  1.00  0.00     0.023 A 
ATOM     84  C   UNL A   1      44.087  27.731  36.381  1.00  0.00     0.031 A 
ATOM     85  C   UNL A   1      45.465  29.370  35.275  1.00  0.00     0.131 A 
ATOM     86  C   UNL A   1      45.216  27.306  37.098  1.00  0.00     0.055 A 
ATOM     87  C   UNL A   1      46.598  28.896  35.938  1.00  0.00     0.041 A 
ATOM     88  F   UNL A   1      45.628  30.399  34.427  1.00  0.00    -0.206 F 
ATOM     89  C   UNL A   1      46.474  27.868  36.867  1.00  0.00     0.022 A 
BRANCH  86  90
ATOM     90  S   UNL A   1      44.998  26.080  38.418  1.00  0.00     0.124 S 
ATOM     91  O   UNL A   1      46.375  25.839  38.837  1.00  0.00    -0.237 OA
ATOM     92  O   UNL A   1      44.156  26.795  39.372  1.00  0.00    -0.237 OA
ATOM     93  O   UNL A   1      44.352  24.957  37.740  1.00  0.00    -0.744 OA
ENDBRANCH  86  90
ENDBRANCH  60  83
ENDBRANCH  34  35
ENDBRANCH  26  29
ENDBRANCH  24  25
ENDBRANCH   1  24
TORSDOF 15
ENDMDL
MODEL 2
REMARK VINA RESULT:     -12.0      7.000     12.236
REMARK SMILES CC1CCN(C(=O)N[C@@H]2C=C[C@H](C(=O)NCCCCNC(=O)c3ccc(-c4c5nc(c(-c6cc(S(=O)(=O)[O-])ccc6F)c6ccc([nH]6)c(-c6cc(S(=O)(=O)[O-])ccc6F)c6nc(c(-c7cc(S(=O)(=O)[O-])ccc7F)c7ccc4[nH]7)C=C6)C=C5)cc3)C2)CC1
REMARK SMILES IDX 18 1 17 2 16 3 15 4 13 5 14 6 12 8 9 9 10 10 86 11 11 12
REMARK SMILES IDX 8 13 1 14 2 15 3 16 88 17 4 18 87 19 5 20 6 21 7 22 19 24
REMARK SMILES IDX 20 25 21 26 22 28 23 29 24 30 85 31 25 32 84 33 26 34 27 35
REMARK SMILES IDX 28 36 78 37 29 38 83 39 77 40 79 41 30 42 82 43 76 44 75 45
REMARK SMILES IDX 31 47 63 48 43 49 62 50 44 51 47 52 61 53 80 54 45 55 46 56
REMARK SMILES IDX 60 58 81 59 48 60 32 61 33 62 41 63 34 64 40 65 42 66 39 67
REMARK SMILES IDX 35 68 36 69 37 70 38 71 64 72 65 73 73 74 66 75 72 76 74 77
REMARK SMILES IDX 71 78 67 79 68 80 69 81 70 82 49 83 50 84 58 85 51 86 57 87
REMARK SMILES IDX 59 88 56 89 52 90 53 91 54 92 55 93
REMARK H PARENT 15 7 8 23 20 27 79 46 47 57
REMARK Flexibility Score: inf
ROOT
ATOM      1  C   UNL A   1      37.882  19.657  24.857  1.00  0.00     0.023 C 
ENDROOT
BRANCH   1   2
ATOM      2  C   UNL A   1      36.486  20.269  25.005  1.00  0.00     0.023 C 
BRANCH   2   3
ATOM      3  C   UNL A   1      36.407  21.707  25.503  1.00  0.00     0.116 C 
BRANCH   3   4
ATOM      4  N   UNL A   1      35.679  22.560  24.600  1.00  0.00    -0.356 N 
ATOM      5  C   UNL A   1      34.570  23.315  24.800  1.00  0.00     0.227 C 
ATOM      6  O   UNL A   1      34.315  24.113  23.900  1.00  0.00    -0.274 OA
ATOM      7  H   UNL A   1      36.046  22.603  23.687  1.00  0.00     0.163 HD
BRANCH   5   8
ATOM      8  C   UNL A   1      33.749  23.199  26.092  1.00  0.00     0.103 C 
ATOM      9  C   UNL A   1      32.064  21.483  25.611  1.00  0.00     0.107 C 
ATOM     10  C   UNL A   1      31.505  22.896  25.509  1.00  0.00    -0.006 C 
ATOM     11  C   UNL A   1      33.290  21.788  26.461  1.00  0.00     0.047 C 
ATOM     12  C   UNL A   1      32.420  23.830  25.815  1.00  0.00    -0.016 C 
BRANCH   9  13
ATOM     13  N   UNL A   1      32.112  20.927  24.267  1.00  0.00    -0.332 N 
ATOM     14  C   UNL A   1      35.432  15.822  25.227  1.00  0.00     0.008 C 
ATOM     15  C   UNL A   1      34.068  16.265  24.699  1.00  0.00    -0.011 C 
ATOM     16  C   UNL A   1      34.259  16.985  23.358  1.00  0.00     0.025 C 
ATOM     17  C   UNL A   1      33.316  17.141  25.725  1.00  0.00     0.025 C 
ATOM     18  C   UNL A   1      32.965  17.628  22.874  1.00  0.00     0.121 C 
ATOM     19  C   UNL A   1      32.116  17.888  25.117  1.00  0.00     0.121 C 
ATOM     20  N   UNL A   1      32.454  18.564  23.880  1.00  0.00    -0.325 N 
ATOM     21  C   UNL A   1      32.285  19.855  23.494  1.00  0.00     0.317 C 
ATOM     22  O   UNL A   1      32.277  20.149  22.287  1.00  0.00    -0.249 OA
ATOM     23  H   UNL A   1      31.938  21.679  23.655  1.00  0.00     0.165 HD
ENDBRANCH   9  13
ENDBRANCH   5   8
ENDBRANCH   3   4
ENDBRANCH   2   3
ENDBRANCH   1   2
BRANCH   1  24
ATOM     24  C   UNL A   1      38.983  20.198  25.760  1.00  0.00     0.116 C 
BRANCH  24  25
ATOM     25  N   UNL A   1      40.047  19.234  25.964  1.00  0.00    -0.352 N 
ATOM     26  C   UNL A   1      41.381  19.451  26.195  1.00  0.00     0.251 C 
ATOM     27  H   UNL A   1      39.773  18.289  25.932  1.00  0.00     0.163 HD
ATOM     28  O   UNL A   1      42.161  18.495  26.137  1.00  0.00    -0.269 OA
BRANCH  26  29
ATOM     29  C   UNL A   1      41.889  20.811  26.477  1.00  0.00     0.039 A 
ATOM     30  C   UNL A   1      42.034  21.707  25.416  1.00  0.00     0.014 A 
ATOM     31  C   UNL A   1      42.239  21.205  27.774  1.00  0.00     0.014 A 
ATOM     32  C   UNL A   1      42.476  23.010  25.660  1.00  0.00     0.010 A 
ATOM     33  C   UNL A   1      42.605  22.528  28.025  1.00  0.00     0.010 A 
ATOM     34  C   UNL A   1      42.735  23.444  26.970  1.00  0.00    -0.014 A 
BRANCH  34  35
ATOM     35  C   UNL A   1      43.146  24.849  27.244  1.00  0.00     0.031 A 
ATOM     36  C   UNL A   1      42.193  25.805  27.912  1.00  0.00     0.074 A 
ATOM     37  C   UNL A   1      44.367  25.274  26.859  1.00  0.00     0.049 A 
ATOM     38  N   UNL A   1      42.357  27.071  28.201  1.00  0.00    -0.248 NA
ATOM     39  C   UNL A   1      40.873  25.273  28.280  1.00  0.00     0.031 C 
ATOM     40  C   UNL A   1      45.369  24.454  26.173  1.00  0.00     0.029 A 
ATOM     41  N   UNL A   1      44.976  26.498  26.985  1.00  0.00    -0.354 N 
ATOM     42  C   UNL A   1      41.160  27.489  28.775  1.00  0.00     0.074 A 
ATOM     43  C   UNL A   1      40.261  26.356  28.734  1.00  0.00     0.031 C 
ATOM     44  C   UNL A   1      46.475  25.186  25.973  1.00  0.00     0.029 A 
ATOM     45  C   UNL A   1      46.250  26.542  26.464  1.00  0.00     0.049 A 
ATOM     46  H   UNL A   1      44.542  27.273  27.409  1.00  0.00     0.167 HD
ATOM     47  C   UNL A   1      40.850  28.698  29.307  1.00  0.00     0.034 A 
ATOM     48  C   UNL A   1      47.131  27.558  26.380  1.00  0.00     0.034 A 
ATOM     49  C   UNL A   1      41.761  29.817  29.346  1.00  0.00     0.049 A 
ATOM     50  C   UNL A   1      46.745  28.905  26.941  1.00  0.00     0.074 A 
ATOM     51  C   UNL A   1      41.567  31.066  29.910  1.00  0.00     0.029 A 
ATOM     52  N   UNL A   1      43.034  29.829  28.788  1.00  0.00    -0.354 N 
ATOM     53  N   UNL A   1      45.629  29.265  27.532  1.00  0.00    -0.248 NA
ATOM     54  C   UNL A   1      47.743  29.977  26.832  1.00  0.00     0.031 C 
ATOM     55  C   UNL A   1      42.684  31.857  29.623  1.00  0.00     0.029 A 
ATOM     56  C   UNL A   1      43.618  31.076  28.960  1.00  0.00     0.049 A 
ATOM     57  H   UNL A   1      43.459  29.065  28.337  1.00  0.00     0.167 HD
ATOM     58  C   UNL A   1      45.807  30.599  27.895  1.00  0.00     0.074 A 
ATOM     59  C   UNL A   1      47.142  30.968  27.472  1.00  0.00     0.031 C 
ATOM     60  C   UNL A   1      44.945  31.440  28.523  1.00  0.00     0.034 A 
BRANCH  47  61
ATOM     61  C   UNL A   1      39.455  28.879  29.861  1.00  0.00     0.023 A 
ATOM     62  C   UNL A   1      38.420  29.443  29.093  1.00  0.00     0.031 A 
ATOM     63  C   UNL A   1      39.156  28.497  31.181  1.00  0.00     0.131 A 
ATOM     64  C   UNL A   1      37.163  29.677  29.672  1.00  0.00     0.055 A 
ATOM     65  C   UNL A   1      37.880  28.653  31.725  1.00  0.00     0.041 A 
ATOM     66  F   UNL A   1      40.107  27.973  31.972  1.00  0.00    -0.206 F 
ATOM     67  C   UNL A   1      36.878  29.261  30.975  1.00  0.00     0.022 A 
BRANCH  64  68
ATOM     68  S   UNL A   1      35.955  30.666  28.750  1.00  0.00     0.124 S 
ATOM     69  O   UNL A   1      35.277  31.383  29.827  1.00  0.00    -0.237 OA
ATOM     70  O   UNL A   1      36.804  31.472  27.881  1.00  0.00    -0.237 OA
ATOM     71  O   UNL A   1      35.138  29.663  28.070  1.00  0.00    -0.744 OA
ENDBRANCH  64  68
ENDBRANCH  47  61
BRANCH  48  72
ATOM     72  C   UNL A   1      48.461  27.359  25.733  1.00  0.00     0.023 A 
ATOM     73  C   UNL A   1      48.627  27.532  24.349  1.00  0.00     0.031 A 
ATOM     74  C   UNL A   1      49.576  26.935  26.479  1.00  0.00     0.131 A 
ATOM     75  C   UNL A   1      49.859  27.234  23.747  1.00  0.00     0.055 A 
ATOM     76  C   UNL A   1      50.818  26.701  25.885  1.00  0.00     0.041 A 
ATOM     77  F   UNL A   1      49.477  26.753  27.805  1.00  0.00    -0.206 F 
ATOM     78  C   UNL A   1      50.959  26.834  24.507  1.00  0.00     0.022 A 
BRANCH  75  79
ATOM     79  S   UNL A   1      49.975  27.278  21.937  1.00  0.00     0.124 S 
ATOM     80  O   UNL A   1      48.887  26.387  21.550  1.00  0.00    -0.237 OA
ATOM     81  O   UNL A   1      49.776  28.695  21.655  1.00  0.00    -0.237 OA
ATOM     82  O   UNL A   1      51.320  26.775  21.671  1.00  0.00    -0.744 OA
ENDBRANCH  75  79
ENDBRANCH  48  72
BRANCH  60  83
ATOM     83  C   UNL A   1      45.446  32.832  28.832  1.00  0.00     0.023 A 
ATOM     84  C   UNL A   1      45.293  33.895  27.924  1.00  0.00     0.031 A 
ATOM     85  C   UNL A   1      46.100  33.094  30.050  1.00  0.00     0.131 A 
ATOM     86  C   UNL A   1      45.844  35.151  28.219  1.00  0.00     0.055 A 
ATOM     87  C   UNL A   1      46.583  34.364  30.368  1.00  0.00     0.041 A 
ATOM     88  F   UNL A   1      46.280  32.118  30.954  1.00  0.00    -0.206 F 
ATOM     89  C   UNL A   1      46.470  35.398  29.444  1.00  0.00     0.022 A 
BRANCH  86  90
ATOM     90  S   UNL A   1      45.829  36.432  26.934  1.00  0.00     0.124 S 
ATOM     91  O   UNL A   1      46.260  35.685  25.757  1.00  0.00    -0.237 OA
ATOM     92  O   UNL A   1      44.435  36.864  26.941  1.00  0.00    -0.237 OA
ATOM     93  O   UNL A   1      46.787  37.422  27.425  1.00  0.00    -0.744 OA
ENDBRANCH  86  90
ENDBRANCH  60  83
ENDBRANCH  34  35
ENDBRANCH  26  29
ENDBRANCH  24  25
ENDBRANCH   1  24
TORSDOF 15
ENDMDL
MODEL 3
REMARK VINA RESULT:     -11.9      1.928      3.309
REMARK SMILES CC1CCN(C(=O)N[C@@H]2C=C[C@H](C(=O)NCCCCNC(=O)c3ccc(-c4c5nc(c(-c6cc(S(=O)(=O)[O-])ccc6F)c6ccc([nH]6)c(-c6cc(S(=O)(=O)[O-])ccc6F)c6nc(c(-c7cc(S(=O)(=O)[O-])ccc7F)c7ccc4[nH]7)C=C6)C=C5)cc3)C2)CC1
REMARK SMILES IDX 18 1 17 2 16 3 15 4 13 5 14 6 12 8 9 9 10 10 86 11 11 12
REMARK SMILES IDX 8 13 1 14 2 15 3 16 88 17 4 18 87 19 5 20 6 21 7 22 19 24
REMARK SMILES IDX 20 25 21 26 22 28 23 29 24 30 85 31 25 32 84 33 26 34 27 35
REMARK SMILES IDX 28 36 78 37 29 38 83 39 77 40 79 41 30 42 82 43 76 44 75 45
REMARK SMILES IDX 31 47 63 48 43 49 62 50 44 51 47 52 61 53 80 54 45 55 46 56
REMARK SMILES IDX 60 58 81 59 48 60 32 61 33 62 41 63 34 64 40 65 42 66 39 67
REMARK SMILES IDX 35 68 36 69 37 70 38 71 64 72 65 73 73 74 66 75 72 76 74 77
REMARK SMILES IDX 71 78 67 79 68 80 69 81 70 82 49 83 50 84 58 85 51 86 57 87
REMARK SMILES IDX 59 88 56 89 52 90 53 91 54 92 55 93
REMARK H PARENT 15 7 8 23 20 27 79 46 47 57
REMARK Flexibility Score: inf
ROOT
ATOM      1  C   UNL A   1      31.565  32.263  26.864  1.00  0.00     0.023 C 
ENDROOT
BRANCH   1   2
ATOM      2  C   UNL A   1      31.666  30.837  26.315  1.00  0.00     0.023 C 
BRANCH   2   3
ATOM      3  C   UNL A   1      33.036  30.169  26.360  1.00  0.00     0.116 C 
BRANCH   3   4
ATOM      4  N   UNL A   1      33.375  29.529  25.116  1.00  0.00    -0.356 N 
ATOM      5  C   UNL A   1      32.584  28.958  24.173  1.00  0.00     0.227 C 
ATOM      6  O   UNL A   1      33.147  28.696  23.112  1.00  0.00    -0.274 OA
ATOM      7  H   UNL A   1      34.339  29.501  24.916  1.00  0.00     0.163 HD
BRANCH   5   8
ATOM      8  C   UNL A   1      31.088  28.725  24.423  1.00  0.00     0.103 C 
ATOM      9  C   UNL A   1      30.502  26.831  22.978  1.00  0.00     0.107 C 
ATOM     10  C   UNL A   1      30.085  28.171  22.384  1.00  0.00    -0.006 C 
ATOM     11  C   UNL A   1      30.638  27.263  24.431  1.00  0.00     0.047 C 
ATOM     12  C   UNL A   1      30.369  29.200  23.199  1.00  0.00    -0.016 C 
BRANCH   9  13
ATOM     13  N   UNL A   1      31.592  26.309  22.168  1.00  0.00    -0.332 N 
ATOM     14  C   UNL A   1      33.990  22.116  25.999  1.00  0.00     0.008 C 
ATOM     15  C   UNL A   1      33.375  22.230  24.604  1.00  0.00    -0.011 C 
ATOM     16  C   UNL A   1      34.348  22.981  23.687  1.00  0.00     0.025 C 
ATOM     17  C   UNL A   1      31.985  22.902  24.647  1.00  0.00     0.025 C 
ATOM     18  C   UNL A   1      33.716  23.307  22.340  1.00  0.00     0.121 C 
ATOM     19  C   UNL A   1      31.487  23.350  23.263  1.00  0.00     0.121 C 
ATOM     20  N   UNL A   1      32.493  24.092  22.527  1.00  0.00    -0.325 N 
ATOM     21  C   UNL A   1      32.442  25.310  21.928  1.00  0.00     0.317 C 
ATOM     22  O   UNL A   1      33.256  25.600  21.035  1.00  0.00    -0.249 OA
ATOM     23  H   UNL A   1      31.790  27.002  21.497  1.00  0.00     0.165 HD
ENDBRANCH   9  13
ENDBRANCH   5   8
ENDBRANCH   3   4
ENDBRANCH   2   3
ENDBRANCH   1   2
BRANCH   1  24
ATOM     24  C   UNL A   1      32.844  32.905  27.383  1.00  0.00     0.116 C 
BRANCH  24  25
ATOM     25  N   UNL A   1      32.632  34.271  27.824  1.00  0.00    -0.352 N 
ATOM     26  C   UNL A   1      33.218  34.948  28.861  1.00  0.00     0.251 C 
ATOM     27  H   UNL A   1      31.974  34.785  27.303  1.00  0.00     0.163 HD
ATOM     28  O   UNL A   1      32.752  36.040  29.201  1.00  0.00    -0.269 OA
BRANCH  26  29
ATOM     29  C   UNL A   1      34.370  34.371  29.588  1.00  0.00     0.039 A 
ATOM     30  C   UNL A   1      34.130  33.631  30.748  1.00  0.00     0.014 A 
ATOM     31  C   UNL A   1      35.684  34.566  29.146  1.00  0.00     0.014 A 
ATOM     32  C   UNL A   1      35.197  33.043  31.432  1.00  0.00     0.010 A 
ATOM     33  C   UNL A   1      36.738  33.914  29.787  1.00  0.00     0.010 A 
ATOM     34  C   UNL A   1      36.508  33.151  30.941  1.00  0.00    -0.014 A 
BRANCH  34  35
ATOM     35  C   UNL A   1      37.641  32.475  31.632  1.00  0.00     0.031 A 
ATOM     36  C   UNL A   1      38.371  31.339  30.964  1.00  0.00     0.074 A 
ATOM     37  C   UNL A   1      37.991  32.860  32.876  1.00  0.00     0.049 A 
ATOM     38  N   UNL A   1      39.356  30.607  31.418  1.00  0.00    -0.248 NA
ATOM     39  C   UNL A   1      37.915  30.961  29.618  1.00  0.00     0.031 C 
ATOM     40  C   UNL A   1      37.340  33.926  33.643  1.00  0.00     0.029 A 
ATOM     41  N   UNL A   1      38.976  32.405  33.717  1.00  0.00    -0.354 N 
ATOM     42  C   UNL A   1      39.632  29.677  30.420  1.00  0.00     0.074 A 
ATOM     43  C   UNL A   1      38.667  29.900  29.365  1.00  0.00     0.031 C 
ATOM     44  C   UNL A   1      37.966  34.063  34.822  1.00  0.00     0.029 A 
ATOM     45  C   UNL A   1      39.026  33.066  34.924  1.00  0.00     0.049 A 
ATOM     46  H   UNL A   1      39.591  31.673  33.479  1.00  0.00     0.167 HD
ATOM     47  C   UNL A   1      40.612  28.740  30.378  1.00  0.00     0.034 A 
ATOM     48  C   UNL A   1      39.826  32.883  35.994  1.00  0.00     0.034 A 
ATOM     49  C   UNL A   1      41.572  28.534  31.437  1.00  0.00     0.049 A 
ATOM     50  C   UNL A   1      40.881  31.806  35.939  1.00  0.00     0.074 A 
ATOM     51  C   UNL A   1      42.638  27.652  31.472  1.00  0.00     0.029 A 
ATOM     52  N   UNL A   1      41.576  29.207  32.653  1.00  0.00    -0.354 N 
ATOM     53  N   UNL A   1      41.164  30.974  34.963  1.00  0.00    -0.248 NA
ATOM     54  C   UNL A   1      41.731  31.652  37.127  1.00  0.00     0.031 C 
ATOM     55  C   UNL A   1      43.234  27.733  32.735  1.00  0.00     0.029 A 
ATOM     56  C   UNL A   1      42.601  28.731  33.458  1.00  0.00     0.049 A 
ATOM     57  H   UNL A   1      40.945  29.919  32.905  1.00  0.00     0.167 HD
ATOM     58  C   UNL A   1      42.248  30.221  35.409  1.00  0.00     0.074 A 
ATOM     59  C   UNL A   1      42.575  30.712  36.732  1.00  0.00     0.031 C 
ATOM     60  C   UNL A   1      42.912  29.217  34.782  1.00  0.00     0.034 A 
BRANCH  47  61
ATOM     61  C   UNL A   1      40.674  27.847  29.160  1.00  0.00     0.023 A 
ATOM     62  C   UNL A   1      41.616  28.054  28.135  1.00  0.00     0.031 A 
ATOM     63  C   UNL A   1      39.769  26.780  29.011  1.00  0.00     0.131 A 
ATOM     64  C   UNL A   1      41.582  27.259  26.979  1.00  0.00     0.055 A 
ATOM     65  C   UNL A   1      39.796  25.938  27.898  1.00  0.00     0.041 A 
ATOM     66  F   UNL A   1      38.832  26.544  29.944  1.00  0.00    -0.206 F 
ATOM     67  C   UNL A   1      40.696  26.185  26.866  1.00  0.00     0.022 A 
BRANCH  64  68
ATOM     68  S   UNL A   1      42.612  27.741  25.566  1.00  0.00     0.124 S 
ATOM     69  O   UNL A   1      42.528  26.552  24.722  1.00  0.00    -0.237 OA
ATOM     70  O   UNL A   1      41.927  28.928  25.068  1.00  0.00    -0.237 OA
ATOM     71  O   UNL A   1      43.924  27.981  26.163  1.00  0.00    -0.744 OA
ENDBRANCH  64  68
ENDBRANCH  47  61
BRANCH  48  72
ATOM     72  C   UNL A   1      39.662  33.724  37.216  1.00  0.00     0.023 A 
ATOM     73  C   UNL A   1      40.478  34.845  37.440  1.00  0.00     0.031 A 
ATOM     74  C   UNL A   1      38.724  33.387  38.209  1.00  0.00     0.131 A 
ATOM     75  C   UNL A   1      40.379  35.556  38.646  1.00  0.00     0.055 A 
ATOM     76  C   UNL A   1      38.586  34.135  39.380  1.00  0.00     0.041 A 
ATOM     77  F   UNL A   1      37.918  32.326  38.049  1.00  0.00    -0.206 F 
ATOM     78  C   UNL A   1      39.429  35.217  39.610  1.00  0.00     0.022 A 
BRANCH  75  79
ATOM     79  S   UNL A   1      41.584  36.870  38.981  1.00  0.00     0.124 S 
ATOM     80  O   UNL A   1      42.326  36.311  40.105  1.00  0.00    -0.237 OA
ATOM     81  O   UNL A   1      42.302  36.953  37.714  1.00  0.00    -0.237 OA
ATOM     82  O   UNL A   1      40.746  38.025  39.297  1.00  0.00    -0.744 OA
ENDBRANCH  75  79
ENDBRANCH  48  72
BRANCH  60  83
ATOM     83  C   UNL A   1      44.095  28.617  35.506  1.00  0.00     0.023 A 
ATOM     84  C   UNL A   1      43.946  27.562  36.424  1.00  0.00     0.031 A 
ATOM     85  C   UNL A   1      45.389  29.121  35.285  1.00  0.00     0.131 A 
ATOM     86  C   UNL A   1      45.061  27.090  37.133  1.00  0.00     0.055 A 
ATOM     87  C   UNL A   1      46.505  28.598  35.942  1.00  0.00     0.041 A 
ATOM     88  F   UNL A   1      45.593  30.131  34.425  1.00  0.00    -0.206 F 
ATOM     89  C   UNL A   1      46.342  27.587  36.883  1.00  0.00     0.022 A 
BRANCH  86  90
ATOM     90  S   UNL A   1      44.799  25.890  38.469  1.00  0.00     0.124 S 
ATOM     91  O   UNL A   1      44.124  24.801  37.770  1.00  0.00    -0.237 OA
ATOM     92  O   UNL A   1      46.161  25.615  38.913  1.00  0.00    -0.237 OA
ATOM     93  O   UNL A   1      43.969  26.619  39.427  1.00  0.00    -0.744 OA
ENDBRANCH  86  90
ENDBRANCH  60  83
ENDBRANCH  34  35
ENDBRANCH  26  29
ENDBRANCH  24  25
ENDBRANCH   1  24
TORSDOF 15
ENDMDL
