MODEL 1
REMARK VINA RESULT:     -11.8      0.000      0.000
REMARK SMILES CC[C@](C)(NC(=O)N[C@@H]1C=CS(=O)(=O)C1)C(=O)NCCCCNC(=O)c1ccc(-c2c3nc(c(-c4cc(S(=O)(=O)[O-])ccc4F)c4ccc([nH]4)c(-c4cc(S(=O)(=O)[O-])ccc4F)c4nc(c(-c5cc(S(=O)(=O)[O-])ccc5F)c5ccc2[nH]5)C=C4)C=C3)cc1
REMARK SMILES IDX 21 1 20 2 19 3 18 4 16 5 17 6 3 8 4 9 2 10 1 11 5 12 6 13
REMARK SMILES IDX 7 15 8 16 9 18 10 19 15 20 11 21 12 22 13 23 14 24 22 25
REMARK SMILES IDX 23 26 24 27 25 29 26 30 27 31 88 32 28 33 87 34 29 35 30 36
REMARK SMILES IDX 31 37 81 38 32 39 86 40 80 41 82 42 33 43 85 44 79 45 78 46
REMARK SMILES IDX 34 48 66 49 46 50 65 51 47 52 50 53 64 54 83 55 48 56 49 57
REMARK SMILES IDX 63 59 84 60 51 61 35 62 36 63 44 64 37 65 43 66 45 67 42 68
REMARK SMILES IDX 38 69 39 70 40 71 41 72 67 73 68 74 76 75 69 76 75 77 77 78
REMARK SMILES IDX 74 79 70 80 71 81 72 82 73 83 52 84 53 85 61 86 54 87 60 88
REMARK SMILES IDX 62 89 59 90 55 91 56 92 57 93 58 94
REMARK H PARENT 18 7 5 14 8 17 23 28 82 47 50 58
REMARK Flexibility Score: inf
ROOT
ATOM      1  C   UNL A   1      31.405  31.903  26.772  1.00  0.00     0.023 C 
ENDROOT
BRANCH   1   2
ATOM      2  C   UNL A   1      31.560  30.667  25.899  1.00  0.00     0.023 C 
BRANCH   2   3
ATOM      3  C   UNL A   1      32.711  29.692  26.165  1.00  0.00     0.116 C 
BRANCH   3   4
ATOM      4  N   UNL A   1      33.733  29.454  25.145  1.00  0.00    -0.354 N 
ATOM      5  C   UNL A   1      33.815  28.460  24.184  1.00  0.00     0.245 C 
ATOM      6  O   UNL A   1      34.334  28.704  23.092  1.00  0.00    -0.272 OA
ATOM      7  H   UNL A   1      34.476  30.099  25.142  1.00  0.00     0.163 HD
BRANCH   5   8
ATOM      8  C   UNL A   1      33.088  27.148  24.402  1.00  0.00     0.117 C 
ATOM      9  C   UNL A   1      31.745  27.154  25.158  1.00  0.00     0.045 C 
BRANCH   8  10
ATOM     10  C   UNL A   1      34.069  26.240  25.257  1.00  0.00     0.035 C 
ATOM     11  C   UNL A   1      33.706  24.751  25.463  1.00  0.00     0.007 C 
ENDBRANCH   8  10
BRANCH   8  12
ATOM     12  N   UNL A   1      32.772  26.692  23.045  1.00  0.00    -0.324 N 
ATOM     13  C   UNL A   1      31.723  26.909  22.248  1.00  0.00     0.316 C 
ATOM     14  H   UNL A   1      33.464  26.116  22.647  1.00  0.00     0.166 HD
ATOM     15  O   UNL A   1      31.578  26.068  21.348  1.00  0.00    -0.249 OA
ATOM     16  N   UNL A   1      30.817  27.878  22.226  1.00  0.00    -0.331 N 
ATOM     17  H   UNL A   1      30.185  27.535  21.555  1.00  0.00     0.166 HD
BRANCH  16  18
ATOM     18  C   UNL A   1      30.170  29.177  22.602  1.00  0.00     0.123 C 
ATOM     19  C   UNL A   1      28.824  28.884  23.226  1.00  0.00     0.011 C 
ATOM     20  C   UNL A   1      29.995  30.487  21.833  1.00  0.00     0.170 C 
ATOM     21  C   UNL A   1      27.770  29.597  22.804  1.00  0.00     0.104 C 
ATOM     22  S   UNL A   1      28.217  30.715  21.562  1.00  0.00     0.173 S 
ATOM     23  O   UNL A   1      27.836  32.053  21.967  1.00  0.00    -0.224 OA
ATOM     24  O   UNL A   1      27.769  30.170  20.299  1.00  0.00    -0.224 OA
ENDBRANCH  16  18
ENDBRANCH   8  12
ENDBRANCH   5   8
ENDBRANCH   3   4
ENDBRANCH   2   3
ENDBRANCH   1   2
BRANCH   1  25
ATOM     25  C   UNL A   1      32.682  32.587  27.228  1.00  0.00     0.116 C 
BRANCH  25  26
ATOM     26  N   UNL A   1      32.474  33.961  27.631  1.00  0.00    -0.352 N 
ATOM     27  C   UNL A   1      33.148  34.721  28.556  1.00  0.00     0.251 C 
ATOM     28  H   UNL A   1      31.734  34.424  27.173  1.00  0.00     0.163 HD
ATOM     29  O   UNL A   1      32.736  35.851  28.810  1.00  0.00    -0.269 OA
BRANCH  27  30
ATOM     30  C   UNL A   1      34.325  34.182  29.284  1.00  0.00     0.039 A 
ATOM     31  C   UNL A   1      34.093  33.427  30.437  1.00  0.00     0.014 A 
ATOM     32  C   UNL A   1      35.640  34.431  28.875  1.00  0.00     0.014 A 
ATOM     33  C   UNL A   1      35.166  32.876  31.143  1.00  0.00     0.010 A 
ATOM     34  C   UNL A   1      36.708  33.825  29.546  1.00  0.00     0.010 A 
ATOM     35  C   UNL A   1      36.484  33.038  30.687  1.00  0.00    -0.014 A 
BRANCH  35  36
ATOM     36  C   UNL A   1      37.618  32.381  31.398  1.00  0.00     0.031 A 
ATOM     37  C   UNL A   1      38.362  31.234  30.763  1.00  0.00     0.074 A 
ATOM     38  C   UNL A   1      37.971  32.805  32.629  1.00  0.00     0.049 A 
ATOM     39  N   UNL A   1      39.358  30.529  31.240  1.00  0.00    -0.248 NA
ATOM     40  C   UNL A   1      37.915  30.815  29.428  1.00  0.00     0.031 C 
ATOM     41  C   UNL A   1      37.322  33.895  33.362  1.00  0.00     0.029 A 
ATOM     42  N   UNL A   1      38.958  32.377  33.483  1.00  0.00    -0.354 N 
ATOM     43  C   UNL A   1      39.653  29.578  30.268  1.00  0.00     0.074 A 
ATOM     44  C   UNL A   1      38.693  29.766  29.200  1.00  0.00     0.031 C 
ATOM     45  C   UNL A   1      37.947  34.068  34.537  1.00  0.00     0.029 A 
ATOM     46  C   UNL A   1      39.006  33.073  34.671  1.00  0.00     0.049 A 
ATOM     47  H   UNL A   1      39.574  31.641  33.267  1.00  0.00     0.167 HD
ATOM     48  C   UNL A   1      40.641  28.648  30.259  1.00  0.00     0.034 A 
ATOM     49  C   UNL A   1      39.800  32.922  35.751  1.00  0.00     0.034 A 
ATOM     50  C   UNL A   1      41.596  28.473  31.329  1.00  0.00     0.049 A 
ATOM     51  C   UNL A   1      40.858  31.845  35.737  1.00  0.00     0.074 A 
ATOM     52  C   UNL A   1      42.666  27.596  31.393  1.00  0.00     0.029 A 
ATOM     53  N   UNL A   1      41.590  29.174  32.529  1.00  0.00    -0.354 N 
ATOM     54  N   UNL A   1      41.153  30.988  34.788  1.00  0.00    -0.248 NA
ATOM     55  C   UNL A   1      41.695  31.722  36.938  1.00  0.00     0.031 C 
ATOM     56  C   UNL A   1      43.252  27.707  32.657  1.00  0.00     0.029 A 
ATOM     57  C   UNL A   1      42.611  28.718  33.353  1.00  0.00     0.049 A 
ATOM     58  H   UNL A   1      40.956  29.889  32.761  1.00  0.00     0.167 HD
ATOM     59  C   UNL A   1      42.235  30.250  35.265  1.00  0.00     0.074 A 
ATOM     60  C   UNL A   1      42.547  30.774  36.578  1.00  0.00     0.031 C 
ATOM     61  C   UNL A   1      42.912  29.236  34.667  1.00  0.00     0.034 A 
BRANCH  48  62
ATOM     62  C   UNL A   1      40.719  27.721  29.068  1.00  0.00     0.023 A 
ATOM     63  C   UNL A   1      41.663  27.907  28.043  1.00  0.00     0.031 A 
ATOM     64  C   UNL A   1      39.831  26.636  28.951  1.00  0.00     0.131 A 
ATOM     65  C   UNL A   1      41.651  27.068  26.917  1.00  0.00     0.055 A 
ATOM     66  C   UNL A   1      39.878  25.755  27.869  1.00  0.00     0.041 A 
ATOM     67  F   UNL A   1      38.894  26.416  29.889  1.00  0.00    -0.206 F 
ATOM     68  C   UNL A   1      40.783  25.978  26.836  1.00  0.00     0.022 A 
BRANCH  65  69
ATOM     69  S   UNL A   1      42.690  27.509  25.497  1.00  0.00     0.124 S 
ATOM     70  O   UNL A   1      43.944  27.875  26.151  1.00  0.00    -0.237 OA
ATOM     71  O   UNL A   1      42.708  26.273  24.724  1.00  0.00    -0.237 OA
ATOM     72  O   UNL A   1      41.971  28.622  24.879  1.00  0.00    -0.744 OA
ENDBRANCH  65  69
ENDBRANCH  48  62
BRANCH  49  73
ATOM     73  C   UNL A   1      39.626  33.793  36.950  1.00  0.00     0.023 A 
ATOM     74  C   UNL A   1      38.995  33.314  38.110  1.00  0.00     0.031 A 
ATOM     75  C   UNL A   1      40.034  35.140  36.934  1.00  0.00     0.131 A 
ATOM     76  C   UNL A   1      38.741  34.185  39.180  1.00  0.00     0.055 A 
ATOM     77  C   UNL A   1      39.836  35.986  38.026  1.00  0.00     0.041 A 
ATOM     78  F   UNL A   1      40.642  35.653  35.851  1.00  0.00    -0.206 F 
ATOM     79  C   UNL A   1      39.171  35.514  39.153  1.00  0.00     0.022 A 
BRANCH  76  80
ATOM     80  S   UNL A   1      37.744  33.585  40.572  1.00  0.00     0.124 S 
ATOM     81  O   UNL A   1      36.672  32.876  39.883  1.00  0.00    -0.237 OA
ATOM     82  O   UNL A   1      38.703  32.756  41.295  1.00  0.00    -0.237 OA
ATOM     83  O   UNL A   1      37.344  34.811  41.258  1.00  0.00    -0.744 OA
ENDBRANCH  76  80
ENDBRANCH  49  73
BRANCH  61  84
ATOM     84  C   UNL A   1      44.094  28.660  35.413  1.00  0.00     0.023 A 
ATOM     85  C   UNL A   1      43.951  27.620  36.347  1.00  0.00     0.031 A 
ATOM     86  C   UNL A   1      45.386  29.174  35.193  1.00  0.00     0.131 A 
ATOM     87  C   UNL A   1      45.067  27.166  37.068  1.00  0.00     0.055 A 
ATOM     88  C   UNL A   1      46.502  28.672  35.863  1.00  0.00     0.041 A 
ATOM     89  F   UNL A   1      45.584  30.173  34.317  1.00  0.00    -0.206 F 
ATOM     90  C   UNL A   1      46.344  27.672  36.816  1.00  0.00     0.022 A 
BRANCH  87  91
ATOM     91  S   UNL A   1      44.812  25.974  38.412  1.00  0.00     0.124 S 
ATOM     92  O   UNL A   1      44.260  24.827  37.698  1.00  0.00    -0.237 OA
ATOM     93  O   UNL A   1      46.161  25.806  38.941  1.00  0.00    -0.237 OA
ATOM     94  O   UNL A   1      43.876  26.657  39.304  1.00  0.00    -0.744 OA
ENDBRANCH  87  91
ENDBRANCH  61  84
ENDBRANCH  35  36
ENDBRANCH  27  30
ENDBRANCH  25  26
ENDBRANCH   1  25
TORSDOF 17
ENDMDL
MODEL 2
REMARK VINA RESULT:     -11.7      2.246      3.356
REMARK SMILES CC[C@](C)(NC(=O)N[C@@H]1C=CS(=O)(=O)C1)C(=O)NCCCCNC(=O)c1ccc(-c2c3nc(c(-c4cc(S(=O)(=O)[O-])ccc4F)c4ccc([nH]4)c(-c4cc(S(=O)(=O)[O-])ccc4F)c4nc(c(-c5cc(S(=O)(=O)[O-])ccc5F)c5ccc2[nH]5)C=C4)C=C3)cc1
REMARK SMILES IDX 21 1 20 2 19 3 18 4 16 5 17 6 3 8 4 9 2 10 1 11 5 12 6 13
REMARK SMILES IDX 7 15 8 16 9 18 10 19 15 20 11 21 12 22 13 23 14 24 22 25
REMARK SMILES IDX 23 26 24 27 25 29 26 30 27 31 88 32 28 33 87 34 29 35 30 36
REMARK SMILES IDX 31 37 81 38 32 39 86 40 80 41 82 42 33 43 85 44 79 45 78 46
REMARK SMILES IDX 34 48 66 49 46 50 65 51 47 52 50 53 64 54 83 55 48 56 49 57
REMARK SMILES IDX 63 59 84 60 51 61 35 62 36 63 44 64 37 65 43 66 45 67 42 68
REMARK SMILES IDX 38 69 39 70 40 71 41 72 67 73 68 74 76 75 69 76 75 77 77 78
REMARK SMILES IDX 74 79 70 80 71 81 72 82 73 83 52 84 53 85 61 86 54 87 60 88
REMARK SMILES IDX 62 89 59 90 55 91 56 92 57 93 58 94
REMARK H PARENT 18 7 5 14 8 17 23 28 82 47 50 58
REMARK Flexibility Score: inf
ROOT
ATOM      1  C   UNL A   1      31.570  31.580  26.681  1.00  0.00     0.023 C 
ENDROOT
BRANCH   1   2
ATOM      2  C   UNL A   1      31.746  30.384  25.757  1.00  0.00     0.023 C 
BRANCH   2   3
ATOM      3  C   UNL A   1      33.058  29.594  25.783  1.00  0.00     0.116 C 
BRANCH   3   4
ATOM      4  N   UNL A   1      33.840  29.412  24.560  1.00  0.00    -0.354 N 
ATOM      5  C   UNL A   1      33.692  28.487  23.540  1.00  0.00     0.245 C 
ATOM      6  O   UNL A   1      33.981  28.799  22.383  1.00  0.00    -0.272 OA
ATOM      7  H   UNL A   1      34.585  30.044  24.444  1.00  0.00     0.163 HD
BRANCH   5   8
ATOM      8  C   UNL A   1      32.987  27.174  23.818  1.00  0.00     0.117 C 
ATOM      9  C   UNL A   1      31.561  27.201  24.400  1.00  0.00     0.045 C 
BRANCH   8  10
ATOM     10  C   UNL A   1      33.882  26.413  24.885  1.00  0.00     0.035 C 
ATOM     11  C   UNL A   1      33.224  25.952  26.206  1.00  0.00     0.007 C 
ENDBRANCH   8  10
BRANCH   8  12
ATOM     12  N   UNL A   1      32.859  26.557  22.495  1.00  0.00    -0.324 N 
ATOM     13  C   UNL A   1      33.060  25.309  22.064  1.00  0.00     0.316 C 
ATOM     14  H   UNL A   1      32.572  27.181  21.790  1.00  0.00     0.166 HD
ATOM     15  O   UNL A   1      33.258  25.211  20.843  1.00  0.00    -0.249 OA
ATOM     16  N   UNL A   1      33.062  24.145  22.702  1.00  0.00    -0.331 N 
ATOM     17  H   UNL A   1      33.382  23.539  21.996  1.00  0.00     0.166 HD
BRANCH  16  18
ATOM     18  C   UNL A   1      32.872  23.191  23.843  1.00  0.00     0.123 C 
ATOM     19  C   UNL A   1      34.151  22.406  24.034  1.00  0.00     0.011 C 
ATOM     20  C   UNL A   1      31.737  22.227  24.185  1.00  0.00     0.170 C 
ATOM     21  C   UNL A   1      34.053  21.076  24.177  1.00  0.00     0.104 C 
ATOM     22  S   UNL A   1      32.410  20.547  24.071  1.00  0.00     0.173 S 
ATOM     23  O   UNL A   1      32.070  19.810  25.272  1.00  0.00    -0.224 OA
ATOM     24  O   UNL A   1      32.222  19.955  22.764  1.00  0.00    -0.224 OA
ENDBRANCH  16  18
ENDBRANCH   8  12
ENDBRANCH   5   8
ENDBRANCH   3   4
ENDBRANCH   2   3
ENDBRANCH   1   2
BRANCH   1  25
ATOM     25  C   UNL A   1      32.827  32.340  27.067  1.00  0.00     0.116 C 
BRANCH  25  26
ATOM     26  N   UNL A   1      32.556  33.695  27.500  1.00  0.00    -0.352 N 
ATOM     27  C   UNL A   1      33.174  34.452  28.466  1.00  0.00     0.251 C 
ATOM     28  H   UNL A   1      31.816  34.144  27.030  1.00  0.00     0.163 HD
ATOM     29  O   UNL A   1      32.713  35.559  28.735  1.00  0.00    -0.269 OA
BRANCH  27  30
ATOM     30  C   UNL A   1      34.346  33.935  29.216  1.00  0.00     0.039 A 
ATOM     31  C   UNL A   1      34.110  33.046  30.268  1.00  0.00     0.014 A 
ATOM     32  C   UNL A   1      35.657  34.330  28.927  1.00  0.00     0.014 A 
ATOM     33  C   UNL A   1      35.182  32.511  30.989  1.00  0.00     0.010 A 
ATOM     34  C   UNL A   1      36.731  33.745  29.608  1.00  0.00     0.010 A 
ATOM     35  C   UNL A   1      36.506  32.826  30.645  1.00  0.00    -0.014 A 
BRANCH  35  36
ATOM     36  C   UNL A   1      37.648  32.190  31.364  1.00  0.00     0.031 A 
ATOM     37  C   UNL A   1      38.444  31.086  30.718  1.00  0.00     0.074 A 
ATOM     38  C   UNL A   1      37.960  32.594  32.612  1.00  0.00     0.049 A 
ATOM     39  N   UNL A   1      39.453  30.403  31.199  1.00  0.00    -0.248 NA
ATOM     40  C   UNL A   1      38.040  30.685  29.363  1.00  0.00     0.031 C 
ATOM     41  C   UNL A   1      37.258  33.643  33.358  1.00  0.00     0.029 A 
ATOM     42  N   UNL A   1      38.943  32.179  33.477  1.00  0.00    -0.354 N 
ATOM     43  C   UNL A   1      39.802  29.487  30.211  1.00  0.00     0.074 A 
ATOM     44  C   UNL A   1      38.858  29.670  29.126  1.00  0.00     0.031 C 
ATOM     45  C   UNL A   1      37.852  33.808  34.550  1.00  0.00     0.029 A 
ATOM     46  C   UNL A   1      38.942  32.846  34.682  1.00  0.00     0.049 A 
ATOM     47  H   UNL A   1      39.589  31.470  33.257  1.00  0.00     0.167 HD
ATOM     48  C   UNL A   1      40.821  28.593  30.200  1.00  0.00     0.034 A 
ATOM     49  C   UNL A   1      39.719  32.695  35.775  1.00  0.00     0.034 A 
ATOM     50  C   UNL A   1      41.759  28.423  31.286  1.00  0.00     0.049 A 
ATOM     51  C   UNL A   1      40.813  31.656  35.758  1.00  0.00     0.074 A 
ATOM     52  C   UNL A   1      42.858  27.582  31.352  1.00  0.00     0.029 A 
ATOM     53  N   UNL A   1      41.704  29.093  32.502  1.00  0.00    -0.354 N 
ATOM     54  N   UNL A   1      41.157  30.833  34.795  1.00  0.00    -0.248 NA
ATOM     55  C   UNL A   1      41.629  31.532  36.973  1.00  0.00     0.031 C 
ATOM     56  C   UNL A   1      43.413  27.680  32.631  1.00  0.00     0.029 A 
ATOM     57  C   UNL A   1      42.722  28.652  33.337  1.00  0.00     0.049 A 
ATOM     58  H   UNL A   1      41.040  29.780  32.738  1.00  0.00     0.167 HD
ATOM     59  C   UNL A   1      42.254  30.121  35.277  1.00  0.00     0.074 A 
ATOM     60  C   UNL A   1      42.520  30.622  36.608  1.00  0.00     0.031 C 
ATOM     61  C   UNL A   1      42.978  29.147  34.670  1.00  0.00     0.034 A 
BRANCH  48  62
ATOM     62  C   UNL A   1      40.956  27.699  28.989  1.00  0.00     0.023 A 
ATOM     63  C   UNL A   1      41.944  27.915  28.013  1.00  0.00     0.031 A 
ATOM     64  C   UNL A   1      40.078  26.616  28.802  1.00  0.00     0.131 A 
ATOM     65  C   UNL A   1      41.986  27.108  26.865  1.00  0.00     0.055 A 
ATOM     66  C   UNL A   1      40.177  25.764  27.699  1.00  0.00     0.041 A 
ATOM     67  F   UNL A   1      39.101  26.368  29.690  1.00  0.00    -0.206 F 
ATOM     68  C   UNL A   1      41.127  26.018  26.715  1.00  0.00     0.022 A 
BRANCH  65  69
ATOM     69  S   UNL A   1      43.086  27.590  25.505  1.00  0.00     0.124 S 
ATOM     70  O   UNL A   1      42.166  28.299  24.619  1.00  0.00    -0.237 OA
ATOM     71  O   UNL A   1      44.082  28.411  26.182  1.00  0.00    -0.237 OA
ATOM     72  O   UNL A   1      43.575  26.312  24.990  1.00  0.00    -0.744 OA
ENDBRANCH  65  69
ENDBRANCH  48  62
BRANCH  49  73
ATOM     73  C   UNL A   1      39.489  33.530  36.991  1.00  0.00     0.023 A 
ATOM     74  C   UNL A   1      40.260  34.678  37.239  1.00  0.00     0.031 A 
ATOM     75  C   UNL A   1      38.536  33.158  37.957  1.00  0.00     0.131 A 
ATOM     76  C   UNL A   1      40.103  35.380  38.444  1.00  0.00     0.055 A 
ATOM     77  C   UNL A   1      38.340  33.896  39.125  1.00  0.00     0.041 A 
ATOM     78  F   UNL A   1      37.772  32.069  37.774  1.00  0.00    -0.206 F 
ATOM     79  C   UNL A   1      39.138  35.006  39.382  1.00  0.00     0.022 A 
BRANCH  76  80
ATOM     80  S   UNL A   1      41.254  36.732  38.818  1.00  0.00     0.124 S 
ATOM     81  O   UNL A   1      40.341  37.791  39.232  1.00  0.00    -0.237 OA
ATOM     82  O   UNL A   1      42.077  36.145  39.871  1.00  0.00    -0.237 OA
ATOM     83  O   UNL A   1      41.940  36.957  37.548  1.00  0.00    -0.744 OA
ENDBRANCH  76  80
ENDBRANCH  49  73
BRANCH  61  84
ATOM     84  C   UNL A   1      44.163  28.593  35.427  1.00  0.00     0.023 A 
ATOM     85  C   UNL A   1      44.036  27.527  36.334  1.00  0.00     0.031 A 
ATOM     86  C   UNL A   1      45.441  29.153  35.244  1.00  0.00     0.131 A 
ATOM     87  C   UNL A   1      45.152  27.093  37.067  1.00  0.00     0.055 A 
ATOM     88  C   UNL A   1      46.561  28.673  35.925  1.00  0.00     0.041 A 
ATOM     89  F   UNL A   1      45.624  30.178  34.395  1.00  0.00    -0.206 F 
ATOM     90  C   UNL A   1      46.417  27.646  36.853  1.00  0.00     0.022 A 
BRANCH  87  91
ATOM     91  S   UNL A   1      44.911  25.863  38.378  1.00  0.00     0.124 S 
ATOM     92  O   UNL A   1      46.262  25.338  38.553  1.00  0.00    -0.237 OA
ATOM     93  O   UNL A   1      44.396  26.673  39.476  1.00  0.00    -0.237 OA
ATOM     94  O   UNL A   1      43.952  24.925  37.797  1.00  0.00    -0.744 OA
ENDBRANCH  87  91
ENDBRANCH  61  84
ENDBRANCH  35  36
ENDBRANCH  27  30
ENDBRANCH  25  26
ENDBRANCH   1  25
TORSDOF 17
ENDMDL
MODEL 3
REMARK VINA RESULT:     -11.7      1.850      3.051
REMARK SMILES CC[C@](C)(NC(=O)N[C@@H]1C=CS(=O)(=O)C1)C(=O)NCCCCNC(=O)c1ccc(-c2c3nc(c(-c4cc(S(=O)(=O)[O-])ccc4F)c4ccc([nH]4)c(-c4cc(S(=O)(=O)[O-])ccc4F)c4nc(c(-c5cc(S(=O)(=O)[O-])ccc5F)c5ccc2[nH]5)C=C4)C=C3)cc1
REMARK SMILES IDX 21 1 20 2 19 3 18 4 16 5 17 6 3 8 4 9 2 10 1 11 5 12 6 13
REMARK SMILES IDX 7 15 8 16 9 18 10 19 15 20 11 21 12 22 13 23 14 24 22 25
REMARK SMILES IDX 23 26 24 27 25 29 26 30 27 31 88 32 28 33 87 34 29 35 30 36
REMARK SMILES IDX 31 37 81 38 32 39 86 40 80 41 82 42 33 43 85 44 79 45 78 46
REMARK SMILES IDX 34 48 66 49 46 50 65 51 47 52 50 53 64 54 83 55 48 56 49 57
REMARK SMILES IDX 63 59 84 60 51 61 35 62 36 63 44 64 37 65 43 66 45 67 42 68
REMARK SMILES IDX 38 69 39 70 40 71 41 72 67 73 68 74 76 75 69 76 75 77 77 78
REMARK SMILES IDX 74 79 70 80 71 81 72 82 73 83 52 84 53 85 61 86 54 87 60 88
REMARK SMILES IDX 62 89 59 90 55 91 56 92 57 93 58 94
REMARK H PARENT 18 7 5 14 8 17 23 28 82 47 50 58
REMARK Flexibility Score: inf
ROOT
ATOM      1  C   UNL A   1      31.501  31.950  26.698  1.00  0.00     0.023 C 
ENDROOT
BRANCH   1   2
ATOM      2  C   UNL A   1      31.587  30.448  26.470  1.00  0.00     0.023 C 
BRANCH   2   3
ATOM      3  C   UNL A   1      31.624  29.902  25.040  1.00  0.00     0.116 C 
BRANCH   3   4
ATOM      4  N   UNL A   1      32.901  29.697  24.356  1.00  0.00    -0.354 N 
ATOM      5  C   UNL A   1      33.355  28.610  23.628  1.00  0.00     0.245 C 
ATOM      6  O   UNL A   1      34.112  28.786  22.670  1.00  0.00    -0.272 OA
ATOM      7  H   UNL A   1      33.535  30.446  24.424  1.00  0.00     0.163 HD
BRANCH   5   8
ATOM      8  C   UNL A   1      32.760  27.238  23.882  1.00  0.00     0.117 C 
ATOM      9  C   UNL A   1      31.308  27.136  24.388  1.00  0.00     0.045 C 
BRANCH   8  10
ATOM     10  C   UNL A   1      33.663  26.570  25.003  1.00  0.00     0.035 C 
ATOM     11  C   UNL A   1      34.021  27.403  26.256  1.00  0.00     0.007 C 
ENDBRANCH   8  10
BRANCH   8  12
ATOM     12  N   UNL A   1      32.761  26.605  22.561  1.00  0.00    -0.324 N 
ATOM     13  C   UNL A   1      33.062  25.367  22.160  1.00  0.00     0.316 C 
ATOM     14  H   UNL A   1      32.489  27.206  21.830  1.00  0.00     0.166 HD
ATOM     15  O   UNL A   1      33.351  25.271  20.957  1.00  0.00    -0.249 OA
ATOM     16  N   UNL A   1      33.086  24.210  22.810  1.00  0.00    -0.331 N 
ATOM     17  H   UNL A   1      33.489  23.618  22.135  1.00  0.00     0.166 HD
BRANCH  16  18
ATOM     18  C   UNL A   1      32.872  23.256  23.946  1.00  0.00     0.123 C 
ATOM     19  C   UNL A   1      34.149  22.478  24.172  1.00  0.00     0.011 C 
ATOM     20  C   UNL A   1      31.733  22.286  24.260  1.00  0.00     0.170 C 
ATOM     21  C   UNL A   1      34.054  21.148  24.313  1.00  0.00     0.104 C 
ATOM     22  S   UNL A   1      32.418  20.610  24.165  1.00  0.00     0.173 S 
ATOM     23  O   UNL A   1      32.050  19.872  25.357  1.00  0.00    -0.224 OA
ATOM     24  O   UNL A   1      32.267  20.017  22.854  1.00  0.00    -0.224 OA
ENDBRANCH  16  18
ENDBRANCH   8  12
ENDBRANCH   5   8
ENDBRANCH   3   4
ENDBRANCH   2   3
ENDBRANCH   1   2
BRANCH   1  25
ATOM     25  C   UNL A   1      32.748  32.636  27.226  1.00  0.00     0.116 C 
BRANCH  25  26
ATOM     26  N   UNL A   1      32.503  33.994  27.664  1.00  0.00    -0.352 N 
ATOM     27  C   UNL A   1      33.143  34.741  28.624  1.00  0.00     0.251 C 
ATOM     28  H   UNL A   1      31.763  34.454  27.205  1.00  0.00     0.163 HD
ATOM     29  O   UNL A   1      32.702  35.854  28.901  1.00  0.00    -0.269 OA
BRANCH  27  30
ATOM     30  C   UNL A   1      34.317  34.206  29.359  1.00  0.00     0.039 A 
ATOM     31  C   UNL A   1      34.079  33.370  30.454  1.00  0.00     0.014 A 
ATOM     32  C   UNL A   1      35.633  34.533  29.014  1.00  0.00     0.014 A 
ATOM     33  C   UNL A   1      35.150  32.820  31.163  1.00  0.00     0.010 A 
ATOM     34  C   UNL A   1      36.703  33.931  29.686  1.00  0.00     0.010 A 
ATOM     35  C   UNL A   1      36.474  33.065  30.767  1.00  0.00    -0.014 A 
BRANCH  35  36
ATOM     36  C   UNL A   1      37.612  32.411  31.476  1.00  0.00     0.031 A 
ATOM     37  C   UNL A   1      38.365  31.273  30.837  1.00  0.00     0.074 A 
ATOM     38  C   UNL A   1      37.958  32.830  32.711  1.00  0.00     0.049 A 
ATOM     39  N   UNL A   1      39.364  30.572  31.312  1.00  0.00    -0.248 NA
ATOM     40  C   UNL A   1      37.925  30.859  29.497  1.00  0.00     0.031 C 
ATOM     41  C   UNL A   1      37.300  33.911  33.449  1.00  0.00     0.029 A 
ATOM     42  N   UNL A   1      38.946  32.403  33.565  1.00  0.00    -0.354 N 
ATOM     43  C   UNL A   1      39.669  29.629  30.335  1.00  0.00     0.074 A 
ATOM     44  C   UNL A   1      38.711  29.817  29.265  1.00  0.00     0.031 C 
ATOM     45  C   UNL A   1      37.921  34.081  34.627  1.00  0.00     0.029 A 
ATOM     46  C   UNL A   1      38.986  33.093  34.757  1.00  0.00     0.049 A 
ATOM     47  H   UNL A   1      39.568  31.673  33.346  1.00  0.00     0.167 HD
ATOM     48  C   UNL A   1      40.663  28.706  30.323  1.00  0.00     0.034 A 
ATOM     49  C   UNL A   1      39.779  32.940  35.838  1.00  0.00     0.034 A 
ATOM     50  C   UNL A   1      41.617  28.531  31.394  1.00  0.00     0.049 A 
ATOM     51  C   UNL A   1      40.844  31.871  35.821  1.00  0.00     0.074 A 
ATOM     52  C   UNL A   1      42.693  27.661  31.455  1.00  0.00     0.029 A 
ATOM     53  N   UNL A   1      41.603  29.225  32.598  1.00  0.00    -0.354 N 
ATOM     54  N   UNL A   1      41.148  31.021  34.867  1.00  0.00    -0.248 NA
ATOM     55  C   UNL A   1      41.679  31.746  37.023  1.00  0.00     0.031 C 
ATOM     56  C   UNL A   1      43.275  27.768  32.722  1.00  0.00     0.029 A 
ATOM     57  C   UNL A   1      42.624  28.771  33.422  1.00  0.00     0.049 A 
ATOM     58  H   UNL A   1      40.963  29.934  32.833  1.00  0.00     0.167 HD
ATOM     59  C   UNL A   1      42.233  30.288  35.342  1.00  0.00     0.074 A 
ATOM     60  C   UNL A   1      42.538  30.806  36.659  1.00  0.00     0.031 C 
ATOM     61  C   UNL A   1      42.919  29.283  34.740  1.00  0.00     0.034 A 
BRANCH  48  62
ATOM     62  C   UNL A   1      40.751  27.787  29.126  1.00  0.00     0.023 A 
ATOM     63  C   UNL A   1      41.683  27.997  28.095  1.00  0.00     0.031 A 
ATOM     64  C   UNL A   1      39.883  26.685  29.010  1.00  0.00     0.131 A 
ATOM     65  C   UNL A   1      41.679  27.164  26.965  1.00  0.00     0.055 A 
ATOM     66  C   UNL A   1      39.940  25.811  27.923  1.00  0.00     0.041 A 
ATOM     67  F   UNL A   1      38.958  26.442  29.953  1.00  0.00    -0.206 F 
ATOM     68  C   UNL A   1      40.832  26.057  26.884  1.00  0.00     0.022 A 
BRANCH  65  69
ATOM     69  S   UNL A   1      42.698  27.633  25.539  1.00  0.00     0.124 S 
ATOM     70  O   UNL A   1      42.584  26.447  24.693  1.00  0.00    -0.237 OA
ATOM     71  O   UNL A   1      42.027  28.832  25.053  1.00  0.00    -0.237 OA
ATOM     72  O   UNL A   1      44.022  27.850  26.120  1.00  0.00    -0.744 OA
ENDBRANCH  65  69
ENDBRANCH  48  62
BRANCH  49  73
ATOM     73  C   UNL A   1      39.596  33.803  37.042  1.00  0.00     0.023 A 
ATOM     74  C   UNL A   1      38.955  33.315  38.193  1.00  0.00     0.031 A 
ATOM     75  C   UNL A   1      40.004  35.149  37.039  1.00  0.00     0.131 A 
ATOM     76  C   UNL A   1      38.693  34.179  39.268  1.00  0.00     0.055 A 
ATOM     77  C   UNL A   1      39.798  35.988  38.135  1.00  0.00     0.041 A 
ATOM     78  F   UNL A   1      40.621  35.670  35.965  1.00  0.00    -0.206 F 
ATOM     79  C   UNL A   1      39.124  35.508  39.254  1.00  0.00     0.022 A 
BRANCH  76  80
ATOM     80  S   UNL A   1      37.685  33.569  40.648  1.00  0.00     0.124 S 
ATOM     81  O   UNL A   1      37.448  34.794  41.404  1.00  0.00    -0.237 OA
ATOM     82  O   UNL A   1      36.531  33.007  39.954  1.00  0.00    -0.237 OA
ATOM     83  O   UNL A   1      38.555  32.591  41.298  1.00  0.00    -0.744 OA
ENDBRANCH  76  80
ENDBRANCH  49  73
BRANCH  61  84
ATOM     84  C   UNL A   1      44.102  28.710  35.486  1.00  0.00     0.023 A 
ATOM     85  C   UNL A   1      43.963  27.669  36.419  1.00  0.00     0.031 A 
ATOM     86  C   UNL A   1      45.393  29.229  35.265  1.00  0.00     0.131 A 
ATOM     87  C   UNL A   1      45.081  27.218  37.139  1.00  0.00     0.055 A 
ATOM     88  C   UNL A   1      46.511  28.730  35.935  1.00  0.00     0.041 A 
ATOM     89  F   UNL A   1      45.588  30.228  34.390  1.00  0.00    -0.206 F 
ATOM     90  C   UNL A   1      46.356  27.729  36.888  1.00  0.00     0.022 A 
BRANCH  87  91
ATOM     91  S   UNL A   1      44.830  26.025  38.482  1.00  0.00     0.124 S 
ATOM     92  O   UNL A   1      44.071  24.972  37.814  1.00  0.00    -0.237 OA
ATOM     93  O   UNL A   1      46.198  25.684  38.857  1.00  0.00    -0.237 OA
ATOM     94  O   UNL A   1      44.085  26.786  39.484  1.00  0.00    -0.744 OA
ENDBRANCH  87  91
ENDBRANCH  61  84
ENDBRANCH  35  36
ENDBRANCH  27  30
ENDBRANCH  25  26
ENDBRANCH   1  25
TORSDOF 17
ENDMDL
