MODEL 1
REMARK VINA RESULT:     -11.6      0.000      0.000
REMARK SMILES [NH3+][C@H](C(=O)NCCCCNC(=O)c1ccc(-c2c3nc(c(-c4cc(S(=O)(=O)[O-])ccc4F)c4ccc([nH]4)c(-c4cc(S(=O)(=O)[O-])ccc4F)c4nc(c(-c5cc(S(=O)(=O)[O-])ccc5F)c5ccc2[nH]5)C=C4)C=C3)cc1)c1ccc(Cl)c(OC(F)(F)F)c1
REMARK SMILES IDX 7 1 6 2 5 3 3 4 4 5 2 7 1 8 76 12 77 13 87 14 78 15 81 16
REMARK SMILES IDX 79 17 80 18 82 19 83 20 84 21 85 22 86 23 8 24 9 25 10 26
REMARK SMILES IDX 11 27 12 29 13 30 14 31 75 32 15 33 74 34 16 35 17 36 18 37
REMARK SMILES IDX 68 38 19 39 73 40 67 41 69 42 20 43 72 44 66 45 65 46 21 48
REMARK SMILES IDX 53 49 33 50 52 51 34 52 37 53 51 54 70 55 35 56 36 57 50 59
REMARK SMILES IDX 71 60 38 61 22 62 23 63 31 64 24 65 30 66 32 67 29 68 25 69
REMARK SMILES IDX 26 70 27 71 28 72 54 73 55 74 63 75 56 76 62 77 64 78 61 79
REMARK SMILES IDX 57 80 58 81 59 82 60 83 39 84 40 85 48 86 41 87 47 88 49 89
REMARK SMILES IDX 46 90 42 91 43 92 44 93 45 94
REMARK H PARENT 5 6 1 9 1 10 1 11 10 28 69 47 37 58
REMARK Flexibility Score: inf
ROOT
ATOM      1  C   UNL A   1      32.221  27.505  26.652  1.00  0.00     0.023 C 
ENDROOT
BRANCH   1   2
ATOM      2  C   UNL A   1      33.617  27.252  26.091  1.00  0.00     0.116 C 
BRANCH   2   3
ATOM      3  N   UNL A   1      33.598  26.290  25.004  1.00  0.00    -0.351 N 
ATOM      4  C   UNL A   1      33.333  26.443  23.674  1.00  0.00     0.283 C 
ATOM      5  O   UNL A   1      33.476  25.448  22.955  1.00  0.00    -0.268 OA
ATOM      6  H   UNL A   1      33.812  25.367  25.273  1.00  0.00     0.163 HD
BRANCH   4   7
ATOM      7  C   UNL A   1      32.858  27.786  23.070  1.00  0.00     0.302 C 
BRANCH   7   8
ATOM      8  N   UNL A   1      33.471  28.010  21.741  1.00  0.00    -0.343 N 
ATOM      9  H   UNL A   1      34.196  28.723  21.816  1.00  0.00     0.345 HD
ATOM     10  H   UNL A   1      32.755  28.323  21.085  1.00  0.00     0.345 HD
ATOM     11  H   UNL A   1      33.883  27.140  21.405  1.00  0.00     0.345 HD
ENDBRANCH   7   8
BRANCH   7  12
ATOM     12  C   UNL A   1      31.355  28.042  23.061  1.00  0.00     0.023 A 
ATOM     13  C   UNL A   1      30.497  27.017  23.497  1.00  0.00     0.012 A 
ATOM     14  C   UNL A   1      30.775  29.242  22.607  1.00  0.00     0.059 A 
ATOM     15  C   UNL A   1      29.113  27.192  23.501  1.00  0.00     0.025 A 
ATOM     16  C   UNL A   1      29.390  29.453  22.656  1.00  0.00     0.148 A 
ATOM     17  C   UNL A   1      28.564  28.407  23.090  1.00  0.00     0.083 A 
ATOM     18  Cl  UNL A   1      26.844  28.579  23.142  1.00  0.00    -0.080 Cl
BRANCH  16  19
ATOM     19  O   UNL A   1      28.770  30.617  22.287  1.00  0.00    -0.404 OA
BRANCH  19  20
ATOM     20  C   UNL A   1      28.596  31.615  23.279  1.00  0.00     0.573 C 
ATOM     21  F   UNL A   1      27.324  31.637  23.736  1.00  0.00    -0.132 F 
ATOM     22  F   UNL A   1      29.438  31.410  24.313  1.00  0.00    -0.132 F 
ATOM     23  F   UNL A   1      28.873  32.820  22.739  1.00  0.00    -0.132 F 
ENDBRANCH  19  20
ENDBRANCH  16  19
ENDBRANCH   7  12
ENDBRANCH   4   7
ENDBRANCH   2   3
ENDBRANCH   1   2
BRANCH   1  24
ATOM     24  C   UNL A   1      31.742  28.956  26.544  1.00  0.00     0.023 C 
BRANCH  24  25
ATOM     25  C   UNL A   1      32.737  29.932  25.918  1.00  0.00     0.116 C 
BRANCH  25  26
ATOM     26  N   UNL A   1      32.544  31.301  26.369  1.00  0.00    -0.352 N 
ATOM     27  C   UNL A   1      33.277  32.021  27.284  1.00  0.00     0.251 C 
ATOM     28  H   UNL A   1      31.785  31.778  25.965  1.00  0.00     0.163 HD
ATOM     29  O   UNL A   1      32.875  33.121  27.655  1.00  0.00    -0.269 OA
BRANCH  27  30
ATOM     30  C   UNL A   1      34.524  31.453  27.841  1.00  0.00     0.039 A 
ATOM     31  C   UNL A   1      35.636  32.284  27.999  1.00  0.00     0.014 A 
ATOM     32  C   UNL A   1      34.589  30.112  28.229  1.00  0.00     0.014 A 
ATOM     33  C   UNL A   1      36.787  31.791  28.620  1.00  0.00     0.010 A 
ATOM     34  C   UNL A   1      35.711  29.642  28.909  1.00  0.00     0.010 A 
ATOM     35  C   UNL A   1      36.819  30.477  29.117  1.00  0.00    -0.014 A 
BRANCH  35  36
ATOM     36  C   UNL A   1      37.996  29.962  29.867  1.00  0.00     0.031 A 
ATOM     37  C   UNL A   1      38.271  30.447  31.265  1.00  0.00     0.074 A 
ATOM     38  C   UNL A   1      38.858  29.121  29.262  1.00  0.00     0.049 A 
ATOM     39  N   UNL A   1      39.294  30.199  32.043  1.00  0.00    -0.248 NA
ATOM     40  C   UNL A   1      37.278  31.359  31.850  1.00  0.00     0.031 C 
ATOM     41  C   UNL A   1      38.725  28.614  27.895  1.00  0.00     0.029 A 
ATOM     42  N   UNL A   1      40.027  28.558  29.711  1.00  0.00    -0.354 N 
ATOM     43  C   UNL A   1      39.076  30.936  33.202  1.00  0.00     0.074 A 
ATOM     44  C   UNL A   1      37.854  31.685  32.996  1.00  0.00     0.031 C 
ATOM     45  C   UNL A   1      39.761  27.805  27.622  1.00  0.00     0.029 A 
ATOM     46  C   UNL A   1      40.657  27.770  28.774  1.00  0.00     0.049 A 
ATOM     47  H   UNL A   1      40.382  28.703  30.616  1.00  0.00     0.167 HD
ATOM     48  C   UNL A   1      39.816  30.968  34.339  1.00  0.00     0.034 A 
ATOM     49  C   UNL A   1      41.830  27.108  28.828  1.00  0.00     0.034 A 
ATOM     50  C   UNL A   1      41.025  30.204  34.531  1.00  0.00     0.049 A 
ATOM     51  C   UNL A   1      42.645  27.171  30.095  1.00  0.00     0.074 A 
ATOM     52  C   UNL A   1      41.815  30.111  35.663  1.00  0.00     0.029 A 
ATOM     53  N   UNL A   1      41.625  29.407  33.564  1.00  0.00    -0.354 N 
ATOM     54  N   UNL A   1      42.397  27.829  31.204  1.00  0.00    -0.248 NA
ATOM     55  C   UNL A   1      43.892  26.396  30.120  1.00  0.00     0.031 C 
ATOM     56  C   UNL A   1      42.926  29.316  35.361  1.00  0.00     0.029 A 
ATOM     57  C   UNL A   1      42.791  28.847  34.064  1.00  0.00     0.049 A 
ATOM     58  H   UNL A   1      41.274  29.260  32.656  1.00  0.00     0.167 HD
ATOM     59  C   UNL A   1      43.443  27.521  32.069  1.00  0.00     0.074 A 
ATOM     60  C   UNL A   1      44.315  26.610  31.357  1.00  0.00     0.031 C 
ATOM     61  C   UNL A   1      43.660  27.948  33.340  1.00  0.00     0.034 A 
BRANCH  48  62
ATOM     62  C   UNL A   1      39.347  31.883  35.446  1.00  0.00     0.023 A 
ATOM     63  C   UNL A   1      38.686  31.388  36.583  1.00  0.00     0.031 A 
ATOM     64  C   UNL A   1      39.534  33.274  35.349  1.00  0.00     0.131 A 
ATOM     65  C   UNL A   1      38.162  32.277  37.533  1.00  0.00     0.055 A 
ATOM     66  C   UNL A   1      39.086  34.148  36.342  1.00  0.00     0.041 A 
ATOM     67  F   UNL A   1      40.142  33.810  34.279  1.00  0.00    -0.206 F 
ATOM     68  C   UNL A   1      38.380  33.653  37.434  1.00  0.00     0.022 A 
BRANCH  65  69
ATOM     69  S   UNL A   1      37.060  31.621  38.816  1.00  0.00     0.124 S 
ATOM     70  O   UNL A   1      37.860  31.822  40.022  1.00  0.00    -0.237 OA
ATOM     71  O   UNL A   1      35.882  32.469  38.683  1.00  0.00    -0.237 OA
ATOM     72  O   UNL A   1      36.874  30.225  38.427  1.00  0.00    -0.744 OA
ENDBRANCH  65  69
ENDBRANCH  48  62
BRANCH  49  73
ATOM     73  C   UNL A   1      42.320  26.342  27.645  1.00  0.00     0.023 A 
ATOM     74  C   UNL A   1      41.947  25.004  27.444  1.00  0.00     0.031 A 
ATOM     75  C   UNL A   1      43.198  26.930  26.717  1.00  0.00     0.131 A 
ATOM     76  C   UNL A   1      42.486  24.282  26.367  1.00  0.00     0.055 A 
ATOM     77  C   UNL A   1      43.691  26.224  25.619  1.00  0.00     0.041 A 
ATOM     78  F   UNL A   1      43.580  28.209  26.859  1.00  0.00    -0.206 F 
ATOM     79  C   UNL A   1      43.345  24.887  25.446  1.00  0.00     0.022 A 
BRANCH  76  80
ATOM     80  S   UNL A   1      42.108  22.513  26.231  1.00  0.00     0.124 S 
ATOM     81  O   UNL A   1      42.683  21.991  27.466  1.00  0.00    -0.237 OA
ATOM     82  O   UNL A   1      40.652  22.521  26.153  1.00  0.00    -0.237 OA
ATOM     83  O   UNL A   1      42.795  22.113  25.004  1.00  0.00    -0.744 OA
ENDBRANCH  76  80
ENDBRANCH  49  73
BRANCH  61  84
ATOM     84  C   UNL A   1      44.869  27.394  34.053  1.00  0.00     0.023 A 
ATOM     85  C   UNL A   1      44.817  26.189  34.775  1.00  0.00     0.031 A 
ATOM     86  C   UNL A   1      46.090  28.091  34.015  1.00  0.00     0.131 A 
ATOM     87  C   UNL A   1      45.951  25.742  35.471  1.00  0.00     0.055 A 
ATOM     88  C   UNL A   1      47.231  27.611  34.660  1.00  0.00     0.041 A 
ATOM     89  F   UNL A   1      46.196  29.248  33.342  1.00  0.00    -0.206 F 
ATOM     90  C   UNL A   1      47.162  26.437  35.404  1.00  0.00     0.022 A 
BRANCH  87  91
ATOM     91  S   UNL A   1      45.802  24.282  36.536  1.00  0.00     0.124 S 
ATOM     92  O   UNL A   1      46.342  24.772  37.800  1.00  0.00    -0.237 OA
ATOM     93  O   UNL A   1      44.366  24.023  36.512  1.00  0.00    -0.237 OA
ATOM     94  O   UNL A   1      46.623  23.278  35.861  1.00  0.00    -0.744 OA
ENDBRANCH  87  91
ENDBRANCH  61  84
ENDBRANCH  35  36
ENDBRANCH  27  30
ENDBRANCH  25  26
ENDBRANCH  24  25
ENDBRANCH   1  24
TORSDOF 18
ENDMDL
MODEL 2
REMARK VINA RESULT:     -11.5      2.002      7.999
REMARK SMILES [NH3+][C@H](C(=O)NCCCCNC(=O)c1ccc(-c2c3nc(c(-c4cc(S(=O)(=O)[O-])ccc4F)c4ccc([nH]4)c(-c4cc(S(=O)(=O)[O-])ccc4F)c4nc(c(-c5cc(S(=O)(=O)[O-])ccc5F)c5ccc2[nH]5)C=C4)C=C3)cc1)c1ccc(Cl)c(OC(F)(F)F)c1
REMARK SMILES IDX 7 1 6 2 5 3 3 4 4 5 2 7 1 8 76 12 77 13 87 14 78 15 81 16
REMARK SMILES IDX 79 17 80 18 82 19 83 20 84 21 85 22 86 23 8 24 9 25 10 26
REMARK SMILES IDX 11 27 12 29 13 30 14 31 75 32 15 33 74 34 16 35 17 36 18 37
REMARK SMILES IDX 68 38 19 39 73 40 67 41 69 42 20 43 72 44 66 45 65 46 21 48
REMARK SMILES IDX 53 49 33 50 52 51 34 52 37 53 51 54 70 55 35 56 36 57 50 59
REMARK SMILES IDX 71 60 38 61 22 62 23 63 31 64 24 65 30 66 32 67 29 68 25 69
REMARK SMILES IDX 26 70 27 71 28 72 54 73 55 74 63 75 56 76 62 77 64 78 61 79
REMARK SMILES IDX 57 80 58 81 59 82 60 83 39 84 40 85 48 86 41 87 47 88 49 89
REMARK SMILES IDX 46 90 42 91 43 92 44 93 45 94
REMARK H PARENT 5 6 1 9 1 10 1 11 10 28 69 47 37 58
REMARK Flexibility Score: inf
ROOT
ATOM      1  C   UNL A   1      32.056  29.673  26.319  1.00  0.00     0.023 C 
ENDROOT
BRANCH   1   2
ATOM      2  C   UNL A   1      33.294  29.526  25.439  1.00  0.00     0.116 C 
BRANCH   2   3
ATOM      3  N   UNL A   1      33.591  28.135  25.151  1.00  0.00    -0.351 N 
ATOM      4  C   UNL A   1      33.386  27.386  24.028  1.00  0.00     0.283 C 
ATOM      5  O   UNL A   1      33.824  26.230  24.036  1.00  0.00    -0.268 OA
ATOM      6  H   UNL A   1      34.014  27.646  25.895  1.00  0.00     0.163 HD
BRANCH   4   7
ATOM      7  C   UNL A   1      32.628  27.930  22.794  1.00  0.00     0.302 C 
BRANCH   7   8
ATOM      8  N   UNL A   1      33.009  27.183  21.573  1.00  0.00    -0.343 N 
ATOM      9  H   UNL A   1      32.636  27.660  20.752  1.00  0.00     0.345 HD
ATOM     10  H   UNL A   1      32.625  26.238  21.620  1.00  0.00     0.345 HD
ATOM     11  H   UNL A   1      34.025  27.134  21.506  1.00  0.00     0.345 HD
ENDBRANCH   7   8
BRANCH   7  12
ATOM     12  C   UNL A   1      31.117  28.082  22.928  1.00  0.00     0.023 A 
ATOM     13  C   UNL A   1      30.376  27.002  23.440  1.00  0.00     0.012 A 
ATOM     14  C   UNL A   1      30.416  29.237  22.535  1.00  0.00     0.059 A 
ATOM     15  C   UNL A   1      28.990  27.082  23.575  1.00  0.00     0.025 A 
ATOM     16  C   UNL A   1      29.030  29.353  22.716  1.00  0.00     0.148 A 
ATOM     17  C   UNL A   1      28.323  28.254  23.222  1.00  0.00     0.083 A 
ATOM     18  Cl  UNL A   1      26.608  28.308  23.438  1.00  0.00    -0.080 Cl
BRANCH  16  19
ATOM     19  O   UNL A   1      28.299  30.470  22.411  1.00  0.00    -0.404 OA
BRANCH  19  20
ATOM     20  C   UNL A   1      28.383  31.575  23.296  1.00  0.00     0.573 C 
ATOM     21  F   UNL A   1      27.195  31.815  23.897  1.00  0.00    -0.132 F 
ATOM     22  F   UNL A   1      29.323  31.359  24.239  1.00  0.00    -0.132 F 
ATOM     23  F   UNL A   1      28.730  32.673  22.593  1.00  0.00    -0.132 F 
ENDBRANCH  19  20
ENDBRANCH  16  19
ENDBRANCH   7  12
ENDBRANCH   4   7
ENDBRANCH   2   3
ENDBRANCH   1   2
BRANCH   1  24
ATOM     24  C   UNL A   1      31.769  31.103  26.785  1.00  0.00     0.023 C 
BRANCH  24  25
ATOM     25  C   UNL A   1      32.986  31.900  27.251  1.00  0.00     0.116 C 
BRANCH  25  26
ATOM     26  N   UNL A   1      32.693  33.310  27.457  1.00  0.00    -0.352 N 
ATOM     27  C   UNL A   1      33.246  34.186  28.362  1.00  0.00     0.251 C 
ATOM     28  H   UNL A   1      32.003  33.690  26.867  1.00  0.00     0.163 HD
ATOM     29  O   UNL A   1      32.765  35.308  28.495  1.00  0.00    -0.269 OA
BRANCH  27  30
ATOM     30  C   UNL A   1      34.393  33.759  29.194  1.00  0.00     0.039 A 
ATOM     31  C   UNL A   1      34.174  32.848  30.232  1.00  0.00     0.014 A 
ATOM     32  C   UNL A   1      35.681  34.233  28.936  1.00  0.00     0.014 A 
ATOM     33  C   UNL A   1      35.259  32.354  30.959  1.00  0.00     0.010 A 
ATOM     34  C   UNL A   1      36.768  33.688  29.616  1.00  0.00     0.010 A 
ATOM     35  C   UNL A   1      36.570  32.738  30.630  1.00  0.00    -0.014 A 
BRANCH  35  36
ATOM     36  C   UNL A   1      37.747  32.151  31.326  1.00  0.00     0.031 A 
ATOM     37  C   UNL A   1      38.523  31.034  30.683  1.00  0.00     0.074 A 
ATOM     38  C   UNL A   1      38.067  32.569  32.567  1.00  0.00     0.049 A 
ATOM     39  N   UNL A   1      39.510  30.324  31.168  1.00  0.00    -0.248 NA
ATOM     40  C   UNL A   1      38.110  30.644  29.328  1.00  0.00     0.031 C 
ATOM     41  C   UNL A   1      37.363  33.613  33.314  1.00  0.00     0.029 A 
ATOM     42  N   UNL A   1      39.053  32.155  33.428  1.00  0.00    -0.354 N 
ATOM     43  C   UNL A   1      39.825  29.392  30.185  1.00  0.00     0.074 A 
ATOM     44  C   UNL A   1      38.882  29.592  29.103  1.00  0.00     0.031 C 
ATOM     45  C   UNL A   1      37.949  33.768  34.513  1.00  0.00     0.029 A 
ATOM     46  C   UNL A   1      39.038  32.806  34.641  1.00  0.00     0.049 A 
ATOM     47  H   UNL A   1      39.710  31.459  33.200  1.00  0.00     0.167 HD
ATOM     48  C   UNL A   1      40.820  28.470  30.176  1.00  0.00     0.034 A 
ATOM     49  C   UNL A   1      39.802  32.635  35.738  1.00  0.00     0.034 A 
ATOM     50  C   UNL A   1      41.759  28.293  31.257  1.00  0.00     0.049 A 
ATOM     51  C   UNL A   1      40.892  31.593  35.714  1.00  0.00     0.074 A 
ATOM     52  C   UNL A   1      42.844  27.437  31.326  1.00  0.00     0.029 A 
ATOM     53  N   UNL A   1      41.721  28.980  32.465  1.00  0.00    -0.354 N 
ATOM     54  N   UNL A   1      41.213  30.757  34.754  1.00  0.00    -0.248 NA
ATOM     55  C   UNL A   1      41.727  31.479  36.917  1.00  0.00     0.031 C 
ATOM     56  C   UNL A   1      43.418  27.555  32.596  1.00  0.00     0.029 A 
ATOM     57  C   UNL A   1      42.741  28.542  33.295  1.00  0.00     0.049 A 
ATOM     58  H   UNL A   1      41.065  29.676  32.698  1.00  0.00     0.167 HD
ATOM     59  C   UNL A   1      42.307  30.039  35.227  1.00  0.00     0.074 A 
ATOM     60  C   UNL A   1      42.597  30.549  36.551  1.00  0.00     0.031 C 
ATOM     61  C   UNL A   1      43.013  29.051  34.620  1.00  0.00     0.034 A 
BRANCH  48  62
ATOM     62  C   UNL A   1      40.919  27.567  28.968  1.00  0.00     0.023 A 
ATOM     63  C   UNL A   1      41.924  27.736  28.000  1.00  0.00     0.031 A 
ATOM     64  C   UNL A   1      39.977  26.543  28.765  1.00  0.00     0.131 A 
ATOM     65  C   UNL A   1      41.914  26.954  26.835  1.00  0.00     0.055 A 
ATOM     66  C   UNL A   1      40.024  25.710  27.644  1.00  0.00     0.041 A 
ATOM     67  F   UNL A   1      38.982  26.344  29.644  1.00  0.00    -0.206 F 
ATOM     68  C   UNL A   1      40.986  25.925  26.662  1.00  0.00     0.022 A 
BRANCH  65  69
ATOM     69  S   UNL A   1      43.035  27.405  25.482  1.00  0.00     0.124 S 
ATOM     70  O   UNL A   1      42.211  28.339  24.718  1.00  0.00    -0.237 OA
ATOM     71  O   UNL A   1      44.168  27.986  26.191  1.00  0.00    -0.237 OA
ATOM     72  O   UNL A   1      43.299  26.131  24.816  1.00  0.00    -0.744 OA
ENDBRANCH  65  69
ENDBRANCH  48  62
BRANCH  49  73
ATOM     73  C   UNL A   1      39.559  33.453  36.962  1.00  0.00     0.023 A 
ATOM     74  C   UNL A   1      38.916  32.906  38.083  1.00  0.00     0.031 A 
ATOM     75  C   UNL A   1      39.937  34.807  37.012  1.00  0.00     0.131 A 
ATOM     76  C   UNL A   1      38.628  33.720  39.190  1.00  0.00     0.055 A 
ATOM     77  C   UNL A   1      39.695  35.599  38.136  1.00  0.00     0.041 A 
ATOM     78  F   UNL A   1      40.562  35.377  35.970  1.00  0.00    -0.206 F 
ATOM     79  C   UNL A   1      39.024  35.058  39.229  1.00  0.00     0.022 A 
BRANCH  76  80
ATOM     80  S   UNL A   1      37.654  33.021  40.552  1.00  0.00     0.124 S 
ATOM     81  O   UNL A   1      36.326  32.934  39.954  1.00  0.00    -0.237 OA
ATOM     82  O   UNL A   1      38.335  31.753  40.790  1.00  0.00    -0.237 OA
ATOM     83  O   UNL A   1      37.797  34.013  41.615  1.00  0.00    -0.744 OA
ENDBRANCH  76  80
ENDBRANCH  49  73
BRANCH  61  84
ATOM     84  C   UNL A   1      44.197  28.491  35.370  1.00  0.00     0.023 A 
ATOM     85  C   UNL A   1      44.051  27.488  36.345  1.00  0.00     0.031 A 
ATOM     86  C   UNL A   1      45.491  28.977  35.109  1.00  0.00     0.131 A 
ATOM     87  C   UNL A   1      45.173  27.039  37.058  1.00  0.00     0.055 A 
ATOM     88  C   UNL A   1      46.611  28.485  35.781  1.00  0.00     0.041 A 
ATOM     89  F   UNL A   1      45.687  29.936  34.190  1.00  0.00    -0.206 F 
ATOM     90  C   UNL A   1      46.454  27.519  36.770  1.00  0.00     0.022 A 
BRANCH  87  91
ATOM     91  S   UNL A   1      44.928  25.877  38.429  1.00  0.00     0.124 S 
ATOM     92  O   UNL A   1      44.507  24.667  37.729  1.00  0.00    -0.237 OA
ATOM     93  O   UNL A   1      46.252  25.832  39.041  1.00  0.00    -0.237 OA
ATOM     94  O   UNL A   1      43.893  26.516  39.240  1.00  0.00    -0.744 OA
ENDBRANCH  87  91
ENDBRANCH  61  84
ENDBRANCH  35  36
ENDBRANCH  27  30
ENDBRANCH  25  26
ENDBRANCH  24  25
ENDBRANCH   1  24
TORSDOF 18
ENDMDL
MODEL 3
REMARK VINA RESULT:     -11.5      6.314      8.751
REMARK SMILES [NH3+][C@H](C(=O)NCCCCNC(=O)c1ccc(-c2c3nc(c(-c4cc(S(=O)(=O)[O-])ccc4F)c4ccc([nH]4)c(-c4cc(S(=O)(=O)[O-])ccc4F)c4nc(c(-c5cc(S(=O)(=O)[O-])ccc5F)c5ccc2[nH]5)C=C4)C=C3)cc1)c1ccc(Cl)c(OC(F)(F)F)c1
REMARK SMILES IDX 7 1 6 2 5 3 3 4 4 5 2 7 1 8 76 12 77 13 87 14 78 15 81 16
REMARK SMILES IDX 79 17 80 18 82 19 83 20 84 21 85 22 86 23 8 24 9 25 10 26
REMARK SMILES IDX 11 27 12 29 13 30 14 31 75 32 15 33 74 34 16 35 17 36 18 37
REMARK SMILES IDX 68 38 19 39 73 40 67 41 69 42 20 43 72 44 66 45 65 46 21 48
REMARK SMILES IDX 53 49 33 50 52 51 34 52 37 53 51 54 70 55 35 56 36 57 50 59
REMARK SMILES IDX 71 60 38 61 22 62 23 63 31 64 24 65 30 66 32 67 29 68 25 69
REMARK SMILES IDX 26 70 27 71 28 72 54 73 55 74 63 75 56 76 62 77 64 78 61 79
REMARK SMILES IDX 57 80 58 81 59 82 60 83 39 84 40 85 48 86 41 87 47 88 49 89
REMARK SMILES IDX 46 90 42 91 43 92 44 93 45 94
REMARK H PARENT 5 6 1 9 1 10 1 11 10 28 69 47 37 58
REMARK Flexibility Score: inf
ROOT
ATOM      1  C   UNL A   1      35.682  23.553  23.945  1.00  0.00     0.023 C 
ENDROOT
BRANCH   1   2
ATOM      2  C   UNL A   1      35.206  24.312  25.179  1.00  0.00     0.116 C 
BRANCH   2   3
ATOM      3  N   UNL A   1      33.781  24.587  25.130  1.00  0.00    -0.351 N 
ATOM      4  C   UNL A   1      32.709  23.849  25.541  1.00  0.00     0.283 C 
ATOM      5  O   UNL A   1      31.596  24.378  25.451  1.00  0.00    -0.268 OA
ATOM      6  H   UNL A   1      33.548  25.457  24.731  1.00  0.00     0.163 HD
BRANCH   4   7
ATOM      7  C   UNL A   1      32.852  22.407  26.083  1.00  0.00     0.302 C 
BRANCH   7   8
ATOM      8  N   UNL A   1      31.991  22.205  27.271  1.00  0.00    -0.343 N 
ATOM      9  H   UNL A   1      32.487  21.636  27.957  1.00  0.00     0.345 HD
ATOM     10  H   UNL A   1      31.132  21.729  26.991  1.00  0.00     0.345 HD
ATOM     11  H   UNL A   1      31.760  23.109  27.681  1.00  0.00     0.345 HD
ENDBRANCH   7   8
BRANCH   7  12
ATOM     12  C   UNL A   1      32.709  21.276  25.070  1.00  0.00     0.023 A 
ATOM     13  C   UNL A   1      32.310  21.593  23.761  1.00  0.00     0.012 A 
ATOM     14  C   UNL A   1      32.926  19.921  25.386  1.00  0.00     0.059 A 
ATOM     15  C   UNL A   1      32.154  20.597  22.796  1.00  0.00     0.025 A 
ATOM     16  C   UNL A   1      32.827  18.915  24.413  1.00  0.00     0.148 A 
ATOM     17  C   UNL A   1      32.419  19.267  23.120  1.00  0.00     0.083 A 
ATOM     18  Cl  UNL A   1      32.237  18.078  21.877  1.00  0.00    -0.080 Cl
BRANCH  16  19
ATOM     19  O   UNL A   1      33.082  17.589  24.641  1.00  0.00    -0.404 OA
BRANCH  19  20
ATOM     20  C   UNL A   1      34.384  17.109  24.348  1.00  0.00     0.573 C 
ATOM     21  F   UNL A   1      34.811  16.240  25.291  1.00  0.00    -0.132 F 
ATOM     22  F   UNL A   1      34.408  16.505  23.142  1.00  0.00    -0.132 F 
ATOM     23  F   UNL A   1      35.238  18.153  24.317  1.00  0.00    -0.132 F 
ENDBRANCH  19  20
ENDBRANCH  16  19
ENDBRANCH   7  12
ENDBRANCH   4   7
ENDBRANCH   2   3
ENDBRANCH   1   2
BRANCH   1  24
ATOM     24  C   UNL A   1      35.987  22.071  24.184  1.00  0.00     0.023 C 
BRANCH  24  25
ATOM     25  C   UNL A   1      36.509  21.724  25.577  1.00  0.00     0.116 C 
BRANCH  25  26
ATOM     26  N   UNL A   1      37.526  20.684  25.557  1.00  0.00    -0.352 N 
ATOM     27  C   UNL A   1      38.872  20.785  25.821  1.00  0.00     0.251 C 
ATOM     28  H   UNL A   1      37.207  19.784  25.320  1.00  0.00     0.163 HD
ATOM     29  O   UNL A   1      39.608  19.825  25.606  1.00  0.00    -0.269 OA
BRANCH  27  30
ATOM     30  C   UNL A   1      39.429  22.058  26.329  1.00  0.00     0.039 A 
ATOM     31  C   UNL A   1      40.468  22.018  27.264  1.00  0.00     0.014 A 
ATOM     32  C   UNL A   1      38.948  23.285  25.867  1.00  0.00     0.014 A 
ATOM     33  C   UNL A   1      41.076  23.206  27.675  1.00  0.00     0.010 A 
ATOM     34  C   UNL A   1      39.601  24.463  26.224  1.00  0.00     0.010 A 
ATOM     35  C   UNL A   1      40.675  24.437  27.127  1.00  0.00    -0.014 A 
BRANCH  35  36
ATOM     36  C   UNL A   1      41.373  25.703  27.475  1.00  0.00     0.031 A 
ATOM     37  C   UNL A   1      40.660  26.762  28.272  1.00  0.00     0.074 A 
ATOM     38  C   UNL A   1      42.616  25.933  27.007  1.00  0.00     0.049 A 
ATOM     39  N   UNL A   1      41.056  27.969  28.589  1.00  0.00    -0.248 NA
ATOM     40  C   UNL A   1      39.309  26.428  28.747  1.00  0.00     0.031 C 
ATOM     41  C   UNL A   1      43.394  25.003  26.186  1.00  0.00     0.029 A 
ATOM     42  N   UNL A   1      43.437  27.025  27.137  1.00  0.00    -0.354 N 
ATOM     43  C   UNL A   1      39.998  28.544  29.284  1.00  0.00     0.074 A 
ATOM     44  C   UNL A   1      38.924  27.573  29.289  1.00  0.00     0.031 C 
ATOM     45  C   UNL A   1      44.583  25.557  25.900  1.00  0.00     0.029 A 
ATOM     46  C   UNL A   1      44.637  26.897  26.475  1.00  0.00     0.049 A 
ATOM     47  H   UNL A   1      43.193  27.824  27.656  1.00  0.00     0.167 HD
ATOM     48  C   UNL A   1      39.936  29.761  29.881  1.00  0.00     0.034 A 
ATOM     49  C   UNL A   1      45.657  27.766  26.330  1.00  0.00     0.034 A 
ATOM     50  C   UNL A   1      41.021  30.712  29.878  1.00  0.00     0.049 A 
ATOM     51  C   UNL A   1      45.561  29.120  26.988  1.00  0.00     0.074 A 
ATOM     52  C   UNL A   1      41.091  31.943  30.506  1.00  0.00     0.029 A 
ATOM     53  N   UNL A   1      42.226  30.542  29.207  1.00  0.00    -0.354 N 
ATOM     54  N   UNL A   1      44.576  29.628  27.690  1.00  0.00    -0.248 NA
ATOM     55  C   UNL A   1      46.719  30.012  26.840  1.00  0.00     0.031 C 
ATOM     56  C   UNL A   1      42.304  32.547  30.159  1.00  0.00     0.029 A 
ATOM     57  C   UNL A   1      43.029  31.660  29.379  1.00  0.00     0.049 A 
ATOM     58  H   UNL A   1      42.475  29.745  28.686  1.00  0.00     0.167 HD
ATOM     59  C   UNL A   1      45.007  30.888  28.093  1.00  0.00     0.074 A 
ATOM     60  C   UNL A   1      46.347  31.056  27.566  1.00  0.00     0.031 C 
ATOM     61  C   UNL A   1      44.359  31.821  28.838  1.00  0.00     0.034 A 
BRANCH  48  62
ATOM     62  C   UNL A   1      38.639  30.136  30.560  1.00  0.00     0.023 A 
ATOM     63  C   UNL A   1      37.619  30.821  29.877  1.00  0.00     0.031 A 
ATOM     64  C   UNL A   1      38.431  29.833  31.917  1.00  0.00     0.131 A 
ATOM     65  C   UNL A   1      36.479  31.254  30.570  1.00  0.00     0.055 A 
ATOM     66  C   UNL A   1      37.254  30.192  32.580  1.00  0.00     0.041 A 
ATOM     67  F   UNL A   1      39.375  29.197  32.629  1.00  0.00    -0.206 F 
ATOM     68  C   UNL A   1      36.278  30.922  31.911  1.00  0.00     0.022 A 
BRANCH  65  69
ATOM     69  S   UNL A   1      35.338  32.391  29.733  1.00  0.00     0.124 S 
ATOM     70  O   UNL A   1      34.403  32.713  30.808  1.00  0.00    -0.237 OA
ATOM     71  O   UNL A   1      36.222  33.470  29.311  1.00  0.00    -0.237 OA
ATOM     72  O   UNL A   1      34.778  31.581  28.653  1.00  0.00    -0.744 OA
ENDBRANCH  65  69
ENDBRANCH  48  62
BRANCH  49  73
ATOM     73  C   UNL A   1      46.853  27.398  25.517  1.00  0.00     0.023 A 
ATOM     74  C   UNL A   1      46.986  27.831  24.189  1.00  0.00     0.031 A 
ATOM     75  C   UNL A   1      47.863  26.577  26.049  1.00  0.00     0.131 A 
ATOM     76  C   UNL A   1      48.082  27.405  23.421  1.00  0.00     0.055 A 
ATOM     77  C   UNL A   1      48.977  26.198  25.299  1.00  0.00     0.041 A 
ATOM     78  F   UNL A   1      47.788  26.143  27.317  1.00  0.00    -0.206 F 
ATOM     79  C   UNL A   1      49.084  26.602  23.971  1.00  0.00     0.022 A 
BRANCH  76  80
ATOM     80  S   UNL A   1      48.138  27.851  21.664  1.00  0.00     0.124 S 
ATOM     81  O   UNL A   1      48.477  26.575  21.044  1.00  0.00    -0.237 OA
ATOM     82  O   UNL A   1      46.782  28.338  21.433  1.00  0.00    -0.237 OA
ATOM     83  O   UNL A   1      49.183  28.871  21.606  1.00  0.00    -0.744 OA
ENDBRANCH  76  80
ENDBRANCH  49  73
BRANCH  61  84
ATOM     84  C   UNL A   1      45.113  33.087  29.161  1.00  0.00     0.023 A 
ATOM     85  C   UNL A   1      45.116  34.192  28.293  1.00  0.00     0.031 A 
ATOM     86  C   UNL A   1      45.848  33.184  30.357  1.00  0.00     0.131 A 
ATOM     87  C   UNL A   1      45.879  35.327  28.608  1.00  0.00     0.055 A 
ATOM     88  C   UNL A   1      46.557  34.338  30.693  1.00  0.00     0.041 A 
ATOM     89  F   UNL A   1      45.882  32.158  31.222  1.00  0.00    -0.206 F 
ATOM     90  C   UNL A   1      46.585  35.413  29.811  1.00  0.00     0.022 A 
BRANCH  87  91
ATOM     91  S   UNL A   1      46.004  36.661  27.386  1.00  0.00     0.124 S 
ATOM     92  O   UNL A   1      46.039  35.919  26.129  1.00  0.00    -0.237 OA
ATOM     93  O   UNL A   1      44.791  37.432  27.639  1.00  0.00    -0.237 OA
ATOM     94  O   UNL A   1      47.251  37.337  27.741  1.00  0.00    -0.744 OA
ENDBRANCH  87  91
ENDBRANCH  61  84
ENDBRANCH  35  36
ENDBRANCH  27  30
ENDBRANCH  25  26
ENDBRANCH  24  25
ENDBRANCH   1  24
TORSDOF 18
ENDMDL
