MODEL 1
REMARK VINA RESULT:     -13.1      0.000      0.000
REMARK SMILES Cc1ccc(C(=O)NCCCCNC(=O)c2ccc(-c3c4nc(c(-c5cc(S(=O)(=O)[O-])ccc5F)c5ccc([nH]5)c(-c5cc(S(=O)(=O)[O-])ccc5F)c5nc(c(-c6cc(S(=O)(=O)[O-])ccc6F)c6ccc3[nH]6)C=C5)C=C4)cc2)c(Oc2cccc(F)c2C(N)=O)c1
REMARK SMILES IDX 10 1 9 2 8 3 6 4 7 5 5 7 1 8 2 9 3 10 91 11 4 12 79 13 80 14
REMARK SMILES IDX 81 15 82 16 87 17 83 18 85 19 84 20 86 21 88 22 89 23 90 24
REMARK SMILES IDX 11 27 12 28 13 29 14 30 15 32 16 33 17 34 78 35 18 36 77 37
REMARK SMILES IDX 19 38 20 39 21 40 71 41 22 42 76 43 70 44 72 45 23 46 75 47
REMARK SMILES IDX 69 48 68 49 24 51 56 52 36 53 55 54 37 55 40 56 54 57 73 58
REMARK SMILES IDX 38 59 39 60 53 62 74 63 41 64 25 65 26 66 34 67 27 68 33 69
REMARK SMILES IDX 35 70 32 71 28 72 29 73 30 74 31 75 57 76 58 77 66 78 59 79
REMARK SMILES IDX 65 80 67 81 64 82 60 83 61 84 62 85 63 86 42 87 43 88 51 89
REMARK SMILES IDX 44 90 50 91 52 92 49 93 45 94 46 95 47 96 48 97
REMARK H PARENT 8 6 89 25 89 26 13 31 72 50 40 61
REMARK Flexibility Score: inf
ROOT
ATOM      1  C   UNL A   1      33.140  27.809  26.783  1.00  0.00     0.023 C 
ENDROOT
BRANCH   1   2
ATOM      2  C   UNL A   1      31.681  27.470  26.458  1.00  0.00     0.116 C 
BRANCH   2   3
ATOM      3  N   UNL A   1      31.280  26.115  26.809  1.00  0.00    -0.352 N 
ATOM      4  C   UNL A   1      31.746  24.841  26.583  1.00  0.00     0.255 C 
ATOM      5  O   UNL A   1      31.131  23.952  27.187  1.00  0.00    -0.269 OA
ATOM      6  H   UNL A   1      30.459  26.109  27.353  1.00  0.00     0.163 HD
BRANCH   4   7
ATOM      7  C   UNL A   1      32.824  24.393  25.635  1.00  0.00     0.082 A 
ATOM      8  C   UNL A   1      36.281  23.104  23.326  1.00  0.00     0.044 C 
ATOM      9  C   UNL A   1      35.109  23.571  24.132  1.00  0.00    -0.047 A 
ATOM     10  C   UNL A   1      35.223  23.846  25.492  1.00  0.00     0.004 A 
ATOM     11  C   UNL A   1      33.876  23.779  23.516  1.00  0.00     0.051 A 
ATOM     12  C   UNL A   1      34.101  24.257  26.224  1.00  0.00     0.018 A 
ATOM     13  C   UNL A   1      32.738  24.149  24.258  1.00  0.00     0.140 A 
BRANCH  13  14
ATOM     14  O   UNL A   1      31.559  24.352  23.603  1.00  0.00    -0.456 OA
BRANCH  14  15
ATOM     15  C   UNL A   1      31.055  25.629  23.445  1.00  0.00     0.143 A 
ATOM     16  C   UNL A   1      29.702  25.693  23.819  1.00  0.00     0.048 A 
ATOM     17  C   UNL A   1      31.684  26.760  22.881  1.00  0.00     0.117 A 
ATOM     18  C   UNL A   1      28.974  26.865  23.656  1.00  0.00     0.007 A 
ATOM     19  C   UNL A   1      30.909  27.915  22.690  1.00  0.00     0.139 A 
ATOM     20  C   UNL A   1      29.572  27.971  23.069  1.00  0.00     0.040 A 
ATOM     21  F   UNL A   1      31.429  29.000  22.094  1.00  0.00    -0.206 F 
BRANCH  17  22
ATOM     22  C   UNL A   1      33.114  26.904  22.499  1.00  0.00     0.255 C 
ATOM     23  N   UNL A   1      33.988  27.511  23.350  1.00  0.00    -0.365 N 
ATOM     24  O   UNL A   1      33.538  26.489  21.424  1.00  0.00    -0.269 OA
ATOM     25  H   UNL A   1      33.673  27.853  24.218  1.00  0.00     0.159 HD
ATOM     26  H   UNL A   1      34.935  27.607  23.099  1.00  0.00     0.159 HD
ENDBRANCH  17  22
ENDBRANCH  14  15
ENDBRANCH  13  14
ENDBRANCH   4   7
ENDBRANCH   2   3
ENDBRANCH   1   2
BRANCH   1  27
ATOM     27  C   UNL A   1      33.388  29.162  27.433  1.00  0.00     0.023 C 
BRANCH  27  28
ATOM     28  C   UNL A   1      34.296  30.099  26.652  1.00  0.00     0.116 C 
BRANCH  28  29
ATOM     29  N   UNL A   1      34.900  31.193  27.390  1.00  0.00    -0.352 N 
ATOM     30  C   UNL A   1      35.925  31.148  28.332  1.00  0.00     0.251 C 
ATOM     31  H   UNL A   1      34.537  32.087  27.199  1.00  0.00     0.163 HD
ATOM     32  O   UNL A   1      36.147  32.116  29.032  1.00  0.00    -0.269 OA
BRANCH  30  33
ATOM     33  C   UNL A   1      36.813  29.948  28.416  1.00  0.00     0.039 A 
ATOM     34  C   UNL A   1      36.839  29.227  29.620  1.00  0.00     0.014 A 
ATOM     35  C   UNL A   1      37.730  29.640  27.419  1.00  0.00     0.014 A 
ATOM     36  C   UNL A   1      37.915  28.382  29.901  1.00  0.00     0.010 A 
ATOM     37  C   UNL A   1      38.856  28.917  27.739  1.00  0.00     0.010 A 
ATOM     38  C   UNL A   1      38.970  28.328  28.999  1.00  0.00    -0.014 A 
BRANCH  38  39
ATOM     39  C   UNL A   1      40.287  27.770  29.271  1.00  0.00     0.031 A 
ATOM     40  C   UNL A   1      40.588  26.379  28.887  1.00  0.00     0.074 A 
ATOM     41  C   UNL A   1      41.267  28.625  29.633  1.00  0.00     0.049 A 
ATOM     42  N   UNL A   1      41.687  25.769  29.164  1.00  0.00    -0.248 NA
ATOM     43  C   UNL A   1      39.620  25.523  28.198  1.00  0.00     0.031 C 
ATOM     44  C   UNL A   1      42.713  28.447  29.529  1.00  0.00     0.029 A 
ATOM     45  N   UNL A   1      41.119  29.750  30.436  1.00  0.00    -0.354 N 
ATOM     46  C   UNL A   1      41.708  24.608  28.429  1.00  0.00     0.074 A 
ATOM     47  C   UNL A   1      40.357  24.431  27.972  1.00  0.00     0.031 C 
ATOM     48  C   UNL A   1      43.317  29.262  30.411  1.00  0.00     0.029 A 
ATOM     49  C   UNL A   1      42.266  29.831  31.241  1.00  0.00     0.049 A 
ATOM     50  H   UNL A   1      40.354  30.371  30.440  1.00  0.00     0.167 HD
ATOM     51  C   UNL A   1      42.912  24.028  28.170  1.00  0.00     0.034 A 
ATOM     52  C   UNL A   1      42.164  29.629  32.590  1.00  0.00     0.034 A 
ATOM     53  C   UNL A   1      43.940  24.551  29.076  1.00  0.00     0.049 A 
ATOM     54  C   UNL A   1      42.968  28.443  33.087  1.00  0.00     0.074 A 
ATOM     55  C   UNL A   1      45.023  25.395  28.910  1.00  0.00     0.029 A 
ATOM     56  N   UNL A   1      43.749  24.425  30.451  1.00  0.00    -0.354 N 
ATOM     57  N   UNL A   1      43.363  27.447  32.340  1.00  0.00    -0.248 NA
ATOM     58  C   UNL A   1      43.380  28.299  34.478  1.00  0.00     0.031 C 
ATOM     59  C   UNL A   1      45.395  25.878  30.198  1.00  0.00     0.029 A 
ATOM     60  C   UNL A   1      44.580  25.280  31.146  1.00  0.00     0.049 A 
ATOM     61  H   UNL A   1      43.107  23.807  30.871  1.00  0.00     0.167 HD
ATOM     62  C   UNL A   1      44.035  26.534  33.112  1.00  0.00     0.074 A 
ATOM     63  C   UNL A   1      44.045  27.132  34.437  1.00  0.00     0.031 C 
ATOM     64  C   UNL A   1      44.513  25.356  32.604  1.00  0.00     0.034 A 
BRANCH  51  65
ATOM     65  C   UNL A   1      43.217  23.152  26.968  1.00  0.00     0.023 A 
ATOM     66  C   UNL A   1      42.756  21.816  26.966  1.00  0.00     0.031 A 
ATOM     67  C   UNL A   1      44.062  23.488  25.883  1.00  0.00     0.131 A 
ATOM     68  C   UNL A   1      43.135  20.906  25.957  1.00  0.00     0.055 A 
ATOM     69  C   UNL A   1      44.388  22.600  24.849  1.00  0.00     0.041 A 
ATOM     70  F   UNL A   1      44.684  24.668  25.784  1.00  0.00    -0.206 F 
ATOM     71  C   UNL A   1      43.932  21.297  24.886  1.00  0.00     0.022 A 
BRANCH  68  72
ATOM     72  S   UNL A   1      42.646  19.164  26.098  1.00  0.00     0.124 S 
ATOM     73  O   UNL A   1      42.552  18.989  27.544  1.00  0.00    -0.237 OA
ATOM     74  O   UNL A   1      41.392  19.132  25.356  1.00  0.00    -0.237 OA
ATOM     75  O   UNL A   1      43.754  18.449  25.465  1.00  0.00    -0.744 OA
ENDBRANCH  68  72
ENDBRANCH  51  65
BRANCH  52  76
ATOM     76  C   UNL A   1      40.840  30.047  33.149  1.00  0.00     0.023 A 
ATOM     77  C   UNL A   1      40.637  31.424  33.382  1.00  0.00     0.031 A 
ATOM     78  C   UNL A   1      39.707  29.226  33.069  1.00  0.00     0.131 A 
ATOM     79  C   UNL A   1      39.343  31.962  33.335  1.00  0.00     0.055 A 
ATOM     80  C   UNL A   1      38.412  29.762  33.113  1.00  0.00     0.041 A 
ATOM     81  F   UNL A   1      39.827  27.913  32.824  1.00  0.00    -0.206 F 
ATOM     82  C   UNL A   1      38.225  31.141  33.202  1.00  0.00     0.022 A 
BRANCH  79  83
ATOM     83  S   UNL A   1      39.185  33.763  33.203  1.00  0.00     0.124 S 
ATOM     84  O   UNL A   1      40.527  34.158  32.780  1.00  0.00    -0.237 OA
ATOM     85  O   UNL A   1      38.139  33.891  32.189  1.00  0.00    -0.237 OA
ATOM     86  O   UNL A   1      38.810  34.183  34.547  1.00  0.00    -0.744 OA
ENDBRANCH  79  83
ENDBRANCH  52  76
BRANCH  64  87
ATOM     87  C   UNL A   1      45.024  24.192  33.432  1.00  0.00     0.023 A 
ATOM     88  C   UNL A   1      46.349  24.085  33.883  1.00  0.00     0.031 A 
ATOM     89  C   UNL A   1      44.151  23.168  33.875  1.00  0.00     0.131 A 
ATOM     90  C   UNL A   1      46.786  22.973  34.623  1.00  0.00     0.055 A 
ATOM     91  C   UNL A   1      44.567  22.108  34.688  1.00  0.00     0.041 A 
ATOM     92  F   UNL A   1      42.851  23.156  33.545  1.00  0.00    -0.206 F 
ATOM     93  C   UNL A   1      45.898  21.991  35.050  1.00  0.00     0.022 A 
BRANCH  90  94
ATOM     94  S   UNL A   1      48.562  22.802  34.942  1.00  0.00     0.124 S 
ATOM     95  O   UNL A   1      48.825  21.450  34.455  1.00  0.00    -0.237 OA
ATOM     96  O   UNL A   1      49.131  23.883  34.143  1.00  0.00    -0.237 OA
ATOM     97  O   UNL A   1      48.673  22.972  36.389  1.00  0.00    -0.744 OA
ENDBRANCH  90  94
ENDBRANCH  64  87
ENDBRANCH  38  39
ENDBRANCH  30  33
ENDBRANCH  28  29
ENDBRANCH  27  28
ENDBRANCH   1  27
TORSDOF 17
ENDMDL
MODEL 2
REMARK VINA RESULT:     -13.0      1.668      2.986
REMARK SMILES Cc1ccc(C(=O)NCCCCNC(=O)c2ccc(-c3c4nc(c(-c5cc(S(=O)(=O)[O-])ccc5F)c5ccc([nH]5)c(-c5cc(S(=O)(=O)[O-])ccc5F)c5nc(c(-c6cc(S(=O)(=O)[O-])ccc6F)c6ccc3[nH]6)C=C5)C=C4)cc2)c(Oc2cccc(F)c2C(N)=O)c1
REMARK SMILES IDX 10 1 9 2 8 3 6 4 7 5 5 7 1 8 2 9 3 10 91 11 4 12 79 13 80 14
REMARK SMILES IDX 81 15 82 16 87 17 83 18 85 19 84 20 86 21 88 22 89 23 90 24
REMARK SMILES IDX 11 27 12 28 13 29 14 30 15 32 16 33 17 34 78 35 18 36 77 37
REMARK SMILES IDX 19 38 20 39 21 40 71 41 22 42 76 43 70 44 72 45 23 46 75 47
REMARK SMILES IDX 69 48 68 49 24 51 56 52 36 53 55 54 37 55 40 56 54 57 73 58
REMARK SMILES IDX 38 59 39 60 53 62 74 63 41 64 25 65 26 66 34 67 27 68 33 69
REMARK SMILES IDX 35 70 32 71 28 72 29 73 30 74 31 75 57 76 58 77 66 78 59 79
REMARK SMILES IDX 65 80 67 81 64 82 60 83 61 84 62 85 63 86 42 87 43 88 51 89
REMARK SMILES IDX 44 90 50 91 52 92 49 93 45 94 46 95 47 96 48 97
REMARK H PARENT 8 6 89 25 89 26 13 31 72 50 40 61
REMARK Flexibility Score: inf
ROOT
ATOM      1  C   UNL A   1      33.493  27.748  26.413  1.00  0.00     0.023 C 
ENDROOT
BRANCH   1   2
ATOM      2  C   UNL A   1      31.999  27.685  26.750  1.00  0.00     0.116 C 
BRANCH   2   3
ATOM      3  N   UNL A   1      31.504  26.353  27.067  1.00  0.00    -0.352 N 
ATOM      4  C   UNL A   1      31.597  25.093  26.523  1.00  0.00     0.255 C 
ATOM      5  O   UNL A   1      31.092  24.197  27.211  1.00  0.00    -0.269 OA
ATOM      6  H   UNL A   1      30.960  26.355  27.888  1.00  0.00     0.163 HD
BRANCH   4   7
ATOM      7  C   UNL A   1      32.137  24.691  25.178  1.00  0.00     0.082 A 
ATOM      8  C   UNL A   1      33.199  23.643  21.089  1.00  0.00     0.044 C 
ATOM      9  C   UNL A   1      32.808  23.985  22.494  1.00  0.00    -0.047 A 
ATOM     10  C   UNL A   1      31.519  24.403  22.810  1.00  0.00     0.004 A 
ATOM     11  C   UNL A   1      33.732  23.851  23.529  1.00  0.00     0.051 A 
ATOM     12  C   UNL A   1      31.191  24.741  24.130  1.00  0.00     0.018 A 
ATOM     13  C   UNL A   1      33.419  24.231  24.848  1.00  0.00     0.140 A 
BRANCH  13  14
ATOM     14  O   UNL A   1      34.356  24.066  25.824  1.00  0.00    -0.456 OA
BRANCH  14  15
ATOM     15  C   UNL A   1      35.337  23.101  25.699  1.00  0.00     0.143 A 
ATOM     16  C   UNL A   1      36.616  23.678  25.629  1.00  0.00     0.048 A 
ATOM     17  C   UNL A   1      35.184  21.708  25.531  1.00  0.00     0.117 A 
ATOM     18  C   UNL A   1      37.741  22.893  25.412  1.00  0.00     0.007 A 
ATOM     19  C   UNL A   1      36.335  20.947  25.272  1.00  0.00     0.139 A 
ATOM     20  C   UNL A   1      37.598  21.527  25.210  1.00  0.00     0.040 A 
ATOM     21  F   UNL A   1      36.248  19.628  25.033  1.00  0.00    -0.206 F 
BRANCH  17  22
ATOM     22  C   UNL A   1      33.931  20.914  25.648  1.00  0.00     0.255 C 
ATOM     23  N   UNL A   1      33.517  20.472  26.869  1.00  0.00    -0.365 N 
ATOM     24  O   UNL A   1      33.250  20.638  24.664  1.00  0.00    -0.269 OA
ATOM     25  H   UNL A   1      34.046  20.679  27.673  1.00  0.00     0.159 HD
ATOM     26  H   UNL A   1      32.688  19.946  26.947  1.00  0.00     0.159 HD
ENDBRANCH  17  22
ENDBRANCH  14  15
ENDBRANCH  13  14
ENDBRANCH   4   7
ENDBRANCH   2   3
ENDBRANCH   1   2
BRANCH   1  27
ATOM     27  C   UNL A   1      34.105  29.139  26.325  1.00  0.00     0.023 C 
BRANCH  27  28
ATOM     28  C   UNL A   1      34.017  29.967  27.598  1.00  0.00     0.116 C 
BRANCH  28  29
ATOM     29  N   UNL A   1      34.857  31.148  27.670  1.00  0.00    -0.352 N 
ATOM     30  C   UNL A   1      36.170  31.258  28.122  1.00  0.00     0.251 C 
ATOM     31  H   UNL A   1      34.443  31.984  27.357  1.00  0.00     0.163 HD
ATOM     32  O   UNL A   1      36.644  32.355  28.344  1.00  0.00    -0.269 OA
BRANCH  30  33
ATOM     33  C   UNL A   1      37.025  30.039  28.242  1.00  0.00     0.039 A 
ATOM     34  C   UNL A   1      37.017  29.342  29.460  1.00  0.00     0.014 A 
ATOM     35  C   UNL A   1      37.947  29.687  27.263  1.00  0.00     0.014 A 
ATOM     36  C   UNL A   1      38.068  28.476  29.772  1.00  0.00     0.010 A 
ATOM     37  C   UNL A   1      39.050  28.943  27.613  1.00  0.00     0.010 A 
ATOM     38  C   UNL A   1      39.133  28.377  28.886  1.00  0.00    -0.014 A 
BRANCH  38  39
ATOM     39  C   UNL A   1      40.431  27.791  29.187  1.00  0.00     0.031 A 
ATOM     40  C   UNL A   1      40.708  26.391  28.816  1.00  0.00     0.074 A 
ATOM     41  C   UNL A   1      41.423  28.626  29.564  1.00  0.00     0.049 A 
ATOM     42  N   UNL A   1      41.788  25.759  29.119  1.00  0.00    -0.248 NA
ATOM     43  C   UNL A   1      39.735  25.554  28.113  1.00  0.00     0.031 C 
ATOM     44  C   UNL A   1      42.866  28.415  29.489  1.00  0.00     0.029 A 
ATOM     45  N   UNL A   1      41.284  29.759  30.358  1.00  0.00    -0.354 N 
ATOM     46  C   UNL A   1      41.798  24.593  28.391  1.00  0.00     0.074 A 
ATOM     47  C   UNL A   1      40.452  24.444  27.907  1.00  0.00     0.031 C 
ATOM     48  C   UNL A   1      43.471  29.222  30.378  1.00  0.00     0.029 A 
ATOM     49  C   UNL A   1      42.417  29.819  31.184  1.00  0.00     0.049 A 
ATOM     50  H   UNL A   1      40.534  30.396  30.344  1.00  0.00     0.167 HD
ATOM     51  C   UNL A   1      42.993  23.986  28.158  1.00  0.00     0.034 A 
ATOM     52  C   UNL A   1      42.284  29.627  32.532  1.00  0.00     0.034 A 
ATOM     53  C   UNL A   1      44.014  24.491  29.081  1.00  0.00     0.049 A 
ATOM     54  C   UNL A   1      43.051  28.426  33.051  1.00  0.00     0.074 A 
ATOM     55  C   UNL A   1      45.119  25.309  28.932  1.00  0.00     0.029 A 
ATOM     56  N   UNL A   1      43.794  24.377  30.453  1.00  0.00    -0.354 N 
ATOM     57  N   UNL A   1      43.438  27.418  32.318  1.00  0.00    -0.248 NA
ATOM     58  C   UNL A   1      43.433  28.281  34.451  1.00  0.00     0.031 C 
ATOM     59  C   UNL A   1      45.476  25.791  30.224  1.00  0.00     0.029 A 
ATOM     60  C   UNL A   1      44.630  25.217  31.160  1.00  0.00     0.049 A 
ATOM     61  H   UNL A   1      43.130  23.776  30.863  1.00  0.00     0.167 HD
ATOM     62  C   UNL A   1      44.075  26.494  33.107  1.00  0.00     0.074 A 
ATOM     63  C   UNL A   1      44.072  27.099  34.430  1.00  0.00     0.031 C 
ATOM     64  C   UNL A   1      44.536  25.303  32.615  1.00  0.00     0.034 A 
BRANCH  51  65
ATOM     65  C   UNL A   1      43.302  23.096  26.967  1.00  0.00     0.023 A 
ATOM     66  C   UNL A   1      42.799  21.775  26.956  1.00  0.00     0.031 A 
ATOM     67  C   UNL A   1      44.185  23.401  25.904  1.00  0.00     0.131 A 
ATOM     68  C   UNL A   1      43.175  20.850  25.960  1.00  0.00     0.055 A 
ATOM     69  C   UNL A   1      44.510  22.500  24.882  1.00  0.00     0.041 A 
ATOM     70  F   UNL A   1      44.847  24.560  25.818  1.00  0.00    -0.206 F 
ATOM     71  C   UNL A   1      44.013  21.212  24.910  1.00  0.00     0.022 A 
BRANCH  68  72
ATOM     72  S   UNL A   1      42.628  19.125  26.093  1.00  0.00     0.124 S 
ATOM     73  O   UNL A   1      42.511  18.952  27.538  1.00  0.00    -0.237 OA
ATOM     74  O   UNL A   1      41.383  19.134  25.336  1.00  0.00    -0.237 OA
ATOM     75  O   UNL A   1      43.720  18.374  25.473  1.00  0.00    -0.744 OA
ENDBRANCH  68  72
ENDBRANCH  51  65
BRANCH  52  76
ATOM     76  C   UNL A   1      40.959  30.078  33.063  1.00  0.00     0.023 A 
ATOM     77  C   UNL A   1      40.747  31.468  33.190  1.00  0.00     0.031 A 
ATOM     78  C   UNL A   1      39.831  29.245  33.051  1.00  0.00     0.131 A 
ATOM     79  C   UNL A   1      39.449  31.991  33.107  1.00  0.00     0.055 A 
ATOM     80  C   UNL A   1      38.533  29.775  33.059  1.00  0.00     0.041 A 
ATOM     81  F   UNL A   1      39.960  27.918  32.907  1.00  0.00    -0.206 F 
ATOM     82  C   UNL A   1      38.336  31.155  33.042  1.00  0.00     0.022 A 
BRANCH  79  83
ATOM     83  S   UNL A   1      39.278  33.775  32.838  1.00  0.00     0.124 S 
ATOM     84  O   UNL A   1      38.664  34.217  34.088  1.00  0.00    -0.237 OA
ATOM     85  O   UNL A   1      40.670  34.177  32.639  1.00  0.00    -0.237 OA
ATOM     86  O   UNL A   1      38.424  33.872  31.660  1.00  0.00    -0.744 OA
ENDBRANCH  79  83
ENDBRANCH  52  76
BRANCH  64  87
ATOM     87  C   UNL A   1      45.005  24.133  33.460  1.00  0.00     0.023 A 
ATOM     88  C   UNL A   1      46.328  23.977  33.901  1.00  0.00     0.031 A 
ATOM     89  C   UNL A   1      44.093  23.155  33.928  1.00  0.00     0.131 A 
ATOM     90  C   UNL A   1      46.724  22.860  34.657  1.00  0.00     0.055 A 
ATOM     91  C   UNL A   1      44.471  22.092  34.756  1.00  0.00     0.041 A 
ATOM     92  F   UNL A   1      42.791  23.193  33.609  1.00  0.00    -0.206 F 
ATOM     93  C   UNL A   1      45.799  21.925  35.109  1.00  0.00     0.022 A 
BRANCH  90  94
ATOM     94  S   UNL A   1      48.494  22.619  34.964  1.00  0.00     0.124 S 
ATOM     95  O   UNL A   1      48.596  22.924  36.389  1.00  0.00    -0.237 OA
ATOM     96  O   UNL A   1      48.688  21.219  34.602  1.00  0.00    -0.237 OA
ATOM     97  O   UNL A   1      49.135  23.587  34.076  1.00  0.00    -0.744 OA
ENDBRANCH  90  94
ENDBRANCH  64  87
ENDBRANCH  38  39
ENDBRANCH  30  33
ENDBRANCH  28  29
ENDBRANCH  27  28
ENDBRANCH   1  27
TORSDOF 17
ENDMDL
MODEL 3
REMARK VINA RESULT:     -12.9      1.821      2.649
REMARK SMILES Cc1ccc(C(=O)NCCCCNC(=O)c2ccc(-c3c4nc(c(-c5cc(S(=O)(=O)[O-])ccc5F)c5ccc([nH]5)c(-c5cc(S(=O)(=O)[O-])ccc5F)c5nc(c(-c6cc(S(=O)(=O)[O-])ccc6F)c6ccc3[nH]6)C=C5)C=C4)cc2)c(Oc2cccc(F)c2C(N)=O)c1
REMARK SMILES IDX 10 1 9 2 8 3 6 4 7 5 5 7 1 8 2 9 3 10 91 11 4 12 79 13 80 14
REMARK SMILES IDX 81 15 82 16 87 17 83 18 85 19 84 20 86 21 88 22 89 23 90 24
REMARK SMILES IDX 11 27 12 28 13 29 14 30 15 32 16 33 17 34 78 35 18 36 77 37
REMARK SMILES IDX 19 38 20 39 21 40 71 41 22 42 76 43 70 44 72 45 23 46 75 47
REMARK SMILES IDX 69 48 68 49 24 51 56 52 36 53 55 54 37 55 40 56 54 57 73 58
REMARK SMILES IDX 38 59 39 60 53 62 74 63 41 64 25 65 26 66 34 67 27 68 33 69
REMARK SMILES IDX 35 70 32 71 28 72 29 73 30 74 31 75 57 76 58 77 66 78 59 79
REMARK SMILES IDX 65 80 67 81 64 82 60 83 61 84 62 85 63 86 42 87 43 88 51 89
REMARK SMILES IDX 44 90 50 91 52 92 49 93 45 94 46 95 47 96 48 97
REMARK H PARENT 8 6 89 25 89 26 13 31 72 50 40 61
REMARK Flexibility Score: inf
ROOT
ATOM      1  C   UNL A   1      33.276  27.984  26.396  1.00  0.00     0.023 C 
ENDROOT
BRANCH   1   2
ATOM      2  C   UNL A   1      33.687  26.683  25.696  1.00  0.00     0.116 C 
BRANCH   2   3
ATOM      3  N   UNL A   1      32.864  25.529  26.026  1.00  0.00    -0.352 N 
ATOM      4  C   UNL A   1      33.064  24.188  26.258  1.00  0.00     0.255 C 
ATOM      5  O   UNL A   1      32.056  23.573  26.630  1.00  0.00    -0.269 OA
ATOM      6  H   UNL A   1      31.913  25.772  26.105  1.00  0.00     0.163 HD
BRANCH   4   7
ATOM      7  C   UNL A   1      34.306  23.373  26.027  1.00  0.00     0.082 A 
ATOM      8  C   UNL A   1      38.170  21.492  25.332  1.00  0.00     0.044 C 
ATOM      9  C   UNL A   1      36.846  22.158  25.546  1.00  0.00    -0.047 A 
ATOM     10  C   UNL A   1      36.727  23.544  25.594  1.00  0.00     0.004 A 
ATOM     11  C   UNL A   1      35.688  21.390  25.663  1.00  0.00     0.051 A 
ATOM     12  C   UNL A   1      35.477  24.137  25.822  1.00  0.00     0.018 A 
ATOM     13  C   UNL A   1      34.440  21.980  25.936  1.00  0.00     0.140 A 
BRANCH  13  14
ATOM     14  O   UNL A   1      33.337  21.183  26.028  1.00  0.00    -0.456 OA
BRANCH  14  15
ATOM     15  C   UNL A   1      32.881  20.487  24.924  1.00  0.00     0.143 A 
ATOM     16  C   UNL A   1      32.910  19.100  25.149  1.00  0.00     0.048 A 
ATOM     17  C   UNL A   1      32.527  20.987  23.653  1.00  0.00     0.117 A 
ATOM     18  C   UNL A   1      32.576  18.209  24.137  1.00  0.00     0.007 A 
ATOM     19  C   UNL A   1      32.236  20.060  22.640  1.00  0.00     0.139 A 
ATOM     20  C   UNL A   1      32.261  18.689  22.873  1.00  0.00     0.040 A 
ATOM     21  F   UNL A   1      31.961  20.470  21.391  1.00  0.00    -0.206 F 
BRANCH  17  22
ATOM     22  C   UNL A   1      32.367  22.411  23.253  1.00  0.00     0.255 C 
ATOM     23  N   UNL A   1      31.202  23.066  23.517  1.00  0.00    -0.365 N 
ATOM     24  O   UNL A   1      33.266  23.023  22.682  1.00  0.00    -0.269 OA
ATOM     25  H   UNL A   1      30.466  22.598  23.973  1.00  0.00     0.159 HD
ATOM     26  H   UNL A   1      31.095  24.008  23.252  1.00  0.00     0.159 HD
ENDBRANCH  17  22
ENDBRANCH  14  15
ENDBRANCH  13  14
ENDBRANCH   4   7
ENDBRANCH   2   3
ENDBRANCH   1   2
BRANCH   1  27
ATOM     27  C   UNL A   1      34.353  29.052  26.519  1.00  0.00     0.023 C 
BRANCH  27  28
ATOM     28  C   UNL A   1      34.240  29.946  27.745  1.00  0.00     0.116 C 
BRANCH  28  29
ATOM     29  N   UNL A   1      35.095  31.118  27.781  1.00  0.00    -0.352 N 
ATOM     30  C   UNL A   1      36.431  31.211  28.165  1.00  0.00     0.251 C 
ATOM     31  H   UNL A   1      34.675  31.960  27.496  1.00  0.00     0.163 HD
ATOM     32  O   UNL A   1      36.928  32.300  28.369  1.00  0.00    -0.269 OA
BRANCH  30  33
ATOM     33  C   UNL A   1      37.278  29.981  28.232  1.00  0.00     0.039 A 
ATOM     34  C   UNL A   1      37.230  29.207  29.402  1.00  0.00     0.014 A 
ATOM     35  C   UNL A   1      38.229  29.688  27.262  1.00  0.00     0.014 A 
ATOM     36  C   UNL A   1      38.267  28.317  29.690  1.00  0.00     0.010 A 
ATOM     37  C   UNL A   1      39.318  28.917  27.597  1.00  0.00     0.010 A 
ATOM     38  C   UNL A   1      39.359  28.270  28.833  1.00  0.00    -0.014 A 
BRANCH  38  39
ATOM     39  C   UNL A   1      40.645  27.659  29.135  1.00  0.00     0.031 A 
ATOM     40  C   UNL A   1      40.884  26.244  28.798  1.00  0.00     0.074 A 
ATOM     41  C   UNL A   1      41.662  28.477  29.481  1.00  0.00     0.049 A 
ATOM     42  N   UNL A   1      41.950  25.592  29.105  1.00  0.00    -0.248 NA
ATOM     43  C   UNL A   1      39.882  25.414  28.125  1.00  0.00     0.031 C 
ATOM     44  C   UNL A   1      43.099  28.228  29.397  1.00  0.00     0.029 A 
ATOM     45  N   UNL A   1      41.560  29.633  30.248  1.00  0.00    -0.354 N 
ATOM     46  C   UNL A   1      41.923  24.408  28.406  1.00  0.00     0.074 A 
ATOM     47  C   UNL A   1      40.568  24.281  27.941  1.00  0.00     0.031 C 
ATOM     48  C   UNL A   1      43.733  29.041  30.260  1.00  0.00     0.029 A 
ATOM     49  C   UNL A   1      42.703  29.685  31.061  1.00  0.00     0.049 A 
ATOM     50  H   UNL A   1      40.826  30.289  30.225  1.00  0.00     0.167 HD
ATOM     51  C   UNL A   1      43.100  23.765  28.178  1.00  0.00     0.034 A 
ATOM     52  C   UNL A   1      42.579  29.530  32.415  1.00  0.00     0.034 A 
ATOM     53  C   UNL A   1      44.143  24.267  29.077  1.00  0.00     0.049 A 
ATOM     54  C   UNL A   1      43.321  28.324  32.956  1.00  0.00     0.074 A 
ATOM     55  C   UNL A   1      45.267  25.053  28.896  1.00  0.00     0.029 A 
ATOM     56  N   UNL A   1      43.934  24.193  30.453  1.00  0.00    -0.354 N 
ATOM     57  N   UNL A   1      43.675  27.287  32.244  1.00  0.00    -0.248 NA
ATOM     58  C   UNL A   1      43.715  28.204  34.355  1.00  0.00     0.031 C 
ATOM     59  C   UNL A   1      45.649  25.558  30.172  1.00  0.00     0.029 A 
ATOM     60  C   UNL A   1      44.799  25.029  31.130  1.00  0.00     0.049 A 
ATOM     61  H   UNL A   1      43.260  23.620  30.885  1.00  0.00     0.167 HD
ATOM     62  C   UNL A   1      44.297  26.368  33.051  1.00  0.00     0.074 A 
ATOM     63  C   UNL A   1      44.323  27.006  34.357  1.00  0.00     0.031 C 
ATOM     64  C   UNL A   1      44.723  25.154  32.584  1.00  0.00     0.034 A 
BRANCH  51  65
ATOM     65  C   UNL A   1      43.373  22.838  27.006  1.00  0.00     0.023 A 
ATOM     66  C   UNL A   1      42.778  21.557  27.000  1.00  0.00     0.031 A 
ATOM     67  C   UNL A   1      44.302  23.065  25.962  1.00  0.00     0.131 A 
ATOM     68  C   UNL A   1      43.112  20.592  26.026  1.00  0.00     0.055 A 
ATOM     69  C   UNL A   1      44.586  22.128  24.960  1.00  0.00     0.041 A 
ATOM     70  F   UNL A   1      45.046  24.173  25.877  1.00  0.00    -0.206 F 
ATOM     71  C   UNL A   1      43.998  20.879  24.992  1.00  0.00     0.022 A 
BRANCH  68  72
ATOM     72  S   UNL A   1      42.440  18.913  26.167  1.00  0.00     0.124 S 
ATOM     73  O   UNL A   1      42.610  18.634  27.590  1.00  0.00    -0.237 OA
ATOM     74  O   UNL A   1      41.072  19.083  25.695  1.00  0.00    -0.237 OA
ATOM     75  O   UNL A   1      43.302  18.127  25.283  1.00  0.00    -0.744 OA
ENDBRANCH  68  72
ENDBRANCH  51  65
BRANCH  52  76
ATOM     76  C   UNL A   1      41.272  30.028  32.947  1.00  0.00     0.023 A 
ATOM     77  C   UNL A   1      41.093  31.425  33.033  1.00  0.00     0.031 A 
ATOM     78  C   UNL A   1      40.126  29.221  32.974  1.00  0.00     0.131 A 
ATOM     79  C   UNL A   1      39.806  31.976  32.950  1.00  0.00     0.055 A 
ATOM     80  C   UNL A   1      38.839  29.780  32.982  1.00  0.00     0.041 A 
ATOM     81  F   UNL A   1      40.223  27.888  32.871  1.00  0.00    -0.206 F 
ATOM     82  C   UNL A   1      38.674  31.164  32.924  1.00  0.00     0.022 A 
BRANCH  79  83
ATOM     83  S   UNL A   1      39.672  33.754  32.626  1.00  0.00     0.124 S 
ATOM     84  O   UNL A   1      38.582  34.146  33.516  1.00  0.00    -0.237 OA
ATOM     85  O   UNL A   1      41.002  34.223  33.010  1.00  0.00    -0.237 OA
ATOM     86  O   UNL A   1      39.368  33.830  31.202  1.00  0.00    -0.744 OA
ENDBRANCH  79  83
ENDBRANCH  52  76
BRANCH  64  87
ATOM     87  C   UNL A   1      45.171  23.993  33.453  1.00  0.00     0.023 A 
ATOM     88  C   UNL A   1      46.470  23.871  33.972  1.00  0.00     0.031 A 
ATOM     89  C   UNL A   1      44.259  22.991  33.866  1.00  0.00     0.131 A 
ATOM     90  C   UNL A   1      46.849  22.762  34.748  1.00  0.00     0.055 A 
ATOM     91  C   UNL A   1      44.614  21.936  34.713  1.00  0.00     0.041 A 
ATOM     92  F   UNL A   1      42.977  22.997  33.470  1.00  0.00    -0.206 F 
ATOM     93  C   UNL A   1      45.923  21.802  35.143  1.00  0.00     0.022 A 
BRANCH  90  94
ATOM     94  S   UNL A   1      48.604  22.565  35.158  1.00  0.00     0.124 S 
ATOM     95  O   UNL A   1      48.553  22.374  36.605  1.00  0.00    -0.237 OA
ATOM     96  O   UNL A   1      48.979  21.390  34.378  1.00  0.00    -0.237 OA
ATOM     97  O   UNL A   1      49.205  23.822  34.720  1.00  0.00    -0.744 OA
ENDBRANCH  90  94
ENDBRANCH  64  87
ENDBRANCH  38  39
ENDBRANCH  30  33
ENDBRANCH  28  29
ENDBRANCH  27  28
ENDBRANCH   1  27
TORSDOF 17
ENDMDL
