MODEL 1
REMARK VINA RESULT:     -13.2      0.000      0.000
REMARK SMILES CC1(C)[C@H](C(=O)N(Cc2ccccc2)Cc2ccccc2)CC[C@@]1(C)C(=O)NCCCCNC(=O)c1ccc(-c2c3nc(c(-c4cc(S(=O)(=O)[O-])ccc4F)c4ccc([nH]4)c(-c4cc(S(=O)(=O)[O-])ccc4F)c4nc(c(-c5cc(S(=O)(=O)[O-])ccc5F)c5ccc2[nH]5)C=C4)C=C3)cc1
REMARK SMILES IDX 30 1 29 2 28 3 26 4 27 5 24 7 1 8 2 9 3 10 4 11 22 12 23 13
REMARK SMILES IDX 25 14 5 15 6 16 7 17 8 18 9 19 10 20 14 21 11 22 13 23 12 24
REMARK SMILES IDX 15 25 16 26 17 27 21 28 18 29 20 30 19 31 31 32 32 33 33 34
REMARK SMILES IDX 34 35 35 37 36 38 37 39 98 40 38 41 97 42 39 43 40 44 41 45
REMARK SMILES IDX 91 46 42 47 96 48 90 49 92 50 43 51 95 52 89 53 88 54 44 56
REMARK SMILES IDX 76 57 56 58 75 59 57 60 60 61 74 62 93 63 58 64 59 65 73 67
REMARK SMILES IDX 94 68 61 69 45 70 46 71 54 72 47 73 53 74 55 75 52 76 48 77
REMARK SMILES IDX 49 78 50 79 51 80 77 81 78 82 86 83 79 84 85 85 87 86 84 87
REMARK SMILES IDX 80 88 81 89 82 90 83 91 62 92 63 93 71 94 64 95 70 96 72 97
REMARK SMILES IDX 69 98 65 99 66 100 67 101 68 102
REMARK H PARENT 28 6 33 36 92 55 60 66
REMARK Flexibility Score: inf
ROOT
ATOM      1  C   UNL A   1      32.673  29.702  26.700  1.00  0.00     0.023 C 
ENDROOT
BRANCH   1   2
ATOM      2  C   UNL A   1      32.740  29.374  25.207  1.00  0.00     0.116 C 
BRANCH   2   3
ATOM      3  N   UNL A   1      31.478  28.818  24.770  1.00  0.00    -0.356 N 
ATOM      4  C   UNL A   1      31.184  27.782  23.942  1.00  0.00     0.226 C 
ATOM      5  O   UNL A   1      30.035  27.780  23.487  1.00  0.00    -0.274 OA
ATOM      6  H   UNL A   1      30.688  29.273  25.141  1.00  0.00     0.163 HD
BRANCH   4   7
ATOM      7  C   UNL A   1      32.155  26.602  23.681  1.00  0.00     0.052 C 
ATOM      8  C   UNL A   1      31.112  25.842  26.002  1.00  0.00     0.013 C 
ATOM      9  C   UNL A   1      32.197  25.578  24.922  1.00  0.00    -0.010 C 
ATOM     10  C   UNL A   1      33.517  25.638  25.676  1.00  0.00     0.013 C 
ATOM     11  C   UNL A   1      31.873  24.193  24.271  1.00  0.00     0.085 C 
ATOM     12  C   UNL A   1      32.102  24.322  22.778  1.00  0.00     0.015 C 
ATOM     13  C   UNL A   1      31.566  25.726  22.523  1.00  0.00     0.018 C 
ATOM     14  C   UNL A   1      33.530  27.056  23.133  1.00  0.00     0.022 C 
BRANCH  11  15
ATOM     15  C   UNL A   1      32.204  22.842  24.917  1.00  0.00     0.226 C 
ATOM     16  O   UNL A   1      31.259  22.308  25.526  1.00  0.00    -0.275 OA
ATOM     17  N   UNL A   1      33.420  22.173  24.846  1.00  0.00    -0.334 N 
BRANCH  17  18
ATOM     18  C   UNL A   1      34.566  22.454  23.960  1.00  0.00     0.155 C 
BRANCH  18  19
ATOM     19  C   UNL A   1      35.949  22.532  24.599  1.00  0.00    -0.029 A 
ATOM     20  C   UNL A   1      36.863  21.471  24.612  1.00  0.00     0.005 A 
ATOM     21  C   UNL A   1      36.369  23.740  25.189  1.00  0.00     0.005 A 
ATOM     22  C   UNL A   1      38.070  21.556  25.315  1.00  0.00     0.000 A 
ATOM     23  C   UNL A   1      37.567  23.827  25.905  1.00  0.00     0.000 A 
ATOM     24  C   UNL A   1      38.409  22.724  25.987  1.00  0.00     0.000 A 
ENDBRANCH  18  19
ENDBRANCH  17  18
BRANCH  17  25
ATOM     25  C   UNL A   1      33.428  20.871  25.534  1.00  0.00     0.155 C 
BRANCH  25  26
ATOM     26  C   UNL A   1      33.386  19.651  24.627  1.00  0.00    -0.029 A 
ATOM     27  C   UNL A   1      34.387  18.676  24.747  1.00  0.00     0.005 A 
ATOM     28  C   UNL A   1      32.380  19.451  23.668  1.00  0.00     0.005 A 
ATOM     29  C   UNL A   1      34.397  17.554  23.915  1.00  0.00     0.000 A 
ATOM     30  C   UNL A   1      32.390  18.331  22.835  1.00  0.00     0.000 A 
ATOM     31  C   UNL A   1      33.400  17.385  22.956  1.00  0.00     0.000 A 
ENDBRANCH  25  26
ENDBRANCH  17  25
ENDBRANCH  11  15
ENDBRANCH   4   7
ENDBRANCH   2   3
ENDBRANCH   1   2
BRANCH   1  32
ATOM     32  C   UNL A   1      32.177  31.122  26.996  1.00  0.00     0.023 C 
BRANCH  32  33
ATOM     33  C   UNL A   1      33.269  32.101  27.407  1.00  0.00     0.116 C 
BRANCH  33  34
ATOM     34  N   UNL A   1      32.774  33.455  27.608  1.00  0.00    -0.352 N 
ATOM     35  C   UNL A   1      33.192  34.373  28.545  1.00  0.00     0.251 C 
ATOM     36  H   UNL A   1      32.055  33.749  27.004  1.00  0.00     0.163 HD
ATOM     37  O   UNL A   1      32.612  35.437  28.680  1.00  0.00    -0.269 OA
BRANCH  35  38
ATOM     38  C   UNL A   1      34.335  34.004  29.404  1.00  0.00     0.039 A 
ATOM     39  C   UNL A   1      34.112  33.199  30.522  1.00  0.00     0.014 A 
ATOM     40  C   UNL A   1      35.628  34.380  29.033  1.00  0.00     0.014 A 
ATOM     41  C   UNL A   1      35.205  32.711  31.240  1.00  0.00     0.010 A 
ATOM     42  C   UNL A   1      36.713  33.834  29.706  1.00  0.00     0.010 A 
ATOM     43  C   UNL A   1      36.513  32.997  30.816  1.00  0.00    -0.014 A 
BRANCH  43  44
ATOM     44  C   UNL A   1      37.700  32.470  31.530  1.00  0.00     0.031 A 
ATOM     45  C   UNL A   1      38.469  31.328  30.928  1.00  0.00     0.074 A 
ATOM     46  C   UNL A   1      38.027  32.946  32.747  1.00  0.00     0.049 A 
ATOM     47  N   UNL A   1      39.433  30.610  31.442  1.00  0.00    -0.248 NA
ATOM     48  C   UNL A   1      38.057  30.913  29.579  1.00  0.00     0.031 C 
ATOM     49  C   UNL A   1      37.341  34.036  33.443  1.00  0.00     0.029 A 
ATOM     50  N   UNL A   1      39.013  32.563  33.619  1.00  0.00    -0.354 N 
ATOM     51  C   UNL A   1      39.724  29.639  30.489  1.00  0.00     0.074 A 
ATOM     52  C   UNL A   1      38.781  29.820  29.406  1.00  0.00     0.031 C 
ATOM     53  C   UNL A   1      37.945  34.251  34.623  1.00  0.00     0.029 A 
ATOM     54  C   UNL A   1      39.025  33.283  34.790  1.00  0.00     0.049 A 
ATOM     55  H   UNL A   1      39.651  31.839  33.426  1.00  0.00     0.167 HD
ATOM     56  C   UNL A   1      40.704  28.701  30.506  1.00  0.00     0.034 A 
ATOM     57  C   UNL A   1      39.813  33.167  35.877  1.00  0.00     0.034 A 
ATOM     58  C   UNL A   1      41.641  28.550  31.593  1.00  0.00     0.049 A 
ATOM     59  C   UNL A   1      40.871  32.094  35.897  1.00  0.00     0.074 A 
ATOM     60  C   UNL A   1      42.701  27.669  31.705  1.00  0.00     0.029 A 
ATOM     61  N   UNL A   1      41.622  29.299  32.764  1.00  0.00    -0.354 N 
ATOM     62  N   UNL A   1      41.157  31.197  34.981  1.00  0.00    -0.248 NA
ATOM     63  C   UNL A   1      41.715  32.019  37.097  1.00  0.00     0.031 C 
ATOM     64  C   UNL A   1      43.287  27.846  32.964  1.00  0.00     0.029 A 
ATOM     65  C   UNL A   1      42.636  28.886  33.612  1.00  0.00     0.049 A 
ATOM     66  H   UNL A   1      40.980  30.019  32.961  1.00  0.00     0.167 HD
ATOM     67  C   UNL A   1      42.243  30.480  35.477  1.00  0.00     0.074 A 
ATOM     68  C   UNL A   1      42.553  31.044  36.776  1.00  0.00     0.031 C 
ATOM     69  C   UNL A   1      42.931  29.461  34.903  1.00  0.00     0.034 A 
BRANCH  56  70
ATOM     70  C   UNL A   1      40.770  27.761  29.325  1.00  0.00     0.023 A 
ATOM     71  C   UNL A   1      41.721  27.932  28.301  1.00  0.00     0.031 A 
ATOM     72  C   UNL A   1      39.819  26.737  29.168  1.00  0.00     0.131 A 
ATOM     73  C   UNL A   1      41.622  27.185  27.119  1.00  0.00     0.055 A 
ATOM     74  C   UNL A   1      39.792  25.924  28.032  1.00  0.00     0.041 A 
ATOM     75  F   UNL A   1      38.874  26.533  30.099  1.00  0.00    -0.206 F 
ATOM     76  C   UNL A   1      40.681  26.163  26.987  1.00  0.00     0.022 A 
BRANCH  73  77
ATOM     77  S   UNL A   1      42.597  27.716  25.684  1.00  0.00     0.124 S 
ATOM     78  O   UNL A   1      42.376  26.611  24.753  1.00  0.00    -0.237 OA
ATOM     79  O   UNL A   1      41.973  28.984  25.330  1.00  0.00    -0.237 OA
ATOM     80  O   UNL A   1      43.957  27.813  26.210  1.00  0.00    -0.744 OA
ENDBRANCH  73  77
ENDBRANCH  56  70
BRANCH  57  81
ATOM     81  C   UNL A   1      39.645  34.096  37.028  1.00  0.00     0.023 A 
ATOM     82  C   UNL A   1      39.087  33.645  38.234  1.00  0.00     0.031 A 
ATOM     83  C   UNL A   1      40.026  35.446  36.939  1.00  0.00     0.131 A 
ATOM     84  C   UNL A   1      38.894  34.543  39.294  1.00  0.00     0.055 A 
ATOM     85  C   UNL A   1      39.870  36.327  38.011  1.00  0.00     0.041 A 
ATOM     86  F   UNL A   1      40.573  35.925  35.811  1.00  0.00    -0.206 F 
ATOM     87  C   UNL A   1      39.293  35.877  39.196  1.00  0.00     0.022 A 
BRANCH  84  88
ATOM     88  S   UNL A   1      38.068  33.947  40.796  1.00  0.00     0.124 S 
ATOM     89  O   UNL A   1      39.196  33.465  41.584  1.00  0.00    -0.237 OA
ATOM     90  O   UNL A   1      37.414  35.158  41.283  1.00  0.00    -0.237 OA
ATOM     91  O   UNL A   1      37.165  32.912  40.298  1.00  0.00    -0.744 OA
ENDBRANCH  84  88
ENDBRANCH  57  81
BRANCH  69  92
ATOM     92  C   UNL A   1      44.133  28.939  35.647  1.00  0.00     0.023 A 
ATOM     93  C   UNL A   1      44.036  27.903  36.592  1.00  0.00     0.031 A 
ATOM     94  C   UNL A   1      45.404  29.484  35.386  1.00  0.00     0.131 A 
ATOM     95  C   UNL A   1      45.186  27.469  37.269  1.00  0.00     0.055 A 
ATOM     96  C   UNL A   1      46.550  29.015  36.026  1.00  0.00     0.041 A 
ATOM     97  F   UNL A   1      45.550  30.476  34.493  1.00  0.00    -0.206 F 
ATOM     98  C   UNL A   1      46.444  28.007  36.980  1.00  0.00     0.022 A 
BRANCH  95  99
ATOM     99  S   UNL A   1      45.013  26.226  38.579  1.00  0.00     0.124 S 
ATOM    100  O   UNL A   1      46.279  26.361  39.292  1.00  0.00    -0.237 OA
ATOM    101  O   UNL A   1      43.827  26.685  39.292  1.00  0.00    -0.237 OA
ATOM    102  O   UNL A   1      44.846  24.974  37.844  1.00  0.00    -0.744 OA
ENDBRANCH  95  99
ENDBRANCH  69  92
ENDBRANCH  43  44
ENDBRANCH  35  38
ENDBRANCH  33  34
ENDBRANCH  32  33
ENDBRANCH   1  32
TORSDOF 19
ENDMDL
MODEL 2
REMARK VINA RESULT:     -12.9      3.104      8.174
REMARK SMILES CC1(C)[C@H](C(=O)N(Cc2ccccc2)Cc2ccccc2)CC[C@@]1(C)C(=O)NCCCCNC(=O)c1ccc(-c2c3nc(c(-c4cc(S(=O)(=O)[O-])ccc4F)c4ccc([nH]4)c(-c4cc(S(=O)(=O)[O-])ccc4F)c4nc(c(-c5cc(S(=O)(=O)[O-])ccc5F)c5ccc2[nH]5)C=C4)C=C3)cc1
REMARK SMILES IDX 30 1 29 2 28 3 26 4 27 5 24 7 1 8 2 9 3 10 4 11 22 12 23 13
REMARK SMILES IDX 25 14 5 15 6 16 7 17 8 18 9 19 10 20 14 21 11 22 13 23 12 24
REMARK SMILES IDX 15 25 16 26 17 27 21 28 18 29 20 30 19 31 31 32 32 33 33 34
REMARK SMILES IDX 34 35 35 37 36 38 37 39 98 40 38 41 97 42 39 43 40 44 41 45
REMARK SMILES IDX 91 46 42 47 96 48 90 49 92 50 43 51 95 52 89 53 88 54 44 56
REMARK SMILES IDX 76 57 56 58 75 59 57 60 60 61 74 62 93 63 58 64 59 65 73 67
REMARK SMILES IDX 94 68 61 69 45 70 46 71 54 72 47 73 53 74 55 75 52 76 48 77
REMARK SMILES IDX 49 78 50 79 51 80 77 81 78 82 86 83 79 84 85 85 87 86 84 87
REMARK SMILES IDX 80 88 81 89 82 90 83 91 62 92 63 93 71 94 64 95 70 96 72 97
REMARK SMILES IDX 69 98 65 99 66 100 67 101 68 102
REMARK H PARENT 28 6 33 36 92 55 60 66
REMARK Flexibility Score: inf
ROOT
ATOM      1  C   UNL A   1      31.401  29.208  26.064  1.00  0.00     0.023 C 
ENDROOT
BRANCH   1   2
ATOM      2  C   UNL A   1      31.950  29.367  24.644  1.00  0.00     0.116 C 
BRANCH   2   3
ATOM      3  N   UNL A   1      31.047  28.749  23.698  1.00  0.00    -0.356 N 
ATOM      4  C   UNL A   1      31.221  27.734  22.812  1.00  0.00     0.226 C 
ATOM      5  O   UNL A   1      30.384  27.677  21.905  1.00  0.00    -0.274 OA
ATOM      6  H   UNL A   1      30.141  29.135  23.696  1.00  0.00     0.163 HD
BRANCH   4   7
ATOM      7  C   UNL A   1      32.298  26.633  22.984  1.00  0.00     0.052 C 
ATOM      8  C   UNL A   1      30.521  25.829  24.785  1.00  0.00     0.013 C 
ATOM      9  C   UNL A   1      31.946  25.637  24.197  1.00  0.00    -0.010 C 
ATOM     10  C   UNL A   1      32.882  25.817  25.383  1.00  0.00     0.013 C 
ATOM     11  C   UNL A   1      31.986  24.219  23.538  1.00  0.00     0.085 C 
ATOM     12  C   UNL A   1      32.745  24.342  22.231  1.00  0.00     0.015 C 
ATOM     13  C   UNL A   1      32.246  25.693  21.732  1.00  0.00     0.018 C 
ATOM     14  C   UNL A   1      33.744  27.189  22.965  1.00  0.00     0.022 C 
BRANCH  11  15
ATOM     15  C   UNL A   1      32.145  22.910  24.321  1.00  0.00     0.226 C 
ATOM     16  O   UNL A   1      31.090  22.459  24.804  1.00  0.00    -0.275 OA
ATOM     17  N   UNL A   1      33.323  22.195  24.496  1.00  0.00    -0.334 N 
BRANCH  17  18
ATOM     18  C   UNL A   1      34.608  22.368  23.790  1.00  0.00     0.155 C 
BRANCH  18  19
ATOM     19  C   UNL A   1      35.860  22.557  24.642  1.00  0.00    -0.029 A 
ATOM     20  C   UNL A   1      36.094  23.679  25.447  1.00  0.00     0.005 A 
ATOM     21  C   UNL A   1      36.839  21.544  24.662  1.00  0.00     0.005 A 
ATOM     22  C   UNL A   1      37.311  23.857  26.113  1.00  0.00     0.000 A 
ATOM     23  C   UNL A   1      38.062  21.723  25.316  1.00  0.00     0.000 A 
ATOM     24  C   UNL A   1      38.307  22.893  26.024  1.00  0.00     0.000 A 
ENDBRANCH  18  19
ENDBRANCH  17  18
BRANCH  17  25
ATOM     25  C   UNL A   1      33.160  20.950  25.265  1.00  0.00     0.155 C 
BRANCH  25  26
ATOM     26  C   UNL A   1      33.280  19.665  24.462  1.00  0.00    -0.029 A 
ATOM     27  C   UNL A   1      34.343  18.789  24.730  1.00  0.00     0.005 A 
ATOM     28  C   UNL A   1      32.367  19.307  23.457  1.00  0.00     0.005 A 
ATOM     29  C   UNL A   1      34.502  17.611  23.997  1.00  0.00     0.000 A 
ATOM     30  C   UNL A   1      32.526  18.131  22.723  1.00  0.00     0.000 A 
ATOM     31  C   UNL A   1      33.595  17.285  22.990  1.00  0.00     0.000 A 
ENDBRANCH  25  26
ENDBRANCH  17  25
ENDBRANCH  11  15
ENDBRANCH   4   7
ENDBRANCH   2   3
ENDBRANCH   1   2
BRANCH   1  32
ATOM     32  C   UNL A   1      32.464  28.813  27.095  1.00  0.00     0.023 C 
BRANCH  32  33
ATOM     33  C   UNL A   1      33.853  29.371  26.816  1.00  0.00     0.116 C 
BRANCH  33  34
ATOM     34  N   UNL A   1      33.971  30.787  27.127  1.00  0.00    -0.352 N 
ATOM     35  C   UNL A   1      34.977  31.414  27.828  1.00  0.00     0.251 C 
ATOM     36  H   UNL A   1      33.246  31.366  26.798  1.00  0.00     0.163 HD
ATOM     37  O   UNL A   1      34.896  32.596  28.117  1.00  0.00    -0.269 OA
BRANCH  35  38
ATOM     38  C   UNL A   1      36.131  30.596  28.251  1.00  0.00     0.039 A 
ATOM     39  C   UNL A   1      37.295  30.615  27.482  1.00  0.00     0.014 A 
ATOM     40  C   UNL A   1      36.078  29.897  29.460  1.00  0.00     0.014 A 
ATOM     41  C   UNL A   1      38.441  29.979  27.963  1.00  0.00     0.010 A 
ATOM     42  C   UNL A   1      37.238  29.329  29.968  1.00  0.00     0.010 A 
ATOM     43  C   UNL A   1      38.429  29.362  29.224  1.00  0.00    -0.014 A 
BRANCH  43  44
ATOM     44  C   UNL A   1      39.634  28.706  29.786  1.00  0.00     0.031 A 
ATOM     45  C   UNL A   1      40.305  29.312  30.986  1.00  0.00     0.074 A 
ATOM     46  C   UNL A   1      40.173  27.636  29.170  1.00  0.00     0.049 A 
ATOM     47  N   UNL A   1      41.446  29.006  31.546  1.00  0.00    -0.248 NA
ATOM     48  C   UNL A   1      39.611  30.450  31.607  1.00  0.00     0.031 C 
ATOM     49  C   UNL A   1      39.626  26.974  27.985  1.00  0.00     0.029 A 
ATOM     50  N   UNL A   1      41.313  26.926  29.450  1.00  0.00    -0.354 N 
ATOM     51  C   UNL A   1      41.620  29.932  32.569  1.00  0.00     0.074 A 
ATOM     52  C   UNL A   1      40.504  30.851  32.496  1.00  0.00     0.031 C 
ATOM     53  C   UNL A   1      40.415  25.939  27.657  1.00  0.00     0.029 A 
ATOM     54  C   UNL A   1      41.550  25.894  28.575  1.00  0.00     0.049 A 
ATOM     55  H   UNL A   1      41.905  27.137  30.208  1.00  0.00     0.167 HD
ATOM     56  C   UNL A   1      42.607  29.995  33.498  1.00  0.00     0.034 A 
ATOM     57  C   UNL A   1      42.573  25.019  28.515  1.00  0.00     0.034 A 
ATOM     58  C   UNL A   1      43.702  29.057  33.558  1.00  0.00     0.049 A 
ATOM     59  C   UNL A   1      43.682  25.126  29.530  1.00  0.00     0.074 A 
ATOM     60  C   UNL A   1      44.734  28.990  34.476  1.00  0.00     0.029 A 
ATOM     61  N   UNL A   1      43.909  28.023  32.652  1.00  0.00    -0.354 N 
ATOM     62  N   UNL A   1      43.826  25.988  30.510  1.00  0.00    -0.248 NA
ATOM     63  C   UNL A   1      44.765  24.138  29.433  1.00  0.00     0.031 C 
ATOM     64  C   UNL A   1      45.595  27.954  34.093  1.00  0.00     0.029 A 
ATOM     65  C   UNL A   1      45.063  27.328  32.976  1.00  0.00     0.049 A 
ATOM     66  H   UNL A   1      43.320  27.815  31.891  1.00  0.00     0.167 HD
ATOM     67  C   UNL A   1      44.993  25.619  31.173  1.00  0.00     0.074 A 
ATOM     68  C   UNL A   1      45.518  24.462  30.474  1.00  0.00     0.031 C 
ATOM     69  C   UNL A   1      45.569  26.176  32.268  1.00  0.00     0.034 A 
BRANCH  56  70
ATOM     70  C   UNL A   1      42.543  31.135  34.487  1.00  0.00     0.023 A 
ATOM     71  C   UNL A   1      41.554  31.186  35.488  1.00  0.00     0.031 A 
ATOM     72  C   UNL A   1      43.418  32.230  34.378  1.00  0.00     0.131 A 
ATOM     73  C   UNL A   1      41.384  32.352  36.248  1.00  0.00     0.055 A 
ATOM     74  C   UNL A   1      43.309  33.346  35.211  1.00  0.00     0.041 A 
ATOM     75  F   UNL A   1      44.371  32.252  33.433  1.00  0.00    -0.206 F 
ATOM     76  C   UNL A   1      42.271  33.423  36.135  1.00  0.00     0.022 A 
BRANCH  73  77
ATOM     77  S   UNL A   1      39.864  32.526  37.223  1.00  0.00     0.124 S 
ATOM     78  O   UNL A   1      39.152  31.296  36.881  1.00  0.00    -0.237 OA
ATOM     79  O   UNL A   1      40.372  32.613  38.586  1.00  0.00    -0.237 OA
ATOM     80  O   UNL A   1      39.259  33.750  36.700  1.00  0.00    -0.744 OA
ENDBRANCH  73  77
ENDBRANCH  56  70
BRANCH  57  81
ATOM     81  C   UNL A   1      42.593  23.958  27.471  1.00  0.00     0.023 A 
ATOM     82  C   UNL A   1      42.004  22.707  27.713  1.00  0.00     0.031 A 
ATOM     83  C   UNL A   1      43.208  24.170  26.225  1.00  0.00     0.131 A 
ATOM     84  C   UNL A   1      42.071  21.702  26.736  1.00  0.00     0.055 A 
ATOM     85  C   UNL A   1      43.235  23.181  25.239  1.00  0.00     0.041 A 
ATOM     86  F   UNL A   1      43.776  25.352  25.940  1.00  0.00    -0.206 F 
ATOM     87  C   UNL A   1      42.671  21.934  25.497  1.00  0.00     0.022 A 
BRANCH  84  88
ATOM     88  S   UNL A   1      41.397  20.065  27.130  1.00  0.00     0.124 S 
ATOM     89  O   UNL A   1      42.609  19.256  27.206  1.00  0.00    -0.237 OA
ATOM     90  O   UNL A   1      40.711  20.315  28.394  1.00  0.00    -0.237 OA
ATOM     91  O   UNL A   1      40.523  19.775  25.996  1.00  0.00    -0.744 OA
ENDBRANCH  84  88
ENDBRANCH  57  81
BRANCH  69  92
ATOM     92  C   UNL A   1      46.795  25.494  32.821  1.00  0.00     0.023 A 
ATOM     93  C   UNL A   1      46.716  24.522  33.833  1.00  0.00     0.031 A 
ATOM     94  C   UNL A   1      48.064  25.818  32.306  1.00  0.00     0.131 A 
ATOM     95  C   UNL A   1      47.892  23.933  34.323  1.00  0.00     0.055 A 
ATOM     96  C   UNL A   1      49.223  25.194  32.764  1.00  0.00     0.041 A 
ATOM     97  F   UNL A   1      48.192  26.741  31.340  1.00  0.00    -0.206 F 
ATOM     98  C   UNL A   1      49.143  24.251  33.784  1.00  0.00     0.022 A 
BRANCH  95  99
ATOM     99  S   UNL A   1      47.776  22.781  35.720  1.00  0.00     0.124 S 
ATOM    100  O   UNL A   1      48.031  23.660  36.858  1.00  0.00    -0.237 OA
ATOM    101  O   UNL A   1      46.414  22.276  35.597  1.00  0.00    -0.237 OA
ATOM    102  O   UNL A   1      48.826  21.802  35.446  1.00  0.00    -0.744 OA
ENDBRANCH  95  99
ENDBRANCH  69  92
ENDBRANCH  43  44
ENDBRANCH  35  38
ENDBRANCH  33  34
ENDBRANCH  32  33
ENDBRANCH   1  32
TORSDOF 19
ENDMDL
MODEL 3
REMARK VINA RESULT:     -12.8      3.702      8.212
REMARK SMILES CC1(C)[C@H](C(=O)N(Cc2ccccc2)Cc2ccccc2)CC[C@@]1(C)C(=O)NCCCCNC(=O)c1ccc(-c2c3nc(c(-c4cc(S(=O)(=O)[O-])ccc4F)c4ccc([nH]4)c(-c4cc(S(=O)(=O)[O-])ccc4F)c4nc(c(-c5cc(S(=O)(=O)[O-])ccc5F)c5ccc2[nH]5)C=C4)C=C3)cc1
REMARK SMILES IDX 30 1 29 2 28 3 26 4 27 5 24 7 1 8 2 9 3 10 4 11 22 12 23 13
REMARK SMILES IDX 25 14 5 15 6 16 7 17 8 18 9 19 10 20 14 21 11 22 13 23 12 24
REMARK SMILES IDX 15 25 16 26 17 27 21 28 18 29 20 30 19 31 31 32 32 33 33 34
REMARK SMILES IDX 34 35 35 37 36 38 37 39 98 40 38 41 97 42 39 43 40 44 41 45
REMARK SMILES IDX 91 46 42 47 96 48 90 49 92 50 43 51 95 52 89 53 88 54 44 56
REMARK SMILES IDX 76 57 56 58 75 59 57 60 60 61 74 62 93 63 58 64 59 65 73 67
REMARK SMILES IDX 94 68 61 69 45 70 46 71 54 72 47 73 53 74 55 75 52 76 48 77
REMARK SMILES IDX 49 78 50 79 51 80 77 81 78 82 86 83 79 84 85 85 87 86 84 87
REMARK SMILES IDX 80 88 81 89 82 90 83 91 62 92 63 93 71 94 64 95 70 96 72 97
REMARK SMILES IDX 69 98 65 99 66 100 67 101 68 102
REMARK H PARENT 28 6 33 36 92 55 60 66
REMARK Flexibility Score: inf
ROOT
ATOM      1  C   UNL A   1      31.645  28.780  26.666  1.00  0.00     0.023 C 
ENDROOT
BRANCH   1   2
ATOM      2  C   UNL A   1      31.800  29.167  25.194  1.00  0.00     0.116 C 
BRANCH   2   3
ATOM      3  N   UNL A   1      30.785  28.507  24.404  1.00  0.00    -0.356 N 
ATOM      4  C   UNL A   1      30.858  27.502  23.494  1.00  0.00     0.226 C 
ATOM      5  O   UNL A   1      29.887  27.404  22.736  1.00  0.00    -0.274 OA
ATOM      6  H   UNL A   1      29.873  28.848  24.554  1.00  0.00     0.163 HD
BRANCH   4   7
ATOM      7  C   UNL A   1      32.000  26.453  23.476  1.00  0.00     0.052 C 
ATOM      8  C   UNL A   1      30.528  25.503  25.471  1.00  0.00     0.013 C 
ATOM      9  C   UNL A   1      31.866  25.405  24.688  1.00  0.00    -0.010 C 
ATOM     10  C   UNL A   1      32.948  25.598  25.742  1.00  0.00     0.013 C 
ATOM     11  C   UNL A   1      31.883  24.011  23.977  1.00  0.00     0.085 C 
ATOM     12  C   UNL A   1      32.448  24.213  22.585  1.00  0.00     0.015 C 
ATOM     13  C   UNL A   1      31.821  25.550  22.208  1.00  0.00     0.018 C 
ATOM     14  C   UNL A   1      33.401  27.085  23.281  1.00  0.00     0.022 C 
BRANCH  11  15
ATOM     15  C   UNL A   1      32.211  22.690  24.683  1.00  0.00     0.226 C 
ATOM     16  O   UNL A   1      31.248  22.151  25.257  1.00  0.00    -0.275 OA
ATOM     17  N   UNL A   1      33.445  22.051  24.699  1.00  0.00    -0.334 N 
BRANCH  17  18
ATOM     18  C   UNL A   1      34.630  22.335  23.867  1.00  0.00     0.155 C 
BRANCH  18  19
ATOM     19  C   UNL A   1      35.964  22.531  24.582  1.00  0.00    -0.029 A 
ATOM     20  C   UNL A   1      36.978  21.565  24.620  1.00  0.00     0.005 A 
ATOM     21  C   UNL A   1      36.229  23.757  25.222  1.00  0.00     0.005 A 
ATOM     22  C   UNL A   1      38.131  21.749  25.391  1.00  0.00     0.000 A 
ATOM     23  C   UNL A   1      37.373  23.941  26.004  1.00  0.00     0.000 A 
ATOM     24  C   UNL A   1      38.316  22.925  26.107  1.00  0.00     0.000 A 
ENDBRANCH  18  19
ENDBRANCH  17  18
BRANCH  17  25
ATOM     25  C   UNL A   1      33.448  20.772  25.428  1.00  0.00     0.155 C 
BRANCH  25  26
ATOM     26  C   UNL A   1      33.459  19.524  24.559  1.00  0.00    -0.029 A 
ATOM     27  C   UNL A   1      34.510  18.604  24.700  1.00  0.00     0.005 A 
ATOM     28  C   UNL A   1      32.458  19.244  23.616  1.00  0.00     0.005 A 
ATOM     29  C   UNL A   1      34.569  17.459  23.902  1.00  0.00     0.000 A 
ATOM     30  C   UNL A   1      32.517  18.101  22.817  1.00  0.00     0.000 A 
ATOM     31  C   UNL A   1      33.575  17.210  22.958  1.00  0.00     0.000 A 
ENDBRANCH  25  26
ENDBRANCH  17  25
ENDBRANCH  11  15
ENDBRANCH   4   7
ENDBRANCH   2   3
ENDBRANCH   1   2
BRANCH   1  32
ATOM     32  C   UNL A   1      32.969  28.755  27.439  1.00  0.00     0.023 C 
BRANCH  32  33
ATOM     33  C   UNL A   1      34.006  29.758  26.951  1.00  0.00     0.116 C 
BRANCH  33  34
ATOM     34  N   UNL A   1      33.931  31.036  27.642  1.00  0.00    -0.352 N 
ATOM     35  C   UNL A   1      34.808  31.540  28.576  1.00  0.00     0.251 C 
ATOM     36  H   UNL A   1      33.162  31.608  27.416  1.00  0.00     0.163 HD
ATOM     37  O   UNL A   1      34.565  32.581  29.165  1.00  0.00    -0.269 OA
BRANCH  35  38
ATOM     38  C   UNL A   1      36.024  30.757  28.868  1.00  0.00     0.039 A 
ATOM     39  C   UNL A   1      37.224  31.109  28.246  1.00  0.00     0.014 A 
ATOM     40  C   UNL A   1      35.982  29.746  29.830  1.00  0.00     0.014 A 
ATOM     41  C   UNL A   1      38.406  30.483  28.642  1.00  0.00     0.010 A 
ATOM     42  C   UNL A   1      37.169  29.177  30.271  1.00  0.00     0.010 A 
ATOM     43  C   UNL A   1      38.391  29.538  29.681  1.00  0.00    -0.014 A 
BRANCH  43  44
ATOM     44  C   UNL A   1      39.631  28.875  30.154  1.00  0.00     0.031 A 
ATOM     45  C   UNL A   1      40.337  29.422  31.362  1.00  0.00     0.074 A 
ATOM     46  C   UNL A   1      40.165  27.857  29.453  1.00  0.00     0.049 A 
ATOM     47  N   UNL A   1      41.505  29.108  31.857  1.00  0.00    -0.248 NA
ATOM     48  C   UNL A   1      39.647  30.505  32.078  1.00  0.00     0.031 C 
ATOM     49  C   UNL A   1      39.583  27.256  28.252  1.00  0.00     0.029 A 
ATOM     50  N   UNL A   1      41.328  27.156  29.645  1.00  0.00    -0.354 N 
ATOM     51  C   UNL A   1      41.703  29.974  32.927  1.00  0.00     0.074 A 
ATOM     52  C   UNL A   1      40.568  30.871  32.954  1.00  0.00     0.031 C 
ATOM     53  C   UNL A   1      40.379  26.260  27.831  1.00  0.00     0.029 A 
ATOM     54  C   UNL A   1      41.550  26.184  28.700  1.00  0.00     0.049 A 
ATOM     55  H   UNL A   1      41.947  27.333  30.390  1.00  0.00     0.167 HD
ATOM     56  C   UNL A   1      42.725  30.002  33.820  1.00  0.00     0.034 A 
ATOM     57  C   UNL A   1      42.587  25.337  28.546  1.00  0.00     0.034 A 
ATOM     58  C   UNL A   1      43.839  29.086  33.779  1.00  0.00     0.049 A 
ATOM     59  C   UNL A   1      43.733  25.406  29.522  1.00  0.00     0.074 A 
ATOM     60  C   UNL A   1      44.908  28.986  34.651  1.00  0.00     0.029 A 
ATOM     61  N   UNL A   1      44.030  28.114  32.804  1.00  0.00    -0.354 N 
ATOM     62  N   UNL A   1      43.899  26.210  30.547  1.00  0.00    -0.248 NA
ATOM     63  C   UNL A   1      44.830  24.450  29.323  1.00  0.00     0.031 C 
ATOM     64  C   UNL A   1      45.773  27.994  34.172  1.00  0.00     0.029 A 
ATOM     65  C   UNL A   1      45.208  27.425  33.040  1.00  0.00     0.049 A 
ATOM     66  H   UNL A   1      43.415  27.939  32.055  1.00  0.00     0.167 HD
ATOM     67  C   UNL A   1      45.100  25.828  31.140  1.00  0.00     0.074 A 
ATOM     68  C   UNL A   1      45.618  24.727  30.352  1.00  0.00     0.031 C 
ATOM     69  C   UNL A   1      45.708  26.329  32.244  1.00  0.00     0.034 A 
BRANCH  56  70
ATOM     70  C   UNL A   1      42.679  31.079  34.879  1.00  0.00     0.023 A 
ATOM     71  C   UNL A   1      43.256  32.344  34.665  1.00  0.00     0.031 A 
ATOM     72  C   UNL A   1      42.135  30.814  36.148  1.00  0.00     0.131 A 
ATOM     73  C   UNL A   1      43.391  33.243  35.733  1.00  0.00     0.055 A 
ATOM     74  C   UNL A   1      42.178  31.757  37.179  1.00  0.00     0.041 A 
ATOM     75  F   UNL A   1      41.586  29.621  36.422  1.00  0.00    -0.206 F 
ATOM     76  C   UNL A   1      42.832  32.970  36.982  1.00  0.00     0.022 A 
BRANCH  73  77
ATOM     77  S   UNL A   1      44.490  34.670  35.519  1.00  0.00     0.124 S 
ATOM     78  O   UNL A   1      45.012  34.442  34.173  1.00  0.00    -0.237 OA
ATOM     79  O   UNL A   1      43.577  35.797  35.668  1.00  0.00    -0.237 OA
ATOM     80  O   UNL A   1      45.470  34.513  36.592  1.00  0.00    -0.744 OA
ENDBRANCH  73  77
ENDBRANCH  56  70
BRANCH  57  81
ATOM     81  C   UNL A   1      42.585  24.341  27.439  1.00  0.00     0.023 A 
ATOM     82  C   UNL A   1      42.069  23.052  27.640  1.00  0.00     0.031 A 
ATOM     83  C   UNL A   1      43.108  24.655  26.173  1.00  0.00     0.131 A 
ATOM     84  C   UNL A   1      42.115  22.111  26.600  1.00  0.00     0.055 A 
ATOM     85  C   UNL A   1      43.114  23.729  25.128  1.00  0.00     0.041 A 
ATOM     86  F   UNL A   1      43.604  25.878  25.927  1.00  0.00    -0.206 F 
ATOM     87  C   UNL A   1      42.623  22.444  25.343  1.00  0.00     0.022 A 
BRANCH  84  88
ATOM     88  S   UNL A   1      41.541  20.422  26.933  1.00  0.00     0.124 S 
ATOM     89  O   UNL A   1      40.472  20.657  27.897  1.00  0.00    -0.237 OA
ATOM     90  O   UNL A   1      41.126  19.976  25.607  1.00  0.00    -0.237 OA
ATOM     91  O   UNL A   1      42.729  19.759  27.467  1.00  0.00    -0.744 OA
ENDBRANCH  84  88
ENDBRANCH  57  81
BRANCH  69  92
ATOM     92  C   UNL A   1      46.968  25.642  32.706  1.00  0.00     0.023 A 
ATOM     93  C   UNL A   1      48.219  25.900  32.120  1.00  0.00     0.031 A 
ATOM     94  C   UNL A   1      46.908  24.722  33.770  1.00  0.00     0.131 A 
ATOM     95  C   UNL A   1      49.355  25.217  32.579  1.00  0.00     0.055 A 
ATOM     96  C   UNL A   1      48.050  24.084  34.253  1.00  0.00     0.041 A 
ATOM     97  F   UNL A   1      45.737  24.440  34.363  1.00  0.00    -0.206 F 
ATOM     98  C   UNL A   1      49.281  24.324  33.652  1.00  0.00     0.022 A 
BRANCH  95  99
ATOM     99  S   UNL A   1      50.933  25.467  31.718  1.00  0.00     0.124 S 
ATOM    100  O   UNL A   1      51.305  26.810  32.153  1.00  0.00    -0.237 OA
ATOM    101  O   UNL A   1      51.750  24.378  32.239  1.00  0.00    -0.237 OA
ATOM    102  O   UNL A   1      50.575  25.351  30.305  1.00  0.00    -0.744 OA
ENDBRANCH  95  99
ENDBRANCH  69  92
ENDBRANCH  43  44
ENDBRANCH  35  38
ENDBRANCH  33  34
ENDBRANCH  32  33
ENDBRANCH   1  32
TORSDOF 19
ENDMDL
