MODEL 1
REMARK VINA RESULT:     -11.6      0.000      0.000
REMARK SMILES CC[NH2+][C@]1(C(=O)NCCCCNC(=O)c2ccc(-c3c4nc(c(-c5cc(S(=O)(=O)[O-])ccc5F)c5ccc([nH]5)c(-c5cc(S(=O)(=O)[O-])ccc5F)c5nc(c(-c6cc(S(=O)(=O)[O-])ccc6F)c6ccc3[nH]6)C=C5)C=C4)cc2)CC[C@@H](Sc2ccccc2C)C1
REMARK SMILES IDX 10 1 9 2 8 3 7 4 5 5 6 6 4 8 78 9 89 10 79 11 80 12 3 13
REMARK SMILES IDX 2 16 1 17 81 18 82 19 83 20 87 21 84 22 86 23 88 24 85 25
REMARK SMILES IDX 11 26 12 27 13 28 14 30 15 31 16 32 77 33 17 34 76 35 18 36
REMARK SMILES IDX 19 37 20 38 70 39 21 40 75 41 69 42 71 43 22 44 74 45 68 46
REMARK SMILES IDX 67 47 23 49 55 50 35 51 54 52 36 53 39 54 53 55 72 56 37 57
REMARK SMILES IDX 38 58 52 60 73 61 40 62 24 63 25 64 33 65 26 66 32 67 34 68
REMARK SMILES IDX 31 69 27 70 28 71 29 72 30 73 56 74 57 75 65 76 58 77 64 78
REMARK SMILES IDX 66 79 63 80 59 81 60 82 61 83 62 84 41 85 42 86 50 87 43 88
REMARK SMILES IDX 49 89 51 90 48 91 44 92 45 93 46 94 47 95
REMARK H PARENT 7 7 3 14 3 15 12 29 71 48 39 59
REMARK Flexibility Score: inf
ROOT
ATOM      1  C   UNL A   1      31.770  29.003  26.700  1.00  0.00     0.023 C 
ENDROOT
BRANCH   1   2
ATOM      2  C   UNL A   1      31.929  27.526  27.039  1.00  0.00     0.023 C 
BRANCH   2   3
ATOM      3  C   UNL A   1      30.971  26.583  26.313  1.00  0.00     0.116 C 
BRANCH   3   4
ATOM      4  N   UNL A   1      30.918  25.303  26.986  1.00  0.00    -0.351 N 
ATOM      5  C   UNL A   1      31.258  24.044  26.602  1.00  0.00     0.281 C 
ATOM      6  O   UNL A   1      30.928  23.151  27.396  1.00  0.00    -0.268 OA
ATOM      7  H   UNL A   1      30.566  25.354  27.903  1.00  0.00     0.163 HD
BRANCH   5   8
ATOM      8  C   UNL A   1      32.096  23.697  25.319  1.00  0.00     0.176 C 
ATOM      9  C   UNL A   1      31.057  23.299  24.230  1.00  0.00     0.080 C 
ATOM     10  C   UNL A   1      32.810  24.827  24.564  1.00  0.00     0.094 C 
ATOM     11  C   UNL A   1      31.756  23.413  22.874  1.00  0.00     0.022 C 
ATOM     12  C   UNL A   1      32.933  24.355  23.113  1.00  0.00     0.058 C 
BRANCH   8  13
ATOM     13  N   UNL A   1      32.942  22.511  25.597  1.00  0.00    -0.334 N 
ATOM     14  H   UNL A   1      33.792  22.594  25.037  1.00  0.00     0.347 HD
ATOM     15  H   UNL A   1      33.106  22.517  26.603  1.00  0.00     0.347 HD
BRANCH  13  16
ATOM     16  C   UNL A   1      32.339  21.217  25.301  1.00  0.00     0.257 C 
ATOM     17  C   UNL A   1      33.291  20.406  24.432  1.00  0.00     0.071 C 
ENDBRANCH  13  16
ENDBRANCH   8  13
BRANCH  12  18
ATOM     18  S   UNL A   1      33.213  25.660  21.841  1.00  0.00    -0.122 SA
BRANCH  18  19
ATOM     19  C   UNL A   1      32.196  27.033  22.384  1.00  0.00     0.010 A 
ATOM     20  C   UNL A   1      30.802  26.880  22.327  1.00  0.00     0.015 A 
ATOM     21  C   UNL A   1      32.720  28.288  22.744  1.00  0.00    -0.038 A 
ATOM     22  C   UNL A   1      29.947  27.908  22.731  1.00  0.00     0.001 A 
ATOM     23  C   UNL A   1      31.854  29.284  23.232  1.00  0.00     0.004 A 
ATOM     24  C   UNL A   1      34.177  28.624  22.627  1.00  0.00     0.045 C 
ATOM     25  C   UNL A   1      30.474  29.097  23.223  1.00  0.00     0.000 A 
ENDBRANCH  18  19
ENDBRANCH  12  18
ENDBRANCH   5   8
ENDBRANCH   3   4
ENDBRANCH   2   3
ENDBRANCH   1   2
BRANCH   1  26
ATOM     26  C   UNL A   1      33.087  29.766  26.629  1.00  0.00     0.116 C 
BRANCH  26  27
ATOM     27  N   UNL A   1      32.992  31.171  27.019  1.00  0.00    -0.352 N 
ATOM     28  C   UNL A   1      33.904  31.948  27.697  1.00  0.00     0.251 C 
ATOM     29  H   UNL A   1      32.158  31.626  26.761  1.00  0.00     0.163 HD
ATOM     30  O   UNL A   1      33.616  33.100  28.010  1.00  0.00    -0.269 OA
BRANCH  28  31
ATOM     31  C   UNL A   1      35.202  31.359  28.081  1.00  0.00     0.039 A 
ATOM     32  C   UNL A   1      36.324  32.182  28.186  1.00  0.00     0.014 A 
ATOM     33  C   UNL A   1      35.280  30.009  28.421  1.00  0.00     0.014 A 
ATOM     34  C   UNL A   1      37.503  31.662  28.721  1.00  0.00     0.010 A 
ATOM     35  C   UNL A   1      36.405  29.534  29.073  1.00  0.00     0.010 A 
ATOM     36  C   UNL A   1      37.537  30.348  29.215  1.00  0.00    -0.014 A 
BRANCH  36  37
ATOM     37  C   UNL A   1      38.757  29.780  29.843  1.00  0.00     0.031 A 
ATOM     38  C   UNL A   1      39.165  30.245  31.217  1.00  0.00     0.074 A 
ATOM     39  C   UNL A   1      39.533  28.922  29.151  1.00  0.00     0.049 A 
ATOM     40  N   UNL A   1      40.242  29.964  31.903  1.00  0.00    -0.248 NA
ATOM     41  C   UNL A   1      38.270  31.207  31.880  1.00  0.00     0.031 C 
ATOM     42  C   UNL A   1      39.284  28.465  27.780  1.00  0.00     0.029 A 
ATOM     43  N   UNL A   1      40.693  28.281  29.504  1.00  0.00    -0.354 N 
ATOM     44  C   UNL A   1      40.166  30.739  33.057  1.00  0.00     0.074 A 
ATOM     45  C   UNL A   1      38.990  31.570  32.928  1.00  0.00     0.031 C 
ATOM     46  C   UNL A   1      40.234  27.582  27.430  1.00  0.00     0.029 A 
ATOM     47  C   UNL A   1      41.180  27.440  28.530  1.00  0.00     0.049 A 
ATOM     48  H   UNL A   1      41.136  28.410  30.374  1.00  0.00     0.167 HD
ATOM     49  C   UNL A   1      40.977  30.729  34.144  1.00  0.00     0.034 A 
ATOM     50  C   UNL A   1      42.264  26.640  28.534  1.00  0.00     0.034 A 
ATOM     51  C   UNL A   1      42.112  29.852  34.271  1.00  0.00     0.049 A 
ATOM     52  C   UNL A   1      43.120  26.599  29.774  1.00  0.00     0.074 A 
ATOM     53  C   UNL A   1      42.969  29.695  35.346  1.00  0.00     0.029 A 
ATOM     54  N   UNL A   1      42.544  28.970  33.286  1.00  0.00    -0.354 N 
ATOM     55  N   UNL A   1      43.001  27.293  30.884  1.00  0.00    -0.248 NA
ATOM     56  C   UNL A   1      44.241  25.653  29.770  1.00  0.00     0.031 C 
ATOM     57  C   UNL A   1      43.945  28.756  34.993  1.00  0.00     0.029 A 
ATOM     58  C   UNL A   1      43.659  28.275  33.724  1.00  0.00     0.049 A 
ATOM     59  H   UNL A   1      42.116  28.855  32.406  1.00  0.00     0.167 HD
ATOM     60  C   UNL A   1      44.018  26.842  31.722  1.00  0.00     0.074 A 
ATOM     61  C   UNL A   1      44.721  25.803  30.996  1.00  0.00     0.031 C 
ATOM     62  C   UNL A   1      44.346  27.249  32.976  1.00  0.00     0.034 A 
BRANCH  49  63
ATOM     63  C   UNL A   1      40.652  31.697  35.258  1.00  0.00     0.023 A 
ATOM     64  C   UNL A   1      39.644  31.426  36.201  1.00  0.00     0.031 A 
ATOM     65  C   UNL A   1      41.312  32.936  35.345  1.00  0.00     0.131 A 
ATOM     66  C   UNL A   1      39.253  32.413  37.117  1.00  0.00     0.055 A 
ATOM     67  C   UNL A   1      40.984  33.878  36.324  1.00  0.00     0.041 A 
ATOM     68  F   UNL A   1      42.270  33.265  34.464  1.00  0.00    -0.206 F 
ATOM     69  C   UNL A   1      39.935  33.628  37.204  1.00  0.00     0.022 A 
BRANCH  66  70
ATOM     70  S   UNL A   1      37.733  32.152  38.072  1.00  0.00     0.124 S 
ATOM     71  O   UNL A   1      36.865  33.196  37.530  1.00  0.00    -0.237 OA
ATOM     72  O   UNL A   1      37.374  30.781  37.728  1.00  0.00    -0.237 OA
ATOM     73  O   UNL A   1      38.156  32.359  39.455  1.00  0.00    -0.744 OA
ENDBRANCH  66  70
ENDBRANCH  49  63
BRANCH  50  74
ATOM     74  C   UNL A   1      42.590  25.794  27.350  1.00  0.00     0.023 A 
ATOM     75  C   UNL A   1      42.145  24.464  27.269  1.00  0.00     0.031 A 
ATOM     76  C   UNL A   1      43.382  26.288  26.298  1.00  0.00     0.131 A 
ATOM     77  C   UNL A   1      42.536  23.658  26.189  1.00  0.00     0.055 A 
ATOM     78  C   UNL A   1      43.726  25.496  25.200  1.00  0.00     0.041 A 
ATOM     79  F   UNL A   1      43.822  27.556  26.318  1.00  0.00    -0.206 F 
ATOM     80  C   UNL A   1      43.315  24.168  25.149  1.00  0.00     0.022 A 
BRANCH  77  81
ATOM     81  S   UNL A   1      42.077  21.902  26.205  1.00  0.00     0.124 S 
ATOM     82  O   UNL A   1      40.644  21.967  25.942  1.00  0.00    -0.237 OA
ATOM     83  O   UNL A   1      42.903  21.365  25.129  1.00  0.00    -0.237 OA
ATOM     84  O   UNL A   1      42.447  21.466  27.549  1.00  0.00    -0.744 OA
ENDBRANCH  77  81
ENDBRANCH  50  74
BRANCH  62  85
ATOM     85  C   UNL A   1      45.488  26.527  33.645  1.00  0.00     0.023 A 
ATOM     86  C   UNL A   1      45.288  25.334  34.359  1.00  0.00     0.031 A 
ATOM     87  C   UNL A   1      46.789  27.058  33.589  1.00  0.00     0.131 A 
ATOM     88  C   UNL A   1      46.358  24.746  35.048  1.00  0.00     0.055 A 
ATOM     89  C   UNL A   1      47.864  26.431  34.220  1.00  0.00     0.041 A 
ATOM     90  F   UNL A   1      47.035  28.195  32.919  1.00  0.00    -0.206 F 
ATOM     91  C   UNL A   1      47.648  25.278  34.969  1.00  0.00     0.022 A 
BRANCH  88  92
ATOM     92  S   UNL A   1      46.019  23.338  36.138  1.00  0.00     0.124 S 
ATOM     93  O   UNL A   1      46.473  23.841  37.432  1.00  0.00    -0.237 OA
ATOM     94  O   UNL A   1      44.577  23.169  35.990  1.00  0.00    -0.237 OA
ATOM     95  O   UNL A   1      46.831  22.263  35.573  1.00  0.00    -0.744 OA
ENDBRANCH  88  92
ENDBRANCH  62  85
ENDBRANCH  36  37
ENDBRANCH  28  31
ENDBRANCH  26  27
ENDBRANCH   1  26
TORSDOF 18
ENDMDL
MODEL 2
REMARK VINA RESULT:     -11.5      2.669      8.518
REMARK SMILES CC[NH2+][C@]1(C(=O)NCCCCNC(=O)c2ccc(-c3c4nc(c(-c5cc(S(=O)(=O)[O-])ccc5F)c5ccc([nH]5)c(-c5cc(S(=O)(=O)[O-])ccc5F)c5nc(c(-c6cc(S(=O)(=O)[O-])ccc6F)c6ccc3[nH]6)C=C5)C=C4)cc2)CC[C@@H](Sc2ccccc2C)C1
REMARK SMILES IDX 10 1 9 2 8 3 7 4 5 5 6 6 4 8 78 9 89 10 79 11 80 12 3 13
REMARK SMILES IDX 2 16 1 17 81 18 82 19 83 20 87 21 84 22 86 23 88 24 85 25
REMARK SMILES IDX 11 26 12 27 13 28 14 30 15 31 16 32 77 33 17 34 76 35 18 36
REMARK SMILES IDX 19 37 20 38 70 39 21 40 75 41 69 42 71 43 22 44 74 45 68 46
REMARK SMILES IDX 67 47 23 49 55 50 35 51 54 52 36 53 39 54 53 55 72 56 37 57
REMARK SMILES IDX 38 58 52 60 73 61 40 62 24 63 25 64 33 65 26 66 32 67 34 68
REMARK SMILES IDX 31 69 27 70 28 71 29 72 30 73 56 74 57 75 65 76 58 77 64 78
REMARK SMILES IDX 66 79 63 80 59 81 60 82 61 83 62 84 41 85 42 86 50 87 43 88
REMARK SMILES IDX 49 89 51 90 48 91 44 92 45 93 46 94 47 95
REMARK H PARENT 7 7 3 14 3 15 12 29 71 48 39 59
REMARK Flexibility Score: inf
ROOT
ATOM      1  C   UNL A   1      31.516  31.625  26.478  1.00  0.00     0.023 C 
ENDROOT
BRANCH   1   2
ATOM      2  C   UNL A   1      31.657  30.109  26.448  1.00  0.00     0.023 C 
BRANCH   2   3
ATOM      3  C   UNL A   1      33.084  29.590  26.273  1.00  0.00     0.116 C 
BRANCH   3   4
ATOM      4  N   UNL A   1      33.468  29.634  24.879  1.00  0.00    -0.351 N 
ATOM      5  C   UNL A   1      33.456  28.703  23.888  1.00  0.00     0.281 C 
ATOM      6  O   UNL A   1      34.011  29.054  22.836  1.00  0.00    -0.268 OA
ATOM      7  H   UNL A   1      33.805  30.512  24.590  1.00  0.00     0.163 HD
BRANCH   5   8
ATOM      8  C   UNL A   1      32.722  27.317  23.974  1.00  0.00     0.176 C 
ATOM      9  C   UNL A   1      33.568  26.335  23.111  1.00  0.00     0.080 C 
ATOM     10  C   UNL A   1      32.738  26.543  25.300  1.00  0.00     0.094 C 
ATOM     11  C   UNL A   1      33.183  24.916  23.533  1.00  0.00     0.022 C 
ATOM     12  C   UNL A   1      32.584  25.065  24.929  1.00  0.00     0.058 C 
BRANCH   8  13
ATOM     13  N   UNL A   1      31.383  27.436  23.347  1.00  0.00    -0.334 N 
ATOM     14  H   UNL A   1      31.406  28.232  22.707  1.00  0.00     0.347 HD
ATOM     15  H   UNL A   1      31.210  26.541  22.890  1.00  0.00     0.347 HD
BRANCH  13  16
ATOM     16  C   UNL A   1      30.268  27.634  24.264  1.00  0.00     0.257 C 
ATOM     17  C   UNL A   1      29.162  26.641  23.932  1.00  0.00     0.071 C 
ENDBRANCH  13  16
ENDBRANCH   8  13
BRANCH  12  18
ATOM     18  S   UNL A   1      33.125  23.837  26.193  1.00  0.00    -0.122 SA
BRANCH  18  19
ATOM     19  C   UNL A   1      34.713  23.257  25.595  1.00  0.00     0.010 A 
ATOM     20  C   UNL A   1      35.824  24.097  25.760  1.00  0.00     0.015 A 
ATOM     21  C   UNL A   1      34.875  22.064  24.866  1.00  0.00    -0.038 A 
ATOM     22  C   UNL A   1      37.092  23.713  25.317  1.00  0.00     0.001 A 
ATOM     23  C   UNL A   1      36.169  21.647  24.503  1.00  0.00     0.004 A 
ATOM     24  C   UNL A   1      33.720  21.205  24.445  1.00  0.00     0.045 C 
ATOM     25  C   UNL A   1      37.272  22.467  24.725  1.00  0.00     0.000 A 
ENDBRANCH  18  19
ENDBRANCH  12  18
ENDBRANCH   5   8
ENDBRANCH   3   4
ENDBRANCH   2   3
ENDBRANCH   1   2
BRANCH   1  26
ATOM     26  C   UNL A   1      32.792  32.357  26.878  1.00  0.00     0.116 C 
BRANCH  26  27
ATOM     27  N   UNL A   1      32.571  33.656  27.509  1.00  0.00    -0.352 N 
ATOM     28  C   UNL A   1      33.287  34.267  28.513  1.00  0.00     0.251 C 
ATOM     29  H   UNL A   1      31.801  34.166  27.168  1.00  0.00     0.163 HD
ATOM     30  O   UNL A   1      32.902  35.337  28.977  1.00  0.00    -0.269 OA
BRANCH  28  31
ATOM     31  C   UNL A   1      34.485  33.594  29.050  1.00  0.00     0.039 A 
ATOM     32  C   UNL A   1      35.724  34.233  28.971  1.00  0.00     0.014 A 
ATOM     33  C   UNL A   1      34.360  32.372  29.710  1.00  0.00     0.014 A 
ATOM     34  C   UNL A   1      36.819  33.681  29.636  1.00  0.00     0.010 A 
ATOM     35  C   UNL A   1      35.412  31.900  30.476  1.00  0.00     0.010 A 
ATOM     36  C   UNL A   1      36.660  32.537  30.435  1.00  0.00    -0.014 A 
BRANCH  36  37
ATOM     37  C   UNL A   1      37.791  31.955  31.202  1.00  0.00     0.031 A 
ATOM     38  C   UNL A   1      38.629  30.872  30.574  1.00  0.00     0.074 A 
ATOM     39  C   UNL A   1      38.006  32.336  32.477  1.00  0.00     0.049 A 
ATOM     40  N   UNL A   1      39.590  30.156  31.098  1.00  0.00    -0.248 NA
ATOM     41  C   UNL A   1      38.298  30.502  29.188  1.00  0.00     0.031 C 
ATOM     42  C   UNL A   1      37.205  33.315  33.219  1.00  0.00     0.029 A 
ATOM     43  N   UNL A   1      38.962  31.944  33.378  1.00  0.00    -0.354 N 
ATOM     44  C   UNL A   1      39.948  29.233  30.119  1.00  0.00     0.074 A 
ATOM     45  C   UNL A   1      39.037  29.420  29.012  1.00  0.00     0.031 C 
ATOM     46  C   UNL A   1      37.734  33.480  34.442  1.00  0.00     0.029 A 
ATOM     47  C   UNL A   1      38.882  32.594  34.588  1.00  0.00     0.049 A 
ATOM     48  H   UNL A   1      39.641  31.260  33.179  1.00  0.00     0.167 HD
ATOM     49  C   UNL A   1      40.970  28.342  30.123  1.00  0.00     0.034 A 
ATOM     50  C   UNL A   1      39.657  32.489  35.685  1.00  0.00     0.034 A 
ATOM     51  C   UNL A   1      41.898  28.214  31.217  1.00  0.00     0.049 A 
ATOM     52  C   UNL A   1      40.824  31.534  35.650  1.00  0.00     0.074 A 
ATOM     53  C   UNL A   1      43.014  27.402  31.316  1.00  0.00     0.029 A 
ATOM     54  N   UNL A   1      41.822  28.931  32.407  1.00  0.00    -0.354 N 
ATOM     55  N   UNL A   1      41.189  30.711  34.692  1.00  0.00    -0.248 NA
ATOM     56  C   UNL A   1      41.693  31.511  36.830  1.00  0.00     0.031 C 
ATOM     57  C   UNL A   1      43.582  27.592  32.581  1.00  0.00     0.029 A 
ATOM     58  C   UNL A   1      42.862  28.571  33.247  1.00  0.00     0.049 A 
ATOM     59  H   UNL A   1      41.129  29.598  32.619  1.00  0.00     0.167 HD
ATOM     60  C   UNL A   1      42.351  30.094  35.148  1.00  0.00     0.074 A 
ATOM     61  C   UNL A   1      42.634  30.659  36.452  1.00  0.00     0.031 C 
ATOM     62  C   UNL A   1      43.117  29.146  34.547  1.00  0.00     0.034 A 
BRANCH  49  63
ATOM     63  C   UNL A   1      41.117  27.452  28.910  1.00  0.00     0.023 A 
ATOM     64  C   UNL A   1      42.124  27.671  27.952  1.00  0.00     0.031 A 
ATOM     65  C   UNL A   1      40.203  26.411  28.672  1.00  0.00     0.131 A 
ATOM     66  C   UNL A   1      42.130  26.934  26.759  1.00  0.00     0.055 A 
ATOM     67  C   UNL A   1      40.274  25.616  27.525  1.00  0.00     0.041 A 
ATOM     68  F   UNL A   1      39.207  26.163  29.538  1.00  0.00    -0.206 F 
ATOM     69  C   UNL A   1      41.229  25.889  26.550  1.00  0.00     0.022 A 
BRANCH  66  70
ATOM     70  S   UNL A   1      43.220  27.479  25.415  1.00  0.00     0.124 S 
ATOM     71  O   UNL A   1      42.272  28.142  24.520  1.00  0.00    -0.237 OA
ATOM     72  O   UNL A   1      44.163  28.351  26.105  1.00  0.00    -0.237 OA
ATOM     73  O   UNL A   1      43.782  26.232  24.902  1.00  0.00    -0.744 OA
ENDBRANCH  66  70
ENDBRANCH  49  63
BRANCH  50  74
ATOM     74  C   UNL A   1      39.383  33.318  36.893  1.00  0.00     0.023 A 
ATOM     75  C   UNL A   1      38.698  32.781  37.996  1.00  0.00     0.031 A 
ATOM     76  C   UNL A   1      39.766  34.670  36.951  1.00  0.00     0.131 A 
ATOM     77  C   UNL A   1      38.372  33.602  39.087  1.00  0.00     0.055 A 
ATOM     78  C   UNL A   1      39.483  35.469  38.061  1.00  0.00     0.041 A 
ATOM     79  F   UNL A   1      40.433  35.230  35.930  1.00  0.00    -0.206 F 
ATOM     80  C   UNL A   1      38.769  34.940  39.131  1.00  0.00     0.022 A 
BRANCH  77  81
ATOM     81  S   UNL A   1      37.347  32.914  40.416  1.00  0.00     0.124 S 
ATOM     82  O   UNL A   1      36.025  32.909  39.801  1.00  0.00    -0.237 OA
ATOM     83  O   UNL A   1      37.962  31.607  40.625  1.00  0.00    -0.237 OA
ATOM     84  O   UNL A   1      37.524  33.866  41.511  1.00  0.00    -0.744 OA
ENDBRANCH  77  81
ENDBRANCH  50  74
BRANCH  62  85
ATOM     85  C   UNL A   1      44.353  28.704  35.289  1.00  0.00     0.023 A 
ATOM     86  C   UNL A   1      44.304  27.691  36.262  1.00  0.00     0.031 A 
ATOM     87  C   UNL A   1      45.589  29.324  35.036  1.00  0.00     0.131 A 
ATOM     88  C   UNL A   1      45.456  27.376  36.997  1.00  0.00     0.055 A 
ATOM     89  C   UNL A   1      46.746  28.959  35.724  1.00  0.00     0.041 A 
ATOM     90  F   UNL A   1      45.691  30.297  34.116  1.00  0.00    -0.206 F 
ATOM     91  C   UNL A   1      46.680  27.991  36.723  1.00  0.00     0.022 A 
BRANCH  88  92
ATOM     92  S   UNL A   1      45.307  26.228  38.393  1.00  0.00     0.124 S 
ATOM     93  O   UNL A   1      46.633  26.313  38.998  1.00  0.00    -0.237 OA
ATOM     94  O   UNL A   1      44.215  26.815  39.163  1.00  0.00    -0.237 OA
ATOM     95  O   UNL A   1      44.998  24.950  37.754  1.00  0.00    -0.744 OA
ENDBRANCH  88  92
ENDBRANCH  62  85
ENDBRANCH  36  37
ENDBRANCH  28  31
ENDBRANCH  26  27
ENDBRANCH   1  26
TORSDOF 18
ENDMDL
MODEL 3
REMARK VINA RESULT:     -11.4      2.205      8.351
REMARK SMILES CC[NH2+][C@]1(C(=O)NCCCCNC(=O)c2ccc(-c3c4nc(c(-c5cc(S(=O)(=O)[O-])ccc5F)c5ccc([nH]5)c(-c5cc(S(=O)(=O)[O-])ccc5F)c5nc(c(-c6cc(S(=O)(=O)[O-])ccc6F)c6ccc3[nH]6)C=C5)C=C4)cc2)CC[C@@H](Sc2ccccc2C)C1
REMARK SMILES IDX 10 1 9 2 8 3 7 4 5 5 6 6 4 8 78 9 89 10 79 11 80 12 3 13
REMARK SMILES IDX 2 16 1 17 81 18 82 19 83 20 87 21 84 22 86 23 88 24 85 25
REMARK SMILES IDX 11 26 12 27 13 28 14 30 15 31 16 32 77 33 17 34 76 35 18 36
REMARK SMILES IDX 19 37 20 38 70 39 21 40 75 41 69 42 71 43 22 44 74 45 68 46
REMARK SMILES IDX 67 47 23 49 55 50 35 51 54 52 36 53 39 54 53 55 72 56 37 57
REMARK SMILES IDX 38 58 52 60 73 61 40 62 24 63 25 64 33 65 26 66 32 67 34 68
REMARK SMILES IDX 31 69 27 70 28 71 29 72 30 73 56 74 57 75 65 76 58 77 64 78
REMARK SMILES IDX 66 79 63 80 59 81 60 82 61 83 62 84 41 85 42 86 50 87 43 88
REMARK SMILES IDX 49 89 51 90 48 91 44 92 45 93 46 94 47 95
REMARK H PARENT 7 7 3 14 3 15 12 29 71 48 39 59
REMARK Flexibility Score: inf
ROOT
ATOM      1  C   UNL A   1      31.296  31.702  26.286  1.00  0.00     0.023 C 
ENDROOT
BRANCH   1   2
ATOM      2  C   UNL A   1      31.397  30.221  25.941  1.00  0.00     0.023 C 
BRANCH   2   3
ATOM      3  C   UNL A   1      32.818  29.665  25.866  1.00  0.00     0.116 C 
BRANCH   3   4
ATOM      4  N   UNL A   1      33.274  29.632  24.494  1.00  0.00    -0.351 N 
ATOM      5  C   UNL A   1      33.334  28.643  23.563  1.00  0.00     0.281 C 
ATOM      6  O   UNL A   1      33.936  28.942  22.522  1.00  0.00    -0.268 OA
ATOM      7  H   UNL A   1      33.609  30.499  24.169  1.00  0.00     0.163 HD
BRANCH   5   8
ATOM      8  C   UNL A   1      32.623  27.249  23.697  1.00  0.00     0.176 C 
ATOM      9  C   UNL A   1      33.500  26.247  22.890  1.00  0.00     0.080 C 
ATOM     10  C   UNL A   1      32.631  26.532  25.055  1.00  0.00     0.094 C 
ATOM     11  C   UNL A   1      33.134  24.840  23.366  1.00  0.00     0.022 C 
ATOM     12  C   UNL A   1      32.510  25.037  24.745  1.00  0.00     0.058 C 
BRANCH   8  13
ATOM     13  N   UNL A   1      31.292  27.316  23.045  1.00  0.00    -0.334 N 
ATOM     14  H   UNL A   1      31.348  27.998  22.288  1.00  0.00     0.347 HD
ATOM     15  H   UNL A   1      31.087  26.367  22.734  1.00  0.00     0.347 HD
BRANCH  13  16
ATOM     16  C   UNL A   1      30.181  27.699  23.908  1.00  0.00     0.257 C 
ATOM     17  C   UNL A   1      29.147  26.581  23.920  1.00  0.00     0.071 C 
ENDBRANCH  13  16
ENDBRANCH   8  13
BRANCH  12  18
ATOM     18  S   UNL A   1      33.053  23.873  26.068  1.00  0.00    -0.122 SA
BRANCH  18  19
ATOM     19  C   UNL A   1      34.628  23.245  25.486  1.00  0.00     0.010 A 
ATOM     20  C   UNL A   1      35.735  24.106  25.528  1.00  0.00     0.015 A 
ATOM     21  C   UNL A   1      34.781  21.984  24.881  1.00  0.00    -0.038 A 
ATOM     22  C   UNL A   1      36.993  23.687  25.089  1.00  0.00     0.001 A 
ATOM     23  C   UNL A   1      36.068  21.540  24.525  1.00  0.00     0.004 A 
ATOM     24  C   UNL A   1      33.623  21.077  24.589  1.00  0.00     0.045 C 
ATOM     25  C   UNL A   1      37.168  22.387  24.626  1.00  0.00     0.000 A 
ENDBRANCH  18  19
ENDBRANCH  12  18
ENDBRANCH   5   8
ENDBRANCH   3   4
ENDBRANCH   2   3
ENDBRANCH   1   2
BRANCH   1  26
ATOM     26  C   UNL A   1      32.582  32.293  26.851  1.00  0.00     0.116 C 
BRANCH  26  27
ATOM     27  N   UNL A   1      32.428  33.623  27.437  1.00  0.00    -0.352 N 
ATOM     28  C   UNL A   1      33.219  34.259  28.369  1.00  0.00     0.251 C 
ATOM     29  H   UNL A   1      31.650  34.136  27.123  1.00  0.00     0.163 HD
ATOM     30  O   UNL A   1      32.887  35.356  28.808  1.00  0.00    -0.269 OA
BRANCH  28  31
ATOM     31  C   UNL A   1      34.434  33.581  28.859  1.00  0.00     0.039 A 
ATOM     32  C   UNL A   1      35.663  34.237  28.783  1.00  0.00     0.014 A 
ATOM     33  C   UNL A   1      34.334  32.333  29.474  1.00  0.00     0.014 A 
ATOM     34  C   UNL A   1      36.777  33.673  29.408  1.00  0.00     0.010 A 
ATOM     35  C   UNL A   1      35.404  31.846  30.205  1.00  0.00     0.010 A 
ATOM     36  C   UNL A   1      36.644  32.498  30.166  1.00  0.00    -0.014 A 
BRANCH  36  37
ATOM     37  C   UNL A   1      37.795  31.902  30.892  1.00  0.00     0.031 A 
ATOM     38  C   UNL A   1      38.653  30.876  30.198  1.00  0.00     0.074 A 
ATOM     39  C   UNL A   1      38.011  32.216  32.184  1.00  0.00     0.049 A 
ATOM     40  N   UNL A   1      39.635  30.155  30.674  1.00  0.00    -0.248 NA
ATOM     41  C   UNL A   1      38.320  30.577  28.796  1.00  0.00     0.031 C 
ATOM     42  C   UNL A   1      37.194  33.132  32.986  1.00  0.00     0.029 A 
ATOM     43  N   UNL A   1      38.984  31.797  33.056  1.00  0.00    -0.354 N 
ATOM     44  C   UNL A   1      40.007  29.298  29.643  1.00  0.00     0.074 A 
ATOM     45  C   UNL A   1      39.082  29.524  28.554  1.00  0.00     0.031 C 
ATOM     46  C   UNL A   1      37.729  33.242  34.213  1.00  0.00     0.029 A 
ATOM     47  C   UNL A   1      38.898  32.376  34.301  1.00  0.00     0.049 A 
ATOM     48  H   UNL A   1      39.677  31.143  32.813  1.00  0.00     0.167 HD
ATOM     49  C   UNL A   1      41.049  28.433  29.590  1.00  0.00     0.034 A 
ATOM     50  C   UNL A   1      39.685  32.229  35.385  1.00  0.00     0.034 A 
ATOM     51  C   UNL A   1      41.989  28.265  30.669  1.00  0.00     0.049 A 
ATOM     52  C   UNL A   1      40.873  31.306  35.288  1.00  0.00     0.074 A 
ATOM     53  C   UNL A   1      43.124  27.476  30.714  1.00  0.00     0.029 A 
ATOM     54  N   UNL A   1      41.906  28.913  31.897  1.00  0.00    -0.354 N 
ATOM     55  N   UNL A   1      41.250  30.547  34.283  1.00  0.00    -0.248 NA
ATOM     56  C   UNL A   1      41.753  31.238  36.459  1.00  0.00     0.031 C 
ATOM     57  C   UNL A   1      43.698  27.609  31.984  1.00  0.00     0.029 A 
ATOM     58  C   UNL A   1      42.961  28.532  32.709  1.00  0.00     0.049 A 
ATOM     59  H   UNL A   1      41.199  29.550  32.151  1.00  0.00     0.167 HD
ATOM     60  C   UNL A   1      42.430  29.933  34.695  1.00  0.00     0.074 A 
ATOM     61  C   UNL A   1      42.710  30.432  36.028  1.00  0.00     0.031 C 
ATOM     62  C   UNL A   1      43.213  29.039  34.037  1.00  0.00     0.034 A 
BRANCH  49  63
ATOM     63  C   UNL A   1      41.207  27.616  28.328  1.00  0.00     0.023 A 
ATOM     64  C   UNL A   1      40.879  26.248  28.289  1.00  0.00     0.031 A 
ATOM     65  C   UNL A   1      41.749  28.191  27.166  1.00  0.00     0.131 A 
ATOM     66  C   UNL A   1      41.193  25.482  27.157  1.00  0.00     0.055 A 
ATOM     67  C   UNL A   1      41.969  27.442  26.007  1.00  0.00     0.041 A 
ATOM     68  F   UNL A   1      42.101  29.487  27.143  1.00  0.00    -0.206 F 
ATOM     69  C   UNL A   1      41.710  26.075  26.005  1.00  0.00     0.022 A 
BRANCH  66  70
ATOM     70  S   UNL A   1      41.076  23.676  27.278  1.00  0.00     0.124 S 
ATOM     71  O   UNL A   1      41.741  23.256  26.045  1.00  0.00    -0.237 OA
ATOM     72  O   UNL A   1      41.792  23.394  28.517  1.00  0.00    -0.237 OA
ATOM     73  O   UNL A   1      39.637  23.426  27.318  1.00  0.00    -0.744 OA
ENDBRANCH  66  70
ENDBRANCH  49  63
BRANCH  50  74
ATOM     74  C   UNL A   1      39.401  32.983  36.639  1.00  0.00     0.023 A 
ATOM     75  C   UNL A   1      38.540  32.458  37.617  1.00  0.00     0.031 A 
ATOM     76  C   UNL A   1      39.954  34.256  36.865  1.00  0.00     0.131 A 
ATOM     77  C   UNL A   1      38.216  33.220  38.750  1.00  0.00     0.055 A 
ATOM     78  C   UNL A   1      39.668  34.990  38.018  1.00  0.00     0.041 A 
ATOM     79  F   UNL A   1      40.793  34.799  35.969  1.00  0.00    -0.206 F 
ATOM     80  C   UNL A   1      38.783  34.479  38.962  1.00  0.00     0.022 A 
BRANCH  77  81
ATOM     81  S   UNL A   1      36.976  32.575  39.906  1.00  0.00     0.124 S 
ATOM     82  O   UNL A   1      37.534  31.271  40.245  1.00  0.00    -0.237 OA
ATOM     83  O   UNL A   1      37.001  33.578  40.966  1.00  0.00    -0.237 OA
ATOM     84  O   UNL A   1      35.752  32.543  39.109  1.00  0.00    -0.744 OA
ENDBRANCH  77  81
ENDBRANCH  50  74
BRANCH  62  85
ATOM     85  C   UNL A   1      44.465  28.586  34.744  1.00  0.00     0.023 A 
ATOM     86  C   UNL A   1      44.470  27.457  35.582  1.00  0.00     0.031 A 
ATOM     87  C   UNL A   1      45.661  29.311  34.599  1.00  0.00     0.131 A 
ATOM     88  C   UNL A   1      45.630  27.125  36.296  1.00  0.00     0.055 A 
ATOM     89  C   UNL A   1      46.830  28.935  35.260  1.00  0.00     0.041 A 
ATOM     90  F   UNL A   1      45.711  30.396  33.811  1.00  0.00    -0.206 F 
ATOM     91  C   UNL A   1      46.815  27.847  36.128  1.00  0.00     0.022 A 
BRANCH  88  92
ATOM     92  S   UNL A   1      45.537  25.802  37.533  1.00  0.00     0.124 S 
ATOM     93  O   UNL A   1      44.099  25.559  37.609  1.00  0.00    -0.237 OA
ATOM     94  O   UNL A   1      46.330  24.744  36.917  1.00  0.00    -0.237 OA
ATOM     95  O   UNL A   1      46.127  26.407  38.726  1.00  0.00    -0.744 OA
ENDBRANCH  88  92
ENDBRANCH  62  85
ENDBRANCH  36  37
ENDBRANCH  28  31
ENDBRANCH  26  27
ENDBRANCH   1  26
TORSDOF 18
ENDMDL
