MODEL 1
REMARK VINA RESULT:     -12.5      0.000      0.000
REMARK SMILES O=C(NCCCCNC(=O)c1cc(-c2ccsc2)nc2ccccc12)c1ccc(-c2c3nc(c(-c4cc(S(=O)(=O)[O-])ccc4F)c4ccc([nH]4)c(-c4cc(S(=O)(=O)[O-])ccc4F)c4nc(c(-c5cc(S(=O)(=O)[O-])ccc5F)c5ccc2[nH]5)C=C4)C=C3)cc1
REMARK SMILES IDX 4 1 3 2 1 3 2 4 26 6 27 7 88 8 28 9 87 10 29 11 30 12 31 13
REMARK SMILES IDX 81 14 32 15 86 16 80 17 82 18 33 19 85 20 79 21 78 22 34 24
REMARK SMILES IDX 66 25 46 26 65 27 47 28 50 29 64 30 83 31 48 32 49 33 63 35
REMARK SMILES IDX 84 36 51 37 35 38 36 39 44 40 37 41 43 42 45 43 42 44 38 45
REMARK SMILES IDX 39 46 40 47 41 48 67 49 68 50 76 51 69 52 75 53 77 54 74 55
REMARK SMILES IDX 70 56 71 57 72 58 73 59 52 60 53 61 61 62 54 63 60 64 62 65
REMARK SMILES IDX 59 66 55 67 56 68 57 69 58 70 5 71 6 72 7 73 8 74 9 75 10 77
REMARK SMILES IDX 11 78 12 79 25 80 13 81 20 82 24 83 19 84 21 85 23 86 22 87
REMARK SMILES IDX 14 88 15 89 18 90 16 91 17 92
REMARK H PARENT 3 5 82 23 50 34 8 76
REMARK Flexibility Score: inf
ROOT
ATOM      1  C   UNL A   1      32.721  32.486  27.277  1.00  0.00     0.116 C 
ENDROOT
BRANCH   1   2
ATOM      2  N   UNL A   1      32.514  33.886  27.614  1.00  0.00    -0.352 N 
ATOM      3  O   UNL A   1      32.739  35.797  28.789  1.00  0.00    -0.269 OA
ATOM      4  C   UNL A   1      33.143  34.659  28.563  1.00  0.00     0.251 C 
ATOM      5  H   UNL A   1      31.824  34.349  27.086  1.00  0.00     0.163 HD
BRANCH   4   6
ATOM      6  C   UNL A   1      34.285  34.110  29.328  1.00  0.00     0.039 A 
ATOM      7  C   UNL A   1      35.599  34.362  28.929  1.00  0.00     0.014 A 
ATOM      8  C   UNL A   1      34.035  33.327  30.459  1.00  0.00     0.014 A 
ATOM      9  C   UNL A   1      36.651  33.710  29.564  1.00  0.00     0.010 A 
ATOM     10  C   UNL A   1      35.101  32.740  31.148  1.00  0.00     0.010 A 
ATOM     11  C   UNL A   1      36.416  32.896  30.685  1.00  0.00    -0.014 A 
BRANCH  11  12
ATOM     12  C   UNL A   1      37.567  32.255  31.373  1.00  0.00     0.031 A 
ATOM     13  C   UNL A   1      38.335  31.135  30.724  1.00  0.00     0.074 A 
ATOM     14  C   UNL A   1      37.938  32.716  32.584  1.00  0.00     0.049 A 
ATOM     15  N   UNL A   1      39.367  30.470  31.179  1.00  0.00    -0.248 NA
ATOM     16  C   UNL A   1      37.879  30.698  29.397  1.00  0.00     0.031 C 
ATOM     17  C   UNL A   1      37.265  33.796  33.313  1.00  0.00     0.029 A 
ATOM     18  N   UNL A   1      38.971  32.355  33.409  1.00  0.00    -0.354 N 
ATOM     19  C   UNL A   1      39.676  29.527  30.204  1.00  0.00     0.074 A 
ATOM     20  C   UNL A   1      38.699  29.686  29.148  1.00  0.00     0.031 C 
ATOM     21  C   UNL A   1      37.927  34.037  34.453  1.00  0.00     0.029 A 
ATOM     22  C   UNL A   1      39.030  33.089  34.570  1.00  0.00     0.049 A 
ATOM     23  H   UNL A   1      39.611  31.640  33.190  1.00  0.00     0.167 HD
ATOM     24  C   UNL A   1      40.687  28.620  30.190  1.00  0.00     0.034 A 
ATOM     25  C   UNL A   1      39.863  32.998  35.625  1.00  0.00     0.034 A 
ATOM     26  C   UNL A   1      41.656  28.478  31.252  1.00  0.00     0.049 A 
ATOM     27  C   UNL A   1      40.952  31.962  35.600  1.00  0.00     0.074 A 
ATOM     28  C   UNL A   1      42.738  27.617  31.324  1.00  0.00     0.029 A 
ATOM     29  N   UNL A   1      41.658  29.211  32.433  1.00  0.00    -0.354 N 
ATOM     30  N   UNL A   1      41.236  31.087  34.663  1.00  0.00    -0.248 NA
ATOM     31  C   UNL A   1      41.832  31.902  36.773  1.00  0.00     0.031 C 
ATOM     32  C   UNL A   1      43.353  27.783  32.571  1.00  0.00     0.029 A 
ATOM     33  C   UNL A   1      42.701  28.798  33.252  1.00  0.00     0.049 A 
ATOM     34  H   UNL A   1      41.014  29.920  32.657  1.00  0.00     0.167 HD
ATOM     35  C   UNL A   1      42.340  30.381  35.131  1.00  0.00     0.074 A 
ATOM     36  C   UNL A   1      42.680  30.947  36.421  1.00  0.00     0.031 C 
ATOM     37  C   UNL A   1      43.011  29.356  34.546  1.00  0.00     0.034 A 
BRANCH  24  38
ATOM     38  C   UNL A   1      40.764  27.681  29.009  1.00  0.00     0.023 A 
ATOM     39  C   UNL A   1      41.705  27.857  27.980  1.00  0.00     0.031 A 
ATOM     40  C   UNL A   1      39.869  26.601  28.903  1.00  0.00     0.131 A 
ATOM     41  C   UNL A   1      41.688  27.009  26.861  1.00  0.00     0.055 A 
ATOM     42  C   UNL A   1      39.905  25.717  27.823  1.00  0.00     0.041 A 
ATOM     43  F   UNL A   1      38.935  26.392  29.844  1.00  0.00    -0.206 F 
ATOM     44  C   UNL A   1      40.809  25.926  26.786  1.00  0.00     0.022 A 
BRANCH  41  45
ATOM     45  S   UNL A   1      42.741  27.423  25.442  1.00  0.00     0.124 S 
ATOM     46  O   UNL A   1      42.694  26.186  24.667  1.00  0.00    -0.237 OA
ATOM     47  O   UNL A   1      42.051  28.567  24.861  1.00  0.00    -0.237 OA
ATOM     48  O   UNL A   1      44.037  27.717  26.051  1.00  0.00    -0.744 OA
ENDBRANCH  41  45
ENDBRANCH  24  38
BRANCH  25  49
ATOM     49  C   UNL A   1      39.675  33.890  36.802  1.00  0.00     0.023 A 
ATOM     50  C   UNL A   1      39.109  33.412  37.993  1.00  0.00     0.031 A 
ATOM     51  C   UNL A   1      40.048  35.245  36.743  1.00  0.00     0.131 A 
ATOM     52  C   UNL A   1      38.902  34.290  39.068  1.00  0.00     0.055 A 
ATOM     53  C   UNL A   1      39.887  36.102  37.832  1.00  0.00     0.041 A 
ATOM     54  F   UNL A   1      40.600  35.749  35.628  1.00  0.00    -0.206 F 
ATOM     55  C   UNL A   1      39.299  35.628  39.000  1.00  0.00     0.022 A 
BRANCH  52  56
ATOM     56  S   UNL A   1      38.041  33.673  40.541  1.00  0.00     0.124 S 
ATOM     57  O   UNL A   1      39.053  32.806  41.136  1.00  0.00    -0.237 OA
ATOM     58  O   UNL A   1      37.750  34.908  41.261  1.00  0.00    -0.237 OA
ATOM     59  O   UNL A   1      36.875  32.985  39.989  1.00  0.00    -0.744 OA
ENDBRANCH  52  56
ENDBRANCH  25  49
BRANCH  37  60
ATOM     60  C   UNL A   1      44.198  28.811  35.300  1.00  0.00     0.023 A 
ATOM     61  C   UNL A   1      44.057  27.792  36.258  1.00  0.00     0.031 A 
ATOM     62  C   UNL A   1      45.481  29.341  35.079  1.00  0.00     0.131 A 
ATOM     63  C   UNL A   1      45.171  27.375  37.003  1.00  0.00     0.055 A 
ATOM     64  C   UNL A   1      46.595  28.883  35.783  1.00  0.00     0.041 A 
ATOM     65  F   UNL A   1      45.671  30.318  34.177  1.00  0.00    -0.206 F 
ATOM     66  C   UNL A   1      46.442  27.905  36.762  1.00  0.00     0.022 A 
BRANCH  63  67
ATOM     67  S   UNL A   1      44.920  26.196  38.358  1.00  0.00     0.124 S 
ATOM     68  O   UNL A   1      45.018  24.915  37.667  1.00  0.00    -0.237 OA
ATOM     69  O   UNL A   1      46.018  26.519  39.262  1.00  0.00    -0.237 OA
ATOM     70  O   UNL A   1      43.587  26.528  38.859  1.00  0.00    -0.744 OA
ENDBRANCH  63  67
ENDBRANCH  37  60
ENDBRANCH  11  12
ENDBRANCH   4   6
ENDBRANCH   1   2
BRANCH   1  71
ATOM     71  C   UNL A   1      31.526  31.857  26.569  1.00  0.00     0.023 C 
BRANCH  71  72
ATOM     72  C   UNL A   1      31.640  30.363  26.276  1.00  0.00     0.023 C 
BRANCH  72  73
ATOM     73  C   UNL A   1      33.050  29.787  26.322  1.00  0.00     0.116 C 
BRANCH  73  74
ATOM     74  N   UNL A   1      33.679  29.680  25.015  1.00  0.00    -0.352 N 
ATOM     75  C   UNL A   1      33.542  28.683  24.080  1.00  0.00     0.252 C 
ATOM     76  H   UNL A   1      34.282  30.418  24.768  1.00  0.00     0.163 HD
ATOM     77  O   UNL A   1      34.142  28.727  23.010  1.00  0.00    -0.269 OA
BRANCH  75  78
ATOM     78  C   UNL A   1      32.713  27.506  24.392  1.00  0.00     0.051 A 
ATOM     79  C   UNL A   1      33.353  26.479  25.080  1.00  0.00     0.043 A 
ATOM     80  C   UNL A   1      31.346  27.426  24.051  1.00  0.00     0.013 A 
ATOM     81  C   UNL A   1      32.587  25.398  25.458  1.00  0.00     0.073 A 
ATOM     82  C   UNL A   1      30.655  26.301  24.538  1.00  0.00     0.072 A 
ATOM     83  C   UNL A   1      30.645  28.389  23.284  1.00  0.00     0.011 A 
ATOM     84  N   UNL A   1      31.260  25.307  25.211  1.00  0.00    -0.248 NA
ATOM     85  C   UNL A   1      29.285  26.222  24.324  1.00  0.00     0.029 A 
ATOM     86  C   UNL A   1      29.273  28.282  23.078  1.00  0.00     0.001 A 
ATOM     87  C   UNL A   1      28.587  27.202  23.616  1.00  0.00     0.002 A 
BRANCH  81  88
ATOM     88  C   UNL A   1      33.177  24.256  26.138  1.00  0.00     0.011 A 
ATOM     89  C   UNL A   1      34.526  23.797  26.006  1.00  0.00     0.022 A 
ATOM     90  C   UNL A   1      32.455  23.457  27.004  1.00  0.00     0.075 A 
ATOM     91  C   UNL A   1      34.785  22.695  26.792  1.00  0.00     0.065 A 
ATOM     92  S   UNL A   1      33.402  22.190  27.662  1.00  0.00    -0.152 S 
ENDBRANCH  81  88
ENDBRANCH  75  78
ENDBRANCH  73  74
ENDBRANCH  72  73
ENDBRANCH  71  72
ENDBRANCH   1  71
TORSDOF 15
ENDMDL
MODEL 2
REMARK VINA RESULT:     -12.4      5.644      8.649
REMARK SMILES O=C(NCCCCNC(=O)c1cc(-c2ccsc2)nc2ccccc12)c1ccc(-c2c3nc(c(-c4cc(S(=O)(=O)[O-])ccc4F)c4ccc([nH]4)c(-c4cc(S(=O)(=O)[O-])ccc4F)c4nc(c(-c5cc(S(=O)(=O)[O-])ccc5F)c5ccc2[nH]5)C=C4)C=C3)cc1
REMARK SMILES IDX 4 1 3 2 1 3 2 4 26 6 27 7 88 8 28 9 87 10 29 11 30 12 31 13
REMARK SMILES IDX 81 14 32 15 86 16 80 17 82 18 33 19 85 20 79 21 78 22 34 24
REMARK SMILES IDX 66 25 46 26 65 27 47 28 50 29 64 30 83 31 48 32 49 33 63 35
REMARK SMILES IDX 84 36 51 37 35 38 36 39 44 40 37 41 43 42 45 43 42 44 38 45
REMARK SMILES IDX 39 46 40 47 41 48 67 49 68 50 76 51 69 52 75 53 77 54 74 55
REMARK SMILES IDX 70 56 71 57 72 58 73 59 52 60 53 61 61 62 54 63 60 64 62 65
REMARK SMILES IDX 59 66 55 67 56 68 57 69 58 70 5 71 6 72 7 73 8 74 9 75 10 77
REMARK SMILES IDX 11 78 12 79 25 80 13 81 20 82 24 83 19 84 21 85 23 86 22 87
REMARK SMILES IDX 14 88 15 89 18 90 16 91 17 92
REMARK H PARENT 3 5 82 23 50 34 8 76
REMARK Flexibility Score: inf
ROOT
ATOM      1  C   UNL A   1      36.381  21.960  25.595  1.00  0.00     0.116 C 
ENDROOT
BRANCH   1   2
ATOM      2  N   UNL A   1      37.382  20.904  25.603  1.00  0.00    -0.352 N 
ATOM      3  O   UNL A   1      39.440  19.991  25.710  1.00  0.00    -0.269 OA
ATOM      4  C   UNL A   1      38.727  20.977  25.879  1.00  0.00     0.251 C 
ATOM      5  H   UNL A   1      37.047  20.005  25.380  1.00  0.00     0.163 HD
BRANCH   4   6
ATOM      6  C   UNL A   1      39.320  22.248  26.354  1.00  0.00     0.039 A 
ATOM      7  C   UNL A   1      38.810  23.476  25.928  1.00  0.00     0.014 A 
ATOM      8  C   UNL A   1      40.405  22.208  27.233  1.00  0.00     0.014 A 
ATOM      9  C   UNL A   1      39.477  24.652  26.256  1.00  0.00     0.010 A 
ATOM     10  C   UNL A   1      41.023  23.398  27.631  1.00  0.00     0.010 A 
ATOM     11  C   UNL A   1      40.588  24.629  27.117  1.00  0.00    -0.014 A 
BRANCH  11  12
ATOM     12  C   UNL A   1      41.246  25.908  27.491  1.00  0.00     0.031 A 
ATOM     13  C   UNL A   1      42.624  26.247  26.990  1.00  0.00     0.074 A 
ATOM     14  C   UNL A   1      40.574  26.782  28.266  1.00  0.00     0.049 A 
ATOM     15  N   UNL A   1      43.342  27.319  27.212  1.00  0.00    -0.248 NA
ATOM     16  C   UNL A   1      43.287  25.249  26.138  1.00  0.00     0.031 C 
ATOM     17  C   UNL A   1      39.232  26.557  28.813  1.00  0.00     0.029 A 
ATOM     18  N   UNL A   1      40.909  28.032  28.714  1.00  0.00    -0.354 N 
ATOM     19  C   UNL A   1      44.544  27.122  26.542  1.00  0.00     0.074 A 
ATOM     20  C   UNL A   1      44.470  25.810  25.933  1.00  0.00     0.031 C 
ATOM     21  C   UNL A   1      38.844  27.650  29.487  1.00  0.00     0.029 A 
ATOM     22  C   UNL A   1      39.929  28.624  29.476  1.00  0.00     0.049 A 
ATOM     23  H   UNL A   1      41.769  28.465  28.510  1.00  0.00     0.167 HD
ATOM     24  C   UNL A   1      45.607  27.962  26.439  1.00  0.00     0.034 A 
ATOM     25  C   UNL A   1      39.911  29.809  30.116  1.00  0.00     0.034 A 
ATOM     26  C   UNL A   1      45.662  29.270  27.049  1.00  0.00     0.049 A 
ATOM     27  C   UNL A   1      41.114  30.706  30.014  1.00  0.00     0.074 A 
ATOM     28  C   UNL A   1      46.673  30.214  26.981  1.00  0.00     0.029 A 
ATOM     29  N   UNL A   1      44.667  29.818  27.850  1.00  0.00    -0.354 N 
ATOM     30  N   UNL A   1      42.237  30.507  29.365  1.00  0.00    -0.248 NA
ATOM     31  C   UNL A   1      41.045  31.985  30.730  1.00  0.00     0.031 C 
ATOM     32  C   UNL A   1      46.319  31.301  27.788  1.00  0.00     0.029 A 
ATOM     33  C   UNL A   1      45.055  31.071  28.306  1.00  0.00     0.049 A 
ATOM     34  H   UNL A   1      43.811  29.382  28.063  1.00  0.00     0.167 HD
ATOM     35  C   UNL A   1      43.005  31.646  29.585  1.00  0.00     0.074 A 
ATOM     36  C   UNL A   1      42.207  32.533  30.407  1.00  0.00     0.031 C 
ATOM     37  C   UNL A   1      44.257  31.932  29.147  1.00  0.00     0.034 A 
BRANCH  24  38
ATOM     38  C   UNL A   1      46.812  27.469  25.673  1.00  0.00     0.023 A 
ATOM     39  C   UNL A   1      47.079  27.885  24.357  1.00  0.00     0.031 A 
ATOM     40  C   UNL A   1      47.702  26.554  26.266  1.00  0.00     0.131 A 
ATOM     41  C   UNL A   1      48.165  27.339  23.655  1.00  0.00     0.055 A 
ATOM     42  C   UNL A   1      48.823  26.071  25.587  1.00  0.00     0.041 A 
ATOM     43  F   UNL A   1      47.491  26.105  27.513  1.00  0.00    -0.206 F 
ATOM     44  C   UNL A   1      49.052  26.452  24.269  1.00  0.00     0.022 A 
BRANCH  41  45
ATOM     45  S   UNL A   1      48.325  27.702  21.884  1.00  0.00     0.124 S 
ATOM     46  O   UNL A   1      48.588  26.376  21.332  1.00  0.00    -0.237 OA
ATOM     47  O   UNL A   1      47.026  28.281  21.563  1.00  0.00    -0.237 OA
ATOM     48  O   UNL A   1      49.454  28.627  21.824  1.00  0.00    -0.744 OA
ENDBRANCH  41  45
ENDBRANCH  24  38
BRANCH  25  49
ATOM     49  C   UNL A   1      38.729  30.196  30.934  1.00  0.00     0.023 A 
ATOM     50  C   UNL A   1      37.702  30.988  30.399  1.00  0.00     0.031 A 
ATOM     51  C   UNL A   1      38.620  29.788  32.276  1.00  0.00     0.131 A 
ATOM     52  C   UNL A   1      36.624  31.374  31.212  1.00  0.00     0.055 A 
ATOM     53  C   UNL A   1      37.522  30.133  33.065  1.00  0.00     0.041 A 
ATOM     54  F   UNL A   1      39.573  29.023  32.832  1.00  0.00    -0.206 F 
ATOM     55  C   UNL A   1      36.522  30.941  32.536  1.00  0.00     0.022 A 
BRANCH  52  56
ATOM     56  S   UNL A   1      35.386  32.511  30.530  1.00  0.00     0.124 S 
ATOM     57  O   UNL A   1      36.182  33.711  30.296  1.00  0.00    -0.237 OA
ATOM     58  O   UNL A   1      34.941  31.794  29.339  1.00  0.00    -0.237 OA
ATOM     59  O   UNL A   1      34.396  32.616  31.599  1.00  0.00    -0.744 OA
ENDBRANCH  52  56
ENDBRANCH  25  49
BRANCH  37  60
ATOM     60  C   UNL A   1      44.816  33.279  29.534  1.00  0.00     0.023 A 
ATOM     61  C   UNL A   1      44.593  34.422  28.747  1.00  0.00     0.031 A 
ATOM     62  C   UNL A   1      45.607  33.411  30.689  1.00  0.00     0.131 A 
ATOM     63  C   UNL A   1      45.204  35.637  29.092  1.00  0.00     0.055 A 
ATOM     64  C   UNL A   1      46.166  34.635  31.057  1.00  0.00     0.041 A 
ATOM     65  F   UNL A   1      45.853  32.350  31.474  1.00  0.00    -0.206 F 
ATOM     66  C   UNL A   1      45.978  35.754  30.251  1.00  0.00     0.022 A 
BRANCH  63  67
ATOM     67  S   UNL A   1      45.050  37.042  27.957  1.00  0.00     0.124 S 
ATOM     68  O   UNL A   1      44.083  37.887  28.649  1.00  0.00    -0.237 OA
ATOM     69  O   UNL A   1      46.416  37.551  27.900  1.00  0.00    -0.237 OA
ATOM     70  O   UNL A   1      44.565  36.432  26.719  1.00  0.00    -0.744 OA
ENDBRANCH  63  67
ENDBRANCH  37  60
ENDBRANCH  11  12
ENDBRANCH   4   6
ENDBRANCH   1   2
BRANCH   1  71
ATOM     71  C   UNL A   1      34.954  21.433  25.494  1.00  0.00     0.023 C 
BRANCH  71  72
ATOM     72  C   UNL A   1      34.236  21.209  26.824  1.00  0.00     0.023 C 
BRANCH  72  73
ATOM     73  C   UNL A   1      33.736  22.466  27.525  1.00  0.00     0.116 C 
BRANCH  73  74
ATOM     74  N   UNL A   1      32.292  22.507  27.691  1.00  0.00    -0.352 N 
ATOM     75  C   UNL A   1      31.374  23.269  27.010  1.00  0.00     0.252 C 
ATOM     76  H   UNL A   1      31.924  21.911  28.383  1.00  0.00     0.163 HD
ATOM     77  O   UNL A   1      30.176  23.198  27.261  1.00  0.00    -0.269 OA
BRANCH  75  78
ATOM     78  C   UNL A   1      31.842  24.239  26.004  1.00  0.00     0.051 A 
ATOM     79  C   UNL A   1      31.982  25.551  26.447  1.00  0.00     0.043 A 
ATOM     80  C   UNL A   1      32.166  23.868  24.681  1.00  0.00     0.013 A 
ATOM     81  C   UNL A   1      32.493  26.468  25.554  1.00  0.00     0.073 A 
ATOM     82  C   UNL A   1      32.730  24.877  23.879  1.00  0.00     0.072 A 
ATOM     83  C   UNL A   1      31.976  22.574  24.134  1.00  0.00     0.011 A 
ATOM     84  N   UNL A   1      32.878  26.146  24.297  1.00  0.00    -0.248 NA
ATOM     85  C   UNL A   1      33.166  24.542  22.603  1.00  0.00     0.029 A 
ATOM     86  C   UNL A   1      32.415  22.268  22.849  1.00  0.00     0.001 A 
ATOM     87  C   UNL A   1      33.029  23.252  22.087  1.00  0.00     0.002 A 
BRANCH  81  88
ATOM     88  C   UNL A   1      32.630  27.871  25.909  1.00  0.00     0.011 A 
ATOM     89  C   UNL A   1      33.697  28.453  26.666  1.00  0.00     0.022 A 
ATOM     90  C   UNL A   1      31.692  28.820  25.550  1.00  0.00     0.075 A 
ATOM     91  C   UNL A   1      33.547  29.813  26.826  1.00  0.00     0.065 A 
ATOM     92  S   UNL A   1      32.110  30.389  26.098  1.00  0.00    -0.152 S 
ENDBRANCH  81  88
ENDBRANCH  75  78
ENDBRANCH  73  74
ENDBRANCH  72  73
ENDBRANCH  71  72
ENDBRANCH   1  71
TORSDOF 15
ENDMDL
MODEL 3
REMARK VINA RESULT:     -12.4      1.272      1.688
REMARK SMILES O=C(NCCCCNC(=O)c1cc(-c2ccsc2)nc2ccccc12)c1ccc(-c2c3nc(c(-c4cc(S(=O)(=O)[O-])ccc4F)c4ccc([nH]4)c(-c4cc(S(=O)(=O)[O-])ccc4F)c4nc(c(-c5cc(S(=O)(=O)[O-])ccc5F)c5ccc2[nH]5)C=C4)C=C3)cc1
REMARK SMILES IDX 4 1 3 2 1 3 2 4 26 6 27 7 88 8 28 9 87 10 29 11 30 12 31 13
REMARK SMILES IDX 81 14 32 15 86 16 80 17 82 18 33 19 85 20 79 21 78 22 34 24
REMARK SMILES IDX 66 25 46 26 65 27 47 28 50 29 64 30 83 31 48 32 49 33 63 35
REMARK SMILES IDX 84 36 51 37 35 38 36 39 44 40 37 41 43 42 45 43 42 44 38 45
REMARK SMILES IDX 39 46 40 47 41 48 67 49 68 50 76 51 69 52 75 53 77 54 74 55
REMARK SMILES IDX 70 56 71 57 72 58 73 59 52 60 53 61 61 62 54 63 60 64 62 65
REMARK SMILES IDX 59 66 55 67 56 68 57 69 58 70 5 71 6 72 7 73 8 74 9 75 10 77
REMARK SMILES IDX 11 78 12 79 25 80 13 81 20 82 24 83 19 84 21 85 23 86 22 87
REMARK SMILES IDX 14 88 15 89 18 90 16 91 17 92
REMARK H PARENT 3 5 82 23 50 34 8 76
REMARK Flexibility Score: inf
ROOT
ATOM      1  C   UNL A   1      32.710  32.599  27.162  1.00  0.00     0.116 C 
ENDROOT
BRANCH   1   2
ATOM      2  N   UNL A   1      32.609  33.945  27.704  1.00  0.00    -0.352 N 
ATOM      3  O   UNL A   1      33.011  35.651  29.122  1.00  0.00    -0.269 OA
ATOM      4  C   UNL A   1      33.329  34.536  28.716  1.00  0.00     0.251 C 
ATOM      5  H   UNL A   1      31.927  34.518  27.284  1.00  0.00     0.163 HD
BRANCH   4   6
ATOM      6  C   UNL A   1      34.467  33.819  29.334  1.00  0.00     0.039 A 
ATOM      7  C   UNL A   1      34.250  32.736  30.189  1.00  0.00     0.014 A 
ATOM      8  C   UNL A   1      35.771  34.241  29.056  1.00  0.00     0.014 A 
ATOM      9  C   UNL A   1      35.319  32.178  30.883  1.00  0.00     0.010 A 
ATOM     10  C   UNL A   1      36.853  33.622  29.691  1.00  0.00     0.010 A 
ATOM     11  C   UNL A   1      36.634  32.609  30.638  1.00  0.00    -0.014 A 
BRANCH  11  12
ATOM     12  C   UNL A   1      37.760  31.957  31.356  1.00  0.00     0.031 A 
ATOM     13  C   UNL A   1      38.598  30.899  30.688  1.00  0.00     0.074 A 
ATOM     14  C   UNL A   1      38.044  32.350  32.613  1.00  0.00     0.049 A 
ATOM     15  N   UNL A   1      39.620  30.234  31.164  1.00  0.00    -0.248 NA
ATOM     16  C   UNL A   1      38.235  30.535  29.311  1.00  0.00     0.031 C 
ATOM     17  C   UNL A   1      37.296  33.365  33.363  1.00  0.00     0.029 A 
ATOM     18  N   UNL A   1      39.036  31.966  33.476  1.00  0.00    -0.354 N 
ATOM     19  C   UNL A   1      40.015  29.362  30.155  1.00  0.00     0.074 A 
ATOM     20  C   UNL A   1      39.099  29.562  29.052  1.00  0.00     0.031 C 
ATOM     21  C   UNL A   1      37.882  33.551  34.554  1.00  0.00     0.029 A 
ATOM     22  C   UNL A   1      39.003  32.627  34.681  1.00  0.00     0.049 A 
ATOM     23  H   UNL A   1      39.708  31.282  33.254  1.00  0.00     0.167 HD
ATOM     24  C   UNL A   1      41.051  28.484  30.148  1.00  0.00     0.034 A 
ATOM     25  C   UNL A   1      39.773  32.491  35.778  1.00  0.00     0.034 A 
ATOM     26  C   UNL A   1      41.959  28.302  31.257  1.00  0.00     0.049 A 
ATOM     27  C   UNL A   1      40.892  31.487  35.757  1.00  0.00     0.074 A 
ATOM     28  C   UNL A   1      43.060  27.465  31.344  1.00  0.00     0.029 A 
ATOM     29  N   UNL A   1      41.868  28.959  32.478  1.00  0.00    -0.354 N 
ATOM     30  N   UNL A   1      41.258  30.680  34.788  1.00  0.00    -0.248 NA
ATOM     31  C   UNL A   1      41.701  31.376  36.976  1.00  0.00     0.031 C 
ATOM     32  C   UNL A   1      43.593  27.569  32.634  1.00  0.00     0.029 A 
ATOM     33  C   UNL A   1      42.872  28.523  33.333  1.00  0.00     0.049 A 
ATOM     34  H   UNL A   1      41.191  29.635  32.705  1.00  0.00     0.167 HD
ATOM     35  C   UNL A   1      42.352  29.974  35.280  1.00  0.00     0.074 A 
ATOM     36  C   UNL A   1      42.597  30.468  36.620  1.00  0.00     0.031 C 
ATOM     37  C   UNL A   1      43.087  29.006  34.677  1.00  0.00     0.034 A 
BRANCH  24  38
ATOM     38  C   UNL A   1      41.227  27.624  28.919  1.00  0.00     0.023 A 
ATOM     39  C   UNL A   1      42.242  27.869  27.979  1.00  0.00     0.031 A 
ATOM     40  C   UNL A   1      40.353  26.548  28.677  1.00  0.00     0.131 A 
ATOM     41  C   UNL A   1      42.318  27.095  26.810  1.00  0.00     0.055 A 
ATOM     42  C   UNL A   1      40.479  25.736  27.548  1.00  0.00     0.041 A 
ATOM     43  F   UNL A   1      39.352  26.275  29.528  1.00  0.00    -0.206 F 
ATOM     44  C   UNL A   1      41.458  26.015  26.599  1.00  0.00     0.022 A 
BRANCH  41  45
ATOM     45  S   UNL A   1      43.472  27.603  25.505  1.00  0.00     0.124 S 
ATOM     46  O   UNL A   1      44.071  28.801  26.089  1.00  0.00    -0.237 OA
ATOM     47  O   UNL A   1      44.347  26.443  25.389  1.00  0.00    -0.237 OA
ATOM     48  O   UNL A   1      42.604  27.849  24.355  1.00  0.00    -0.744 OA
ENDBRANCH  41  45
ENDBRANCH  24  38
BRANCH  25  49
ATOM     49  C   UNL A   1      39.488  33.302  36.993  1.00  0.00     0.023 A 
ATOM     50  C   UNL A   1      40.142  34.521  37.224  1.00  0.00     0.031 A 
ATOM     51  C   UNL A   1      38.562  32.855  37.954  1.00  0.00     0.131 A 
ATOM     52  C   UNL A   1      39.885  35.238  38.403  1.00  0.00     0.055 A 
ATOM     53  C   UNL A   1      38.273  33.596  39.100  1.00  0.00     0.041 A 
ATOM     54  F   UNL A   1      37.905  31.698  37.776  1.00  0.00    -0.206 F 
ATOM     55  C   UNL A   1      38.946  34.790  39.335  1.00  0.00     0.022 A 
BRANCH  52  56
ATOM     56  S   UNL A   1      40.850  36.738  38.735  1.00  0.00     0.124 S 
ATOM     57  O   UNL A   1      39.802  37.745  38.859  1.00  0.00    -0.237 OA
ATOM     58  O   UNL A   1      41.547  36.383  39.967  1.00  0.00    -0.237 OA
ATOM     59  O   UNL A   1      41.700  36.863  37.554  1.00  0.00    -0.744 OA
ENDBRANCH  52  56
ENDBRANCH  25  49
BRANCH  37  60
ATOM     60  C   UNL A   1      44.242  28.446  35.468  1.00  0.00     0.023 A 
ATOM     61  C   UNL A   1      44.065  27.396  36.386  1.00  0.00     0.031 A 
ATOM     62  C   UNL A   1      45.529  28.992  35.324  1.00  0.00     0.131 A 
ATOM     63  C   UNL A   1      45.146  26.964  37.169  1.00  0.00     0.055 A 
ATOM     64  C   UNL A   1      46.613  28.520  36.064  1.00  0.00     0.041 A 
ATOM     65  F   UNL A   1      45.753  29.998  34.463  1.00  0.00    -0.206 F 
ATOM     66  C   UNL A   1      46.423  27.510  37.003  1.00  0.00     0.022 A 
BRANCH  63  67
ATOM     67  S   UNL A   1      44.843  25.740  38.472  1.00  0.00     0.124 S 
ATOM     68  O   UNL A   1      43.904  26.445  39.338  1.00  0.00    -0.237 OA
ATOM     69  O   UNL A   1      44.297  24.613  37.723  1.00  0.00    -0.237 OA
ATOM     70  O   UNL A   1      46.168  25.516  39.048  1.00  0.00    -0.744 OA
ENDBRANCH  63  67
ENDBRANCH  37  60
ENDBRANCH  11  12
ENDBRANCH   4   6
ENDBRANCH   1   2
BRANCH   1  71
ATOM     71  C   UNL A   1      31.416  32.114  26.518  1.00  0.00     0.023 C 
BRANCH  71  72
ATOM     72  C   UNL A   1      31.435  30.680  25.990  1.00  0.00     0.023 C 
BRANCH  72  73
ATOM     73  C   UNL A   1      32.776  29.962  26.079  1.00  0.00     0.116 C 
BRANCH  73  74
ATOM     74  N   UNL A   1      33.446  29.816  24.796  1.00  0.00    -0.352 N 
ATOM     75  C   UNL A   1      33.378  28.770  23.910  1.00  0.00     0.252 C 
ATOM     76  H   UNL A   1      34.024  30.567  24.528  1.00  0.00     0.163 HD
ATOM     77  O   UNL A   1      34.005  28.785  22.856  1.00  0.00    -0.269 OA
BRANCH  75  78
ATOM     78  C   UNL A   1      32.590  27.575  24.260  1.00  0.00     0.051 A 
ATOM     79  C   UNL A   1      33.279  26.570  24.933  1.00  0.00     0.043 A 
ATOM     80  C   UNL A   1      31.213  27.458  23.970  1.00  0.00     0.013 A 
ATOM     81  C   UNL A   1      32.553  25.473  25.346  1.00  0.00     0.073 A 
ATOM     82  C   UNL A   1      30.568  26.321  24.489  1.00  0.00     0.072 A 
ATOM     83  C   UNL A   1      30.462  28.398  23.221  1.00  0.00     0.011 A 
ATOM     84  N   UNL A   1      31.221  25.347  25.147  1.00  0.00    -0.248 NA
ATOM     85  C   UNL A   1      29.193  26.207  24.325  1.00  0.00     0.029 A 
ATOM     86  C   UNL A   1      29.086  28.256  23.065  1.00  0.00     0.001 A 
ATOM     87  C   UNL A   1      28.447  27.164  23.636  1.00  0.00     0.002 A 
BRANCH  81  88
ATOM     88  C   UNL A   1      33.195  24.352  26.012  1.00  0.00     0.011 A 
ATOM     89  C   UNL A   1      34.577  23.990  25.920  1.00  0.00     0.022 A 
ATOM     90  C   UNL A   1      32.499  23.476  26.823  1.00  0.00     0.075 A 
ATOM     91  C   UNL A   1      34.882  22.882  26.680  1.00  0.00     0.065 A 
ATOM     92  S   UNL A   1      33.506  22.254  27.478  1.00  0.00    -0.152 S 
ENDBRANCH  81  88
ENDBRANCH  75  78
ENDBRANCH  73  74
ENDBRANCH  72  73
ENDBRANCH  71  72
ENDBRANCH   1  71
TORSDOF 15
ENDMDL
