MODEL 1
REMARK VINA RESULT:     -11.6      0.000      0.000
REMARK SMILES COC(=O)[C@H]1CN(C(=O)[C@@H]2CC=CC[C@@H]2C(=O)NCCCCNC(=O)c2ccc(-c3c4nc(c(-c5cc(S(=O)(=O)[O-])ccc5F)c5ccc([nH]5)c(-c5cc(S(=O)(=O)[O-])ccc5F)c5nc(c(-c6cc(S(=O)(=O)[O-])ccc6F)c6ccc3[nH]6)C=C5)C=C4)cc2)C[C@H]1C
REMARK SMILES IDX 20 1 19 2 18 3 16 4 17 5 15 7 10 8 11 9 12 10 14 11 13 12
REMARK SMILES IDX 8 13 9 14 7 15 5 16 6 17 90 18 89 19 91 20 3 21 4 22 2 23
REMARK SMILES IDX 1 24 21 25 22 26 23 27 24 28 25 30 26 31 27 32 88 33 28 34
REMARK SMILES IDX 87 35 29 36 30 37 31 38 81 39 32 40 86 41 80 42 82 43 33 44
REMARK SMILES IDX 85 45 79 46 78 47 34 49 66 50 46 51 65 52 47 53 50 54 64 55
REMARK SMILES IDX 83 56 48 57 49 58 63 60 84 61 51 62 35 63 36 64 44 65 37 66
REMARK SMILES IDX 43 67 45 68 42 69 38 70 39 71 40 72 41 73 67 74 68 75 76 76
REMARK SMILES IDX 69 77 75 78 77 79 74 80 70 81 71 82 72 83 73 84 52 85 53 86
REMARK SMILES IDX 61 87 54 88 60 89 62 90 59 91 55 92 56 93 57 94 58 95
REMARK H PARENT 18 6 23 29 82 48 50 59
REMARK Flexibility Score: inf
ROOT
ATOM      1  C   UNL A   1      31.728  30.708  26.895  1.00  0.00     0.023 C 
ENDROOT
BRANCH   1   2
ATOM      2  C   UNL A   1      33.162  30.180  26.913  1.00  0.00     0.116 C 
BRANCH   2   3
ATOM      3  N   UNL A   1      33.597  29.581  25.661  1.00  0.00    -0.356 N 
ATOM      4  C   UNL A   1      32.898  29.080  24.603  1.00  0.00     0.224 C 
ATOM      5  O   UNL A   1      33.534  28.825  23.577  1.00  0.00    -0.275 OA
ATOM      6  H   UNL A   1      34.575  29.529  25.559  1.00  0.00     0.163 HD
BRANCH   4   7
ATOM      7  C   UNL A   1      31.401  28.831  24.691  1.00  0.00     0.095 C 
ATOM      8  C   UNL A   1      30.956  27.437  25.201  1.00  0.00     0.095 C 
ATOM      9  C   UNL A   1      30.529  26.375  24.168  1.00  0.00     0.041 C 
ATOM     10  C   UNL A   1      30.441  26.830  22.751  1.00  0.00    -0.030 C 
ATOM     11  C   UNL A   1      30.744  29.228  23.351  1.00  0.00     0.041 C 
ATOM     12  C   UNL A   1      30.536  28.109  22.380  1.00  0.00    -0.030 C 
BRANCH   8  13
ATOM     13  C   UNL A   1      31.781  26.771  26.310  1.00  0.00     0.226 C 
ATOM     14  O   UNL A   1      31.594  27.157  27.471  1.00  0.00    -0.275 OA
BRANCH  13  15
ATOM     15  N   UNL A   1      32.650  25.732  26.053  1.00  0.00    -0.341 N 
ATOM     16  C   UNL A   1      33.334  23.452  25.747  1.00  0.00     0.123 C 
ATOM     17  C   UNL A   1      32.295  24.366  26.407  1.00  0.00     0.135 C 
ATOM     18  C   UNL A   1      34.367  24.399  25.093  1.00  0.00     0.021 C 
ATOM     19  C   UNL A   1      34.032  25.782  25.634  1.00  0.00     0.123 C 
ATOM     20  C   UNL A   1      35.846  24.104  25.343  1.00  0.00     0.010 C 
BRANCH  16  21
ATOM     21  C   UNL A   1      33.916  22.443  26.719  1.00  0.00     0.310 C 
ATOM     22  O   UNL A   1      34.214  22.666  27.879  1.00  0.00    -0.252 OA
BRANCH  21  23
ATOM     23  O   UNL A   1      34.089  21.249  26.081  1.00  0.00    -0.469 OA
ATOM     24  C   UNL A   1      33.162  21.005  25.018  1.00  0.00     0.282 C 
ENDBRANCH  21  23
ENDBRANCH  16  21
ENDBRANCH  13  15
ENDBRANCH   8  13
ENDBRANCH   4   7
ENDBRANCH   2   3
ENDBRANCH   1   2
BRANCH   1  25
ATOM     25  C   UNL A   1      31.578  32.227  26.888  1.00  0.00     0.023 C 
BRANCH  25  26
ATOM     26  C   UNL A   1      32.872  33.000  27.076  1.00  0.00     0.116 C 
BRANCH  26  27
ATOM     27  N   UNL A   1      32.647  34.289  27.712  1.00  0.00    -0.352 N 
ATOM     28  C   UNL A   1      33.176  34.808  28.870  1.00  0.00     0.251 C 
ATOM     29  H   UNL A   1      32.019  34.882  27.239  1.00  0.00     0.163 HD
ATOM     30  O   UNL A   1      32.670  35.815  29.358  1.00  0.00    -0.269 OA
BRANCH  28  31
ATOM     31  C   UNL A   1      34.332  34.158  29.532  1.00  0.00     0.039 A 
ATOM     32  C   UNL A   1      35.626  34.510  29.140  1.00  0.00     0.014 A 
ATOM     33  C   UNL A   1      34.150  33.178  30.512  1.00  0.00     0.014 A 
ATOM     34  C   UNL A   1      36.729  33.921  29.766  1.00  0.00     0.010 A 
ATOM     35  C   UNL A   1      35.244  32.673  31.206  1.00  0.00     0.010 A 
ATOM     36  C   UNL A   1      36.548  33.022  30.830  1.00  0.00    -0.014 A 
BRANCH  36  37
ATOM     37  C   UNL A   1      37.704  32.398  31.528  1.00  0.00     0.031 A 
ATOM     38  C   UNL A   1      38.441  31.256  30.877  1.00  0.00     0.074 A 
ATOM     39  C   UNL A   1      38.057  32.820  32.759  1.00  0.00     0.049 A 
ATOM     40  N   UNL A   1      39.406  30.511  31.354  1.00  0.00    -0.248 NA
ATOM     41  C   UNL A   1      38.011  30.879  29.521  1.00  0.00     0.031 C 
ATOM     42  C   UNL A   1      37.401  33.897  33.504  1.00  0.00     0.029 A 
ATOM     43  N   UNL A   1      39.052  32.394  33.604  1.00  0.00    -0.354 N 
ATOM     44  C   UNL A   1      39.691  29.579  30.361  1.00  0.00     0.074 A 
ATOM     45  C   UNL A   1      38.741  29.800  29.293  1.00  0.00     0.031 C 
ATOM     46  C   UNL A   1      38.030  34.066  34.679  1.00  0.00     0.029 A 
ATOM     47  C   UNL A   1      39.094  33.075  34.799  1.00  0.00     0.049 A 
ATOM     48  H   UNL A   1      39.676  31.668  33.376  1.00  0.00     0.167 HD
ATOM     49  C   UNL A   1      40.678  28.650  30.325  1.00  0.00     0.034 A 
ATOM     50  C   UNL A   1      39.888  32.906  35.876  1.00  0.00     0.034 A 
ATOM     51  C   UNL A   1      41.624  28.448  31.394  1.00  0.00     0.049 A 
ATOM     52  C   UNL A   1      40.948  31.830  35.834  1.00  0.00     0.074 A 
ATOM     53  C   UNL A   1      42.676  27.552  31.458  1.00  0.00     0.029 A 
ATOM     54  N   UNL A   1      41.633  29.155  32.590  1.00  0.00    -0.354 N 
ATOM     55  N   UNL A   1      41.224  30.979  34.871  1.00  0.00    -0.248 NA
ATOM     56  C   UNL A   1      41.809  31.698  37.016  1.00  0.00     0.031 C 
ATOM     57  C   UNL A   1      43.276  27.668  32.716  1.00  0.00     0.029 A 
ATOM     58  C   UNL A   1      42.655  28.697  33.405  1.00  0.00     0.049 A 
ATOM     59  H   UNL A   1      41.004  29.875  32.824  1.00  0.00     0.167 HD
ATOM     60  C   UNL A   1      42.316  30.241  35.320  1.00  0.00     0.074 A 
ATOM     61  C   UNL A   1      42.657  30.758  36.629  1.00  0.00     0.031 C 
ATOM     62  C   UNL A   1      42.981  29.228  34.708  1.00  0.00     0.034 A 
BRANCH  49  63
ATOM     63  C   UNL A   1      40.770  27.779  29.093  1.00  0.00     0.023 A 
ATOM     64  C   UNL A   1      41.704  28.046  28.075  1.00  0.00     0.031 A 
ATOM     65  C   UNL A   1      39.906  26.684  28.919  1.00  0.00     0.131 A 
ATOM     66  C   UNL A   1      41.699  27.280  26.900  1.00  0.00     0.055 A 
ATOM     67  C   UNL A   1      39.966  25.871  27.785  1.00  0.00     0.041 A 
ATOM     68  F   UNL A   1      38.978  26.393  29.844  1.00  0.00    -0.206 F 
ATOM     69  C   UNL A   1      40.856  26.176  26.760  1.00  0.00     0.022 A 
BRANCH  66  70
ATOM     70  S   UNL A   1      42.707  27.839  25.500  1.00  0.00     0.124 S 
ATOM     71  O   UNL A   1      41.895  28.934  24.972  1.00  0.00    -0.237 OA
ATOM     72  O   UNL A   1      43.958  28.224  26.143  1.00  0.00    -0.237 OA
ATOM     73  O   UNL A   1      42.784  26.660  24.640  1.00  0.00    -0.744 OA
ENDBRANCH  66  70
ENDBRANCH  49  63
BRANCH  50  74
ATOM     74  C   UNL A   1      39.714  33.753  37.094  1.00  0.00     0.023 A 
ATOM     75  C   UNL A   1      39.078  33.250  38.240  1.00  0.00     0.031 A 
ATOM     76  C   UNL A   1      40.114  35.102  37.105  1.00  0.00     0.131 A 
ATOM     77  C   UNL A   1      38.797  34.104  39.318  1.00  0.00     0.055 A 
ATOM     78  C   UNL A   1      39.896  35.930  38.208  1.00  0.00     0.041 A 
ATOM     79  F   UNL A   1      40.730  35.639  36.039  1.00  0.00    -0.206 F 
ATOM     80  C   UNL A   1      39.215  35.436  39.317  1.00  0.00     0.022 A 
BRANCH  77  81
ATOM     81  S   UNL A   1      37.757  33.482  40.669  1.00  0.00     0.124 S 
ATOM     82  O   UNL A   1      38.613  32.456  41.251  1.00  0.00    -0.237 OA
ATOM     83  O   UNL A   1      37.556  34.683  41.472  1.00  0.00    -0.237 OA
ATOM     84  O   UNL A   1      36.568  32.987  39.980  1.00  0.00    -0.744 OA
ENDBRANCH  77  81
ENDBRANCH  50  74
BRANCH  62  85
ATOM     85  C   UNL A   1      44.181  28.656  35.426  1.00  0.00     0.023 A 
ATOM     86  C   UNL A   1      44.062  27.605  36.352  1.00  0.00     0.031 A 
ATOM     87  C   UNL A   1      45.464  29.178  35.180  1.00  0.00     0.131 A 
ATOM     88  C   UNL A   1      45.195  27.151  37.042  1.00  0.00     0.055 A 
ATOM     89  C   UNL A   1      46.598  28.675  35.818  1.00  0.00     0.041 A 
ATOM     90  F   UNL A   1      45.637  30.184  34.308  1.00  0.00    -0.206 F 
ATOM     91  C   UNL A   1      46.465  27.664  36.766  1.00  0.00     0.022 A 
BRANCH  88  92
ATOM     92  S   UNL A   1      44.975  25.943  38.376  1.00  0.00     0.124 S 
ATOM     93  O   UNL A   1      44.501  24.770  37.649  1.00  0.00    -0.237 OA
ATOM     94  O   UNL A   1      46.319  25.846  38.935  1.00  0.00    -0.237 OA
ATOM     95  O   UNL A   1      43.986  26.573  39.249  1.00  0.00    -0.744 OA
ENDBRANCH  88  92
ENDBRANCH  62  85
ENDBRANCH  36  37
ENDBRANCH  28  31
ENDBRANCH  26  27
ENDBRANCH  25  26
ENDBRANCH   1  25
TORSDOF 18
ENDMDL
MODEL 2
REMARK VINA RESULT:     -11.4      1.913      7.780
REMARK SMILES COC(=O)[C@H]1CN(C(=O)[C@@H]2CC=CC[C@@H]2C(=O)NCCCCNC(=O)c2ccc(-c3c4nc(c(-c5cc(S(=O)(=O)[O-])ccc5F)c5ccc([nH]5)c(-c5cc(S(=O)(=O)[O-])ccc5F)c5nc(c(-c6cc(S(=O)(=O)[O-])ccc6F)c6ccc3[nH]6)C=C5)C=C4)cc2)C[C@H]1C
REMARK SMILES IDX 20 1 19 2 18 3 16 4 17 5 15 7 10 8 11 9 12 10 14 11 13 12
REMARK SMILES IDX 8 13 9 14 7 15 5 16 6 17 90 18 89 19 91 20 3 21 4 22 2 23
REMARK SMILES IDX 1 24 21 25 22 26 23 27 24 28 25 30 26 31 27 32 88 33 28 34
REMARK SMILES IDX 87 35 29 36 30 37 31 38 81 39 32 40 86 41 80 42 82 43 33 44
REMARK SMILES IDX 85 45 79 46 78 47 34 49 66 50 46 51 65 52 47 53 50 54 64 55
REMARK SMILES IDX 83 56 48 57 49 58 63 60 84 61 51 62 35 63 36 64 44 65 37 66
REMARK SMILES IDX 43 67 45 68 42 69 38 70 39 71 40 72 41 73 67 74 68 75 76 76
REMARK SMILES IDX 69 77 75 78 77 79 74 80 70 81 71 82 72 83 73 84 52 85 53 86
REMARK SMILES IDX 61 87 54 88 60 89 62 90 59 91 55 92 56 93 57 94 58 95
REMARK H PARENT 18 6 23 29 82 48 50 59
REMARK Flexibility Score: inf
ROOT
ATOM      1  C   UNL A   1      34.044  30.164  27.552  1.00  0.00     0.023 C 
ENDROOT
BRANCH   1   2
ATOM      2  C   UNL A   1      34.156  28.865  26.756  1.00  0.00     0.116 C 
BRANCH   2   3
ATOM      3  N   UNL A   1      34.256  29.049  25.316  1.00  0.00    -0.356 N 
ATOM      4  C   UNL A   1      33.352  28.866  24.312  1.00  0.00     0.224 C 
ATOM      5  O   UNL A   1      33.650  29.306  23.198  1.00  0.00    -0.275 OA
ATOM      6  H   UNL A   1      35.138  29.365  25.012  1.00  0.00     0.163 HD
BRANCH   4   7
ATOM      7  C   UNL A   1      32.041  28.136  24.553  1.00  0.00     0.095 C 
ATOM      8  C   UNL A   1      31.711  26.963  23.596  1.00  0.00     0.095 C 
ATOM      9  C   UNL A   1      30.736  27.214  22.429  1.00  0.00     0.041 C 
ATOM     10  C   UNL A   1      30.070  28.547  22.400  1.00  0.00    -0.030 C 
ATOM     11  C   UNL A   1      30.900  29.172  24.664  1.00  0.00     0.041 C 
ATOM     12  C   UNL A   1      30.140  29.428  23.401  1.00  0.00    -0.030 C 
BRANCH   8  13
ATOM     13  C   UNL A   1      32.863  26.067  23.120  1.00  0.00     0.226 C 
ATOM     14  O   UNL A   1      33.303  26.261  21.981  1.00  0.00    -0.275 OA
BRANCH  13  15
ATOM     15  N   UNL A   1      33.445  25.126  23.941  1.00  0.00    -0.341 N 
ATOM     16  C   UNL A   1      34.996  23.406  24.574  1.00  0.00     0.123 C 
ATOM     17  C   UNL A   1      34.312  24.096  23.388  1.00  0.00     0.135 C 
ATOM     18  C   UNL A   1      34.369  24.035  25.840  1.00  0.00     0.021 C 
ATOM     19  C   UNL A   1      33.181  24.841  25.333  1.00  0.00     0.123 C 
ATOM     20  C   UNL A   1      33.899  23.081  26.938  1.00  0.00     0.010 C 
BRANCH  16  21
ATOM     21  C   UNL A   1      34.899  21.894  24.496  1.00  0.00     0.310 C 
ATOM     22  O   UNL A   1      35.748  21.108  24.878  1.00  0.00    -0.252 OA
BRANCH  21  23
ATOM     23  O   UNL A   1      33.723  21.546  23.898  1.00  0.00    -0.469 OA
ATOM     24  C   UNL A   1      33.148  20.329  24.384  1.00  0.00     0.282 C 
ENDBRANCH  21  23
ENDBRANCH  16  21
ENDBRANCH  13  15
ENDBRANCH   8  13
ENDBRANCH   4   7
ENDBRANCH   2   3
ENDBRANCH   1   2
BRANCH   1  25
ATOM     25  C   UNL A   1      33.491  31.367  26.789  1.00  0.00     0.023 C 
BRANCH  25  26
ATOM     26  C   UNL A   1      32.314  32.059  27.451  1.00  0.00     0.116 C 
BRANCH  26  27
ATOM     27  N   UNL A   1      32.524  33.494  27.570  1.00  0.00    -0.352 N 
ATOM     28  C   UNL A   1      33.450  34.193  28.307  1.00  0.00     0.251 C 
ATOM     29  H   UNL A   1      31.908  34.049  27.041  1.00  0.00     0.163 HD
ATOM     30  O   UNL A   1      33.302  35.403  28.458  1.00  0.00    -0.269 OA
BRANCH  28  31
ATOM     31  C   UNL A   1      34.606  33.501  28.924  1.00  0.00     0.039 A 
ATOM     32  C   UNL A   1      34.405  32.733  30.075  1.00  0.00     0.014 A 
ATOM     33  C   UNL A   1      35.895  33.633  28.399  1.00  0.00     0.014 A 
ATOM     34  C   UNL A   1      35.480  32.059  30.660  1.00  0.00     0.010 A 
ATOM     35  C   UNL A   1      36.941  32.877  28.919  1.00  0.00     0.010 A 
ATOM     36  C   UNL A   1      36.753  32.096  30.067  1.00  0.00    -0.014 A 
BRANCH  36  37
ATOM     37  C   UNL A   1      37.910  31.370  30.657  1.00  0.00     0.031 A 
ATOM     38  C   UNL A   1      38.395  31.734  32.037  1.00  0.00     0.074 A 
ATOM     39  C   UNL A   1      38.551  30.427  29.939  1.00  0.00     0.049 A 
ATOM     40  N   UNL A   1      39.440  31.297  32.692  1.00  0.00    -0.248 NA
ATOM     41  C   UNL A   1      37.618  32.752  32.763  1.00  0.00     0.031 C 
ATOM     42  C   UNL A   1      38.194  30.009  28.581  1.00  0.00     0.029 A 
ATOM     43  N   UNL A   1      39.640  29.650  30.246  1.00  0.00    -0.354 N 
ATOM     44  C   UNL A   1      39.447  31.988  33.899  1.00  0.00     0.074 A 
ATOM     45  C   UNL A   1      38.353  32.933  33.848  1.00  0.00     0.031 C 
ATOM     46  C   UNL A   1      39.029  29.033  28.187  1.00  0.00     0.029 A 
ATOM     47  C   UNL A   1      40.015  28.794  29.235  1.00  0.00     0.049 A 
ATOM     48  H   UNL A   1      40.111  29.701  31.110  1.00  0.00     0.167 HD
ATOM     49  C   UNL A   1      40.267  31.825  34.968  1.00  0.00     0.034 A 
ATOM     50  C   UNL A   1      41.048  27.929  29.157  1.00  0.00     0.034 A 
ATOM     51  C   UNL A   1      41.347  30.873  35.007  1.00  0.00     0.049 A 
ATOM     52  C   UNL A   1      41.978  27.803  30.340  1.00  0.00     0.074 A 
ATOM     53  C   UNL A   1      42.227  30.608  36.041  1.00  0.00     0.029 A 
ATOM     54  N   UNL A   1      41.698  30.026  33.963  1.00  0.00    -0.354 N 
ATOM     55  N   UNL A   1      41.950  28.442  31.487  1.00  0.00    -0.248 NA
ATOM     56  C   UNL A   1      43.073  26.831  30.223  1.00  0.00     0.031 C 
ATOM     57  C   UNL A   1      43.149  29.654  35.600  1.00  0.00     0.029 A 
ATOM     58  C   UNL A   1      42.793  29.258  34.320  1.00  0.00     0.049 A 
ATOM     59  H   UNL A   1      41.234  29.979  33.095  1.00  0.00     0.167 HD
ATOM     60  C   UNL A   1      42.998  27.919  32.240  1.00  0.00     0.074 A 
ATOM     61  C   UNL A   1      43.626  26.901  31.424  1.00  0.00     0.031 C 
ATOM     62  C   UNL A   1      43.406  28.245  33.493  1.00  0.00     0.034 A 
BRANCH  49  63
ATOM     63  C   UNL A   1      40.024  32.707  36.171  1.00  0.00     0.023 A 
ATOM     64  C   UNL A   1      39.174  32.305  37.216  1.00  0.00     0.031 A 
ATOM     65  C   UNL A   1      40.630  33.972  36.270  1.00  0.00     0.131 A 
ATOM     66  C   UNL A   1      38.893  33.184  38.271  1.00  0.00     0.055 A 
ATOM     67  C   UNL A   1      40.415  34.808  37.367  1.00  0.00     0.041 A 
ATOM     68  F   UNL A   1      41.434  34.423  35.293  1.00  0.00    -0.206 F 
ATOM     69  C   UNL A   1      39.530  34.423  38.370  1.00  0.00     0.022 A 
BRANCH  66  70
ATOM     70  S   UNL A   1      37.571  32.746  39.433  1.00  0.00     0.124 S 
ATOM     71  O   UNL A   1      37.582  33.895  40.338  1.00  0.00    -0.237 OA
ATOM     72  O   UNL A   1      36.408  32.633  38.561  1.00  0.00    -0.237 OA
ATOM     73  O   UNL A   1      38.035  31.493  40.024  1.00  0.00    -0.744 OA
ENDBRANCH  66  70
ENDBRANCH  49  63
BRANCH  50  74
ATOM     74  C   UNL A   1      41.278  27.126  27.918  1.00  0.00     0.023 A 
ATOM     75  C   UNL A   1      40.932  25.767  27.863  1.00  0.00     0.031 A 
ATOM     76  C   UNL A   1      41.916  27.687  26.797  1.00  0.00     0.131 A 
ATOM     77  C   UNL A   1      41.287  24.998  26.744  1.00  0.00     0.055 A 
ATOM     78  C   UNL A   1      42.204  26.934  25.656  1.00  0.00     0.041 A 
ATOM     79  F   UNL A   1      42.268  28.983  26.790  1.00  0.00    -0.206 F 
ATOM     80  C   UNL A   1      41.907  25.575  25.634  1.00  0.00     0.022 A 
BRANCH  77  81
ATOM     81  S   UNL A   1      41.047  23.200  26.816  1.00  0.00     0.124 S 
ATOM     82  O   UNL A   1      41.915  22.744  25.737  1.00  0.00    -0.237 OA
ATOM     83  O   UNL A   1      41.490  22.892  28.171  1.00  0.00    -0.237 OA
ATOM     84  O   UNL A   1      39.615  23.040  26.577  1.00  0.00    -0.744 OA
ENDBRANCH  77  81
ENDBRANCH  50  74
BRANCH  62  85
ATOM     85  C   UNL A   1      44.549  27.449  34.076  1.00  0.00     0.023 A 
ATOM     86  C   UNL A   1      44.346  26.212  34.711  1.00  0.00     0.031 A 
ATOM     87  C   UNL A   1      45.864  27.944  33.997  1.00  0.00     0.131 A 
ATOM     88  C   UNL A   1      45.430  25.540  35.294  1.00  0.00     0.055 A 
ATOM     89  C   UNL A   1      46.948  27.238  34.518  1.00  0.00     0.041 A 
ATOM     90  F   UNL A   1      46.116  29.122  33.404  1.00  0.00    -0.206 F 
ATOM     91  C   UNL A   1      46.733  26.034  35.184  1.00  0.00     0.022 A 
BRANCH  88  92
ATOM     92  S   UNL A   1      45.104  24.056  36.284  1.00  0.00     0.124 S 
ATOM     93  O   UNL A   1      44.958  24.612  37.625  1.00  0.00    -0.237 OA
ATOM     94  O   UNL A   1      43.884  23.536  35.674  1.00  0.00    -0.237 OA
ATOM     95  O   UNL A   1      46.297  23.237  36.078  1.00  0.00    -0.744 OA
ENDBRANCH  88  92
ENDBRANCH  62  85
ENDBRANCH  36  37
ENDBRANCH  28  31
ENDBRANCH  26  27
ENDBRANCH  25  26
ENDBRANCH   1  25
TORSDOF 18
ENDMDL
MODEL 3
REMARK VINA RESULT:     -11.3      0.747      7.720
REMARK SMILES COC(=O)[C@H]1CN(C(=O)[C@@H]2CC=CC[C@@H]2C(=O)NCCCCNC(=O)c2ccc(-c3c4nc(c(-c5cc(S(=O)(=O)[O-])ccc5F)c5ccc([nH]5)c(-c5cc(S(=O)(=O)[O-])ccc5F)c5nc(c(-c6cc(S(=O)(=O)[O-])ccc6F)c6ccc3[nH]6)C=C5)C=C4)cc2)C[C@H]1C
REMARK SMILES IDX 20 1 19 2 18 3 16 4 17 5 15 7 10 8 11 9 12 10 14 11 13 12
REMARK SMILES IDX 8 13 9 14 7 15 5 16 6 17 90 18 89 19 91 20 3 21 4 22 2 23
REMARK SMILES IDX 1 24 21 25 22 26 23 27 24 28 25 30 26 31 27 32 88 33 28 34
REMARK SMILES IDX 87 35 29 36 30 37 31 38 81 39 32 40 86 41 80 42 82 43 33 44
REMARK SMILES IDX 85 45 79 46 78 47 34 49 66 50 46 51 65 52 47 53 50 54 64 55
REMARK SMILES IDX 83 56 48 57 49 58 63 60 84 61 51 62 35 63 36 64 44 65 37 66
REMARK SMILES IDX 43 67 45 68 42 69 38 70 39 71 40 72 41 73 67 74 68 75 76 76
REMARK SMILES IDX 69 77 75 78 77 79 74 80 70 81 71 82 72 83 73 84 52 85 53 86
REMARK SMILES IDX 61 87 54 88 60 89 62 90 59 91 55 92 56 93 57 94 58 95
REMARK H PARENT 18 6 23 29 82 48 50 59
REMARK Flexibility Score: inf
ROOT
ATOM      1  C   UNL A   1      31.546  30.972  26.792  1.00  0.00     0.023 C 
ENDROOT
BRANCH   1   2
ATOM      2  C   UNL A   1      32.925  30.321  26.885  1.00  0.00     0.116 C 
BRANCH   2   3
ATOM      3  N   UNL A   1      33.482  29.908  25.606  1.00  0.00    -0.356 N 
ATOM      4  C   UNL A   1      32.969  29.153  24.594  1.00  0.00     0.224 C 
ATOM      5  O   UNL A   1      33.591  29.141  23.528  1.00  0.00    -0.275 OA
ATOM      6  H   UNL A   1      34.396  30.235  25.442  1.00  0.00     0.163 HD
BRANCH   4   7
ATOM      7  C   UNL A   1      31.693  28.348  24.777  1.00  0.00     0.095 C 
ATOM      8  C   UNL A   1      31.834  26.805  24.760  1.00  0.00     0.095 C 
ATOM      9  C   UNL A   1      31.490  26.047  23.463  1.00  0.00     0.041 C 
ATOM     10  C   UNL A   1      30.903  26.858  22.359  1.00  0.00    -0.030 C 
ATOM     11  C   UNL A   1      30.620  28.873  23.797  1.00  0.00     0.041 C 
ATOM     12  C   UNL A   1      30.510  28.126  22.505  1.00  0.00    -0.030 C 
BRANCH   8  13
ATOM     13  C   UNL A   1      33.081  26.182  25.403  1.00  0.00     0.226 C 
ATOM     14  O   UNL A   1      33.583  26.775  26.366  1.00  0.00    -0.275 OA
BRANCH  13  15
ATOM     15  N   UNL A   1      33.594  24.974  24.985  1.00  0.00    -0.341 N 
ATOM     16  C   UNL A   1      33.658  22.595  24.667  1.00  0.00     0.123 C 
ATOM     17  C   UNL A   1      33.082  23.725  25.528  1.00  0.00     0.135 C 
ATOM     18  C   UNL A   1      34.624  23.281  23.672  1.00  0.00     0.021 C 
ATOM     19  C   UNL A   1      34.765  24.709  24.181  1.00  0.00     0.123 C 
ATOM     20  C   UNL A   1      36.013  22.666  23.506  1.00  0.00     0.010 C 
BRANCH  16  21
ATOM     21  C   UNL A   1      34.279  21.491  25.502  1.00  0.00     0.310 C 
ATOM     22  O   UNL A   1      34.974  21.653  26.489  1.00  0.00    -0.252 OA
BRANCH  21  23
ATOM     23  O   UNL A   1      33.965  20.280  24.956  1.00  0.00    -0.469 OA
ATOM     24  C   UNL A   1      32.692  20.237  24.303  1.00  0.00     0.282 C 
ENDBRANCH  21  23
ENDBRANCH  16  21
ENDBRANCH  13  15
ENDBRANCH   8  13
ENDBRANCH   4   7
ENDBRANCH   2   3
ENDBRANCH   1   2
BRANCH   1  25
ATOM     25  C   UNL A   1      31.527  32.499  26.813  1.00  0.00     0.023 C 
BRANCH  25  26
ATOM     26  C   UNL A   1      32.829  33.149  27.246  1.00  0.00     0.116 C 
BRANCH  26  27
ATOM     27  N   UNL A   1      32.602  34.408  27.940  1.00  0.00    -0.352 N 
ATOM     28  C   UNL A   1      33.133  34.874  29.119  1.00  0.00     0.251 C 
ATOM     29  H   UNL A   1      31.972  35.020  27.497  1.00  0.00     0.163 HD
ATOM     30  O   UNL A   1      32.626  35.857  29.654  1.00  0.00    -0.269 OA
BRANCH  28  31
ATOM     31  C   UNL A   1      34.292  34.199  29.748  1.00  0.00     0.039 A 
ATOM     32  C   UNL A   1      34.066  33.265  30.764  1.00  0.00     0.014 A 
ATOM     33  C   UNL A   1      35.603  34.504  29.372  1.00  0.00     0.014 A 
ATOM     34  C   UNL A   1      35.146  32.604  31.357  1.00  0.00     0.010 A 
ATOM     35  C   UNL A   1      36.667  33.770  29.886  1.00  0.00     0.010 A 
ATOM     36  C   UNL A   1      36.455  32.825  30.899  1.00  0.00    -0.014 A 
BRANCH  36  37
ATOM     37  C   UNL A   1      37.620  32.119  31.497  1.00  0.00     0.031 A 
ATOM     38  C   UNL A   1      38.173  32.580  32.821  1.00  0.00     0.074 A 
ATOM     39  C   UNL A   1      38.209  31.105  30.832  1.00  0.00     0.049 A 
ATOM     40  N   UNL A   1      39.235  32.170  33.466  1.00  0.00    -0.248 NA
ATOM     41  C   UNL A   1      37.451  33.672  33.494  1.00  0.00     0.031 C 
ATOM     42  C   UNL A   1      37.784  30.589  29.528  1.00  0.00     0.029 A 
ATOM     43  N   UNL A   1      39.293  30.328  31.155  1.00  0.00    -0.354 N 
ATOM     44  C   UNL A   1      39.311  32.955  34.612  1.00  0.00     0.074 A 
ATOM     45  C   UNL A   1      38.236  33.920  34.530  1.00  0.00     0.031 C 
ATOM     46  C   UNL A   1      38.579  29.564  29.180  1.00  0.00     0.029 A 
ATOM     47  C   UNL A   1      39.604  29.385  30.202  1.00  0.00     0.049 A 
ATOM     48  H   UNL A   1      39.802  30.436  31.991  1.00  0.00     0.167 HD
ATOM     49  C   UNL A   1      40.172  32.858  35.655  1.00  0.00     0.034 A 
ATOM     50  C   UNL A   1      40.613  28.490  30.151  1.00  0.00     0.034 A 
ATOM     51  C   UNL A   1      41.232  31.884  35.726  1.00  0.00     0.049 A 
ATOM     52  C   UNL A   1      41.591  28.435  31.301  1.00  0.00     0.074 A 
ATOM     53  C   UNL A   1      42.150  31.681  36.741  1.00  0.00     0.029 A 
ATOM     54  N   UNL A   1      41.518  30.948  34.740  1.00  0.00    -0.354 N 
ATOM     55  N   UNL A   1      41.627  29.165  32.393  1.00  0.00    -0.248 NA
ATOM     56  C   UNL A   1      42.658  27.429  31.218  1.00  0.00     0.031 C 
ATOM     57  C   UNL A   1      43.031  30.670  36.340  1.00  0.00     0.029 A 
ATOM     58  C   UNL A   1      42.611  30.183  35.113  1.00  0.00     0.049 A 
ATOM     59  H   UNL A   1      41.016  30.843  33.899  1.00  0.00     0.167 HD
ATOM     60  C   UNL A   1      42.695  28.677  33.141  1.00  0.00     0.074 A 
ATOM     61  C   UNL A   1      43.264  27.581  32.385  1.00  0.00     0.031 C 
ATOM     62  C   UNL A   1      43.164  29.091  34.345  1.00  0.00     0.034 A 
BRANCH  49  63
ATOM     63  C   UNL A   1      40.002  33.839  36.791  1.00  0.00     0.023 A 
ATOM     64  C   UNL A   1      39.457  33.444  38.026  1.00  0.00     0.031 A 
ATOM     65  C   UNL A   1      40.368  35.188  36.639  1.00  0.00     0.131 A 
ATOM     66  C   UNL A   1      39.221  34.397  39.027  1.00  0.00     0.055 A 
ATOM     67  C   UNL A   1      40.212  36.115  37.671  1.00  0.00     0.041 A 
ATOM     68  F   UNL A   1      40.872  35.632  35.476  1.00  0.00    -0.206 F 
ATOM     69  C   UNL A   1      39.622  35.725  38.870  1.00  0.00     0.022 A 
BRANCH  66  70
ATOM     70  S   UNL A   1      38.250  33.905  40.478  1.00  0.00     0.124 S 
ATOM     71  O   UNL A   1      37.099  33.255  39.854  1.00  0.00    -0.237 OA
ATOM     72  O   UNL A   1      39.169  33.028  41.192  1.00  0.00    -0.237 OA
ATOM     73  O   UNL A   1      37.956  35.175  41.139  1.00  0.00    -0.744 OA
ENDBRANCH  66  70
ENDBRANCH  49  63
BRANCH  50  74
ATOM     74  C   UNL A   1      40.772  27.585  28.973  1.00  0.00     0.023 A 
ATOM     75  C   UNL A   1      41.712  27.863  27.969  1.00  0.00     0.031 A 
ATOM     76  C   UNL A   1      39.935  26.468  28.797  1.00  0.00     0.131 A 
ATOM     77  C   UNL A   1      41.746  27.081  26.804  1.00  0.00     0.055 A 
ATOM     78  C   UNL A   1      40.020  25.650  27.668  1.00  0.00     0.041 A 
ATOM     79  F   UNL A   1      39.018  26.150  29.726  1.00  0.00    -0.206 F 
ATOM     80  C   UNL A   1      40.917  25.968  26.653  1.00  0.00     0.022 A 
BRANCH  77  81
ATOM     81  S   UNL A   1      42.798  27.621  25.427  1.00  0.00     0.124 S 
ATOM     82  O   UNL A   1      42.786  26.444  24.568  1.00  0.00    -0.237 OA
ATOM     83  O   UNL A   1      42.071  28.785  24.932  1.00  0.00    -0.237 OA
ATOM     84  O   UNL A   1      44.076  27.912  26.071  1.00  0.00    -0.744 OA
ENDBRANCH  77  81
ENDBRANCH  50  74
BRANCH  62  85
ATOM     85  C   UNL A   1      44.314  28.316  34.943  1.00  0.00     0.023 A 
ATOM     86  C   UNL A   1      44.109  27.156  35.710  1.00  0.00     0.031 A 
ATOM     87  C   UNL A   1      45.637  28.751  34.743  1.00  0.00     0.131 A 
ATOM     88  C   UNL A   1      45.204  26.506  36.298  1.00  0.00     0.055 A 
ATOM     89  C   UNL A   1      46.727  28.061  35.273  1.00  0.00     0.041 A 
ATOM     90  F   UNL A   1      45.891  29.855  34.021  1.00  0.00    -0.206 F 
ATOM     91  C   UNL A   1      46.513  26.939  36.068  1.00  0.00     0.022 A 
BRANCH  88  92
ATOM     92  S   UNL A   1      44.889  25.141  37.450  1.00  0.00     0.124 S 
ATOM     93  O   UNL A   1      46.237  24.794  37.885  1.00  0.00    -0.237 OA
ATOM     94  O   UNL A   1      44.037  25.769  38.454  1.00  0.00    -0.237 OA
ATOM     95  O   UNL A   1      44.227  24.137  36.618  1.00  0.00    -0.744 OA
ENDBRANCH  88  92
ENDBRANCH  62  85
ENDBRANCH  36  37
ENDBRANCH  28  31
ENDBRANCH  26  27
ENDBRANCH  25  26
ENDBRANCH   1  25
TORSDOF 18
ENDMDL
