MODEL 1
REMARK VINA RESULT:     -12.6      0.000      0.000
REMARK SMILES C[C@@H](NC1=[NH+]C(=O)/C(=C\c2ccccc2-n2cccn2)S1)C(=O)NCCCCNC(=O)c1ccc(-c2c3nc(c(-c4cc(S(=O)(=O)[O-])ccc4F)c4ccc([nH]4)c(-c4cc(S(=O)(=O)[O-])ccc4F)c4nc(c(-c5cc(S(=O)(=O)[O-])ccc5F)c5ccc2[nH]5)C=C4)C=C3)cc1
REMARK SMILES IDX 26 1 25 2 24 3 22 4 23 5 2 7 1 8 3 9 4 10 5 12 21 13 6 14
REMARK SMILES IDX 8 16 7 17 9 18 10 19 11 20 15 21 12 22 14 23 13 24 16 25
REMARK SMILES IDX 17 26 20 27 18 28 19 29 27 30 28 31 29 32 30 33 31 35 32 36
REMARK SMILES IDX 33 37 94 38 34 39 93 40 35 41 36 42 37 43 87 44 38 45 92 46
REMARK SMILES IDX 86 47 88 48 39 49 91 50 85 51 84 52 40 54 72 55 52 56 71 57
REMARK SMILES IDX 53 58 56 59 70 60 89 61 54 62 55 63 69 65 90 66 57 67 41 68
REMARK SMILES IDX 42 69 50 70 43 71 49 72 51 73 48 74 44 75 45 76 46 77 47 78
REMARK SMILES IDX 73 79 74 80 82 81 75 82 81 83 83 84 80 85 76 86 77 87 78 88
REMARK SMILES IDX 79 89 58 90 59 91 67 92 60 93 66 94 68 95 65 96 61 97 62 98
REMARK SMILES IDX 63 99 64 100
REMARK H PARENT 24 6 3 11 5 15 29 34 88 53 56 64
REMARK Flexibility Score: inf
ROOT
ATOM      1  C   UNL A   1      32.772  30.273  27.114  1.00  0.00     0.023 C 
ENDROOT
BRANCH   1   2
ATOM      2  C   UNL A   1      31.833  30.244  25.887  1.00  0.00     0.116 C 
BRANCH   2   3
ATOM      3  N   UNL A   1      32.409  29.875  24.612  1.00  0.00    -0.352 N 
ATOM      4  C   UNL A   1      31.857  29.086  23.632  1.00  0.00     0.264 C 
ATOM      5  O   UNL A   1      32.384  29.124  22.514  1.00  0.00    -0.270 OA
ATOM      6  H   UNL A   1      33.306  30.236  24.422  1.00  0.00     0.163 HD
BRANCH   4   7
ATOM      7  C   UNL A   1      30.696  28.102  23.907  1.00  0.00     0.259 C 
ATOM      8  C   UNL A   1      30.242  27.448  22.596  1.00  0.00     0.069 C 
BRANCH   7   9
ATOM      9  N   UNL A   1      31.002  27.052  24.850  1.00  0.00    -0.257 N 
ATOM     10  C   UNL A   1      31.777  25.948  24.769  1.00  0.00     0.317 C 
ATOM     11  H   UNL A   1      30.557  27.161  25.722  1.00  0.00     0.306 HD
ATOM     12  N   UNL A   1      31.549  25.019  25.631  1.00  0.00    -0.200 N 
ATOM     13  S   UNL A   1      33.058  25.669  23.627  1.00  0.00     0.006 SA
ATOM     14  C   UNL A   1      32.349  23.912  25.467  1.00  0.00     0.346 C 
ATOM     15  H   UNL A   1      30.868  25.092  26.338  1.00  0.00     0.316 HD
ATOM     16  C   UNL A   1      33.236  24.062  24.256  1.00  0.00     0.110 C 
ATOM     17  O   UNL A   1      32.347  22.985  26.240  1.00  0.00    -0.240 OA
ATOM     18  C   UNL A   1      33.916  23.061  23.669  1.00  0.00     0.034 C 
BRANCH  18  19
ATOM     19  C   UNL A   1      33.609  21.666  24.047  1.00  0.00     0.002 A 
ATOM     20  C   UNL A   1      32.480  21.034  23.528  1.00  0.00     0.010 A 
ATOM     21  C   UNL A   1      34.558  20.867  24.718  1.00  0.00     0.072 A 
ATOM     22  C   UNL A   1      32.333  19.644  23.653  1.00  0.00     0.001 A 
ATOM     23  C   UNL A   1      34.450  19.470  24.774  1.00  0.00     0.029 A 
ATOM     24  C   UNL A   1      33.319  18.863  24.259  1.00  0.00     0.002 A 
BRANCH  21  25
ATOM     25  N   UNL A   1      35.708  21.435  25.277  1.00  0.00    -0.240 N 
ATOM     26  C   UNL A   1      35.828  22.482  26.175  1.00  0.00     0.115 A 
ATOM     27  N   UNL A   1      36.885  21.156  24.691  1.00  0.00    -0.177 NA
ATOM     28  C   UNL A   1      37.016  23.099  25.875  1.00  0.00     0.042 A 
ATOM     29  C   UNL A   1      37.597  22.240  24.927  1.00  0.00     0.135 A 
ENDBRANCH  21  25
ENDBRANCH  18  19
ENDBRANCH   7   9
ENDBRANCH   4   7
ENDBRANCH   2   3
ENDBRANCH   1   2
BRANCH   1  30
ATOM     30  C   UNL A   1      33.716  29.114  27.491  1.00  0.00     0.023 C 
BRANCH  30  31
ATOM     31  C   UNL A   1      35.223  29.342  27.716  1.00  0.00     0.116 C 
BRANCH  31  32
ATOM     32  N   UNL A   1      35.682  29.972  28.955  1.00  0.00    -0.352 N 
ATOM     33  C   UNL A   1      36.815  29.756  29.764  1.00  0.00     0.251 C 
ATOM     34  H   UNL A   1      35.085  30.682  29.287  1.00  0.00     0.163 HD
ATOM     35  O   UNL A   1      36.775  30.224  30.905  1.00  0.00    -0.269 OA
BRANCH  33  36
ATOM     36  C   UNL A   1      38.081  29.078  29.302  1.00  0.00     0.039 A 
ATOM     37  C   UNL A   1      38.330  27.700  29.508  1.00  0.00     0.014 A 
ATOM     38  C   UNL A   1      39.110  29.803  28.753  1.00  0.00     0.014 A 
ATOM     39  C   UNL A   1      39.643  27.150  29.387  1.00  0.00     0.010 A 
ATOM     40  C   UNL A   1      40.401  29.305  28.767  1.00  0.00     0.010 A 
ATOM     41  C   UNL A   1      40.721  27.996  29.138  1.00  0.00    -0.014 A 
BRANCH  41  42
ATOM     42  C   UNL A   1      42.146  27.684  28.857  1.00  0.00     0.031 A 
ATOM     43  C   UNL A   1      42.248  26.538  27.946  1.00  0.00     0.074 A 
ATOM     44  C   UNL A   1      43.267  28.405  29.097  1.00  0.00     0.049 A 
ATOM     45  N   UNL A   1      42.216  25.317  28.373  1.00  0.00    -0.248 NA
ATOM     46  C   UNL A   1      42.104  26.671  26.490  1.00  0.00     0.031 C 
ATOM     47  C   UNL A   1      43.461  29.375  30.147  1.00  0.00     0.029 A 
ATOM     48  N   UNL A   1      44.506  28.408  28.472  1.00  0.00    -0.354 N 
ATOM     49  C   UNL A   1      42.461  24.578  27.243  1.00  0.00     0.074 A 
ATOM     50  C   UNL A   1      41.961  25.382  26.164  1.00  0.00     0.031 C 
ATOM     51  C   UNL A   1      44.653  29.997  30.011  1.00  0.00     0.029 A 
ATOM     52  C   UNL A   1      45.358  29.464  28.853  1.00  0.00     0.049 A 
ATOM     53  H   UNL A   1      44.769  27.724  27.814  1.00  0.00     0.167 HD
ATOM     54  C   UNL A   1      43.459  23.651  27.255  1.00  0.00     0.034 A 
ATOM     55  C   UNL A   1      46.718  29.608  28.790  1.00  0.00     0.034 A 
ATOM     56  C   UNL A   1      43.935  23.415  28.618  1.00  0.00     0.049 A 
ATOM     57  C   UNL A   1      47.260  28.249  28.999  1.00  0.00     0.074 A 
ATOM     58  C   UNL A   1      43.327  23.111  29.826  1.00  0.00     0.029 A 
ATOM     59  N   UNL A   1      45.186  23.890  28.962  1.00  0.00    -0.354 N 
ATOM     60  N   UNL A   1      47.152  27.624  30.139  1.00  0.00    -0.248 NA
ATOM     61  C   UNL A   1      47.419  27.395  27.832  1.00  0.00     0.031 C 
ATOM     62  C   UNL A   1      44.044  23.849  30.816  1.00  0.00     0.029 A 
ATOM     63  C   UNL A   1      45.116  24.493  30.198  1.00  0.00     0.049 A 
ATOM     64  H   UNL A   1      45.998  23.810  28.412  1.00  0.00     0.167 HD
ATOM     65  C   UNL A   1      46.732  26.348  29.793  1.00  0.00     0.074 A 
ATOM     66  C   UNL A   1      47.010  26.239  28.361  1.00  0.00     0.031 C 
ATOM     67  C   UNL A   1      45.964  25.594  30.635  1.00  0.00     0.034 A 
BRANCH  54  68
ATOM     68  C   UNL A   1      44.274  23.274  26.040  1.00  0.00     0.023 A 
ATOM     69  C   UNL A   1      44.154  21.946  25.607  1.00  0.00     0.031 A 
ATOM     70  C   UNL A   1      45.301  24.029  25.420  1.00  0.00     0.131 A 
ATOM     71  C   UNL A   1      45.075  21.398  24.702  1.00  0.00     0.055 A 
ATOM     72  C   UNL A   1      46.170  23.498  24.466  1.00  0.00     0.041 A 
ATOM     73  F   UNL A   1      45.598  25.290  25.746  1.00  0.00    -0.206 F 
ATOM     74  C   UNL A   1      46.083  22.163  24.125  1.00  0.00     0.022 A 
BRANCH  71  75
ATOM     75  S   UNL A   1      45.030  19.614  24.438  1.00  0.00     0.124 S 
ATOM     76  O   UNL A   1      46.432  19.260  24.635  1.00  0.00    -0.237 OA
ATOM     77  O   UNL A   1      44.102  19.182  25.477  1.00  0.00    -0.237 OA
ATOM     78  O   UNL A   1      44.538  19.489  23.068  1.00  0.00    -0.744 OA
ENDBRANCH  71  75
ENDBRANCH  54  68
BRANCH  55  79
ATOM     79  C   UNL A   1      47.431  30.735  28.086  1.00  0.00     0.023 A 
ATOM     80  C   UNL A   1      46.779  31.815  27.433  1.00  0.00     0.031 A 
ATOM     81  C   UNL A   1      48.843  30.791  28.107  1.00  0.00     0.131 A 
ATOM     82  C   UNL A   1      47.533  32.865  26.835  1.00  0.00     0.055 A 
ATOM     83  C   UNL A   1      49.579  31.832  27.527  1.00  0.00     0.041 A 
ATOM     84  F   UNL A   1      49.562  29.847  28.735  1.00  0.00    -0.206 F 
ATOM     85  C   UNL A   1      48.928  32.876  26.890  1.00  0.00     0.022 A 
BRANCH  82  86
ATOM     86  S   UNL A   1      46.724  34.285  26.003  1.00  0.00     0.124 S 
ATOM     87  O   UNL A   1      45.562  33.660  25.381  1.00  0.00    -0.237 OA
ATOM     88  O   UNL A   1      46.456  35.195  27.110  1.00  0.00    -0.237 OA
ATOM     89  O   UNL A   1      47.742  34.756  25.061  1.00  0.00    -0.744 OA
ENDBRANCH  82  86
ENDBRANCH  55  79
BRANCH  67  90
ATOM     90  C   UNL A   1      45.847  26.025  32.090  1.00  0.00     0.023 A 
ATOM     91  C   UNL A   1      44.743  26.704  32.650  1.00  0.00     0.031 A 
ATOM     92  C   UNL A   1      46.854  25.609  32.976  1.00  0.00     0.131 A 
ATOM     93  C   UNL A   1      44.660  26.923  34.042  1.00  0.00     0.055 A 
ATOM     94  C   UNL A   1      46.770  25.821  34.356  1.00  0.00     0.041 A 
ATOM     95  F   UNL A   1      47.929  24.950  32.516  1.00  0.00    -0.206 F 
ATOM     96  C   UNL A   1      45.669  26.476  34.896  1.00  0.00     0.022 A 
BRANCH  93  97
ATOM     97  S   UNL A   1      43.236  27.800  34.767  1.00  0.00     0.124 S 
ATOM     98  O   UNL A   1      42.236  26.749  34.922  1.00  0.00    -0.237 OA
ATOM     99  O   UNL A   1      43.792  28.338  36.006  1.00  0.00    -0.237 OA
ATOM    100  O   UNL A   1      42.902  28.810  33.762  1.00  0.00    -0.744 OA
ENDBRANCH  93  97
ENDBRANCH  67  90
ENDBRANCH  41  42
ENDBRANCH  33  36
ENDBRANCH  31  32
ENDBRANCH  30  31
ENDBRANCH   1  30
TORSDOF 17
ENDMDL
MODEL 2
REMARK VINA RESULT:     -12.5      2.079      3.673
REMARK SMILES C[C@@H](NC1=[NH+]C(=O)/C(=C\c2ccccc2-n2cccn2)S1)C(=O)NCCCCNC(=O)c1ccc(-c2c3nc(c(-c4cc(S(=O)(=O)[O-])ccc4F)c4ccc([nH]4)c(-c4cc(S(=O)(=O)[O-])ccc4F)c4nc(c(-c5cc(S(=O)(=O)[O-])ccc5F)c5ccc2[nH]5)C=C4)C=C3)cc1
REMARK SMILES IDX 26 1 25 2 24 3 22 4 23 5 2 7 1 8 3 9 4 10 5 12 21 13 6 14
REMARK SMILES IDX 8 16 7 17 9 18 10 19 11 20 15 21 12 22 14 23 13 24 16 25
REMARK SMILES IDX 17 26 20 27 18 28 19 29 27 30 28 31 29 32 30 33 31 35 32 36
REMARK SMILES IDX 33 37 94 38 34 39 93 40 35 41 36 42 37 43 87 44 38 45 92 46
REMARK SMILES IDX 86 47 88 48 39 49 91 50 85 51 84 52 40 54 72 55 52 56 71 57
REMARK SMILES IDX 53 58 56 59 70 60 89 61 54 62 55 63 69 65 90 66 57 67 41 68
REMARK SMILES IDX 42 69 50 70 43 71 49 72 51 73 48 74 44 75 45 76 46 77 47 78
REMARK SMILES IDX 73 79 74 80 82 81 75 82 81 83 83 84 80 85 76 86 77 87 78 88
REMARK SMILES IDX 79 89 58 90 59 91 67 92 60 93 66 94 68 95 65 96 61 97 62 98
REMARK SMILES IDX 63 99 64 100
REMARK H PARENT 24 6 3 11 5 15 29 34 88 53 56 64
REMARK Flexibility Score: inf
ROOT
ATOM      1  C   UNL A   1      35.128  32.401  32.134  1.00  0.00     0.023 C 
ENDROOT
BRANCH   1   2
ATOM      2  C   UNL A   1      34.846  33.396  30.986  1.00  0.00     0.116 C 
BRANCH   2   3
ATOM      3  N   UNL A   1      35.717  33.349  29.831  1.00  0.00    -0.352 N 
ATOM      4  C   UNL A   1      35.381  33.056  28.531  1.00  0.00     0.264 C 
ATOM      5  O   UNL A   1      36.207  33.343  27.657  1.00  0.00    -0.270 OA
ATOM      6  H   UNL A   1      36.666  33.554  29.996  1.00  0.00     0.163 HD
BRANCH   4   7
ATOM      7  C   UNL A   1      34.084  32.304  28.153  1.00  0.00     0.259 C 
ATOM      8  C   UNL A   1      32.962  33.308  27.862  1.00  0.00     0.069 C 
BRANCH   7   9
ATOM      9  N   UNL A   1      34.204  31.422  27.015  1.00  0.00    -0.257 N 
ATOM     10  C   UNL A   1      33.466  30.373  26.589  1.00  0.00     0.317 C 
ATOM     11  H   UNL A   1      34.976  31.624  26.437  1.00  0.00     0.306 HD
ATOM     12  N   UNL A   1      34.035  29.564  25.766  1.00  0.00    -0.200 N 
ATOM     13  S   UNL A   1      31.822  30.021  27.034  1.00  0.00     0.006 SA
ATOM     14  C   UNL A   1      33.240  28.502  25.404  1.00  0.00     0.346 C 
ATOM     15  H   UNL A   1      34.951  29.691  25.428  1.00  0.00     0.316 HD
ATOM     16  C   UNL A   1      31.924  28.536  26.142  1.00  0.00     0.110 C 
ATOM     17  O   UNL A   1      33.567  27.696  24.567  1.00  0.00    -0.240 OA
ATOM     18  C   UNL A   1      31.059  27.510  26.226  1.00  0.00     0.034 C 
BRANCH  18  19
ATOM     19  C   UNL A   1      31.496  26.165  25.796  1.00  0.00     0.002 A 
ATOM     20  C   UNL A   1      32.217  25.352  26.668  1.00  0.00     0.010 A 
ATOM     21  C   UNL A   1      30.988  25.578  24.618  1.00  0.00     0.072 A 
ATOM     22  C   UNL A   1      32.390  23.991  26.378  1.00  0.00     0.001 A 
ATOM     23  C   UNL A   1      31.094  24.202  24.367  1.00  0.00     0.029 A 
ATOM     24  C   UNL A   1      31.819  23.414  25.242  1.00  0.00     0.002 A 
BRANCH  21  25
ATOM     25  N   UNL A   1      30.268  26.337  23.690  1.00  0.00    -0.240 N 
ATOM     26  C   UNL A   1      30.714  27.295  22.796  1.00  0.00     0.115 A 
ATOM     27  N   UNL A   1      28.932  26.386  23.833  1.00  0.00    -0.177 NA
ATOM     28  C   UNL A   1      29.684  28.190  22.660  1.00  0.00     0.042 A 
ATOM     29  C   UNL A   1      28.628  27.576  23.355  1.00  0.00     0.135 A 
ENDBRANCH  21  25
ENDBRANCH  18  19
ENDBRANCH   7   9
ENDBRANCH   4   7
ENDBRANCH   2   3
ENDBRANCH   1   2
BRANCH   1  30
ATOM     30  C   UNL A   1      36.518  31.790  32.411  1.00  0.00     0.023 C 
BRANCH  30  31
ATOM     31  C   UNL A   1      37.053  30.601  31.591  1.00  0.00     0.116 C 
BRANCH  31  32
ATOM     32  N   UNL A   1      36.277  30.096  30.457  1.00  0.00    -0.352 N 
ATOM     33  C   UNL A   1      36.654  29.452  29.263  1.00  0.00     0.251 C 
ATOM     34  H   UNL A   1      35.305  30.234  30.546  1.00  0.00     0.163 HD
ATOM     35  O   UNL A   1      35.812  29.423  28.362  1.00  0.00    -0.269 OA
BRANCH  33  36
ATOM     36  C   UNL A   1      37.964  28.734  29.054  1.00  0.00     0.039 A 
ATOM     37  C   UNL A   1      38.424  27.711  29.919  1.00  0.00     0.014 A 
ATOM     38  C   UNL A   1      38.833  29.123  28.064  1.00  0.00     0.014 A 
ATOM     39  C   UNL A   1      39.788  27.289  29.921  1.00  0.00     0.010 A 
ATOM     40  C   UNL A   1      40.179  28.816  28.156  1.00  0.00     0.010 A 
ATOM     41  C   UNL A   1      40.711  27.947  29.112  1.00  0.00    -0.014 A 
BRANCH  41  42
ATOM     42  C   UNL A   1      42.140  27.646  28.837  1.00  0.00     0.031 A 
ATOM     43  C   UNL A   1      42.255  26.482  27.950  1.00  0.00     0.074 A 
ATOM     44  C   UNL A   1      43.253  28.384  29.063  1.00  0.00     0.049 A 
ATOM     45  N   UNL A   1      42.237  25.270  28.403  1.00  0.00    -0.248 NA
ATOM     46  C   UNL A   1      42.111  26.584  26.492  1.00  0.00     0.031 C 
ATOM     47  C   UNL A   1      43.435  29.377  30.093  1.00  0.00     0.029 A 
ATOM     48  N   UNL A   1      44.492  28.387  28.439  1.00  0.00    -0.354 N 
ATOM     49  C   UNL A   1      42.491  24.510  27.287  1.00  0.00     0.074 A 
ATOM     50  C   UNL A   1      41.983  25.287  26.192  1.00  0.00     0.031 C 
ATOM     51  C   UNL A   1      44.620  30.010  29.945  1.00  0.00     0.029 A 
ATOM     52  C   UNL A   1      45.331  29.461  28.799  1.00  0.00     0.049 A 
ATOM     53  H   UNL A   1      44.763  27.694  27.795  1.00  0.00     0.167 HD
ATOM     54  C   UNL A   1      43.499  23.595  27.320  1.00  0.00     0.034 A 
ATOM     55  C   UNL A   1      46.690  29.619  28.733  1.00  0.00     0.034 A 
ATOM     56  C   UNL A   1      43.977  23.393  28.688  1.00  0.00     0.049 A 
ATOM     57  C   UNL A   1      47.247  28.271  28.971  1.00  0.00     0.074 A 
ATOM     58  C   UNL A   1      43.371  23.107  29.901  1.00  0.00     0.029 A 
ATOM     59  N   UNL A   1      45.222  23.888  29.022  1.00  0.00    -0.354 N 
ATOM     60  N   UNL A   1      47.145  27.667  30.124  1.00  0.00    -0.248 NA
ATOM     61  C   UNL A   1      47.417  27.395  27.822  1.00  0.00     0.031 C 
ATOM     62  C   UNL A   1      44.079  23.872  30.876  1.00  0.00     0.029 A 
ATOM     63  C   UNL A   1      45.144  24.516  30.246  1.00  0.00     0.049 A 
ATOM     64  H   UNL A   1      46.035  23.806  28.474  1.00  0.00     0.167 HD
ATOM     65  C   UNL A   1      46.739  26.380  29.803  1.00  0.00     0.074 A 
ATOM     66  C   UNL A   1      47.020  26.245  28.374  1.00  0.00     0.031 C 
ATOM     67  C   UNL A   1      45.980  25.635  30.660  1.00  0.00     0.034 A 
BRANCH  54  68
ATOM     68  C   UNL A   1      44.319  23.203  26.112  1.00  0.00     0.023 A 
ATOM     69  C   UNL A   1      44.305  21.842  25.776  1.00  0.00     0.031 A 
ATOM     70  C   UNL A   1      45.265  23.995  25.416  1.00  0.00     0.131 A 
ATOM     71  C   UNL A   1      45.252  21.310  24.888  1.00  0.00     0.055 A 
ATOM     72  C   UNL A   1      46.158  23.473  24.479  1.00  0.00     0.041 A 
ATOM     73  F   UNL A   1      45.459  25.297  25.646  1.00  0.00    -0.206 F 
ATOM     74  C   UNL A   1      46.178  22.115  24.234  1.00  0.00     0.022 A 
BRANCH  71  75
ATOM     75  S   UNL A   1      45.355  19.514  24.749  1.00  0.00     0.124 S 
ATOM     76  O   UNL A   1      45.143  19.325  23.319  1.00  0.00    -0.237 OA
ATOM     77  O   UNL A   1      46.703  19.255  25.244  1.00  0.00    -0.237 OA
ATOM     78  O   UNL A   1      44.272  19.047  25.611  1.00  0.00    -0.744 OA
ENDBRANCH  71  75
ENDBRANCH  54  68
BRANCH  55  79
ATOM     79  C   UNL A   1      47.391  30.738  28.007  1.00  0.00     0.023 A 
ATOM     80  C   UNL A   1      46.729  31.818  27.364  1.00  0.00     0.031 A 
ATOM     81  C   UNL A   1      48.803  30.789  27.994  1.00  0.00     0.131 A 
ATOM     82  C   UNL A   1      47.473  32.862  26.743  1.00  0.00     0.055 A 
ATOM     83  C   UNL A   1      49.530  31.824  27.392  1.00  0.00     0.041 A 
ATOM     84  F   UNL A   1      49.533  29.846  28.610  1.00  0.00    -0.206 F 
ATOM     85  C   UNL A   1      48.868  32.867  26.765  1.00  0.00     0.022 A 
BRANCH  82  86
ATOM     86  S   UNL A   1      46.649  34.281  25.922  1.00  0.00     0.124 S 
ATOM     87  O   UNL A   1      45.475  33.656  25.325  1.00  0.00    -0.237 OA
ATOM     88  O   UNL A   1      46.405  35.195  27.032  1.00  0.00    -0.237 OA
ATOM     89  O   UNL A   1      47.650  34.747  24.960  1.00  0.00    -0.744 OA
ENDBRANCH  82  86
ENDBRANCH  55  79
BRANCH  67  90
ATOM     90  C   UNL A   1      45.856  26.094  32.106  1.00  0.00     0.023 A 
ATOM     91  C   UNL A   1      44.755  26.794  32.646  1.00  0.00     0.031 A 
ATOM     92  C   UNL A   1      46.854  25.686  33.006  1.00  0.00     0.131 A 
ATOM     93  C   UNL A   1      44.664  27.039  34.033  1.00  0.00     0.055 A 
ATOM     94  C   UNL A   1      46.762  25.925  34.381  1.00  0.00     0.041 A 
ATOM     95  F   UNL A   1      47.926  25.009  32.567  1.00  0.00    -0.206 F 
ATOM     96  C   UNL A   1      45.664  26.600  34.901  1.00  0.00     0.022 A 
BRANCH  93  97
ATOM     97  S   UNL A   1      43.243  27.942  34.731  1.00  0.00     0.124 S 
ATOM     98  O   UNL A   1      43.158  27.433  36.095  1.00  0.00    -0.237 OA
ATOM     99  O   UNL A   1      43.656  29.337  34.595  1.00  0.00    -0.237 OA
ATOM    100  O   UNL A   1      42.127  27.552  33.868  1.00  0.00    -0.744 OA
ENDBRANCH  93  97
ENDBRANCH  67  90
ENDBRANCH  41  42
ENDBRANCH  33  36
ENDBRANCH  31  32
ENDBRANCH  30  31
ENDBRANCH   1  30
TORSDOF 17
ENDMDL
MODEL 3
REMARK VINA RESULT:     -12.0      1.661      2.316
REMARK SMILES C[C@@H](NC1=[NH+]C(=O)/C(=C\c2ccccc2-n2cccn2)S1)C(=O)NCCCCNC(=O)c1ccc(-c2c3nc(c(-c4cc(S(=O)(=O)[O-])ccc4F)c4ccc([nH]4)c(-c4cc(S(=O)(=O)[O-])ccc4F)c4nc(c(-c5cc(S(=O)(=O)[O-])ccc5F)c5ccc2[nH]5)C=C4)C=C3)cc1
REMARK SMILES IDX 26 1 25 2 24 3 22 4 23 5 2 7 1 8 3 9 4 10 5 12 21 13 6 14
REMARK SMILES IDX 8 16 7 17 9 18 10 19 11 20 15 21 12 22 14 23 13 24 16 25
REMARK SMILES IDX 17 26 20 27 18 28 19 29 27 30 28 31 29 32 30 33 31 35 32 36
REMARK SMILES IDX 33 37 94 38 34 39 93 40 35 41 36 42 37 43 87 44 38 45 92 46
REMARK SMILES IDX 86 47 88 48 39 49 91 50 85 51 84 52 40 54 72 55 52 56 71 57
REMARK SMILES IDX 53 58 56 59 70 60 89 61 54 62 55 63 69 65 90 66 57 67 41 68
REMARK SMILES IDX 42 69 50 70 43 71 49 72 51 73 48 74 44 75 45 76 46 77 47 78
REMARK SMILES IDX 73 79 74 80 82 81 75 82 81 83 83 84 80 85 76 86 77 87 78 88
REMARK SMILES IDX 79 89 58 90 59 91 67 92 60 93 66 94 68 95 65 96 61 97 62 98
REMARK SMILES IDX 63 99 64 100
REMARK H PARENT 24 6 3 11 5 15 29 34 88 53 56 64
REMARK Flexibility Score: inf
ROOT
ATOM      1  C   UNL A   1      33.583  30.545  27.120  1.00  0.00     0.023 C 
ENDROOT
BRANCH   1   2
ATOM      2  C   UNL A   1      32.149  30.484  26.549  1.00  0.00     0.116 C 
BRANCH   2   3
ATOM      3  N   UNL A   1      31.999  30.121  25.155  1.00  0.00    -0.352 N 
ATOM      4  C   UNL A   1      31.328  29.042  24.631  1.00  0.00     0.264 C 
ATOM      5  O   UNL A   1      31.082  29.066  23.420  1.00  0.00    -0.270 OA
ATOM      6  H   UNL A   1      32.428  30.721  24.503  1.00  0.00     0.163 HD
BRANCH   4   7
ATOM      7  C   UNL A   1      30.978  27.789  25.467  1.00  0.00     0.259 C 
ATOM      8  C   UNL A   1      30.161  26.805  24.620  1.00  0.00     0.069 C 
BRANCH   7   9
ATOM      9  N   UNL A   1      32.117  27.081  26.004  1.00  0.00    -0.257 N 
ATOM     10  C   UNL A   1      33.028  26.255  25.442  1.00  0.00     0.317 C 
ATOM     11  H   UNL A   1      32.255  27.226  26.968  1.00  0.00     0.306 HD
ATOM     12  N   UNL A   1      33.683  25.489  26.243  1.00  0.00    -0.200 N 
ATOM     13  S   UNL A   1      33.408  26.138  23.750  1.00  0.00     0.006 SA
ATOM     14  C   UNL A   1      34.565  24.652  25.601  1.00  0.00     0.346 C 
ATOM     15  H   UNL A   1      33.565  25.501  27.221  1.00  0.00     0.316 HD
ATOM     16  C   UNL A   1      34.466  24.809  24.104  1.00  0.00     0.110 C 
ATOM     17  O   UNL A   1      35.335  23.936  26.193  1.00  0.00    -0.240 OA
ATOM     18  C   UNL A   1      34.977  23.952  23.202  1.00  0.00     0.034 C 
BRANCH  18  19
ATOM     19  C   UNL A   1      35.457  22.631  23.659  1.00  0.00     0.002 A 
ATOM     20  C   UNL A   1      36.822  22.407  23.836  1.00  0.00     0.010 A 
ATOM     21  C   UNL A   1      34.562  21.665  24.164  1.00  0.00     0.072 A 
ATOM     22  C   UNL A   1      37.262  21.268  24.527  1.00  0.00     0.001 A 
ATOM     23  C   UNL A   1      34.999  20.569  24.921  1.00  0.00     0.029 A 
ATOM     24  C   UNL A   1      36.357  20.361  25.080  1.00  0.00     0.002 A 
BRANCH  21  25
ATOM     25  N   UNL A   1      33.180  21.817  24.009  1.00  0.00    -0.240 N 
ATOM     26  C   UNL A   1      32.443  22.071  22.866  1.00  0.00     0.115 A 
ATOM     27  N   UNL A   1      32.452  22.033  25.118  1.00  0.00    -0.177 NA
ATOM     28  C   UNL A   1      31.357  22.803  23.273  1.00  0.00     0.042 A 
ATOM     29  C   UNL A   1      31.449  22.763  24.675  1.00  0.00     0.135 A 
ENDBRANCH  21  25
ENDBRANCH  18  19
ENDBRANCH   7   9
ENDBRANCH   4   7
ENDBRANCH   2   3
ENDBRANCH   1   2
BRANCH   1  30
ATOM     30  C   UNL A   1      34.655  29.470  26.849  1.00  0.00     0.023 C 
BRANCH  30  31
ATOM     31  C   UNL A   1      35.926  29.362  27.713  1.00  0.00     0.116 C 
BRANCH  31  32
ATOM     32  N   UNL A   1      35.838  29.586  29.158  1.00  0.00    -0.352 N 
ATOM     33  C   UNL A   1      36.756  29.378  30.205  1.00  0.00     0.251 C 
ATOM     34  H   UNL A   1      34.973  29.953  29.453  1.00  0.00     0.163 HD
ATOM     35  O   UNL A   1      36.295  29.368  31.349  1.00  0.00    -0.269 OA
BRANCH  33  36
ATOM     36  C   UNL A   1      38.249  29.254  30.025  1.00  0.00     0.039 A 
ATOM     37  C   UNL A   1      38.933  29.801  28.912  1.00  0.00     0.014 A 
ATOM     38  C   UNL A   1      39.005  28.500  30.888  1.00  0.00     0.014 A 
ATOM     39  C   UNL A   1      40.259  29.391  28.574  1.00  0.00     0.010 A 
ATOM     40  C   UNL A   1      40.232  28.000  30.488  1.00  0.00     0.010 A 
ATOM     41  C   UNL A   1      40.871  28.374  29.303  1.00  0.00    -0.014 A 
BRANCH  41  42
ATOM     42  C   UNL A   1      42.257  27.844  29.241  1.00  0.00     0.031 A 
ATOM     43  C   UNL A   1      42.382  26.866  28.154  1.00  0.00     0.074 A 
ATOM     44  C   UNL A   1      43.394  28.284  29.832  1.00  0.00     0.049 A 
ATOM     45  N   UNL A   1      42.067  25.621  28.311  1.00  0.00    -0.248 NA
ATOM     46  C   UNL A   1      42.590  27.263  26.755  1.00  0.00     0.031 C 
ATOM     47  C   UNL A   1      43.494  29.011  31.074  1.00  0.00     0.029 A 
ATOM     48  N   UNL A   1      44.726  28.149  29.469  1.00  0.00    -0.354 N 
ATOM     49  C   UNL A   1      42.441  25.045  27.122  1.00  0.00     0.074 A 
ATOM     50  C   UNL A   1      42.327  26.098  26.154  1.00  0.00     0.031 C 
ATOM     51  C   UNL A   1      44.768  29.404  31.297  1.00  0.00     0.029 A 
ATOM     52  C   UNL A   1      45.623  28.943  30.212  1.00  0.00     0.049 A 
ATOM     53  H   UNL A   1      45.021  27.546  28.749  1.00  0.00     0.167 HD
ATOM     54  C   UNL A   1      43.256  23.953  27.138  1.00  0.00     0.034 A 
ATOM     55  C   UNL A   1      46.968  28.829  30.440  1.00  0.00     0.034 A 
ATOM     56  C   UNL A   1      43.372  23.408  28.490  1.00  0.00     0.049 A 
ATOM     57  C   UNL A   1      47.233  27.375  30.470  1.00  0.00     0.074 A 
ATOM     58  C   UNL A   1      42.469  23.032  29.472  1.00  0.00     0.029 A 
ATOM     59  N   UNL A   1      44.572  23.567  29.156  1.00  0.00    -0.354 N 
ATOM     60  N   UNL A   1      46.777  26.603  31.418  1.00  0.00    -0.248 NA
ATOM     61  C   UNL A   1      47.516  26.711  29.207  1.00  0.00     0.031 C 
ATOM     62  C   UNL A   1      43.051  23.443  30.710  1.00  0.00     0.029 A 
ATOM     63  C   UNL A   1      44.321  23.960  30.451  1.00  0.00     0.049 A 
ATOM     64  H   UNL A   1      45.464  23.424  28.766  1.00  0.00     0.167 HD
ATOM     65  C   UNL A   1      46.253  25.508  30.746  1.00  0.00     0.074 A 
ATOM     66  C   UNL A   1      46.825  25.585  29.402  1.00  0.00     0.031 C 
ATOM     67  C   UNL A   1      45.209  24.788  31.255  1.00  0.00     0.034 A 
BRANCH  54  68
ATOM     68  C   UNL A   1      44.254  23.632  26.050  1.00  0.00     0.023 A 
ATOM     69  C   UNL A   1      44.184  22.338  25.515  1.00  0.00     0.031 A 
ATOM     70  C   UNL A   1      45.382  24.395  25.660  1.00  0.00     0.131 A 
ATOM     71  C   UNL A   1      45.232  21.822  24.738  1.00  0.00     0.055 A 
ATOM     72  C   UNL A   1      46.388  23.902  24.827  1.00  0.00     0.041 A 
ATOM     73  F   UNL A   1      45.643  25.624  26.114  1.00  0.00    -0.206 F 
ATOM     74  C   UNL A   1      46.335  22.594  24.388  1.00  0.00     0.022 A 
BRANCH  71  75
ATOM     75  S   UNL A   1      45.201  20.061  24.351  1.00  0.00     0.124 S 
ATOM     76  O   UNL A   1      44.426  19.535  25.469  1.00  0.00    -0.237 OA
ATOM     77  O   UNL A   1      44.544  20.055  23.048  1.00  0.00    -0.237 OA
ATOM     78  O   UNL A   1      46.615  19.694  24.340  1.00  0.00    -0.744 OA
ENDBRANCH  71  75
ENDBRANCH  54  68
BRANCH  55  79
ATOM     79  C   UNL A   1      47.987  29.896  30.128  1.00  0.00     0.023 A 
ATOM     80  C   UNL A   1      48.369  30.283  28.816  1.00  0.00     0.031 A 
ATOM     81  C   UNL A   1      48.579  30.628  31.182  1.00  0.00     0.131 A 
ATOM     82  C   UNL A   1      49.305  31.338  28.612  1.00  0.00     0.055 A 
ATOM     83  C   UNL A   1      49.490  31.673  30.975  1.00  0.00     0.041 A 
ATOM     84  F   UNL A   1      48.257  30.379  32.461  1.00  0.00    -0.206 F 
ATOM     85  C   UNL A   1      49.855  32.034  29.689  1.00  0.00     0.022 A 
BRANCH  82  86
ATOM     86  S   UNL A   1      49.804  31.877  26.932  1.00  0.00     0.124 S 
ATOM     87  O   UNL A   1      50.213  30.622  26.312  1.00  0.00    -0.237 OA
ATOM     88  O   UNL A   1      48.586  32.489  26.416  1.00  0.00    -0.237 OA
ATOM     89  O   UNL A   1      50.897  32.818  27.185  1.00  0.00    -0.744 OA
ENDBRANCH  82  86
ENDBRANCH  55  79
BRANCH  67  90
ATOM     90  C   UNL A   1      44.837  24.987  32.718  1.00  0.00     0.023 A 
ATOM     91  C   UNL A   1      43.965  25.985  33.207  1.00  0.00     0.031 A 
ATOM     92  C   UNL A   1      45.293  24.033  33.642  1.00  0.00     0.131 A 
ATOM     93  C   UNL A   1      43.560  25.992  34.559  1.00  0.00     0.055 A 
ATOM     94  C   UNL A   1      44.888  24.036  34.981  1.00  0.00     0.041 A 
ATOM     95  F   UNL A   1      46.117  23.050  33.248  1.00  0.00    -0.206 F 
ATOM     96  C   UNL A   1      44.016  25.015  35.444  1.00  0.00     0.022 A 
BRANCH  93  97
ATOM     97  S   UNL A   1      42.435  27.279  35.191  1.00  0.00     0.124 S 
ATOM     98  O   UNL A   1      42.435  27.048  36.631  1.00  0.00    -0.237 OA
ATOM     99  O   UNL A   1      43.079  28.511  34.742  1.00  0.00    -0.237 OA
ATOM    100  O   UNL A   1      41.163  26.983  34.530  1.00  0.00    -0.744 OA
ENDBRANCH  93  97
ENDBRANCH  67  90
ENDBRANCH  41  42
ENDBRANCH  33  36
ENDBRANCH  31  32
ENDBRANCH  30  31
ENDBRANCH   1  30
TORSDOF 17
ENDMDL
