MODEL 1
REMARK VINA RESULT:     -11.6      0.000      0.000
REMARK SMILES CC(C)[NH2+][C@@]1(C(=O)NCCCCNC(=O)c2ccc(-c3c4nc(c(-c5cc(S(=O)(=O)[O-])ccc5F)c5ccc([nH]5)c(-c5cc(S(=O)(=O)[O-])ccc5F)c5nc(c(-c6cc(S(=O)(=O)[O-])ccc6F)c6ccc3[nH]6)C=C5)C=C4)cc2)CC[C@H](Sc2ccccn2)C1
REMARK SMILES IDX 11 1 10 2 9 3 8 4 6 5 7 6 5 8 79 9 89 10 80 11 81 12 4 13
REMARK SMILES IDX 2 16 1 17 3 18 82 19 83 20 84 21 88 22 85 23 87 24 86 25
REMARK SMILES IDX 12 26 13 27 14 28 15 30 16 31 17 32 78 33 18 34 77 35 19 36
REMARK SMILES IDX 20 37 21 38 71 39 22 40 76 41 70 42 72 43 23 44 75 45 69 46
REMARK SMILES IDX 68 47 24 49 56 50 36 51 55 52 37 53 40 54 54 55 73 56 38 57
REMARK SMILES IDX 39 58 53 60 74 61 41 62 25 63 26 64 34 65 27 66 33 67 35 68
REMARK SMILES IDX 32 69 28 70 29 71 30 72 31 73 57 74 58 75 66 76 59 77 65 78
REMARK SMILES IDX 67 79 64 80 60 81 61 82 62 83 63 84 42 85 43 86 51 87 44 88
REMARK SMILES IDX 50 89 52 90 49 91 45 92 46 93 47 94 48 95
REMARK H PARENT 8 7 4 14 4 15 13 29 72 48 40 59
REMARK Flexibility Score: inf
ROOT
ATOM      1  C   UNL A   1      31.440  29.301  26.793  1.00  0.00     0.023 C 
ENDROOT
BRANCH   1   2
ATOM      2  C   UNL A   1      31.996  27.909  27.056  1.00  0.00     0.023 C 
BRANCH   2   3
ATOM      3  C   UNL A   1      31.366  26.802  26.218  1.00  0.00     0.116 C 
BRANCH   3   4
ATOM      4  N   UNL A   1      31.262  25.562  26.949  1.00  0.00    -0.351 N 
ATOM      5  C   UNL A   1      31.801  24.335  26.727  1.00  0.00     0.281 C 
ATOM      6  O   UNL A   1      31.374  23.438  27.468  1.00  0.00    -0.268 OA
ATOM      7  H   UNL A   1      30.698  25.615  27.754  1.00  0.00     0.163 HD
BRANCH   5   8
ATOM      8  C   UNL A   1      32.901  24.024  25.614  1.00  0.00     0.176 C 
ATOM      9  C   UNL A   1      34.052  25.057  25.694  1.00  0.00     0.080 C 
ATOM     10  C   UNL A   1      32.317  24.135  24.192  1.00  0.00     0.094 C 
ATOM     11  C   UNL A   1      34.032  25.867  24.396  1.00  0.00     0.022 C 
ATOM     12  C   UNL A   1      33.326  24.969  23.390  1.00  0.00     0.060 C 
BRANCH   8  13
ATOM     13  N   UNL A   1      33.371  22.661  25.951  1.00  0.00    -0.332 N 
ATOM     14  H   UNL A   1      34.295  22.792  26.364  1.00  0.00     0.347 HD
ATOM     15  H   UNL A   1      32.569  22.329  26.486  1.00  0.00     0.347 HD
BRANCH  13  16
ATOM     16  C   UNL A   1      33.524  21.558  25.021  1.00  0.00     0.176 C 
ATOM     17  C   UNL A   1      34.891  20.928  25.335  1.00  0.00     0.075 C 
ATOM     18  C   UNL A   1      32.461  20.469  25.138  1.00  0.00     0.075 C 
ENDBRANCH  13  16
ENDBRANCH   8  13
BRANCH  12  19
ATOM     19  S   UNL A   1      32.587  25.662  21.858  1.00  0.00    -0.103 SA
BRANCH  19  20
ATOM     20  C   UNL A   1      31.513  26.992  22.355  1.00  0.00     0.096 A 
ATOM     21  C   UNL A   1      30.213  26.753  22.790  1.00  0.00     0.035 A 
ATOM     22  N   UNL A   1      32.088  28.212  22.447  1.00  0.00    -0.250 NA
ATOM     23  C   UNL A   1      29.471  27.808  23.318  1.00  0.00     0.004 A 
ATOM     24  C   UNL A   1      31.360  29.211  23.002  1.00  0.00     0.112 A 
ATOM     25  C   UNL A   1      30.058  29.058  23.440  1.00  0.00     0.020 A 
ENDBRANCH  19  20
ENDBRANCH  12  19
ENDBRANCH   5   8
ENDBRANCH   3   4
ENDBRANCH   2   3
ENDBRANCH   1   2
BRANCH   1  26
ATOM     26  C   UNL A   1      32.453  30.328  26.303  1.00  0.00     0.116 C 
BRANCH  26  27
ATOM     27  N   UNL A   1      32.177  31.700  26.718  1.00  0.00    -0.352 N 
ATOM     28  C   UNL A   1      33.006  32.563  27.404  1.00  0.00     0.251 C 
ATOM     29  H   UNL A   1      31.290  32.053  26.479  1.00  0.00     0.163 HD
ATOM     30  O   UNL A   1      32.633  33.681  27.729  1.00  0.00    -0.269 OA
BRANCH  28  31
ATOM     31  C   UNL A   1      34.337  32.076  27.800  1.00  0.00     0.039 A 
ATOM     32  C   UNL A   1      35.376  33.001  27.918  1.00  0.00     0.014 A 
ATOM     33  C   UNL A   1      34.506  30.745  28.186  1.00  0.00     0.014 A 
ATOM     34  C   UNL A   1      36.567  32.609  28.525  1.00  0.00     0.010 A 
ATOM     35  C   UNL A   1      35.654  30.386  28.875  1.00  0.00     0.010 A 
ATOM     36  C   UNL A   1      36.690  31.317  29.059  1.00  0.00    -0.014 A 
BRANCH  36  37
ATOM     37  C   UNL A   1      37.897  30.901  29.813  1.00  0.00     0.031 A 
ATOM     38  C   UNL A   1      38.853  29.929  29.186  1.00  0.00     0.074 A 
ATOM     39  C   UNL A   1      38.069  31.318  31.083  1.00  0.00     0.049 A 
ATOM     40  N   UNL A   1      39.879  29.316  29.713  1.00  0.00    -0.248 NA
ATOM     41  C   UNL A   1      38.578  29.557  27.790  1.00  0.00     0.031 C 
ATOM     42  C   UNL A   1      37.174  32.225  31.808  1.00  0.00     0.029 A 
ATOM     43  N   UNL A   1      39.051  31.025  31.994  1.00  0.00    -0.354 N 
ATOM     44  C   UNL A   1      40.348  28.455  28.726  1.00  0.00     0.074 A 
ATOM     45  C   UNL A   1      39.449  28.580  27.599  1.00  0.00     0.031 C 
ATOM     46  C   UNL A   1      37.668  32.438  33.039  1.00  0.00     0.029 A 
ATOM     47  C   UNL A   1      38.884  31.649  33.208  1.00  0.00     0.049 A 
ATOM     48  H   UNL A   1      39.806  30.424  31.797  1.00  0.00     0.167 HD
ATOM     49  C   UNL A   1      41.441  27.652  28.753  1.00  0.00     0.034 A 
ATOM     50  C   UNL A   1      39.625  31.584  34.330  1.00  0.00     0.034 A 
ATOM     51  C   UNL A   1      42.338  27.577  29.879  1.00  0.00     0.049 A 
ATOM     52  C   UNL A   1      40.846  30.702  34.333  1.00  0.00     0.074 A 
ATOM     53  C   UNL A   1      43.517  26.863  30.000  1.00  0.00     0.029 A 
ATOM     54  N   UNL A   1      42.152  28.245  31.085  1.00  0.00    -0.354 N 
ATOM     55  N   UNL A   1      41.308  29.925  33.379  1.00  0.00    -0.248 NA
ATOM     56  C   UNL A   1      41.649  30.692  35.562  1.00  0.00     0.031 C 
ATOM     57  C   UNL A   1      44.014  27.057  31.295  1.00  0.00     0.029 A 
ATOM     58  C   UNL A   1      43.181  27.942  31.961  1.00  0.00     0.049 A 
ATOM     59  H   UNL A   1      41.399  28.846  31.286  1.00  0.00     0.167 HD
ATOM     60  C   UNL A   1      42.472  29.355  33.884  1.00  0.00     0.074 A 
ATOM     61  C   UNL A   1      42.645  29.886  35.223  1.00  0.00     0.031 C 
ATOM     62  C   UNL A   1      43.324  28.477  33.296  1.00  0.00     0.034 A 
BRANCH  49  63
ATOM     63  C   UNL A   1      41.685  26.784  27.542  1.00  0.00     0.023 A 
ATOM     64  C   UNL A   1      41.256  25.445  27.493  1.00  0.00     0.031 A 
ATOM     65  C   UNL A   1      42.429  27.272  26.453  1.00  0.00     0.131 A 
ATOM     66  C   UNL A   1      41.668  24.614  26.441  1.00  0.00     0.055 A 
ATOM     67  C   UNL A   1      42.752  26.465  25.360  1.00  0.00     0.041 A 
ATOM     68  F   UNL A   1      42.884  28.535  26.448  1.00  0.00    -0.206 F 
ATOM     69  C   UNL A   1      42.391  25.120  25.359  1.00  0.00     0.022 A 
BRANCH  66  70
ATOM     70  S   UNL A   1      41.409  22.825  26.604  1.00  0.00     0.124 S 
ATOM     71  O   UNL A   1      42.193  22.311  25.483  1.00  0.00    -0.237 OA
ATOM     72  O   UNL A   1      41.941  22.549  27.934  1.00  0.00    -0.237 OA
ATOM     73  O   UNL A   1      39.963  22.672  26.465  1.00  0.00    -0.744 OA
ENDBRANCH  66  70
ENDBRANCH  49  63
BRANCH  50  74
ATOM     74  C   UNL A   1      39.248  32.377  35.533  1.00  0.00     0.023 A 
ATOM     75  C   UNL A   1      39.699  33.696  35.691  1.00  0.00     0.031 A 
ATOM     76  C   UNL A   1      38.448  31.825  36.548  1.00  0.00     0.131 A 
ATOM     77  C   UNL A   1      39.376  34.412  36.855  1.00  0.00     0.055 A 
ATOM     78  C   UNL A   1      38.095  32.555  37.686  1.00  0.00     0.041 A 
ATOM     79  F   UNL A   1      37.981  30.570  36.439  1.00  0.00    -0.206 F 
ATOM     80  C   UNL A   1      38.569  33.853  37.848  1.00  0.00     0.022 A 
BRANCH  77  81
ATOM     81  S   UNL A   1      40.073  36.071  37.075  1.00  0.00     0.124 S 
ATOM     82  O   UNL A   1      41.483  35.773  37.305  1.00  0.00    -0.237 OA
ATOM     83  O   UNL A   1      39.751  36.707  35.803  1.00  0.00    -0.237 OA
ATOM     84  O   UNL A   1      39.349  36.595  38.231  1.00  0.00    -0.744 OA
ENDBRANCH  77  81
ENDBRANCH  50  74
BRANCH  62  85
ATOM     85  C   UNL A   1      44.540  28.077  34.092  1.00  0.00     0.023 A 
ATOM     86  C   UNL A   1      44.544  26.934  34.910  1.00  0.00     0.031 A 
ATOM     87  C   UNL A   1      45.705  28.863  34.040  1.00  0.00     0.131 A 
ATOM     88  C   UNL A   1      45.675  26.637  35.683  1.00  0.00     0.055 A 
ATOM     89  C   UNL A   1      46.846  28.530  34.770  1.00  0.00     0.041 A 
ATOM     90  F   UNL A   1      45.750  29.966  33.276  1.00  0.00    -0.206 F 
ATOM     91  C   UNL A   1      46.832  27.418  35.606  1.00  0.00     0.022 A 
BRANCH  88  92
ATOM     92  S   UNL A   1      45.587  25.258  36.858  1.00  0.00     0.124 S 
ATOM     93  O   UNL A   1      46.826  25.422  37.612  1.00  0.00    -0.237 OA
ATOM     94  O   UNL A   1      44.355  25.545  37.586  1.00  0.00    -0.237 OA
ATOM     95  O   UNL A   1      45.537  24.077  35.998  1.00  0.00    -0.744 OA
ENDBRANCH  88  92
ENDBRANCH  62  85
ENDBRANCH  36  37
ENDBRANCH  28  31
ENDBRANCH  26  27
ENDBRANCH   1  26
TORSDOF 18
ENDMDL
MODEL 2
REMARK VINA RESULT:     -11.4      2.117      8.033
REMARK SMILES CC(C)[NH2+][C@@]1(C(=O)NCCCCNC(=O)c2ccc(-c3c4nc(c(-c5cc(S(=O)(=O)[O-])ccc5F)c5ccc([nH]5)c(-c5cc(S(=O)(=O)[O-])ccc5F)c5nc(c(-c6cc(S(=O)(=O)[O-])ccc6F)c6ccc3[nH]6)C=C5)C=C4)cc2)CC[C@H](Sc2ccccn2)C1
REMARK SMILES IDX 11 1 10 2 9 3 8 4 6 5 7 6 5 8 79 9 89 10 80 11 81 12 4 13
REMARK SMILES IDX 2 16 1 17 3 18 82 19 83 20 84 21 88 22 85 23 87 24 86 25
REMARK SMILES IDX 12 26 13 27 14 28 15 30 16 31 17 32 78 33 18 34 77 35 19 36
REMARK SMILES IDX 20 37 21 38 71 39 22 40 76 41 70 42 72 43 23 44 75 45 69 46
REMARK SMILES IDX 68 47 24 49 56 50 36 51 55 52 37 53 40 54 54 55 73 56 38 57
REMARK SMILES IDX 39 58 53 60 74 61 41 62 25 63 26 64 34 65 27 66 33 67 35 68
REMARK SMILES IDX 32 69 28 70 29 71 30 72 31 73 57 74 58 75 66 76 59 77 65 78
REMARK SMILES IDX 67 79 64 80 60 81 61 82 62 83 63 84 42 85 43 86 51 87 44 88
REMARK SMILES IDX 50 89 52 90 49 91 45 92 46 93 47 94 48 95
REMARK H PARENT 8 7 4 14 4 15 13 29 72 48 40 59
REMARK Flexibility Score: inf
ROOT
ATOM      1  C   UNL A   1      33.091  28.413  27.249  1.00  0.00     0.023 C 
ENDROOT
BRANCH   1   2
ATOM      2  C   UNL A   1      31.607  28.102  27.114  1.00  0.00     0.023 C 
BRANCH   2   3
ATOM      3  C   UNL A   1      31.275  26.984  26.133  1.00  0.00     0.116 C 
BRANCH   3   4
ATOM      4  N   UNL A   1      30.981  25.742  26.806  1.00  0.00    -0.351 N 
ATOM      5  C   UNL A   1      31.399  24.469  26.576  1.00  0.00     0.281 C 
ATOM      6  O   UNL A   1      30.821  23.603  27.249  1.00  0.00    -0.268 OA
ATOM      7  H   UNL A   1      30.366  25.833  27.569  1.00  0.00     0.163 HD
BRANCH   5   8
ATOM      8  C   UNL A   1      32.540  24.072  25.535  1.00  0.00     0.176 C 
ATOM      9  C   UNL A   1      33.814  24.916  25.788  1.00  0.00     0.080 C 
ATOM     10  C   UNL A   1      32.111  24.362  24.083  1.00  0.00     0.094 C 
ATOM     11  C   UNL A   1      34.029  25.802  24.560  1.00  0.00     0.022 C 
ATOM     12  C   UNL A   1      33.297  25.088  23.434  1.00  0.00     0.060 C 
BRANCH   8  13
ATOM     13  N   UNL A   1      32.779  22.636  25.801  1.00  0.00    -0.332 N 
ATOM     14  H   UNL A   1      32.187  22.410  26.601  1.00  0.00     0.347 HD
ATOM     15  H   UNL A   1      32.614  22.257  24.869  1.00  0.00     0.347 HD
BRANCH  13  16
ATOM     16  C   UNL A   1      34.061  22.025  26.094  1.00  0.00     0.176 C 
ATOM     17  C   UNL A   1      34.025  21.664  27.588  1.00  0.00     0.075 C 
ATOM     18  C   UNL A   1      34.361  20.752  25.306  1.00  0.00     0.075 C 
ENDBRANCH  13  16
ENDBRANCH   8  13
BRANCH  12  19
ATOM     19  S   UNL A   1      32.807  25.981  21.905  1.00  0.00    -0.103 SA
BRANCH  19  20
ATOM     20  C   UNL A   1      31.687  27.275  22.398  1.00  0.00     0.096 A 
ATOM     21  C   UNL A   1      30.324  27.038  22.549  1.00  0.00     0.035 A 
ATOM     22  N   UNL A   1      32.260  28.439  22.777  1.00  0.00    -0.250 NA
ATOM     23  C   UNL A   1      29.518  28.038  23.089  1.00  0.00     0.004 A 
ATOM     24  C   UNL A   1      31.461  29.380  23.336  1.00  0.00     0.112 A 
ATOM     25  C   UNL A   1      30.098  29.227  23.504  1.00  0.00     0.020 A 
ENDBRANCH  19  20
ENDBRANCH  12  19
ENDBRANCH   5   8
ENDBRANCH   3   4
ENDBRANCH   2   3
ENDBRANCH   1   2
BRANCH   1  26
ATOM     26  C   UNL A   1      33.635  29.444  26.268  1.00  0.00     0.116 C 
BRANCH  26  27
ATOM     27  N   UNL A   1      33.756  30.794  26.809  1.00  0.00    -0.352 N 
ATOM     28  C   UNL A   1      34.750  31.298  27.620  1.00  0.00     0.251 C 
ATOM     29  H   UNL A   1      33.038  31.422  26.567  1.00  0.00     0.163 HD
ATOM     30  O   UNL A   1      34.709  32.445  28.042  1.00  0.00    -0.269 OA
BRANCH  28  31
ATOM     31  C   UNL A   1      35.837  30.392  28.027  1.00  0.00     0.039 A 
ATOM     32  C   UNL A   1      36.995  30.350  27.249  1.00  0.00     0.014 A 
ATOM     33  C   UNL A   1      35.757  29.709  29.241  1.00  0.00     0.014 A 
ATOM     34  C   UNL A   1      38.122  29.697  27.743  1.00  0.00     0.010 A 
ATOM     35  C   UNL A   1      36.907  29.144  29.771  1.00  0.00     0.010 A 
ATOM     36  C   UNL A   1      38.101  29.142  29.032  1.00  0.00    -0.014 A 
BRANCH  36  37
ATOM     37  C   UNL A   1      39.314  28.542  29.637  1.00  0.00     0.031 A 
ATOM     38  C   UNL A   1      39.875  29.138  30.895  1.00  0.00     0.074 A 
ATOM     39  C   UNL A   1      39.955  27.541  29.002  1.00  0.00     0.049 A 
ATOM     40  N   UNL A   1      40.998  28.877  31.509  1.00  0.00    -0.248 NA
ATOM     41  C   UNL A   1      39.084  30.213  31.514  1.00  0.00     0.031 C 
ATOM     42  C   UNL A   1      39.524  26.920  27.746  1.00  0.00     0.029 A 
ATOM     43  N   UNL A   1      41.110  26.876  29.320  1.00  0.00    -0.354 N 
ATOM     44  C   UNL A   1      41.069  29.783  32.562  1.00  0.00     0.074 A 
ATOM     45  C   UNL A   1      39.908  30.640  32.456  1.00  0.00     0.031 C 
ATOM     46  C   UNL A   1      40.388  25.944  27.420  1.00  0.00     0.029 A 
ATOM     47  C   UNL A   1      41.454  25.901  28.413  1.00  0.00     0.049 A 
ATOM     48  H   UNL A   1      41.643  27.077  30.123  1.00  0.00     0.167 HD
ATOM     49  C   UNL A   1      42.006  29.875  33.538  1.00  0.00     0.034 A 
ATOM     50  C   UNL A   1      42.516  25.073  28.387  1.00  0.00     0.034 A 
ATOM     51  C   UNL A   1      43.133  28.981  33.637  1.00  0.00     0.049 A 
ATOM     52  C   UNL A   1      43.536  25.177  29.491  1.00  0.00     0.074 A 
ATOM     53  C   UNL A   1      44.107  28.922  34.618  1.00  0.00     0.029 A 
ATOM     54  N   UNL A   1      43.437  27.986  32.715  1.00  0.00    -0.354 N 
ATOM     55  N   UNL A   1      43.571  26.007  30.508  1.00  0.00    -0.248 NA
ATOM     56  C   UNL A   1      44.655  24.229  29.446  1.00  0.00     0.031 C 
ATOM     57  C   UNL A   1      45.027  27.928  34.262  1.00  0.00     0.029 A 
ATOM     58  C   UNL A   1      44.594  27.323  33.092  1.00  0.00     0.049 A 
ATOM     59  H   UNL A   1      42.907  27.781  31.911  1.00  0.00     0.167 HD
ATOM     60  C   UNL A   1      44.702  25.663  31.241  1.00  0.00     0.074 A 
ATOM     61  C   UNL A   1      45.315  24.543  30.553  1.00  0.00     0.031 C 
ATOM     62  C   UNL A   1      45.190  26.215  32.380  1.00  0.00     0.034 A 
BRANCH  49  63
ATOM     63  C   UNL A   1      41.850  30.997  34.537  1.00  0.00     0.023 A 
ATOM     64  C   UNL A   1      40.808  31.005  35.482  1.00  0.00     0.031 A 
ATOM     65  C   UNL A   1      42.702  32.115  34.493  1.00  0.00     0.131 A 
ATOM     66  C   UNL A   1      40.576  32.149  36.261  1.00  0.00     0.055 A 
ATOM     67  C   UNL A   1      42.525  33.210  35.340  1.00  0.00     0.041 A 
ATOM     68  F   UNL A   1      43.703  32.176  33.600  1.00  0.00    -0.206 F 
ATOM     69  C   UNL A   1      41.443  33.243  36.217  1.00  0.00     0.022 A 
BRANCH  66  70
ATOM     70  S   UNL A   1      39.019  32.260  37.187  1.00  0.00     0.124 S 
ATOM     71  O   UNL A   1      38.394  33.429  36.572  1.00  0.00    -0.237 OA
ATOM     72  O   UNL A   1      38.390  30.975  36.900  1.00  0.00    -0.237 OA
ATOM     73  O   UNL A   1      39.453  32.449  38.569  1.00  0.00    -0.744 OA
ENDBRANCH  66  70
ENDBRANCH  49  63
BRANCH  50  74
ATOM     74  C   UNL A   1      42.668  24.072  27.295  1.00  0.00     0.023 A 
ATOM     75  C   UNL A   1      42.048  22.816  27.383  1.00  0.00     0.031 A 
ATOM     76  C   UNL A   1      43.445  24.346  26.157  1.00  0.00     0.131 A 
ATOM     77  C   UNL A   1      42.243  21.866  26.369  1.00  0.00     0.055 A 
ATOM     78  C   UNL A   1      43.603  23.413  25.129  1.00  0.00     0.041 A 
ATOM     79  F   UNL A   1      44.050  25.538  26.018  1.00  0.00    -0.206 F 
ATOM     80  C   UNL A   1      43.007  22.160  25.238  1.00  0.00     0.022 A 
BRANCH  77  81
ATOM     81  S   UNL A   1      41.520  20.215  26.574  1.00  0.00     0.124 S 
ATOM     82  O   UNL A   1      42.143  19.771  27.817  1.00  0.00    -0.237 OA
ATOM     83  O   UNL A   1      40.094  20.514  26.643  1.00  0.00    -0.237 OA
ATOM     84  O   UNL A   1      41.948  19.503  25.372  1.00  0.00    -0.744 OA
ENDBRANCH  77  81
ENDBRANCH  50  74
BRANCH  62  85
ATOM     85  C   UNL A   1      46.424  25.579  32.968  1.00  0.00     0.023 A 
ATOM     86  C   UNL A   1      46.341  24.548  33.919  1.00  0.00     0.031 A 
ATOM     87  C   UNL A   1      47.699  26.024  32.577  1.00  0.00     0.131 A 
ATOM     88  C   UNL A   1      47.514  24.031  34.487  1.00  0.00     0.055 A 
ATOM     89  C   UNL A   1      48.862  25.466  33.105  1.00  0.00     0.041 A 
ATOM     90  F   UNL A   1      47.831  27.008  31.672  1.00  0.00    -0.206 F 
ATOM     91  C   UNL A   1      48.774  24.472  34.075  1.00  0.00     0.022 A 
BRANCH  88  92
ATOM     92  S   UNL A   1      47.369  22.827  35.837  1.00  0.00     0.124 S 
ATOM     93  O   UNL A   1      48.326  21.802  35.433  1.00  0.00    -0.237 OA
ATOM     94  O   UNL A   1      47.738  23.621  37.005  1.00  0.00    -0.237 OA
ATOM     95  O   UNL A   1      45.965  22.421  35.784  1.00  0.00    -0.744 OA
ENDBRANCH  88  92
ENDBRANCH  62  85
ENDBRANCH  36  37
ENDBRANCH  28  31
ENDBRANCH  26  27
ENDBRANCH   1  26
TORSDOF 18
ENDMDL
MODEL 3
REMARK VINA RESULT:     -11.4      1.621      7.750
REMARK SMILES CC(C)[NH2+][C@@]1(C(=O)NCCCCNC(=O)c2ccc(-c3c4nc(c(-c5cc(S(=O)(=O)[O-])ccc5F)c5ccc([nH]5)c(-c5cc(S(=O)(=O)[O-])ccc5F)c5nc(c(-c6cc(S(=O)(=O)[O-])ccc6F)c6ccc3[nH]6)C=C5)C=C4)cc2)CC[C@H](Sc2ccccn2)C1
REMARK SMILES IDX 11 1 10 2 9 3 8 4 6 5 7 6 5 8 79 9 89 10 80 11 81 12 4 13
REMARK SMILES IDX 2 16 1 17 3 18 82 19 83 20 84 21 88 22 85 23 87 24 86 25
REMARK SMILES IDX 12 26 13 27 14 28 15 30 16 31 17 32 78 33 18 34 77 35 19 36
REMARK SMILES IDX 20 37 21 38 71 39 22 40 76 41 70 42 72 43 23 44 75 45 69 46
REMARK SMILES IDX 68 47 24 49 56 50 36 51 55 52 37 53 40 54 54 55 73 56 38 57
REMARK SMILES IDX 39 58 53 60 74 61 41 62 25 63 26 64 34 65 27 66 33 67 35 68
REMARK SMILES IDX 32 69 28 70 29 71 30 72 31 73 57 74 58 75 66 76 59 77 65 78
REMARK SMILES IDX 67 79 64 80 60 81 61 82 62 83 63 84 42 85 43 86 51 87 44 88
REMARK SMILES IDX 50 89 52 90 49 91 45 92 46 93 47 94 48 95
REMARK H PARENT 8 7 4 14 4 15 13 29 72 48 40 59
REMARK Flexibility Score: inf
ROOT
ATOM      1  C   UNL A   1      31.813  29.291  26.970  1.00  0.00     0.023 C 
ENDROOT
BRANCH   1   2
ATOM      2  C   UNL A   1      32.148  27.827  27.214  1.00  0.00     0.023 C 
BRANCH   2   3
ATOM      3  C   UNL A   1      31.441  26.847  26.285  1.00  0.00     0.116 C 
BRANCH   3   4
ATOM      4  N   UNL A   1      31.180  25.582  26.930  1.00  0.00    -0.351 N 
ATOM      5  C   UNL A   1      31.575  24.317  26.630  1.00  0.00     0.281 C 
ATOM      6  O   UNL A   1      31.034  23.430  27.305  1.00  0.00    -0.268 OA
ATOM      7  H   UNL A   1      30.612  25.648  27.731  1.00  0.00     0.163 HD
BRANCH   5   8
ATOM      8  C   UNL A   1      32.651  23.954  25.509  1.00  0.00     0.176 C 
ATOM      9  C   UNL A   1      33.995  24.663  25.805  1.00  0.00     0.080 C 
ATOM     10  C   UNL A   1      32.204  24.436  24.116  1.00  0.00     0.094 C 
ATOM     11  C   UNL A   1      34.244  25.663  24.674  1.00  0.00     0.022 C 
ATOM     12  C   UNL A   1      33.425  25.137  23.505  1.00  0.00     0.060 C 
BRANCH   8  13
ATOM     13  N   UNL A   1      32.781  22.482  25.607  1.00  0.00    -0.332 N 
ATOM     14  H   UNL A   1      32.163  22.210  26.372  1.00  0.00     0.347 HD
ATOM     15  H   UNL A   1      32.602  22.227  24.636  1.00  0.00     0.347 HD
BRANCH  13  16
ATOM     16  C   UNL A   1      34.011  21.748  25.834  1.00  0.00     0.176 C 
ATOM     17  C   UNL A   1      34.084  21.504  27.350  1.00  0.00     0.075 C 
ATOM     18  C   UNL A   1      34.091  20.396  25.132  1.00  0.00     0.075 C 
ENDBRANCH  13  16
ENDBRANCH   8  13
BRANCH  12  19
ATOM     19  S   UNL A   1      32.963  26.232  22.103  1.00  0.00    -0.103 SA
BRANCH  19  20
ATOM     20  C   UNL A   1      31.722  27.355  22.709  1.00  0.00     0.096 A 
ATOM     21  C   UNL A   1      32.024  28.682  23.001  1.00  0.00     0.035 A 
ATOM     22  N   UNL A   1      30.452  26.891  22.703  1.00  0.00    -0.250 NA
ATOM     23  C   UNL A   1      30.987  29.558  23.318  1.00  0.00     0.004 A 
ATOM     24  C   UNL A   1      29.460  27.772  22.975  1.00  0.00     0.112 A 
ATOM     25  C   UNL A   1      29.679  29.100  23.292  1.00  0.00     0.020 A 
ENDBRANCH  19  20
ENDBRANCH  12  19
ENDBRANCH   5   8
ENDBRANCH   3   4
ENDBRANCH   2   3
ENDBRANCH   1   2
BRANCH   1  26
ATOM     26  C   UNL A   1      32.997  30.187  26.630  1.00  0.00     0.116 C 
BRANCH  26  27
ATOM     27  N   UNL A   1      32.915  31.538  27.175  1.00  0.00    -0.352 N 
ATOM     28  C   UNL A   1      33.874  32.225  27.890  1.00  0.00     0.251 C 
ATOM     29  H   UNL A   1      32.071  32.017  27.015  1.00  0.00     0.163 HD
ATOM     30  O   UNL A   1      33.660  33.346  28.330  1.00  0.00    -0.269 OA
BRANCH  28  31
ATOM     31  C   UNL A   1      35.148  31.543  28.172  1.00  0.00     0.039 A 
ATOM     32  C   UNL A   1      36.317  32.305  28.208  1.00  0.00     0.014 A 
ATOM     33  C   UNL A   1      35.151  30.196  28.537  1.00  0.00     0.014 A 
ATOM     34  C   UNL A   1      37.483  31.735  28.712  1.00  0.00     0.010 A 
ATOM     35  C   UNL A   1      36.287  29.663  29.126  1.00  0.00     0.010 A 
ATOM     36  C   UNL A   1      37.460  30.430  29.228  1.00  0.00    -0.014 A 
BRANCH  36  37
ATOM     37  C   UNL A   1      38.650  29.831  29.878  1.00  0.00     0.031 A 
ATOM     38  C   UNL A   1      39.051  30.302  31.246  1.00  0.00     0.074 A 
ATOM     39  C   UNL A   1      39.413  28.952  29.199  1.00  0.00     0.049 A 
ATOM     40  N   UNL A   1      40.128  30.033  31.934  1.00  0.00    -0.248 NA
ATOM     41  C   UNL A   1      38.135  31.248  31.902  1.00  0.00     0.031 C 
ATOM     42  C   UNL A   1      39.143  28.464  27.843  1.00  0.00     0.029 A 
ATOM     43  N   UNL A   1      40.577  28.320  29.552  1.00  0.00    -0.354 N 
ATOM     44  C   UNL A   1      40.040  30.808  33.086  1.00  0.00     0.074 A 
ATOM     45  C   UNL A   1      38.838  31.604  32.965  1.00  0.00     0.031 C 
ATOM     46  C   UNL A   1      40.097  27.585  27.495  1.00  0.00     0.029 A 
ATOM     47  C   UNL A   1      41.068  27.483  28.578  1.00  0.00     0.049 A 
ATOM     48  H   UNL A   1      41.019  28.453  30.422  1.00  0.00     0.167 HD
ATOM     49  C   UNL A   1      40.875  30.834  34.154  1.00  0.00     0.034 A 
ATOM     50  C   UNL A   1      42.182  26.726  28.562  1.00  0.00     0.034 A 
ATOM     51  C   UNL A   1      42.047  30.000  34.261  1.00  0.00     0.049 A 
ATOM     52  C   UNL A   1      43.086  26.754  29.767  1.00  0.00     0.074 A 
ATOM     53  C   UNL A   1      42.927  29.878  35.321  1.00  0.00     0.029 A 
ATOM     54  N   UNL A   1      42.501  29.143  33.266  1.00  0.00    -0.354 N 
ATOM     55  N   UNL A   1      42.971  27.456  30.871  1.00  0.00    -0.248 NA
ATOM     56  C   UNL A   1      44.267  25.883  29.724  1.00  0.00     0.031 C 
ATOM     57  C   UNL A   1      43.942  28.989  34.946  1.00  0.00     0.029 A 
ATOM     58  C   UNL A   1      43.660  28.506  33.677  1.00  0.00     0.049 A 
ATOM     59  H   UNL A   1      42.062  29.007  32.395  1.00  0.00     0.167 HD
ATOM     60  C   UNL A   1      44.051  27.090  31.667  1.00  0.00     0.074 A 
ATOM     61  C   UNL A   1      44.799  26.098  30.919  1.00  0.00     0.031 C 
ATOM     62  C   UNL A   1      44.394  27.528  32.906  1.00  0.00     0.034 A 
BRANCH  49  63
ATOM     63  C   UNL A   1      40.552  31.816  35.255  1.00  0.00     0.023 A 
ATOM     64  C   UNL A   1      39.569  31.543  36.224  1.00  0.00     0.031 A 
ATOM     65  C   UNL A   1      41.173  33.077  35.290  1.00  0.00     0.131 A 
ATOM     66  C   UNL A   1      39.158  32.551  37.110  1.00  0.00     0.055 A 
ATOM     67  C   UNL A   1      40.828  34.043  36.238  1.00  0.00     0.041 A 
ATOM     68  F   UNL A   1      42.104  33.407  34.380  1.00  0.00    -0.206 F 
ATOM     69  C   UNL A   1      39.798  33.791  37.142  1.00  0.00     0.022 A 
BRANCH  66  70
ATOM     70  S   UNL A   1      37.650  32.280  38.082  1.00  0.00     0.124 S 
ATOM     71  O   UNL A   1      37.397  30.861  37.843  1.00  0.00    -0.237 OA
ATOM     72  O   UNL A   1      38.077  32.634  39.432  1.00  0.00    -0.237 OA
ATOM     73  O   UNL A   1      36.681  33.190  37.475  1.00  0.00    -0.744 OA
ENDBRANCH  66  70
ENDBRANCH  49  63
BRANCH  50  74
ATOM     74  C   UNL A   1      42.501  25.875  27.383  1.00  0.00     0.023 A 
ATOM     75  C   UNL A   1      42.116  24.526  27.348  1.00  0.00     0.031 A 
ATOM     76  C   UNL A   1      43.208  26.388  26.282  1.00  0.00     0.131 A 
ATOM     77  C   UNL A   1      42.469  23.724  26.251  1.00  0.00     0.055 A 
ATOM     78  C   UNL A   1      43.521  25.598  25.173  1.00  0.00     0.041 A 
ATOM     79  F   UNL A   1      43.589  27.677  26.260  1.00  0.00    -0.206 F 
ATOM     80  C   UNL A   1      43.160  24.254  25.159  1.00  0.00     0.022 A 
BRANCH  77  81
ATOM     81  S   UNL A   1      42.056  21.959  26.296  1.00  0.00     0.124 S 
ATOM     82  O   UNL A   1      42.470  21.591  27.646  1.00  0.00    -0.237 OA
ATOM     83  O   UNL A   1      40.618  21.978  26.049  1.00  0.00    -0.237 OA
ATOM     84  O   UNL A   1      42.862  21.392  25.218  1.00  0.00    -0.744 OA
ENDBRANCH  77  81
ENDBRANCH  50  74
BRANCH  62  85
ATOM     85  C   UNL A   1      45.608  26.896  33.536  1.00  0.00     0.023 A 
ATOM     86  C   UNL A   1      45.554  25.624  34.131  1.00  0.00     0.031 A 
ATOM     87  C   UNL A   1      46.833  27.587  33.550  1.00  0.00     0.131 A 
ATOM     88  C   UNL A   1      46.693  25.104  34.764  1.00  0.00     0.055 A 
ATOM     89  C   UNL A   1      47.976  27.039  34.131  1.00  0.00     0.041 A 
ATOM     90  F   UNL A   1      46.936  28.806  32.995  1.00  0.00    -0.206 F 
ATOM     91  C   UNL A   1      47.907  25.796  34.753  1.00  0.00     0.022 A 
BRANCH  88  92
ATOM     92  S   UNL A   1      46.544  23.542  35.674  1.00  0.00     0.124 S 
ATOM     93  O   UNL A   1      47.885  22.982  35.536  1.00  0.00    -0.237 OA
ATOM     94  O   UNL A   1      46.176  23.994  37.012  1.00  0.00    -0.237 OA
ATOM     95  O   UNL A   1      45.495  22.823  34.953  1.00  0.00    -0.744 OA
ENDBRANCH  88  92
ENDBRANCH  62  85
ENDBRANCH  36  37
ENDBRANCH  28  31
ENDBRANCH  26  27
ENDBRANCH   1  26
TORSDOF 18
ENDMDL
