MODEL 1
REMARK VINA RESULT:     -12.6      0.000      0.000
REMARK SMILES COc1cccc(-c2ccc(Nc3cccc(C(=O)NCCCCNC(=O)c4ccc(-c5c6nc(c(-c7cc(S(=O)(=O)[O-])ccc7F)c7ccc([nH]7)c(-c7cc(S(=O)(=O)[O-])ccc7F)c7nc(c(-c8cc(S(=O)(=O)[O-])ccc8F)c8ccc5[nH]8)C=C7)C=C6)cc4)c3)nn2)c1
REMARK SMILES IDX 22 1 21 2 20 3 18 4 19 5 17 7 13 8 14 9 91 10 15 11 16 12
REMARK SMILES IDX 12 13 11 15 8 16 9 17 93 18 10 19 92 20 7 21 3 22 4 23 94 24
REMARK SMILES IDX 5 25 6 26 2 27 1 28 23 29 24 30 25 31 26 32 27 34 28 35
REMARK SMILES IDX 29 36 90 37 30 38 89 39 31 40 32 41 33 42 83 43 34 44 88 45
REMARK SMILES IDX 82 46 84 47 35 48 87 49 81 50 80 51 36 53 68 54 48 55 67 56
REMARK SMILES IDX 49 57 52 58 66 59 85 60 50 61 51 62 65 64 86 65 53 66 37 67
REMARK SMILES IDX 38 68 46 69 39 70 45 71 47 72 44 73 40 74 41 75 42 76 43 77
REMARK SMILES IDX 69 78 70 79 78 80 71 81 77 82 79 83 76 84 72 85 73 86 74 87
REMARK SMILES IDX 75 88 54 89 55 90 63 91 56 92 62 93 64 94 61 95 57 96 58 97
REMARK SMILES IDX 59 98 60 99
REMARK H PARENT 20 6 12 14 25 33 84 52 52 63
REMARK Flexibility Score: inf
ROOT
ATOM      1  C   UNL A   1      32.310  29.458  27.231  1.00  0.00     0.023 C 
ENDROOT
BRANCH   1   2
ATOM      2  C   UNL A   1      33.441  28.620  26.647  1.00  0.00     0.116 C 
BRANCH   2   3
ATOM      3  N   UNL A   1      33.801  28.964  25.279  1.00  0.00    -0.352 N 
ATOM      4  C   UNL A   1      33.100  28.819  24.101  1.00  0.00     0.251 C 
ATOM      5  O   UNL A   1      33.626  29.160  23.043  1.00  0.00    -0.269 OA
ATOM      6  H   UNL A   1      34.694  29.366  25.179  1.00  0.00     0.163 HD
BRANCH   4   7
ATOM      7  C   UNL A   1      31.753  28.194  24.068  1.00  0.00     0.041 A 
ATOM      8  C   UNL A   1      30.335  26.216  24.129  1.00  0.00     0.040 A 
ATOM      9  C   UNL A   1      29.265  27.000  23.679  1.00  0.00     0.026 A 
ATOM     10  C   UNL A   1      31.548  26.856  24.407  1.00  0.00     0.040 A 
ATOM     11  C   UNL A   1      29.419  28.376  23.476  1.00  0.00     0.003 A 
ATOM     12  C   UNL A   1      30.668  28.969  23.648  1.00  0.00     0.014 A 
BRANCH   8  13
ATOM     13  N   UNL A   1      30.200  24.819  24.203  1.00  0.00    -0.339 N 
ATOM     14  H   UNL A   1      29.276  24.482  24.227  1.00  0.00     0.168 HD
BRANCH  13  15
ATOM     15  C   UNL A   1      31.204  23.838  24.250  1.00  0.00     0.153 A 
ATOM     16  C   UNL A   1      33.222  21.954  24.341  1.00  0.00     0.093 A 
ATOM     17  C   UNL A   1      32.848  22.487  23.117  1.00  0.00     0.035 A 
ATOM     18  N   UNL A   1      32.616  22.373  25.471  1.00  0.00    -0.148 NA
ATOM     19  C   UNL A   1      31.820  23.434  23.072  1.00  0.00     0.051 A 
ATOM     20  N   UNL A   1      31.620  23.324  25.423  1.00  0.00    -0.132 NA
BRANCH  16  21
ATOM     21  C   UNL A   1      34.209  20.878  24.499  1.00  0.00     0.006 A 
ATOM     22  C   UNL A   1      34.824  18.519  24.598  1.00  0.00     0.119 A 
ATOM     23  C   UNL A   1      36.141  18.870  24.899  1.00  0.00     0.046 A 
ATOM     24  C   UNL A   1      33.860  19.516  24.413  1.00  0.00     0.056 A 
ATOM     25  C   UNL A   1      36.511  20.208  24.968  1.00  0.00     0.005 A 
ATOM     26  C   UNL A   1      35.554  21.201  24.763  1.00  0.00     0.011 A 
BRANCH  22  27
ATOM     27  O   UNL A   1      34.571  17.175  24.561  1.00  0.00    -0.497 OA
ATOM     28  C   UNL A   1      33.783  16.742  23.454  1.00  0.00     0.278 C 
ENDBRANCH  22  27
ENDBRANCH  16  21
ENDBRANCH  13  15
ENDBRANCH   8  13
ENDBRANCH   4   7
ENDBRANCH   2   3
ENDBRANCH   1   2
BRANCH   1  29
ATOM     29  C   UNL A   1      32.243  30.912  26.782  1.00  0.00     0.023 C 
BRANCH  29  30
ATOM     30  C   UNL A   1      33.209  31.869  27.470  1.00  0.00     0.116 C 
BRANCH  30  31
ATOM     31  N   UNL A   1      32.700  33.228  27.604  1.00  0.00    -0.352 N 
ATOM     32  C   UNL A   1      33.144  34.246  28.424  1.00  0.00     0.251 C 
ATOM     33  H   UNL A   1      31.933  33.452  27.030  1.00  0.00     0.163 HD
ATOM     34  O   UNL A   1      32.550  35.315  28.458  1.00  0.00    -0.269 OA
BRANCH  32  35
ATOM     35  C   UNL A   1      34.317  34.005  29.296  1.00  0.00     0.039 A 
ATOM     36  C   UNL A   1      34.140  33.317  30.500  1.00  0.00     0.014 A 
ATOM     37  C   UNL A   1      35.596  34.382  28.881  1.00  0.00     0.014 A 
ATOM     38  C   UNL A   1      35.258  32.910  31.234  1.00  0.00     0.010 A 
ATOM     39  C   UNL A   1      36.707  33.910  29.572  1.00  0.00     0.010 A 
ATOM     40  C   UNL A   1      36.552  33.151  30.745  1.00  0.00    -0.014 A 
BRANCH  40  41
ATOM     41  C   UNL A   1      37.769  32.618  31.417  1.00  0.00     0.031 A 
ATOM     42  C   UNL A   1      38.514  31.470  30.795  1.00  0.00     0.074 A 
ATOM     43  C   UNL A   1      38.128  33.079  32.632  1.00  0.00     0.049 A 
ATOM     44  N   UNL A   1      39.452  30.715  31.305  1.00  0.00    -0.248 NA
ATOM     45  C   UNL A   1      38.114  31.099  29.430  1.00  0.00     0.031 C 
ATOM     46  C   UNL A   1      37.470  34.168  33.357  1.00  0.00     0.029 A 
ATOM     47  N   UNL A   1      39.120  32.667  33.488  1.00  0.00    -0.354 N 
ATOM     48  C   UNL A   1      39.731  29.755  30.338  1.00  0.00     0.074 A 
ATOM     49  C   UNL A   1      38.828  30.002  29.232  1.00  0.00     0.031 C 
ATOM     50  C   UNL A   1      38.079  34.341  34.541  1.00  0.00     0.029 A 
ATOM     51  C   UNL A   1      39.134  33.343  34.688  1.00  0.00     0.049 A 
ATOM     52  H   UNL A   1      39.762  31.955  33.265  1.00  0.00     0.167 HD
ATOM     53  C   UNL A   1      40.663  28.769  30.364  1.00  0.00     0.034 A 
ATOM     54  C   UNL A   1      39.889  33.162  35.790  1.00  0.00     0.034 A 
ATOM     55  C   UNL A   1      41.572  28.554  31.463  1.00  0.00     0.049 A 
ATOM     56  C   UNL A   1      40.918  32.060  35.799  1.00  0.00     0.074 A 
ATOM     57  C   UNL A   1      42.583  27.616  31.576  1.00  0.00     0.029 A 
ATOM     58  N   UNL A   1      41.583  29.292  32.640  1.00  0.00    -0.354 N 
ATOM     59  N   UNL A   1      41.181  31.170  34.871  1.00  0.00    -0.248 NA
ATOM     60  C   UNL A   1      41.755  31.942  37.001  1.00  0.00     0.031 C 
ATOM     61  C   UNL A   1      43.172  27.753  32.838  1.00  0.00     0.029 A 
ATOM     62  C   UNL A   1      42.573  28.820  33.488  1.00  0.00     0.049 A 
ATOM     63  H   UNL A   1      40.976  30.039  32.842  1.00  0.00     0.167 HD
ATOM     64  C   UNL A   1      42.240  30.411  35.362  1.00  0.00     0.074 A 
ATOM     65  C   UNL A   1      42.565  30.947  36.668  1.00  0.00     0.031 C 
ATOM     66  C   UNL A   1      42.890  29.373  34.782  1.00  0.00     0.034 A 
BRANCH  53  67
ATOM     67  C   UNL A   1      40.712  27.836  29.180  1.00  0.00     0.023 A 
ATOM     68  C   UNL A   1      41.641  28.014  28.140  1.00  0.00     0.031 A 
ATOM     69  C   UNL A   1      39.788  26.782  29.064  1.00  0.00     0.131 A 
ATOM     70  C   UNL A   1      41.571  27.209  26.993  1.00  0.00     0.055 A 
ATOM     71  C   UNL A   1      39.780  25.930  27.958  1.00  0.00     0.041 A 
ATOM     72  F   UNL A   1      38.865  26.573  30.016  1.00  0.00    -0.206 F 
ATOM     73  C   UNL A   1      40.663  26.152  26.905  1.00  0.00     0.022 A 
BRANCH  70  74
ATOM     74  S   UNL A   1      42.580  27.665  25.558  1.00  0.00     0.124 S 
ATOM     75  O   UNL A   1      43.880  27.911  26.177  1.00  0.00    -0.237 OA
ATOM     76  O   UNL A   1      42.489  26.477  24.717  1.00  0.00    -0.237 OA
ATOM     77  O   UNL A   1      41.912  28.854  25.032  1.00  0.00    -0.744 OA
ENDBRANCH  70  74
ENDBRANCH  53  67
BRANCH  54  78
ATOM     78  C   UNL A   1      39.694  34.025  36.989  1.00  0.00     0.023 A 
ATOM     79  C   UNL A   1      39.051  33.532  38.136  1.00  0.00     0.031 A 
ATOM     80  C   UNL A   1      40.114  35.367  36.994  1.00  0.00     0.131 A 
ATOM     81  C   UNL A   1      38.807  34.386  39.223  1.00  0.00     0.055 A 
ATOM     82  C   UNL A   1      39.911  36.200  38.095  1.00  0.00     0.041 A 
ATOM     83  F   UNL A   1      40.741  35.886  35.925  1.00  0.00    -0.206 F 
ATOM     84  C   UNL A   1      39.242  35.713  39.215  1.00  0.00     0.022 A 
BRANCH  81  85
ATOM     85  S   UNL A   1      37.843  33.754  40.623  1.00  0.00     0.124 S 
ATOM     86  O   UNL A   1      36.778  33.023  39.945  1.00  0.00    -0.237 OA
ATOM     87  O   UNL A   1      38.830  32.944  41.328  1.00  0.00    -0.237 OA
ATOM     88  O   UNL A   1      37.423  34.967  41.322  1.00  0.00    -0.744 OA
ENDBRANCH  81  85
ENDBRANCH  54  78
BRANCH  66  89
ATOM     89  C   UNL A   1      44.071  28.799  35.523  1.00  0.00     0.023 A 
ATOM     90  C   UNL A   1      43.932  27.748  36.445  1.00  0.00     0.031 A 
ATOM     91  C   UNL A   1      45.358  29.312  35.285  1.00  0.00     0.131 A 
ATOM     92  C   UNL A   1      45.062  27.267  37.125  1.00  0.00     0.055 A 
ATOM     93  C   UNL A   1      46.483  28.798  35.929  1.00  0.00     0.041 A 
ATOM     94  F   UNL A   1      45.542  30.317  34.413  1.00  0.00    -0.206 F 
ATOM     95  C   UNL A   1      46.338  27.776  36.862  1.00  0.00     0.022 A 
BRANCH  92  96
ATOM     96  S   UNL A   1      44.841  25.997  38.401  1.00  0.00     0.124 S 
ATOM     97  O   UNL A   1      44.402  26.791  39.546  1.00  0.00    -0.237 OA
ATOM     98  O   UNL A   1      43.833  25.127  37.806  1.00  0.00    -0.237 OA
ATOM     99  O   UNL A   1      46.171  25.405  38.531  1.00  0.00    -0.744 OA
ENDBRANCH  92  96
ENDBRANCH  66  89
ENDBRANCH  40  41
ENDBRANCH  32  35
ENDBRANCH  30  31
ENDBRANCH  29  30
ENDBRANCH   1  29
TORSDOF 18
ENDMDL
MODEL 2
REMARK VINA RESULT:     -12.5      2.499      3.281
REMARK SMILES COc1cccc(-c2ccc(Nc3cccc(C(=O)NCCCCNC(=O)c4ccc(-c5c6nc(c(-c7cc(S(=O)(=O)[O-])ccc7F)c7ccc([nH]7)c(-c7cc(S(=O)(=O)[O-])ccc7F)c7nc(c(-c8cc(S(=O)(=O)[O-])ccc8F)c8ccc5[nH]8)C=C7)C=C6)cc4)c3)nn2)c1
REMARK SMILES IDX 22 1 21 2 20 3 18 4 19 5 17 7 13 8 14 9 91 10 15 11 16 12
REMARK SMILES IDX 12 13 11 15 8 16 9 17 93 18 10 19 92 20 7 21 3 22 4 23 94 24
REMARK SMILES IDX 5 25 6 26 2 27 1 28 23 29 24 30 25 31 26 32 27 34 28 35
REMARK SMILES IDX 29 36 90 37 30 38 89 39 31 40 32 41 33 42 83 43 34 44 88 45
REMARK SMILES IDX 82 46 84 47 35 48 87 49 81 50 80 51 36 53 68 54 48 55 67 56
REMARK SMILES IDX 49 57 52 58 66 59 85 60 50 61 51 62 65 64 86 65 53 66 37 67
REMARK SMILES IDX 38 68 46 69 39 70 45 71 47 72 44 73 40 74 41 75 42 76 43 77
REMARK SMILES IDX 69 78 70 79 78 80 71 81 77 82 79 83 76 84 72 85 73 86 74 87
REMARK SMILES IDX 75 88 54 89 55 90 63 91 56 92 62 93 64 94 61 95 57 96 58 97
REMARK SMILES IDX 59 98 60 99
REMARK H PARENT 20 6 12 14 25 33 84 52 52 63
REMARK Flexibility Score: inf
ROOT
ATOM      1  C   UNL A   1      32.649  29.314  24.221  1.00  0.00     0.023 C 
ENDROOT
BRANCH   1   2
ATOM      2  C   UNL A   1      32.320  28.757  22.841  1.00  0.00     0.116 C 
BRANCH   2   3
ATOM      3  N   UNL A   1      31.502  29.634  22.016  1.00  0.00    -0.352 N 
ATOM      4  C   UNL A   1      30.132  29.750  21.909  1.00  0.00     0.251 C 
ATOM      5  O   UNL A   1      29.658  30.555  21.111  1.00  0.00    -0.269 OA
ATOM      6  H   UNL A   1      32.013  30.247  21.439  1.00  0.00     0.163 HD
BRANCH   4   7
ATOM      7  C   UNL A   1      29.214  28.874  22.681  1.00  0.00     0.041 A 
ATOM      8  C   UNL A   1      28.720  26.741  23.747  1.00  0.00     0.040 A 
ATOM      9  C   UNL A   1      27.376  27.126  23.837  1.00  0.00     0.026 A 
ATOM     10  C   UNL A   1      29.639  27.672  23.250  1.00  0.00     0.040 A 
ATOM     11  C   UNL A   1      26.961  28.390  23.404  1.00  0.00     0.003 A 
ATOM     12  C   UNL A   1      27.875  29.255  22.805  1.00  0.00     0.014 A 
BRANCH   8  13
ATOM     13  N   UNL A   1      29.097  25.426  24.066  1.00  0.00    -0.339 N 
ATOM     14  H   UNL A   1      28.358  24.787  24.179  1.00  0.00     0.168 HD
BRANCH  13  15
ATOM     15  C   UNL A   1      30.386  24.898  24.245  1.00  0.00     0.153 A 
ATOM     16  C   UNL A   1      32.895  23.801  24.608  1.00  0.00     0.093 A 
ATOM     17  C   UNL A   1      32.159  24.189  25.717  1.00  0.00     0.035 A 
ATOM     18  N   UNL A   1      32.376  23.943  23.372  1.00  0.00    -0.148 NA
ATOM     19  C   UNL A   1      30.892  24.751  25.530  1.00  0.00     0.051 A 
ATOM     20  N   UNL A   1      31.117  24.476  23.196  1.00  0.00    -0.132 NA
BRANCH  16  21
ATOM     21  C   UNL A   1      34.275  23.302  24.675  1.00  0.00     0.006 A 
ATOM     22  C   UNL A   1      35.909  21.492  24.756  1.00  0.00     0.119 A 
ATOM     23  C   UNL A   1      36.940  22.422  24.893  1.00  0.00     0.046 A 
ATOM     24  C   UNL A   1      34.583  21.929  24.661  1.00  0.00     0.056 A 
ATOM     25  C   UNL A   1      36.661  23.784  24.888  1.00  0.00     0.005 A 
ATOM     26  C   UNL A   1      35.341  24.218  24.773  1.00  0.00     0.011 A 
BRANCH  22  27
ATOM     27  O   UNL A   1      36.297  20.180  24.781  1.00  0.00    -0.497 OA
ATOM     28  C   UNL A   1      37.689  19.970  25.007  1.00  0.00     0.278 C 
ENDBRANCH  22  27
ENDBRANCH  16  21
ENDBRANCH  13  15
ENDBRANCH   8  13
ENDBRANCH   4   7
ENDBRANCH   2   3
ENDBRANCH   1   2
BRANCH   1  29
ATOM     29  C   UNL A   1      32.239  28.457  25.412  1.00  0.00     0.023 C 
BRANCH  29  30
ATOM     30  C   UNL A   1      32.454  29.078  26.787  1.00  0.00     0.116 C 
BRANCH  30  31
ATOM     31  N   UNL A   1      32.145  30.501  26.848  1.00  0.00    -0.352 N 
ATOM     32  C   UNL A   1      32.950  31.549  27.250  1.00  0.00     0.251 C 
ATOM     33  H   UNL A   1      31.237  30.750  26.563  1.00  0.00     0.163 HD
ATOM     34  O   UNL A   1      32.502  32.686  27.302  1.00  0.00    -0.269 OA
BRANCH  32  35
ATOM     35  C   UNL A   1      34.344  31.266  27.662  1.00  0.00     0.039 A 
ATOM     36  C   UNL A   1      35.236  32.331  27.821  1.00  0.00     0.014 A 
ATOM     37  C   UNL A   1      34.739  29.963  27.970  1.00  0.00     0.014 A 
ATOM     38  C   UNL A   1      36.490  32.101  28.397  1.00  0.00     0.010 A 
ATOM     39  C   UNL A   1      35.955  29.749  28.612  1.00  0.00     0.010 A 
ATOM     40  C   UNL A   1      36.836  30.818  28.851  1.00  0.00    -0.014 A 
BRANCH  40  41
ATOM     41  C   UNL A   1      38.098  30.551  29.593  1.00  0.00     0.031 A 
ATOM     42  C   UNL A   1      39.104  29.592  29.020  1.00  0.00     0.074 A 
ATOM     43  C   UNL A   1      38.281  31.067  30.825  1.00  0.00     0.049 A 
ATOM     44  N   UNL A   1      40.152  29.050  29.586  1.00  0.00    -0.248 NA
ATOM     45  C   UNL A   1      38.871  29.156  27.636  1.00  0.00     0.031 C 
ATOM     46  C   UNL A   1      37.367  31.986  31.507  1.00  0.00     0.029 A 
ATOM     47  N   UNL A   1      39.288  30.869  31.738  1.00  0.00    -0.354 N 
ATOM     48  C   UNL A   1      40.683  28.179  28.640  1.00  0.00     0.074 A 
ATOM     49  C   UNL A   1      39.812  28.238  27.484  1.00  0.00     0.031 C 
ATOM     50  C   UNL A   1      37.857  32.275  32.723  1.00  0.00     0.029 A 
ATOM     51  C   UNL A   1      39.090  31.523  32.934  1.00  0.00     0.049 A 
ATOM     52  H   UNL A   1      40.079  30.311  31.556  1.00  0.00     0.167 HD
ATOM     53  C   UNL A   1      41.799  27.413  28.724  1.00  0.00     0.034 A 
ATOM     54  C   UNL A   1      39.802  31.497  34.078  1.00  0.00     0.034 A 
ATOM     55  C   UNL A   1      42.670  27.388  29.874  1.00  0.00     0.049 A 
ATOM     56  C   UNL A   1      41.040  30.639  34.151  1.00  0.00     0.074 A 
ATOM     57  C   UNL A   1      43.850  26.685  30.048  1.00  0.00     0.029 A 
ATOM     58  N   UNL A   1      42.456  28.101  31.046  1.00  0.00    -0.354 N 
ATOM     59  N   UNL A   1      41.538  29.832  33.243  1.00  0.00    -0.248 NA
ATOM     60  C   UNL A   1      41.813  30.691  35.399  1.00  0.00     0.031 C 
ATOM     61  C   UNL A   1      44.323  26.934  31.341  1.00  0.00     0.029 A 
ATOM     62  C   UNL A   1      43.474  27.844  31.951  1.00  0.00     0.049 A 
ATOM     63  H   UNL A   1      41.694  28.701  31.210  1.00  0.00     0.167 HD
ATOM     64  C   UNL A   1      42.704  29.312  33.797  1.00  0.00     0.074 A 
ATOM     65  C   UNL A   1      42.834  29.894  35.117  1.00  0.00     0.031 C 
ATOM     66  C   UNL A   1      43.593  28.441  33.259  1.00  0.00     0.034 A 
BRANCH  53  67
ATOM     67  C   UNL A   1      42.113  26.522  27.548  1.00  0.00     0.023 A 
ATOM     68  C   UNL A   1      41.633  25.203  27.473  1.00  0.00     0.031 A 
ATOM     69  C   UNL A   1      42.942  26.981  26.508  1.00  0.00     0.131 A 
ATOM     70  C   UNL A   1      42.054  24.363  26.431  1.00  0.00     0.055 A 
ATOM     71  C   UNL A   1      43.286  26.165  25.428  1.00  0.00     0.041 A 
ATOM     72  F   UNL A   1      43.445  28.225  26.532  1.00  0.00    -0.206 F 
ATOM     73  C   UNL A   1      42.857  24.841  25.395  1.00  0.00     0.022 A 
BRANCH  70  74
ATOM     74  S   UNL A   1      41.660  22.596  26.537  1.00  0.00     0.124 S 
ATOM     75  O   UNL A   1      42.404  22.060  25.401  1.00  0.00    -0.237 OA
ATOM     76  O   UNL A   1      42.165  22.238  27.858  1.00  0.00    -0.237 OA
ATOM     77  O   UNL A   1      40.206  22.560  26.395  1.00  0.00    -0.744 OA
ENDBRANCH  70  74
ENDBRANCH  53  67
BRANCH  54  78
ATOM     78  C   UNL A   1      39.360  32.289  35.261  1.00  0.00     0.023 A 
ATOM     79  C   UNL A   1      39.779  33.618  35.435  1.00  0.00     0.031 A 
ATOM     80  C   UNL A   1      38.544  31.719  36.254  1.00  0.00     0.131 A 
ATOM     81  C   UNL A   1      39.417  34.319  36.596  1.00  0.00     0.055 A 
ATOM     82  C   UNL A   1      38.148  32.435  37.384  1.00  0.00     0.041 A 
ATOM     83  F   UNL A   1      38.110  30.454  36.131  1.00  0.00    -0.206 F 
ATOM     84  C   UNL A   1      38.596  33.741  37.566  1.00  0.00     0.022 A 
BRANCH  81  85
ATOM     85  S   UNL A   1      40.099  35.979  36.855  1.00  0.00     0.124 S 
ATOM     86  O   UNL A   1      41.520  35.694  37.024  1.00  0.00    -0.237 OA
ATOM     87  O   UNL A   1      39.723  36.657  35.619  1.00  0.00    -0.237 OA
ATOM     88  O   UNL A   1      39.408  36.448  38.054  1.00  0.00    -0.744 OA
ENDBRANCH  81  85
ENDBRANCH  54  78
BRANCH  66  89
ATOM     89  C   UNL A   1      44.824  28.125  34.069  1.00  0.00     0.023 A 
ATOM     90  C   UNL A   1      44.878  27.030  34.948  1.00  0.00     0.031 A 
ATOM     91  C   UNL A   1      45.968  28.934  33.941  1.00  0.00     0.131 A 
ATOM     92  C   UNL A   1      46.042  26.795  35.695  1.00  0.00     0.055 A 
ATOM     93  C   UNL A   1      47.137  28.668  34.652  1.00  0.00     0.041 A 
ATOM     94  F   UNL A   1      45.966  29.992  33.115  1.00  0.00    -0.206 F 
ATOM     95  C   UNL A   1      47.176  27.599  35.542  1.00  0.00     0.022 A 
BRANCH  92  96
ATOM     96  S   UNL A   1      46.043  25.453  36.915  1.00  0.00     0.124 S 
ATOM     97  O   UNL A   1      46.793  26.046  38.019  1.00  0.00    -0.237 OA
ATOM     98  O   UNL A   1      44.619  25.243  37.152  1.00  0.00    -0.237 OA
ATOM     99  O   UNL A   1      46.722  24.359  36.222  1.00  0.00    -0.744 OA
ENDBRANCH  92  96
ENDBRANCH  66  89
ENDBRANCH  40  41
ENDBRANCH  32  35
ENDBRANCH  30  31
ENDBRANCH  29  30
ENDBRANCH   1  29
TORSDOF 18
ENDMDL
MODEL 3
REMARK VINA RESULT:     -12.3      3.209      8.351
REMARK SMILES COc1cccc(-c2ccc(Nc3cccc(C(=O)NCCCCNC(=O)c4ccc(-c5c6nc(c(-c7cc(S(=O)(=O)[O-])ccc7F)c7ccc([nH]7)c(-c7cc(S(=O)(=O)[O-])ccc7F)c7nc(c(-c8cc(S(=O)(=O)[O-])ccc8F)c8ccc5[nH]8)C=C7)C=C6)cc4)c3)nn2)c1
REMARK SMILES IDX 22 1 21 2 20 3 18 4 19 5 17 7 13 8 14 9 91 10 15 11 16 12
REMARK SMILES IDX 12 13 11 15 8 16 9 17 93 18 10 19 92 20 7 21 3 22 4 23 94 24
REMARK SMILES IDX 5 25 6 26 2 27 1 28 23 29 24 30 25 31 26 32 27 34 28 35
REMARK SMILES IDX 29 36 90 37 30 38 89 39 31 40 32 41 33 42 83 43 34 44 88 45
REMARK SMILES IDX 82 46 84 47 35 48 87 49 81 50 80 51 36 53 68 54 48 55 67 56
REMARK SMILES IDX 49 57 52 58 66 59 85 60 50 61 51 62 65 64 86 65 53 66 37 67
REMARK SMILES IDX 38 68 46 69 39 70 45 71 47 72 44 73 40 74 41 75 42 76 43 77
REMARK SMILES IDX 69 78 70 79 78 80 71 81 77 82 79 83 76 84 72 85 73 86 74 87
REMARK SMILES IDX 75 88 54 89 55 90 63 91 56 92 62 93 64 94 61 95 57 96 58 97
REMARK SMILES IDX 59 98 60 99
REMARK H PARENT 20 6 12 14 25 33 84 52 52 63
REMARK Flexibility Score: inf
ROOT
ATOM      1  C   UNL A   1      33.216  29.169  24.016  1.00  0.00     0.023 C 
ENDROOT
BRANCH   1   2
ATOM      2  C   UNL A   1      32.664  28.603  22.714  1.00  0.00     0.116 C 
BRANCH   2   3
ATOM      3  N   UNL A   1      31.709  29.471  22.037  1.00  0.00    -0.352 N 
ATOM      4  C   UNL A   1      30.331  29.480  22.057  1.00  0.00     0.251 C 
ATOM      5  O   UNL A   1      29.726  30.302  21.372  1.00  0.00    -0.269 OA
ATOM      6  H   UNL A   1      32.117  30.166  21.471  1.00  0.00     0.163 HD
BRANCH   4   7
ATOM      7  C   UNL A   1      29.557  28.474  22.829  1.00  0.00     0.041 A 
ATOM      8  C   UNL A   1      29.342  26.245  23.783  1.00  0.00     0.040 A 
ATOM      9  C   UNL A   1      27.978  26.491  23.987  1.00  0.00     0.026 A 
ATOM     10  C   UNL A   1      30.131  27.288  23.288  1.00  0.00     0.040 A 
ATOM     11  C   UNL A   1      27.416  27.732  23.667  1.00  0.00     0.003 A 
ATOM     12  C   UNL A   1      28.200  28.715  23.067  1.00  0.00     0.014 A 
BRANCH   8  13
ATOM     13  N   UNL A   1      29.861  24.955  23.988  1.00  0.00    -0.339 N 
ATOM     14  H   UNL A   1      29.217  24.218  23.898  1.00  0.00     0.168 HD
BRANCH  13  15
ATOM     15  C   UNL A   1      31.175  24.576  24.305  1.00  0.00     0.153 A 
ATOM     16  C   UNL A   1      33.738  23.782  24.966  1.00  0.00     0.093 A 
ATOM     17  C   UNL A   1      33.060  24.653  25.806  1.00  0.00     0.035 A 
ATOM     18  N   UNL A   1      33.136  23.317  23.852  1.00  0.00    -0.148 NA
ATOM     19  C   UNL A   1      31.767  25.060  25.465  1.00  0.00     0.051 A 
ATOM     20  N   UNL A   1      31.852  23.703  23.534  1.00  0.00    -0.132 NA
BRANCH  16  21
ATOM     21  C   UNL A   1      35.135  23.374  25.163  1.00  0.00     0.006 A 
ATOM     22  C   UNL A   1      36.962  21.773  24.941  1.00  0.00     0.119 A 
ATOM     23  C   UNL A   1      37.803  22.626  25.657  1.00  0.00     0.046 A 
ATOM     24  C   UNL A   1      35.632  22.138  24.707  1.00  0.00     0.056 A 
ATOM     25  C   UNL A   1      37.339  23.860  26.098  1.00  0.00     0.005 A 
ATOM     26  C   UNL A   1      36.019  24.231  25.847  1.00  0.00     0.011 A 
BRANCH  22  27
ATOM     27  O   UNL A   1      37.521  20.583  24.561  1.00  0.00    -0.497 OA
ATOM     28  C   UNL A   1      36.725  19.432  24.833  1.00  0.00     0.278 C 
ENDBRANCH  22  27
ENDBRANCH  16  21
ENDBRANCH  13  15
ENDBRANCH   8  13
ENDBRANCH   4   7
ENDBRANCH   2   3
ENDBRANCH   1   2
BRANCH   1  29
ATOM     29  C   UNL A   1      33.807  28.162  24.995  1.00  0.00     0.023 C 
BRANCH  29  30
ATOM     30  C   UNL A   1      34.429  28.743  26.259  1.00  0.00     0.116 C 
BRANCH  30  31
ATOM     31  N   UNL A   1      33.948  30.078  26.595  1.00  0.00    -0.352 N 
ATOM     32  C   UNL A   1      34.456  30.982  27.506  1.00  0.00     0.251 C 
ATOM     33  H   UNL A   1      33.149  30.376  26.104  1.00  0.00     0.163 HD
ATOM     34  O   UNL A   1      33.881  32.041  27.711  1.00  0.00    -0.269 OA
BRANCH  32  35
ATOM     35  C   UNL A   1      35.678  30.626  28.263  1.00  0.00     0.039 A 
ATOM     36  C   UNL A   1      35.560  29.843  29.416  1.00  0.00     0.014 A 
ATOM     37  C   UNL A   1      36.938  30.993  27.786  1.00  0.00     0.014 A 
ATOM     38  C   UNL A   1      36.711  29.336  30.027  1.00  0.00     0.010 A 
ATOM     39  C   UNL A   1      38.076  30.425  28.350  1.00  0.00     0.010 A 
ATOM     40  C   UNL A   1      37.975  29.574  29.464  1.00  0.00    -0.014 A 
BRANCH  40  41
ATOM     41  C   UNL A   1      39.214  28.943  29.996  1.00  0.00     0.031 A 
ATOM     42  C   UNL A   1      39.936  29.586  31.148  1.00  0.00     0.074 A 
ATOM     43  C   UNL A   1      39.752  27.876  29.372  1.00  0.00     0.049 A 
ATOM     44  N   UNL A   1      41.129  29.339  31.622  1.00  0.00    -0.248 NA
ATOM     45  C   UNL A   1      39.229  30.682  31.827  1.00  0.00     0.031 C 
ATOM     46  C   UNL A   1      39.167  27.178  28.225  1.00  0.00     0.029 A 
ATOM     47  N   UNL A   1      40.931  27.208  29.596  1.00  0.00    -0.354 N 
ATOM     48  C   UNL A   1      41.334  30.273  32.632  1.00  0.00     0.074 A 
ATOM     49  C   UNL A   1      40.156  31.116  32.666  1.00  0.00     0.031 C 
ATOM     50  C   UNL A   1      39.984  26.180  27.852  1.00  0.00     0.029 A 
ATOM     51  C   UNL A   1      41.176  26.197  28.694  1.00  0.00     0.049 A 
ATOM     52  H   UNL A   1      41.544  27.430  30.334  1.00  0.00     0.167 HD
ATOM     53  C   UNL A   1      42.400  30.407  33.462  1.00  0.00     0.034 A 
ATOM     54  C   UNL A   1      42.250  25.396  28.543  1.00  0.00     0.034 A 
ATOM     55  C   UNL A   1      43.553  29.542  33.431  1.00  0.00     0.049 A 
ATOM     56  C   UNL A   1      43.423  25.560  29.475  1.00  0.00     0.074 A 
ATOM     57  C   UNL A   1      44.666  29.558  34.254  1.00  0.00     0.029 A 
ATOM     58  N   UNL A   1      43.740  28.501  32.531  1.00  0.00    -0.354 N 
ATOM     59  N   UNL A   1      43.596  26.438  30.435  1.00  0.00    -0.248 NA
ATOM     60  C   UNL A   1      44.543  24.624  29.307  1.00  0.00     0.031 C 
ATOM     61  C   UNL A   1      45.547  28.561  33.821  1.00  0.00     0.029 A 
ATOM     62  C   UNL A   1      44.956  27.879  32.770  1.00  0.00     0.049 A 
ATOM     63  H   UNL A   1      43.103  28.243  31.827  1.00  0.00     0.167 HD
ATOM     64  C   UNL A   1      44.827  26.134  31.010  1.00  0.00     0.074 A 
ATOM     65  C   UNL A   1      45.354  24.994  30.288  1.00  0.00     0.031 C 
ATOM     66  C   UNL A   1      45.460  26.737  32.047  1.00  0.00     0.034 A 
BRANCH  53  67
ATOM     67  C   UNL A   1      42.368  31.552  34.444  1.00  0.00     0.023 A 
ATOM     68  C   UNL A   1      41.496  31.553  35.547  1.00  0.00     0.031 A 
ATOM     69  C   UNL A   1      43.187  32.679  34.252  1.00  0.00     0.131 A 
ATOM     70  C   UNL A   1      41.400  32.690  36.362  1.00  0.00     0.055 A 
ATOM     71  C   UNL A   1      43.148  33.773  35.119  1.00  0.00     0.041 A 
ATOM     72  F   UNL A   1      44.027  32.743  33.207  1.00  0.00    -0.206 F 
ATOM     73  C   UNL A   1      42.237  33.791  36.171  1.00  0.00     0.022 A 
BRANCH  70  74
ATOM     74  S   UNL A   1      40.057  32.768  37.578  1.00  0.00     0.124 S 
ATOM     75  O   UNL A   1      40.790  32.640  38.835  1.00  0.00    -0.237 OA
ATOM     76  O   UNL A   1      39.467  34.074  37.314  1.00  0.00    -0.237 OA
ATOM     77  O   UNL A   1      39.217  31.622  37.234  1.00  0.00    -0.744 OA
ENDBRANCH  70  74
ENDBRANCH  53  67
BRANCH  54  78
ATOM     78  C   UNL A   1      42.284  24.375  27.457  1.00  0.00     0.023 A 
ATOM     79  C   UNL A   1      41.752  23.091  27.657  1.00  0.00     0.031 A 
ATOM     80  C   UNL A   1      42.882  24.655  26.216  1.00  0.00     0.131 A 
ATOM     81  C   UNL A   1      41.866  22.121  26.650  1.00  0.00     0.055 A 
ATOM     82  C   UNL A   1      42.952  23.701  25.199  1.00  0.00     0.041 A 
ATOM     83  F   UNL A   1      43.398  25.870  25.970  1.00  0.00    -0.206 F 
ATOM     84  C   UNL A   1      42.453  22.420  25.418  1.00  0.00     0.022 A 
BRANCH  81  85
ATOM     85  S   UNL A   1      41.301  20.434  27.002  1.00  0.00     0.124 S 
ATOM     86  O   UNL A   1      40.826  20.560  28.375  1.00  0.00    -0.237 OA
ATOM     87  O   UNL A   1      40.276  20.240  25.982  1.00  0.00    -0.237 OA
ATOM     88  O   UNL A   1      42.509  19.628  26.828  1.00  0.00    -0.744 OA
ENDBRANCH  81  85
ENDBRANCH  54  78
BRANCH  66  89
ATOM     89  C   UNL A   1      46.756  26.124  32.513  1.00  0.00     0.023 A 
ATOM     90  C   UNL A   1      46.795  25.129  33.504  1.00  0.00     0.031 A 
ATOM     91  C   UNL A   1      47.969  26.541  31.938  1.00  0.00     0.131 A 
ATOM     92  C   UNL A   1      48.032  24.608  33.917  1.00  0.00     0.055 A 
ATOM     93  C   UNL A   1      49.191  25.987  32.320  1.00  0.00     0.041 A 
ATOM     94  F   UNL A   1      47.984  27.489  30.988  1.00  0.00    -0.206 F 
ATOM     95  C   UNL A   1      49.227  25.020  33.321  1.00  0.00     0.022 A 
BRANCH  92  96
ATOM     96  S   UNL A   1      48.067  23.417  35.285  1.00  0.00     0.124 S 
ATOM     97  O   UNL A   1      46.748  23.604  35.884  1.00  0.00    -0.237 OA
ATOM     98  O   UNL A   1      48.277  22.150  34.592  1.00  0.00    -0.237 OA
ATOM     99  O   UNL A   1      49.190  23.868  36.105  1.00  0.00    -0.744 OA
ENDBRANCH  92  96
ENDBRANCH  66  89
ENDBRANCH  40  41
ENDBRANCH  32  35
ENDBRANCH  30  31
ENDBRANCH  29  30
ENDBRANCH   1  29
TORSDOF 18
ENDMDL
