MODEL 1
REMARK VINA RESULT:     -11.8      0.000      0.000
REMARK SMILES COc1ccc(-c2cc(C(F)(F)F)n3nc(C(=O)NCCCCNC(=O)c4ccc(-c5c6nc(c(-c7cc(S(=O)(=O)[O-])ccc7F)c7ccc([nH]7)c(-c7cc(S(=O)(=O)[O-])ccc7F)c7nc(c(-c8cc(S(=O)(=O)[O-])ccc8F)c8ccc5[nH]8)C=C7)C=C6)cc4)cc3n2)cc1OC
REMARK SMILES IDX 22 1 21 2 20 3 19 4 17 5 18 6 16 8 7 9 8 10 92 11 9 12 91 13
REMARK SMILES IDX 14 14 90 15 15 16 6 17 3 18 4 19 94 20 5 21 93 22 2 23 1 24
REMARK SMILES IDX 95 25 96 26 10 27 11 28 12 29 13 30 23 31 24 32 25 33 26 35
REMARK SMILES IDX 27 36 28 37 89 38 29 39 88 40 30 41 31 42 32 43 82 44 33 45
REMARK SMILES IDX 87 46 81 47 83 48 34 49 86 50 80 51 79 52 35 54 67 55 47 56
REMARK SMILES IDX 66 57 48 58 51 59 65 60 84 61 49 62 50 63 64 65 85 66 52 67
REMARK SMILES IDX 36 68 37 69 45 70 38 71 44 72 46 73 43 74 39 75 40 76 41 77
REMARK SMILES IDX 42 78 68 79 69 80 77 81 70 82 76 83 78 84 75 85 71 86 72 87
REMARK SMILES IDX 73 88 74 89 53 90 54 91 62 92 55 93 61 94 63 95 60 96 56 97
REMARK SMILES IDX 57 98 58 99 59 100
REMARK H PARENT 19 7 24 34 83 53 51 64
REMARK Flexibility Score: inf
ROOT
ATOM      1  C   UNL A   1      30.981  32.010  26.502  1.00  0.00     0.023 C 
ENDROOT
BRANCH   1   2
ATOM      2  C   UNL A   1      30.540  32.103  25.036  1.00  0.00     0.023 C 
BRANCH   2   3
ATOM      3  C   UNL A   1      29.453  31.099  24.651  1.00  0.00     0.116 C 
BRANCH   3   4
ATOM      4  N   UNL A   1      29.485  30.818  23.233  1.00  0.00    -0.351 N 
ATOM      5  C   UNL A   1      30.094  29.822  22.505  1.00  0.00     0.271 C 
ATOM      6  O   UNL A   1      29.893  29.843  21.287  1.00  0.00    -0.267 OA
ATOM      7  H   UNL A   1      28.976  31.459  22.685  1.00  0.00     0.163 HD
BRANCH   5   8
ATOM      8  C   UNL A   1      30.920  28.770  23.144  1.00  0.00     0.152 A 
ATOM      9  C   UNL A   1      33.451  25.516  24.767  1.00  0.00     0.075 A 
ATOM     10  C   UNL A   1      33.768  26.544  25.808  1.00  0.00     0.062 A 
ATOM     11  N   UNL A   1      32.643  25.696  23.765  1.00  0.00    -0.228 NA
ATOM     12  C   UNL A   1      33.175  27.745  25.653  1.00  0.00     0.150 A 
ATOM     13  C   UNL A   1      32.044  26.919  23.687  1.00  0.00     0.157 A 
ATOM     14  N   UNL A   1      32.322  27.955  24.575  1.00  0.00    -0.209 N 
ATOM     15  C   UNL A   1      31.081  27.399  22.834  1.00  0.00     0.085 A 
ATOM     16  N   UNL A   1      31.667  29.080  24.224  1.00  0.00    -0.161 NA
BRANCH   9  17
ATOM     17  C   UNL A   1      34.131  24.212  24.917  1.00  0.00     0.004 A 
ATOM     18  C   UNL A   1      35.441  21.757  25.128  1.00  0.00     0.160 A 
ATOM     19  C   UNL A   1      36.068  22.932  25.570  1.00  0.00     0.051 A 
ATOM     20  C   UNL A   1      34.148  21.806  24.590  1.00  0.00     0.161 A 
ATOM     21  C   UNL A   1      35.422  24.164  25.446  1.00  0.00     0.014 A 
ATOM     22  C   UNL A   1      33.497  23.041  24.493  1.00  0.00     0.060 A 
BRANCH  18  23
ATOM     23  O   UNL A   1      36.074  20.559  25.325  1.00  0.00    -0.493 OA
ATOM     24  C   UNL A   1      37.428  20.585  24.867  1.00  0.00     0.278 C 
ENDBRANCH  18  23
BRANCH  20  25
ATOM     25  O   UNL A   1      33.381  20.765  24.140  1.00  0.00    -0.493 OA
ATOM     26  C   UNL A   1      32.770  19.932  25.115  1.00  0.00     0.278 C 
ENDBRANCH  20  25
ENDBRANCH   9  17
BRANCH  12  27
ATOM     27  C   UNL A   1      33.356  28.881  26.586  1.00  0.00     0.433 C 
ATOM     28  F   UNL A   1      33.807  30.005  25.979  1.00  0.00    -0.165 F 
ATOM     29  F   UNL A   1      32.224  29.193  27.265  1.00  0.00    -0.165 F 
ATOM     30  F   UNL A   1      34.283  28.583  27.544  1.00  0.00    -0.165 F 
ENDBRANCH  12  27
ENDBRANCH   5   8
ENDBRANCH   3   4
ENDBRANCH   2   3
ENDBRANCH   1   2
BRANCH   1  31
ATOM     31  C   UNL A   1      32.349  32.615  26.809  1.00  0.00     0.116 C 
BRANCH  31  32
ATOM     32  N   UNL A   1      32.274  33.948  27.387  1.00  0.00    -0.352 N 
ATOM     33  C   UNL A   1      33.084  34.513  28.343  1.00  0.00     0.251 C 
ATOM     34  H   UNL A   1      31.546  34.520  27.050  1.00  0.00     0.163 HD
ATOM     35  O   UNL A   1      32.807  35.617  28.803  1.00  0.00    -0.269 OA
BRANCH  33  36
ATOM     36  C   UNL A   1      34.254  33.761  28.842  1.00  0.00     0.039 A 
ATOM     37  C   UNL A   1      35.518  34.345  28.748  1.00  0.00     0.014 A 
ATOM     38  C   UNL A   1      34.100  32.503  29.434  1.00  0.00     0.014 A 
ATOM     39  C   UNL A   1      36.620  33.699  29.313  1.00  0.00     0.010 A 
ATOM     40  C   UNL A   1      35.187  31.895  30.057  1.00  0.00     0.010 A 
ATOM     41  C   UNL A   1      36.456  32.490  30.009  1.00  0.00    -0.014 A 
BRANCH  41  42
ATOM     42  C   UNL A   1      37.603  31.850  30.707  1.00  0.00     0.031 A 
ATOM     43  C   UNL A   1      38.435  30.809  30.010  1.00  0.00     0.074 A 
ATOM     44  C   UNL A   1      37.856  32.172  31.991  1.00  0.00     0.049 A 
ATOM     45  N   UNL A   1      39.448  30.118  30.465  1.00  0.00    -0.248 NA
ATOM     46  C   UNL A   1      38.057  30.482  28.627  1.00  0.00     0.031 C 
ATOM     47  C   UNL A   1      37.083  33.128  32.791  1.00  0.00     0.029 A 
ATOM     48  N   UNL A   1      38.828  31.733  32.854  1.00  0.00    -0.354 N 
ATOM     49  C   UNL A   1      39.825  29.270  29.430  1.00  0.00     0.074 A 
ATOM     50  C   UNL A   1      38.887  29.488  28.349  1.00  0.00     0.031 C 
ATOM     51  C   UNL A   1      37.631  33.224  34.012  1.00  0.00     0.029 A 
ATOM     52  C   UNL A   1      38.764  32.310  34.101  1.00  0.00     0.049 A 
ATOM     53  H   UNL A   1      39.507  31.065  32.603  1.00  0.00     0.167 HD
ATOM     54  C   UNL A   1      40.871  28.407  29.378  1.00  0.00     0.034 A 
ATOM     55  C   UNL A   1      39.530  32.121  35.195  1.00  0.00     0.034 A 
ATOM     56  C   UNL A   1      41.799  28.207  30.465  1.00  0.00     0.049 A 
ATOM     57  C   UNL A   1      40.680  31.149  35.116  1.00  0.00     0.074 A 
ATOM     58  C   UNL A   1      42.922  27.399  30.503  1.00  0.00     0.029 A 
ATOM     59  N   UNL A   1      41.708  28.812  31.713  1.00  0.00    -0.354 N 
ATOM     60  N   UNL A   1      41.062  30.399  34.107  1.00  0.00    -0.248 NA
ATOM     61  C   UNL A   1      41.512  31.013  36.317  1.00  0.00     0.031 C 
ATOM     62  C   UNL A   1      43.469  27.463  31.789  1.00  0.00     0.029 A 
ATOM     63  C   UNL A   1      42.736  28.373  32.535  1.00  0.00     0.049 A 
ATOM     64  H   UNL A   1      41.014  29.459  31.976  1.00  0.00     0.167 HD
ATOM     65  C   UNL A   1      42.198  29.725  34.546  1.00  0.00     0.074 A 
ATOM     66  C   UNL A   1      42.448  30.175  35.901  1.00  0.00     0.031 C 
ATOM     67  C   UNL A   1      42.967  28.819  33.889  1.00  0.00     0.034 A 
BRANCH  54  68
ATOM     68  C   UNL A   1      41.045  27.604  28.110  1.00  0.00     0.023 A 
ATOM     69  C   UNL A   1      40.701  26.242  28.045  1.00  0.00     0.031 A 
ATOM     70  C   UNL A   1      41.588  28.198  26.957  1.00  0.00     0.131 A 
ATOM     71  C   UNL A   1      40.976  25.502  26.885  1.00  0.00     0.055 A 
ATOM     72  C   UNL A   1      41.780  27.476  25.776  1.00  0.00     0.041 A 
ATOM     73  F   UNL A   1      41.956  29.489  26.961  1.00  0.00    -0.206 F 
ATOM     74  C   UNL A   1      41.489  26.116  25.741  1.00  0.00     0.022 A 
BRANCH  71  75
ATOM     75  S   UNL A   1      40.794  23.698  26.945  1.00  0.00     0.124 S 
ATOM     76  O   UNL A   1      41.795  23.267  25.973  1.00  0.00    -0.237 OA
ATOM     77  O   UNL A   1      41.088  23.398  28.341  1.00  0.00    -0.237 OA
ATOM     78  O   UNL A   1      39.407  23.479  26.539  1.00  0.00    -0.744 OA
ENDBRANCH  71  75
ENDBRANCH  54  68
BRANCH  55  79
ATOM     79  C   UNL A   1      39.241  32.861  36.457  1.00  0.00     0.023 A 
ATOM     80  C   UNL A   1      38.404  32.313  37.442  1.00  0.00     0.031 A 
ATOM     81  C   UNL A   1      39.765  34.147  36.678  1.00  0.00     0.131 A 
ATOM     82  C   UNL A   1      38.075  33.067  38.579  1.00  0.00     0.055 A 
ATOM     83  C   UNL A   1      39.477  34.872  37.836  1.00  0.00     0.041 A 
ATOM     84  F   UNL A   1      40.576  34.715  35.772  1.00  0.00    -0.206 F 
ATOM     85  C   UNL A   1      38.616  34.337  38.789  1.00  0.00     0.022 A 
BRANCH  82  86
ATOM     86  S   UNL A   1      36.856  32.395  39.743  1.00  0.00     0.124 S 
ATOM     87  O   UNL A   1      37.465  31.122  40.110  1.00  0.00    -0.237 OA
ATOM     88  O   UNL A   1      36.833  33.420  40.782  1.00  0.00    -0.237 OA
ATOM     89  O   UNL A   1      35.638  32.298  38.940  1.00  0.00    -0.744 OA
ENDBRANCH  82  86
ENDBRANCH  55  79
BRANCH  67  90
ATOM     90  C   UNL A   1      44.177  28.291  34.624  1.00  0.00     0.023 A 
ATOM     91  C   UNL A   1      44.073  27.271  35.586  1.00  0.00     0.031 A 
ATOM     92  C   UNL A   1      45.447  28.842  34.379  1.00  0.00     0.131 A 
ATOM     93  C   UNL A   1      45.206  26.882  36.317  1.00  0.00     0.055 A 
ATOM     94  C   UNL A   1      46.583  28.403  35.062  1.00  0.00     0.041 A 
ATOM     95  F   UNL A   1      45.606  29.820  33.474  1.00  0.00    -0.206 F 
ATOM     96  C   UNL A   1      46.463  27.429  36.050  1.00  0.00     0.022 A 
BRANCH  93  97
ATOM     97  S   UNL A   1      44.993  25.732  37.704  1.00  0.00     0.124 S 
ATOM     98  O   UNL A   1      44.179  26.516  38.626  1.00  0.00    -0.237 OA
ATOM     99  O   UNL A   1      44.327  24.599  37.071  1.00  0.00    -0.237 OA
ATOM    100  O   UNL A   1      46.362  25.476  38.150  1.00  0.00    -0.744 OA
ENDBRANCH  93  97
ENDBRANCH  67  90
ENDBRANCH  41  42
ENDBRANCH  33  36
ENDBRANCH  31  32
ENDBRANCH   1  31
TORSDOF 18
ENDMDL
MODEL 2
REMARK VINA RESULT:     -11.7      2.070      2.796
REMARK SMILES COc1ccc(-c2cc(C(F)(F)F)n3nc(C(=O)NCCCCNC(=O)c4ccc(-c5c6nc(c(-c7cc(S(=O)(=O)[O-])ccc7F)c7ccc([nH]7)c(-c7cc(S(=O)(=O)[O-])ccc7F)c7nc(c(-c8cc(S(=O)(=O)[O-])ccc8F)c8ccc5[nH]8)C=C7)C=C6)cc4)cc3n2)cc1OC
REMARK SMILES IDX 22 1 21 2 20 3 19 4 17 5 18 6 16 8 7 9 8 10 92 11 9 12 91 13
REMARK SMILES IDX 14 14 90 15 15 16 6 17 3 18 4 19 94 20 5 21 93 22 2 23 1 24
REMARK SMILES IDX 95 25 96 26 10 27 11 28 12 29 13 30 23 31 24 32 25 33 26 35
REMARK SMILES IDX 27 36 28 37 89 38 29 39 88 40 30 41 31 42 32 43 82 44 33 45
REMARK SMILES IDX 87 46 81 47 83 48 34 49 86 50 80 51 79 52 35 54 67 55 47 56
REMARK SMILES IDX 66 57 48 58 51 59 65 60 84 61 49 62 50 63 64 65 85 66 52 67
REMARK SMILES IDX 36 68 37 69 45 70 38 71 44 72 46 73 43 74 39 75 40 76 41 77
REMARK SMILES IDX 42 78 68 79 69 80 77 81 70 82 76 83 78 84 75 85 71 86 72 87
REMARK SMILES IDX 73 88 74 89 53 90 54 91 62 92 55 93 61 94 63 95 60 96 56 97
REMARK SMILES IDX 57 98 58 99 59 100
REMARK H PARENT 19 7 24 34 83 53 51 64
REMARK Flexibility Score: inf
ROOT
ATOM      1  C   UNL A   1      32.540  31.803  27.413  1.00  0.00     0.023 C 
ENDROOT
BRANCH   1   2
ATOM      2  C   UNL A   1      33.557  30.660  27.513  1.00  0.00     0.023 C 
BRANCH   2   3
ATOM      3  C   UNL A   1      33.385  29.582  26.442  1.00  0.00     0.116 C 
BRANCH   3   4
ATOM      4  N   UNL A   1      32.175  29.797  25.679  1.00  0.00    -0.351 N 
ATOM      5  C   UNL A   1      31.462  28.979  24.833  1.00  0.00     0.271 C 
ATOM      6  O   UNL A   1      30.431  29.462  24.357  1.00  0.00    -0.267 OA
ATOM      7  H   UNL A   1      31.789  30.696  25.785  1.00  0.00     0.163 HD
BRANCH   5   8
ATOM      8  C   UNL A   1      31.890  27.592  24.531  1.00  0.00     0.152 A 
ATOM      9  C   UNL A   1      32.997  23.353  23.873  1.00  0.00     0.075 A 
ATOM     10  C   UNL A   1      32.989  23.775  22.438  1.00  0.00     0.062 A 
ATOM     11  N   UNL A   1      32.742  24.135  24.880  1.00  0.00    -0.228 NA
ATOM     12  C   UNL A   1      32.664  25.062  22.201  1.00  0.00     0.150 A 
ATOM     13  C   UNL A   1      32.461  25.434  24.577  1.00  0.00     0.157 A 
ATOM     14  N   UNL A   1      32.374  25.904  23.269  1.00  0.00    -0.209 N 
ATOM     15  C   UNL A   1      32.251  26.524  25.385  1.00  0.00     0.085 A 
ATOM     16  N   UNL A   1      31.996  27.198  23.245  1.00  0.00    -0.161 NA
BRANCH   9  17
ATOM     17  C   UNL A   1      33.316  21.932  24.130  1.00  0.00     0.004 A 
ATOM     18  C   UNL A   1      33.903  19.262  24.687  1.00  0.00     0.160 A 
ATOM     19  C   UNL A   1      32.606  19.634  24.301  1.00  0.00     0.051 A 
ATOM     20  C   UNL A   1      34.915  20.227  24.784  1.00  0.00     0.161 A 
ATOM     21  C   UNL A   1      32.306  20.972  24.041  1.00  0.00     0.014 A 
ATOM     22  C   UNL A   1      34.612  21.562  24.497  1.00  0.00     0.060 A 
BRANCH  18  23
ATOM     23  O   UNL A   1      34.180  17.933  24.870  1.00  0.00    -0.493 OA
ATOM     24  C   UNL A   1      34.071  17.189  23.655  1.00  0.00     0.278 C 
ENDBRANCH  18  23
BRANCH  20  25
ATOM     25  O   UNL A   1      36.229  20.040  25.116  1.00  0.00    -0.493 OA
ATOM     26  C   UNL A   1      37.114  21.136  24.936  1.00  0.00     0.278 C 
ENDBRANCH  20  25
ENDBRANCH   9  17
BRANCH  12  27
ATOM     27  C   UNL A   1      32.617  25.666  20.849  1.00  0.00     0.433 C 
ATOM     28  F   UNL A   1      31.374  26.067  20.487  1.00  0.00    -0.165 F 
ATOM     29  F   UNL A   1      33.458  26.720  20.711  1.00  0.00    -0.165 F 
ATOM     30  F   UNL A   1      33.004  24.765  19.899  1.00  0.00    -0.165 F 
ENDBRANCH  12  27
ENDBRANCH   5   8
ENDBRANCH   3   4
ENDBRANCH   2   3
ENDBRANCH   1   2
BRANCH   1  31
ATOM     31  C   UNL A   1      33.120  33.155  26.999  1.00  0.00     0.116 C 
BRANCH  31  32
ATOM     32  N   UNL A   1      32.736  34.243  27.885  1.00  0.00    -0.352 N 
ATOM     33  C   UNL A   1      33.264  34.576  29.109  1.00  0.00     0.251 C 
ATOM     34  H   UNL A   1      32.000  34.815  27.566  1.00  0.00     0.163 HD
ATOM     35  O   UNL A   1      32.741  35.462  29.780  1.00  0.00    -0.269 OA
BRANCH  33  36
ATOM     36  C   UNL A   1      34.428  33.828  29.628  1.00  0.00     0.039 A 
ATOM     37  C   UNL A   1      35.711  34.253  29.276  1.00  0.00     0.014 A 
ATOM     38  C   UNL A   1      34.257  32.736  30.485  1.00  0.00     0.014 A 
ATOM     39  C   UNL A   1      36.823  33.628  29.843  1.00  0.00     0.010 A 
ATOM     40  C   UNL A   1      35.365  32.161  31.102  1.00  0.00     0.010 A 
ATOM     41  C   UNL A   1      36.659  32.606  30.792  1.00  0.00    -0.014 A 
BRANCH  41  42
ATOM     42  C   UNL A   1      37.833  32.009  31.483  1.00  0.00     0.031 A 
ATOM     43  C   UNL A   1      38.633  30.921  30.821  1.00  0.00     0.074 A 
ATOM     44  C   UNL A   1      38.142  32.415  32.730  1.00  0.00     0.049 A 
ATOM     45  N   UNL A   1      39.665  30.258  31.279  1.00  0.00    -0.248 NA
ATOM     46  C   UNL A   1      38.197  30.504  29.481  1.00  0.00     0.031 C 
ATOM     47  C   UNL A   1      37.405  33.425  33.496  1.00  0.00     0.029 A 
ATOM     48  N   UNL A   1      39.149  32.030  33.578  1.00  0.00    -0.354 N 
ATOM     49  C   UNL A   1      39.996  29.341  30.287  1.00  0.00     0.074 A 
ATOM     50  C   UNL A   1      39.013  29.491  29.235  1.00  0.00     0.031 C 
ATOM     51  C   UNL A   1      38.004  33.600  34.684  1.00  0.00     0.029 A 
ATOM     52  C   UNL A   1      39.139  32.689  34.786  1.00  0.00     0.049 A 
ATOM     53  H   UNL A   1      39.816  31.345  33.344  1.00  0.00     0.167 HD
ATOM     54  C   UNL A   1      41.038  28.472  30.248  1.00  0.00     0.034 A 
ATOM     55  C   UNL A   1      39.950  32.570  35.857  1.00  0.00     0.034 A 
ATOM     56  C   UNL A   1      42.011  28.341  31.306  1.00  0.00     0.049 A 
ATOM     57  C   UNL A   1      41.095  31.591  35.793  1.00  0.00     0.074 A 
ATOM     58  C   UNL A   1      43.134  27.532  31.350  1.00  0.00     0.029 A 
ATOM     59  N   UNL A   1      41.974  29.028  32.514  1.00  0.00    -0.354 N 
ATOM     60  N   UNL A   1      41.432  30.773  34.822  1.00  0.00    -0.248 NA
ATOM     61  C   UNL A   1      41.977  31.532  36.965  1.00  0.00     0.031 C 
ATOM     62  C   UNL A   1      43.735  27.680  32.604  1.00  0.00     0.029 A 
ATOM     63  C   UNL A   1      43.036  28.641  33.318  1.00  0.00     0.049 A 
ATOM     64  H   UNL A   1      41.293  29.694  32.762  1.00  0.00     0.167 HD
ATOM     65  C   UNL A   1      42.585  30.126  35.256  1.00  0.00     0.074 A 
ATOM     66  C   UNL A   1      42.894  30.664  36.565  1.00  0.00     0.031 C 
ATOM     67  C   UNL A   1      43.325  29.175  34.629  1.00  0.00     0.034 A 
BRANCH  54  68
ATOM     68  C   UNL A   1      41.157  27.586  29.030  1.00  0.00     0.023 A 
ATOM     69  C   UNL A   1      42.148  27.800  28.054  1.00  0.00     0.031 A 
ATOM     70  C   UNL A   1      40.253  26.529  28.825  1.00  0.00     0.131 A 
ATOM     71  C   UNL A   1      42.162  27.024  26.885  1.00  0.00     0.055 A 
ATOM     72  C   UNL A   1      40.325  25.705  27.699  1.00  0.00     0.041 A 
ATOM     73  F   UNL A   1      39.273  26.286  29.709  1.00  0.00    -0.206 F 
ATOM     74  C   UNL A   1      41.273  25.962  26.713  1.00  0.00     0.022 A 
BRANCH  71  75
ATOM     75  S   UNL A   1      43.258  27.523  25.529  1.00  0.00     0.124 S 
ATOM     76  O   UNL A   1      43.793  26.235  25.093  1.00  0.00    -0.237 OA
ATOM     77  O   UNL A   1      42.340  28.179  24.606  1.00  0.00    -0.237 OA
ATOM     78  O   UNL A   1      44.227  28.404  26.178  1.00  0.00    -0.744 OA
ENDBRANCH  71  75
ENDBRANCH  54  68
BRANCH  55  79
ATOM     79  C   UNL A   1      39.717  33.394  37.077  1.00  0.00     0.023 A 
ATOM     80  C   UNL A   1      39.105  32.844  38.215  1.00  0.00     0.031 A 
ATOM     81  C   UNL A   1      40.065  34.756  37.109  1.00  0.00     0.131 A 
ATOM     82  C   UNL A   1      38.812  33.663  39.317  1.00  0.00     0.055 A 
ATOM     83  C   UNL A   1      39.821  35.553  38.229  1.00  0.00     0.041 A 
ATOM     84  F   UNL A   1      40.659  35.330  36.051  1.00  0.00    -0.206 F 
ATOM     85  C   UNL A   1      39.179  35.010  39.337  1.00  0.00     0.022 A 
BRANCH  82  86
ATOM     86  S   UNL A   1      37.867  32.957  40.695  1.00  0.00     0.124 S 
ATOM     87  O   UNL A   1      38.306  31.567  40.677  1.00  0.00    -0.237 OA
ATOM     88  O   UNL A   1      38.330  33.763  41.822  1.00  0.00    -0.237 OA
ATOM     89  O   UNL A   1      36.477  33.180  40.302  1.00  0.00    -0.744 OA
ENDBRANCH  82  86
ENDBRANCH  55  79
BRANCH  67  90
ATOM     90  C   UNL A   1      44.564  28.692  35.345  1.00  0.00     0.023 A 
ATOM     91  C   UNL A   1      44.514  27.663  36.302  1.00  0.00     0.031 A 
ATOM     92  C   UNL A   1      45.808  29.296  35.088  1.00  0.00     0.131 A 
ATOM     93  C   UNL A   1      45.671  27.315  37.016  1.00  0.00     0.055 A 
ATOM     94  C   UNL A   1      46.969  28.899  35.754  1.00  0.00     0.041 A 
ATOM     95  F   UNL A   1      45.915  30.285  34.187  1.00  0.00    -0.206 F 
ATOM     96  C   UNL A   1      46.901  27.915  36.737  1.00  0.00     0.022 A 
BRANCH  93  97
ATOM     97  S   UNL A   1      45.522  26.150  38.398  1.00  0.00     0.124 S 
ATOM     98  O   UNL A   1      45.250  24.893  37.708  1.00  0.00    -0.237 OA
ATOM     99  O   UNL A   1      46.830  26.256  39.037  1.00  0.00    -0.237 OA
ATOM    100  O   UNL A   1      44.406  26.683  39.178  1.00  0.00    -0.744 OA
ENDBRANCH  93  97
ENDBRANCH  67  90
ENDBRANCH  41  42
ENDBRANCH  33  36
ENDBRANCH  31  32
ENDBRANCH   1  31
TORSDOF 18
ENDMDL
MODEL 3
REMARK VINA RESULT:     -11.5      1.673      7.552
REMARK SMILES COc1ccc(-c2cc(C(F)(F)F)n3nc(C(=O)NCCCCNC(=O)c4ccc(-c5c6nc(c(-c7cc(S(=O)(=O)[O-])ccc7F)c7ccc([nH]7)c(-c7cc(S(=O)(=O)[O-])ccc7F)c7nc(c(-c8cc(S(=O)(=O)[O-])ccc8F)c8ccc5[nH]8)C=C7)C=C6)cc4)cc3n2)cc1OC
REMARK SMILES IDX 22 1 21 2 20 3 19 4 17 5 18 6 16 8 7 9 8 10 92 11 9 12 91 13
REMARK SMILES IDX 14 14 90 15 15 16 6 17 3 18 4 19 94 20 5 21 93 22 2 23 1 24
REMARK SMILES IDX 95 25 96 26 10 27 11 28 12 29 13 30 23 31 24 32 25 33 26 35
REMARK SMILES IDX 27 36 28 37 89 38 29 39 88 40 30 41 31 42 32 43 82 44 33 45
REMARK SMILES IDX 87 46 81 47 83 48 34 49 86 50 80 51 79 52 35 54 67 55 47 56
REMARK SMILES IDX 66 57 48 58 51 59 65 60 84 61 49 62 50 63 64 65 85 66 52 67
REMARK SMILES IDX 36 68 37 69 45 70 38 71 44 72 46 73 43 74 39 75 40 76 41 77
REMARK SMILES IDX 42 78 68 79 69 80 77 81 70 82 76 83 78 84 75 85 71 86 72 87
REMARK SMILES IDX 73 88 74 89 53 90 54 91 62 92 55 93 61 94 63 95 60 96 56 97
REMARK SMILES IDX 57 98 58 99 59 100
REMARK H PARENT 19 7 24 34 83 53 51 64
REMARK Flexibility Score: inf
ROOT
ATOM      1  C   UNL A   1      31.918  31.809  27.085  1.00  0.00     0.023 C 
ENDROOT
BRANCH   1   2
ATOM      2  C   UNL A   1      32.388  30.362  26.897  1.00  0.00     0.023 C 
BRANCH   2   3
ATOM      3  C   UNL A   1      31.779  29.666  25.679  1.00  0.00     0.116 C 
BRANCH   3   4
ATOM      4  N   UNL A   1      32.640  29.795  24.523  1.00  0.00    -0.351 N 
ATOM      5  C   UNL A   1      33.226  28.859  23.702  1.00  0.00     0.271 C 
ATOM      6  O   UNL A   1      33.888  29.306  22.761  1.00  0.00    -0.267 OA
ATOM      7  H   UNL A   1      32.844  30.726  24.278  1.00  0.00     0.163 HD
BRANCH   5   8
ATOM      8  C   UNL A   1      33.052  27.403  23.916  1.00  0.00     0.152 A 
ATOM      9  C   UNL A   1      32.848  23.027  24.574  1.00  0.00     0.075 A 
ATOM     10  C   UNL A   1      31.577  23.387  25.276  1.00  0.00     0.062 A 
ATOM     11  N   UNL A   1      33.642  23.875  23.991  1.00  0.00    -0.228 NA
ATOM     12  C   UNL A   1      31.273  24.700  25.315  1.00  0.00     0.150 A 
ATOM     13  C   UNL A   1      33.258  25.183  24.029  1.00  0.00     0.157 A 
ATOM     14  N   UNL A   1      32.124  25.619  24.709  1.00  0.00    -0.209 N 
ATOM     15  C   UNL A   1      33.799  26.299  23.441  1.00  0.00     0.085 A 
ATOM     16  N   UNL A   1      32.022  26.963  24.667  1.00  0.00    -0.161 NA
BRANCH   9  17
ATOM     17  C   UNL A   1      33.199  21.591  24.565  1.00  0.00     0.004 A 
ATOM     18  C   UNL A   1      33.854  18.878  24.626  1.00  0.00     0.160 A 
ATOM     19  C   UNL A   1      32.528  19.280  24.406  1.00  0.00     0.051 A 
ATOM     20  C   UNL A   1      34.861  19.837  24.805  1.00  0.00     0.161 A 
ATOM     21  C   UNL A   1      32.195  20.636  24.395  1.00  0.00     0.014 A 
ATOM     22  C   UNL A   1      34.524  21.194  24.767  1.00  0.00     0.060 A 
BRANCH  18  23
ATOM     23  O   UNL A   1      34.157  17.544  24.564  1.00  0.00    -0.493 OA
ATOM     24  C   UNL A   1      34.014  17.022  23.242  1.00  0.00     0.278 C 
ENDBRANCH  18  23
BRANCH  20  25
ATOM     25  O   UNL A   1      36.200  19.627  25.000  1.00  0.00    -0.493 OA
ATOM     26  C   UNL A   1      37.048  20.765  25.002  1.00  0.00     0.278 C 
ENDBRANCH  20  25
ENDBRANCH   9  17
BRANCH  12  27
ATOM     27  C   UNL A   1      30.053  25.247  25.952  1.00  0.00     0.433 C 
ATOM     28  F   UNL A   1      29.156  25.730  25.059  1.00  0.00    -0.165 F 
ATOM     29  F   UNL A   1      29.420  24.345  26.742  1.00  0.00    -0.165 F 
ATOM     30  F   UNL A   1      30.358  26.296  26.771  1.00  0.00    -0.165 F 
ENDBRANCH  12  27
ENDBRANCH   5   8
ENDBRANCH   3   4
ENDBRANCH   2   3
ENDBRANCH   1   2
BRANCH   1  31
ATOM     31  C   UNL A   1      32.994  32.874  26.879  1.00  0.00     0.116 C 
BRANCH  31  32
ATOM     32  N   UNL A   1      32.853  34.016  27.768  1.00  0.00    -0.352 N 
ATOM     33  C   UNL A   1      33.593  34.328  28.883  1.00  0.00     0.251 C 
ATOM     34  H   UNL A   1      32.133  34.649  27.541  1.00  0.00     0.163 HD
ATOM     35  O   UNL A   1      33.263  35.278  29.589  1.00  0.00    -0.269 OA
BRANCH  33  36
ATOM     36  C   UNL A   1      34.749  33.484  29.250  1.00  0.00     0.039 A 
ATOM     37  C   UNL A   1      36.025  33.881  28.845  1.00  0.00     0.014 A 
ATOM     38  C   UNL A   1      34.580  32.328  30.019  1.00  0.00     0.014 A 
ATOM     39  C   UNL A   1      37.140  33.158  29.274  1.00  0.00     0.010 A 
ATOM     40  C   UNL A   1      35.697  31.651  30.502  1.00  0.00     0.010 A 
ATOM     41  C   UNL A   1      36.988  32.062  30.140  1.00  0.00    -0.014 A 
BRANCH  41  42
ATOM     42  C   UNL A   1      38.174  31.354  30.689  1.00  0.00     0.031 A 
ATOM     43  C   UNL A   1      38.738  31.740  32.029  1.00  0.00     0.074 A 
ATOM     44  C   UNL A   1      38.773  30.398  29.951  1.00  0.00     0.049 A 
ATOM     45  N   UNL A   1      39.783  31.263  32.655  1.00  0.00    -0.248 NA
ATOM     46  C   UNL A   1      38.053  32.826  32.744  1.00  0.00     0.031 C 
ATOM     47  C   UNL A   1      38.349  29.975  28.613  1.00  0.00     0.029 A 
ATOM     48  N   UNL A   1      39.866  29.611  30.214  1.00  0.00    -0.354 N 
ATOM     49  C   UNL A   1      39.887  31.995  33.834  1.00  0.00     0.074 A 
ATOM     50  C   UNL A   1      38.836  32.991  33.799  1.00  0.00     0.031 C 
ATOM     51  C   UNL A   1      39.153  28.987  28.189  1.00  0.00     0.029 A 
ATOM     52  C   UNL A   1      40.172  28.733  29.201  1.00  0.00     0.049 A 
ATOM     53  H   UNL A   1      40.382  29.671  31.050  1.00  0.00     0.167 HD
ATOM     54  C   UNL A   1      40.760  31.834  34.859  1.00  0.00     0.034 A 
ATOM     55  C   UNL A   1      41.166  27.827  29.096  1.00  0.00     0.034 A 
ATOM     56  C   UNL A   1      41.798  30.830  34.877  1.00  0.00     0.049 A 
ATOM     57  C   UNL A   1      42.131  27.674  30.244  1.00  0.00     0.074 A 
ATOM     58  C   UNL A   1      42.704  30.544  35.884  1.00  0.00     0.029 A 
ATOM     59  N   UNL A   1      42.077  29.953  33.835  1.00  0.00    -0.354 N 
ATOM     60  N   UNL A   1      42.178  28.333  31.380  1.00  0.00    -0.248 NA
ATOM     61  C   UNL A   1      43.166  26.643  30.102  1.00  0.00     0.031 C 
ATOM     62  C   UNL A   1      43.570  29.545  35.427  1.00  0.00     0.029 A 
ATOM     63  C   UNL A   1      43.158  29.148  34.164  1.00  0.00     0.049 A 
ATOM     64  H   UNL A   1      41.581  29.910  32.987  1.00  0.00     0.167 HD
ATOM     65  C   UNL A   1      43.229  27.772  32.099  1.00  0.00     0.074 A 
ATOM     66  C   UNL A   1      43.773  26.710  31.277  1.00  0.00     0.031 C 
ATOM     67  C   UNL A   1      43.701  28.102  33.329  1.00  0.00     0.034 A 
BRANCH  54  68
ATOM     68  C   UNL A   1      40.638  32.781  36.029  1.00  0.00     0.023 A 
ATOM     69  C   UNL A   1      39.994  32.404  37.222  1.00  0.00     0.031 A 
ATOM     70  C   UNL A   1      41.148  34.089  35.946  1.00  0.00     0.131 A 
ATOM     71  C   UNL A   1      39.806  33.343  38.247  1.00  0.00     0.055 A 
ATOM     72  C   UNL A   1      41.032  34.994  37.004  1.00  0.00     0.041 A 
ATOM     73  F   UNL A   1      41.754  34.516  34.828  1.00  0.00    -0.206 F 
ATOM     74  C   UNL A   1      40.343  34.629  38.156  1.00  0.00     0.022 A 
BRANCH  71  75
ATOM     75  S   UNL A   1      38.719  32.907  39.632  1.00  0.00     0.124 S 
ATOM     76  O   UNL A   1      39.666  32.328  40.580  1.00  0.00    -0.237 OA
ATOM     77  O   UNL A   1      38.150  34.197  40.004  1.00  0.00    -0.237 OA
ATOM     78  O   UNL A   1      37.777  31.957  39.043  1.00  0.00    -0.744 OA
ENDBRANCH  71  75
ENDBRANCH  54  68
BRANCH  55  79
ATOM     79  C   UNL A   1      41.304  26.995  27.867  1.00  0.00     0.023 A 
ATOM     80  C   UNL A   1      40.903  25.649  27.855  1.00  0.00     0.031 A 
ATOM     81  C   UNL A   1      41.878  27.522  26.696  1.00  0.00     0.131 A 
ATOM     82  C   UNL A   1      41.128  24.862  26.715  1.00  0.00     0.055 A 
ATOM     83  C   UNL A   1      42.049  26.749  25.546  1.00  0.00     0.041 A 
ATOM     84  F   UNL A   1      42.272  28.804  26.650  1.00  0.00    -0.206 F 
ATOM     85  C   UNL A   1      41.685  25.406  25.556  1.00  0.00     0.022 A 
BRANCH  82  86
ATOM     86  S   UNL A   1      40.756  23.088  26.799  1.00  0.00     0.124 S 
ATOM     87  O   UNL A   1      39.324  23.071  26.524  1.00  0.00    -0.237 OA
ATOM     88  O   UNL A   1      41.618  22.549  25.751  1.00  0.00    -0.237 OA
ATOM     89  O   UNL A   1      41.136  22.726  28.163  1.00  0.00    -0.744 OA
ENDBRANCH  82  86
ENDBRANCH  55  79
BRANCH  67  90
ATOM     90  C   UNL A   1      44.840  27.269  33.869  1.00  0.00     0.023 A 
ATOM     91  C   UNL A   1      44.613  26.097  34.613  1.00  0.00     0.031 A 
ATOM     92  C   UNL A   1      46.170  27.673  33.662  1.00  0.00     0.131 A 
ATOM     93  C   UNL A   1      45.697  25.409  35.180  1.00  0.00     0.055 A 
ATOM     94  C   UNL A   1      47.247  26.947  34.172  1.00  0.00     0.041 A 
ATOM     95  F   UNL A   1      46.446  28.785  32.962  1.00  0.00    -0.206 F 
ATOM     96  C   UNL A   1      47.013  25.817  34.951  1.00  0.00     0.022 A 
BRANCH  93  97
ATOM     97  S   UNL A   1      45.356  24.040  36.321  1.00  0.00     0.124 S 
ATOM     98  O   UNL A   1      44.395  23.246  35.563  1.00  0.00    -0.237 OA
ATOM     99  O   UNL A   1      46.677  23.445  36.497  1.00  0.00    -0.237 OA
ATOM    100  O   UNL A   1      44.814  24.706  37.504  1.00  0.00    -0.744 OA
ENDBRANCH  93  97
ENDBRANCH  67  90
ENDBRANCH  41  42
ENDBRANCH  33  36
ENDBRANCH  31  32
ENDBRANCH   1  31
TORSDOF 18
ENDMDL
