MODEL 1
REMARK VINA RESULT:     -11.4      0.000      0.000
REMARK SMILES C[C@H]([C@@H](C)C(=O)NCCCCNC(=O)c1ccc(-c2c3nc(c(-c4cc(S(=O)(=O)[O-])ccc4F)c4ccc([nH]4)c(-c4cc(S(=O)(=O)[O-])ccc4F)c4nc(c(-c5cc(S(=O)(=O)[O-])ccc5F)c5ccc2[nH]5)C=C4)C=C3)cc1)[NH+]1CCN(c2nccs2)CC1
REMARK SMILES IDX 9 1 8 2 7 3 5 4 6 5 3 7 4 8 2 9 1 10 78 11 79 12 88 13 80 15
REMARK SMILES IDX 87 16 81 17 82 18 83 19 86 20 84 21 85 22 10 23 11 24 12 25
REMARK SMILES IDX 13 26 14 28 15 29 16 30 77 31 17 32 76 33 18 34 19 35 20 36
REMARK SMILES IDX 70 37 21 38 75 39 69 40 71 41 22 42 74 43 68 44 67 45 23 47
REMARK SMILES IDX 55 48 35 49 54 50 36 51 39 52 53 53 72 54 37 55 38 56 52 58
REMARK SMILES IDX 73 59 40 60 24 61 25 62 33 63 26 64 32 65 34 66 31 67 27 68
REMARK SMILES IDX 28 69 29 70 30 71 56 72 57 73 65 74 58 75 64 76 66 77 63 78
REMARK SMILES IDX 59 79 60 80 61 81 62 82 41 83 42 84 50 85 43 86 49 87 51 88
REMARK SMILES IDX 48 89 44 90 45 91 46 92 47 93
REMARK H PARENT 7 6 78 14 12 27 71 46 39 57
REMARK Flexibility Score: inf
ROOT
ATOM      1  C   UNL A   1      36.502  23.184  23.546  1.00  0.00     0.023 C 
ENDROOT
BRANCH   1   2
ATOM      2  C   UNL A   1      35.080  23.733  23.621  1.00  0.00     0.116 C 
BRANCH   2   3
ATOM      3  N   UNL A   1      34.116  22.664  23.694  1.00  0.00    -0.356 N 
ATOM      4  C   UNL A   1      33.180  22.390  24.632  1.00  0.00     0.228 C 
ATOM      5  O   UNL A   1      32.541  21.341  24.502  1.00  0.00    -0.275 OA
ATOM      6  H   UNL A   1      34.142  22.030  22.939  1.00  0.00     0.163 HD
BRANCH   4   7
ATOM      7  C   UNL A   1      32.905  23.305  25.823  1.00  0.00     0.133 C 
ATOM      8  C   UNL A   1      33.599  22.868  27.112  1.00  0.00     0.024 C 
BRANCH   7   9
ATOM      9  C   UNL A   1      31.414  23.777  25.886  1.00  0.00     0.193 C 
ATOM     10  C   UNL A   1      30.518  22.912  26.799  1.00  0.00     0.076 C 
BRANCH   9  11
ATOM     11  N   UNL A   1      31.126  25.156  26.356  1.00  0.00    -0.329 N 
ATOM     12  C   UNL A   1      32.042  26.244  25.987  1.00  0.00     0.284 C 
ATOM     13  C   UNL A   1      29.729  25.575  26.056  1.00  0.00     0.284 C 
ATOM     14  H   UNL A   1      31.283  25.032  27.357  1.00  0.00     0.348 HD
ATOM     15  C   UNL A   1      31.881  26.817  24.560  1.00  0.00     0.180 C 
ATOM     16  C   UNL A   1      29.498  26.122  24.627  1.00  0.00     0.180 C 
ATOM     17  N   UNL A   1      30.487  27.149  24.301  1.00  0.00    -0.337 N 
BRANCH  17  18
ATOM     18  C   UNL A   1      30.161  28.176  23.481  1.00  0.00     0.185 A 
ATOM     19  N   UNL A   1      31.052  28.950  22.900  1.00  0.00    -0.229 NA
ATOM     20  S   UNL A   1      28.518  28.552  23.064  1.00  0.00    -0.106 S 
ATOM     21  C   UNL A   1      30.439  29.793  21.995  1.00  0.00     0.125 A 
ATOM     22  C   UNL A   1      29.065  29.737  21.964  1.00  0.00     0.088 A 
ENDBRANCH  17  18
ENDBRANCH   9  11
ENDBRANCH   7   9
ENDBRANCH   4   7
ENDBRANCH   2   3
ENDBRANCH   1   2
BRANCH   1  23
ATOM     23  C   UNL A   1      36.691  21.835  24.235  1.00  0.00     0.023 C 
BRANCH  23  24
ATOM     24  C   UNL A   1      37.313  21.910  25.624  1.00  0.00     0.116 C 
BRANCH  24  25
ATOM     25  N   UNL A   1      38.398  20.959  25.813  1.00  0.00    -0.352 N 
ATOM     26  C   UNL A   1      39.666  21.180  26.297  1.00  0.00     0.251 C 
ATOM     27  H   UNL A   1      38.197  20.030  25.559  1.00  0.00     0.163 HD
ATOM     28  O   UNL A   1      40.493  20.285  26.272  1.00  0.00    -0.269 OA
BRANCH  26  29
ATOM     29  C   UNL A   1      40.014  22.527  26.800  1.00  0.00     0.039 A 
ATOM     30  C   UNL A   1      40.902  22.627  27.869  1.00  0.00     0.014 A 
ATOM     31  C   UNL A   1      39.504  23.676  26.188  1.00  0.00     0.014 A 
ATOM     32  C   UNL A   1      41.330  23.887  28.286  1.00  0.00     0.010 A 
ATOM     33  C   UNL A   1      39.997  24.925  26.549  1.00  0.00     0.010 A 
ATOM     34  C   UNL A   1      40.915  25.043  27.602  1.00  0.00    -0.014 A 
BRANCH  34  35
ATOM     35  C   UNL A   1      41.452  26.374  27.984  1.00  0.00     0.031 A 
ATOM     36  C   UNL A   1      42.868  26.749  27.645  1.00  0.00     0.074 A 
ATOM     37  C   UNL A   1      40.658  27.234  28.653  1.00  0.00     0.049 A 
ATOM     38  N   UNL A   1      43.503  27.867  27.880  1.00  0.00    -0.248 NA
ATOM     39  C   UNL A   1      43.687  25.723  26.980  1.00  0.00     0.031 C 
ATOM     40  C   UNL A   1      39.288  26.952  29.090  1.00  0.00     0.029 A 
ATOM     41  N   UNL A   1      40.880  28.519  29.078  1.00  0.00    -0.354 N 
ATOM     42  C   UNL A   1      44.789  27.686  27.383  1.00  0.00     0.074 A 
ATOM     43  C   UNL A   1      44.866  26.321  26.908  1.00  0.00     0.031 C 
ATOM     44  C   UNL A   1      38.780  28.044  29.682  1.00  0.00     0.029 A 
ATOM     45  C   UNL A   1      39.797  29.089  29.707  1.00  0.00     0.049 A 
ATOM     46  H   UNL A   1      41.734  28.990  28.944  1.00  0.00     0.167 HD
ATOM     47  C   UNL A   1      45.800  28.585  27.298  1.00  0.00     0.034 A 
ATOM     48  C   UNL A   1      39.643  30.314  30.247  1.00  0.00     0.034 A 
ATOM     49  C   UNL A   1      45.706  29.942  27.779  1.00  0.00     0.049 A 
ATOM     50  C   UNL A   1      40.790  31.289  30.153  1.00  0.00     0.074 A 
ATOM     51  C   UNL A   1      46.657  30.946  27.719  1.00  0.00     0.029 A 
ATOM     52  N   UNL A   1      44.596  30.486  28.412  1.00  0.00    -0.354 N 
ATOM     53  N   UNL A   1      41.980  31.119  29.622  1.00  0.00    -0.248 NA
ATOM     54  C   UNL A   1      40.564  32.628  30.709  1.00  0.00     0.031 C 
ATOM     55  C   UNL A   1      46.148  32.073  28.374  1.00  0.00     0.029 A 
ATOM     56  C   UNL A   1      44.848  31.802  28.771  1.00  0.00     0.049 A 
ATOM     57  H   UNL A   1      43.752  30.007  28.582  1.00  0.00     0.167 HD
ATOM     58  C   UNL A   1      42.635  32.339  29.763  1.00  0.00     0.074 A 
ATOM     59  C   UNL A   1      41.692  33.243  30.389  1.00  0.00     0.031 C 
ATOM     60  C   UNL A   1      43.903  32.683  29.415  1.00  0.00     0.034 A 
BRANCH  47  61
ATOM     61  C   UNL A   1      47.093  28.121  26.671  1.00  0.00     0.023 A 
ATOM     62  C   UNL A   1      47.278  28.134  25.276  1.00  0.00     0.031 A 
ATOM     63  C   UNL A   1      48.152  27.655  27.468  1.00  0.00     0.131 A 
ATOM     64  C   UNL A   1      48.465  27.633  24.720  1.00  0.00     0.055 A 
ATOM     65  C   UNL A   1      49.362  27.233  26.914  1.00  0.00     0.041 A 
ATOM     66  F   UNL A   1      48.027  27.597  28.804  1.00  0.00    -0.206 F 
ATOM     67  C   UNL A   1      49.519  27.208  25.531  1.00  0.00     0.022 A 
BRANCH  64  68
ATOM     68  S   UNL A   1      48.561  27.428  22.921  1.00  0.00     0.124 S 
ATOM     69  O   UNL A   1      47.424  28.229  22.472  1.00  0.00    -0.237 OA
ATOM     70  O   UNL A   1      49.881  27.964  22.611  1.00  0.00    -0.237 OA
ATOM     71  O   UNL A   1      48.413  25.986  22.732  1.00  0.00    -0.744 OA
ENDBRANCH  64  68
ENDBRANCH  47  61
BRANCH  48  72
ATOM     72  C   UNL A   1      38.372  30.692  30.932  1.00  0.00     0.023 A 
ATOM     73  C   UNL A   1      37.345  31.360  30.248  1.00  0.00     0.031 A 
ATOM     74  C   UNL A   1      38.194  30.448  32.306  1.00  0.00     0.131 A 
ATOM     75  C   UNL A   1      36.218  31.819  30.948  1.00  0.00     0.055 A 
ATOM     76  C   UNL A   1      37.042  30.848  32.985  1.00  0.00     0.041 A 
ATOM     77  F   UNL A   1      39.141  29.809  33.012  1.00  0.00    -0.206 F 
ATOM     78  C   UNL A   1      36.054  31.555  32.309  1.00  0.00     0.022 A 
BRANCH  75  79
ATOM     79  S   UNL A   1      35.025  32.873  30.077  1.00  0.00     0.124 S 
ATOM     80  O   UNL A   1      34.137  33.275  31.162  1.00  0.00    -0.237 OA
ATOM     81  O   UNL A   1      35.886  33.916  29.530  1.00  0.00    -0.237 OA
ATOM     82  O   UNL A   1      34.435  31.971  29.090  1.00  0.00    -0.744 OA
ENDBRANCH  75  79
ENDBRANCH  48  72
BRANCH  60  83
ATOM     83  C   UNL A   1      44.315  34.112  29.688  1.00  0.00     0.023 A 
ATOM     84  C   UNL A   1      44.167  35.117  28.715  1.00  0.00     0.031 A 
ATOM     85  C   UNL A   1      44.909  34.462  30.913  1.00  0.00     0.131 A 
ATOM     86  C   UNL A   1      44.686  36.398  28.949  1.00  0.00     0.055 A 
ATOM     87  C   UNL A   1      45.352  35.759  31.170  1.00  0.00     0.041 A 
ATOM     88  F   UNL A   1      45.077  33.544  31.878  1.00  0.00    -0.206 F 
ATOM     89  C   UNL A   1      45.261  36.731  30.177  1.00  0.00     0.022 A 
BRANCH  86  90
ATOM     90  S   UNL A   1      44.725  37.581  27.574  1.00  0.00     0.124 S 
ATOM     91  O   UNL A   1      45.049  38.829  28.258  1.00  0.00    -0.237 OA
ATOM     92  O   UNL A   1      45.774  37.030  26.722  1.00  0.00    -0.237 OA
ATOM     93  O   UNL A   1      43.375  37.508  27.021  1.00  0.00    -0.744 OA
ENDBRANCH  86  90
ENDBRANCH  60  83
ENDBRANCH  34  35
ENDBRANCH  26  29
ENDBRANCH  24  25
ENDBRANCH  23  24
ENDBRANCH   1  23
TORSDOF 17
ENDMDL
MODEL 2
REMARK VINA RESULT:     -11.1      2.519      8.250
REMARK SMILES C[C@H]([C@@H](C)C(=O)NCCCCNC(=O)c1ccc(-c2c3nc(c(-c4cc(S(=O)(=O)[O-])ccc4F)c4ccc([nH]4)c(-c4cc(S(=O)(=O)[O-])ccc4F)c4nc(c(-c5cc(S(=O)(=O)[O-])ccc5F)c5ccc2[nH]5)C=C4)C=C3)cc1)[NH+]1CCN(c2nccs2)CC1
REMARK SMILES IDX 9 1 8 2 7 3 5 4 6 5 3 7 4 8 2 9 1 10 78 11 79 12 88 13 80 15
REMARK SMILES IDX 87 16 81 17 82 18 83 19 86 20 84 21 85 22 10 23 11 24 12 25
REMARK SMILES IDX 13 26 14 28 15 29 16 30 77 31 17 32 76 33 18 34 19 35 20 36
REMARK SMILES IDX 70 37 21 38 75 39 69 40 71 41 22 42 74 43 68 44 67 45 23 47
REMARK SMILES IDX 55 48 35 49 54 50 36 51 39 52 53 53 72 54 37 55 38 56 52 58
REMARK SMILES IDX 73 59 40 60 24 61 25 62 33 63 26 64 32 65 34 66 31 67 27 68
REMARK SMILES IDX 28 69 29 70 30 71 56 72 57 73 65 74 58 75 64 76 66 77 63 78
REMARK SMILES IDX 59 79 60 80 61 81 62 82 41 83 42 84 50 85 43 86 49 87 51 88
REMARK SMILES IDX 48 89 44 90 45 91 46 92 47 93
REMARK H PARENT 7 6 78 14 12 27 71 46 39 57
REMARK Flexibility Score: inf
ROOT
ATOM      1  C   UNL A   1      39.199  22.888  26.247  1.00  0.00     0.023 C 
ENDROOT
BRANCH   1   2
ATOM      2  C   UNL A   1      37.823  23.521  26.057  1.00  0.00     0.116 C 
BRANCH   2   3
ATOM      3  N   UNL A   1      37.448  23.538  24.666  1.00  0.00    -0.356 N 
ATOM      4  C   UNL A   1      36.461  22.878  24.016  1.00  0.00     0.228 C 
ATOM      5  O   UNL A   1      36.419  22.995  22.787  1.00  0.00    -0.275 OA
ATOM      6  H   UNL A   1      37.998  24.124  24.096  1.00  0.00     0.163 HD
BRANCH   4   7
ATOM      7  C   UNL A   1      35.433  22.005  24.732  1.00  0.00     0.133 C 
ATOM      8  C   UNL A   1      35.894  20.566  24.960  1.00  0.00     0.024 C 
BRANCH   7   9
ATOM      9  C   UNL A   1      33.973  22.265  24.232  1.00  0.00     0.193 C 
ATOM     10  C   UNL A   1      33.173  20.979  23.930  1.00  0.00     0.076 C 
BRANCH   9  11
ATOM     11  N   UNL A   1      33.048  23.026  25.110  1.00  0.00    -0.329 N 
ATOM     12  C   UNL A   1      33.600  23.816  26.219  1.00  0.00     0.284 C 
ATOM     13  C   UNL A   1      32.104  23.876  24.334  1.00  0.00     0.284 C 
ATOM     14  H   UNL A   1      32.574  22.251  25.574  1.00  0.00     0.348 HD
ATOM     15  C   UNL A   1      34.200  25.192  25.845  1.00  0.00     0.180 C 
ATOM     16  C   UNL A   1      32.661  25.253  23.897  1.00  0.00     0.180 C 
ATOM     17  N   UNL A   1      33.259  25.951  25.034  1.00  0.00    -0.337 N 
BRANCH  17  18
ATOM     18  C   UNL A   1      33.221  27.303  25.103  1.00  0.00     0.185 A 
ATOM     19  N   UNL A   1      33.046  28.077  24.054  1.00  0.00    -0.229 NA
ATOM     20  S   UNL A   1      33.349  28.165  26.604  1.00  0.00    -0.106 S 
ATOM     21  C   UNL A   1      32.879  29.389  24.447  1.00  0.00     0.125 A 
ATOM     22  C   UNL A   1      33.035  29.633  25.792  1.00  0.00     0.088 A 
ENDBRANCH  17  18
ENDBRANCH   9  11
ENDBRANCH   7   9
ENDBRANCH   4   7
ENDBRANCH   2   3
ENDBRANCH   1   2
BRANCH   1  23
ATOM     23  C   UNL A   1      39.311  21.461  25.718  1.00  0.00     0.023 C 
BRANCH  23  24
ATOM     24  C   UNL A   1      39.653  20.415  26.773  1.00  0.00     0.116 C 
BRANCH  24  25
ATOM     25  N   UNL A   1      40.630  19.441  26.311  1.00  0.00    -0.352 N 
ATOM     26  C   UNL A   1      41.964  19.623  26.028  1.00  0.00     0.251 C 
ATOM     27  H   UNL A   1      40.290  18.526  26.183  1.00  0.00     0.163 HD
ATOM     28  O   UNL A   1      42.610  18.718  25.530  1.00  0.00    -0.269 OA
BRANCH  26  29
ATOM     29  C   UNL A   1      42.577  20.942  26.294  1.00  0.00     0.039 A 
ATOM     30  C   UNL A   1      42.862  21.772  25.211  1.00  0.00     0.014 A 
ATOM     31  C   UNL A   1      42.820  21.370  27.602  1.00  0.00     0.014 A 
ATOM     32  C   UNL A   1      43.335  23.062  25.445  1.00  0.00     0.010 A 
ATOM     33  C   UNL A   1      43.210  22.685  27.836  1.00  0.00     0.010 A 
ATOM     34  C   UNL A   1      43.472  23.544  26.759  1.00  0.00    -0.014 A 
BRANCH  34  35
ATOM     35  C   UNL A   1      43.878  24.951  27.004  1.00  0.00     0.031 A 
ATOM     36  C   UNL A   1      42.891  25.944  27.552  1.00  0.00     0.074 A 
ATOM     37  C   UNL A   1      45.139  25.330  26.711  1.00  0.00     0.049 A 
ATOM     38  N   UNL A   1      43.068  27.206  27.846  1.00  0.00    -0.248 NA
ATOM     39  C   UNL A   1      41.518  25.464  27.772  1.00  0.00     0.031 C 
ATOM     40  C   UNL A   1      46.163  24.466  26.116  1.00  0.00     0.029 A 
ATOM     41  N   UNL A   1      45.780  26.531  26.879  1.00  0.00    -0.354 N 
ATOM     42  C   UNL A   1      41.836  27.668  28.296  1.00  0.00     0.074 A 
ATOM     43  C   UNL A   1      40.902  26.571  28.158  1.00  0.00     0.031 C 
ATOM     44  C   UNL A   1      47.311  25.153  26.007  1.00  0.00     0.029 A 
ATOM     45  C   UNL A   1      47.097  26.515  26.483  1.00  0.00     0.049 A 
ATOM     46  H   UNL A   1      45.338  27.329  27.248  1.00  0.00     0.167 HD
ATOM     47  C   UNL A   1      41.522  28.882  28.810  1.00  0.00     0.034 A 
ATOM     48  C   UNL A   1      48.028  27.490  26.499  1.00  0.00     0.034 A 
ATOM     49  C   UNL A   1      42.468  29.965  28.938  1.00  0.00     0.049 A 
ATOM     50  C   UNL A   1      47.647  28.836  27.062  1.00  0.00     0.074 A 
ATOM     51  C   UNL A   1      42.267  31.227  29.470  1.00  0.00     0.029 A 
ATOM     52  N   UNL A   1      43.794  29.916  28.527  1.00  0.00    -0.354 N 
ATOM     53  N   UNL A   1      46.491  29.236  27.541  1.00  0.00    -0.248 NA
ATOM     54  C   UNL A   1      48.703  29.855  27.106  1.00  0.00     0.031 C 
ATOM     55  C   UNL A   1      43.448  31.961  29.319  1.00  0.00     0.029 A 
ATOM     56  C   UNL A   1      44.414  31.133  28.769  1.00  0.00     0.049 A 
ATOM     57  H   UNL A   1      44.231  29.131  28.122  1.00  0.00     0.167 HD
ATOM     58  C   UNL A   1      46.690  30.548  27.964  1.00  0.00     0.074 A 
ATOM     59  C   UNL A   1      48.085  30.851  27.721  1.00  0.00     0.031 C 
ATOM     60  C   UNL A   1      45.802  31.426  28.499  1.00  0.00     0.034 A 
BRANCH  47  61
ATOM     61  C   UNL A   1      40.098  29.100  29.260  1.00  0.00     0.023 A 
ATOM     62  C   UNL A   1      39.744  29.060  30.621  1.00  0.00     0.031 A 
ATOM     63  C   UNL A   1      39.078  29.345  28.324  1.00  0.00     0.131 A 
ATOM     64  C   UNL A   1      38.401  29.199  31.002  1.00  0.00     0.055 A 
ATOM     65  C   UNL A   1      37.755  29.562  28.716  1.00  0.00     0.041 A 
ATOM     66  F   UNL A   1      39.349  29.372  27.009  1.00  0.00    -0.206 F 
ATOM     67  C   UNL A   1      37.408  29.477  30.061  1.00  0.00     0.022 A 
BRANCH  64  68
ATOM     68  S   UNL A   1      37.953  28.885  32.731  1.00  0.00     0.124 S 
ATOM     69  O   UNL A   1      36.704  29.635  32.853  1.00  0.00    -0.237 OA
ATOM     70  O   UNL A   1      37.830  27.432  32.767  1.00  0.00    -0.237 OA
ATOM     71  O   UNL A   1      39.078  29.435  33.483  1.00  0.00    -0.744 OA
ENDBRANCH  64  68
ENDBRANCH  47  61
BRANCH  48  72
ATOM     72  C   UNL A   1      49.399  27.246  25.962  1.00  0.00     0.023 A 
ATOM     73  C   UNL A   1      49.761  27.657  24.671  1.00  0.00     0.031 A 
ATOM     74  C   UNL A   1      50.351  26.535  26.715  1.00  0.00     0.131 A 
ATOM     75  C   UNL A   1      51.013  27.299  24.145  1.00  0.00     0.055 A 
ATOM     76  C   UNL A   1      51.619  26.238  26.213  1.00  0.00     0.041 A 
ATOM     77  F   UNL A   1      50.062  26.119  27.959  1.00  0.00    -0.206 F 
ATOM     78  C   UNL A   1      51.949  26.604  24.913  1.00  0.00     0.022 A 
BRANCH  75  79
ATOM     79  S   UNL A   1      51.354  27.651  22.398  1.00  0.00     0.124 S 
ATOM     80  O   UNL A   1      52.761  27.283  22.290  1.00  0.00    -0.237 OA
ATOM     81  O   UNL A   1      50.406  26.773  21.722  1.00  0.00    -0.237 OA
ATOM     82  O   UNL A   1      51.072  29.080  22.280  1.00  0.00    -0.744 OA
ENDBRANCH  75  79
ENDBRANCH  48  72
BRANCH  60  83
ATOM     83  C   UNL A   1      46.340  32.787  28.876  1.00  0.00     0.023 A 
ATOM     84  C   UNL A   1      46.429  33.829  27.935  1.00  0.00     0.031 A 
ATOM     85  C   UNL A   1      46.816  33.031  30.176  1.00  0.00     0.131 A 
ATOM     86  C   UNL A   1      47.059  35.032  28.281  1.00  0.00     0.055 A 
ATOM     87  C   UNL A   1      47.372  34.259  30.536  1.00  0.00     0.041 A 
ATOM     88  F   UNL A   1      46.759  32.074  31.116  1.00  0.00    -0.206 F 
ATOM     89  C   UNL A   1      47.515  35.261  29.581  1.00  0.00     0.022 A 
BRANCH  86  90
ATOM     90  S   UNL A   1      47.402  36.238  26.969  1.00  0.00     0.124 S 
ATOM     91  O   UNL A   1      46.430  37.286  27.261  1.00  0.00    -0.237 OA
ATOM     92  O   UNL A   1      48.800  36.577  27.218  1.00  0.00    -0.237 OA
ATOM     93  O   UNL A   1      47.155  35.486  25.741  1.00  0.00    -0.744 OA
ENDBRANCH  86  90
ENDBRANCH  60  83
ENDBRANCH  34  35
ENDBRANCH  26  29
ENDBRANCH  24  25
ENDBRANCH  23  24
ENDBRANCH   1  23
TORSDOF 17
ENDMDL
MODEL 3
REMARK VINA RESULT:     -11.0      2.301      3.100
REMARK SMILES C[C@H]([C@@H](C)C(=O)NCCCCNC(=O)c1ccc(-c2c3nc(c(-c4cc(S(=O)(=O)[O-])ccc4F)c4ccc([nH]4)c(-c4cc(S(=O)(=O)[O-])ccc4F)c4nc(c(-c5cc(S(=O)(=O)[O-])ccc5F)c5ccc2[nH]5)C=C4)C=C3)cc1)[NH+]1CCN(c2nccs2)CC1
REMARK SMILES IDX 9 1 8 2 7 3 5 4 6 5 3 7 4 8 2 9 1 10 78 11 79 12 88 13 80 15
REMARK SMILES IDX 87 16 81 17 82 18 83 19 86 20 84 21 85 22 10 23 11 24 12 25
REMARK SMILES IDX 13 26 14 28 15 29 16 30 77 31 17 32 76 33 18 34 19 35 20 36
REMARK SMILES IDX 70 37 21 38 75 39 69 40 71 41 22 42 74 43 68 44 67 45 23 47
REMARK SMILES IDX 55 48 35 49 54 50 36 51 39 52 53 53 72 54 37 55 38 56 52 58
REMARK SMILES IDX 73 59 40 60 24 61 25 62 33 63 26 64 32 65 34 66 31 67 27 68
REMARK SMILES IDX 28 69 29 70 30 71 56 72 57 73 65 74 58 75 64 76 66 77 63 78
REMARK SMILES IDX 59 79 60 80 61 81 62 82 41 83 42 84 50 85 43 86 49 87 51 88
REMARK SMILES IDX 48 89 44 90 45 91 46 92 47 93
REMARK H PARENT 7 6 78 14 12 27 71 46 39 57
REMARK Flexibility Score: inf
ROOT
ATOM      1  C   UNL A   1      39.287  22.992  26.379  1.00  0.00     0.023 C 
ENDROOT
BRANCH   1   2
ATOM      2  C   UNL A   1      37.911  23.595  26.111  1.00  0.00     0.116 C 
BRANCH   2   3
ATOM      3  N   UNL A   1      37.597  23.564  24.704  1.00  0.00    -0.356 N 
ATOM      4  C   UNL A   1      36.607  22.924  24.041  1.00  0.00     0.228 C 
ATOM      5  O   UNL A   1      36.623  22.985  22.808  1.00  0.00    -0.275 OA
ATOM      6  H   UNL A   1      38.201  24.094  24.134  1.00  0.00     0.163 HD
BRANCH   4   7
ATOM      7  C   UNL A   1      35.505  22.139  24.749  1.00  0.00     0.133 C 
ATOM      8  C   UNL A   1      35.848  20.669  24.988  1.00  0.00     0.024 C 
BRANCH   7   9
ATOM      9  C   UNL A   1      34.076  22.510  24.231  1.00  0.00     0.193 C 
ATOM     10  C   UNL A   1      33.197  21.289  23.879  1.00  0.00     0.076 C 
BRANCH   9  11
ATOM     11  N   UNL A   1      33.187  23.309  25.113  1.00  0.00    -0.329 N 
ATOM     12  C   UNL A   1      33.627  24.638  25.559  1.00  0.00     0.284 C 
ATOM     13  C   UNL A   1      31.802  23.412  24.575  1.00  0.00     0.284 C 
ATOM     14  H   UNL A   1      33.228  22.740  25.959  1.00  0.00     0.348 HD
ATOM     15  C   UNL A   1      33.465  25.789  24.540  1.00  0.00     0.180 C 
ATOM     16  C   UNL A   1      31.587  24.525  23.519  1.00  0.00     0.180 C 
ATOM     17  N   UNL A   1      32.113  25.801  24.001  1.00  0.00    -0.337 N 
BRANCH  17  18
ATOM     18  C   UNL A   1      31.526  26.964  23.631  1.00  0.00     0.185 A 
ATOM     19  N   UNL A   1      30.618  27.049  22.683  1.00  0.00    -0.229 NA
ATOM     20  S   UNL A   1      31.876  28.475  24.412  1.00  0.00    -0.106 S 
ATOM     21  C   UNL A   1      30.080  28.319  22.645  1.00  0.00     0.125 A 
ATOM     22  C   UNL A   1      30.654  29.236  23.494  1.00  0.00     0.088 A 
ENDBRANCH  17  18
ENDBRANCH   9  11
ENDBRANCH   7   9
ENDBRANCH   4   7
ENDBRANCH   2   3
ENDBRANCH   1   2
BRANCH   1  23
ATOM     23  C   UNL A   1      39.407  21.515  26.014  1.00  0.00     0.023 C 
BRANCH  23  24
ATOM     24  C   UNL A   1      40.353  20.714  26.901  1.00  0.00     0.116 C 
BRANCH  24  25
ATOM     25  N   UNL A   1      41.325  19.941  26.142  1.00  0.00    -0.352 N 
ATOM     26  C   UNL A   1      42.570  20.318  25.695  1.00  0.00     0.251 C 
ATOM     27  H   UNL A   1      41.053  19.022  25.916  1.00  0.00     0.163 HD
ATOM     28  O   UNL A   1      43.204  19.579  24.962  1.00  0.00    -0.269 OA
BRANCH  26  29
ATOM     29  C   UNL A   1      43.095  21.644  26.082  1.00  0.00     0.039 A 
ATOM     30  C   UNL A   1      43.054  22.674  25.143  1.00  0.00     0.014 A 
ATOM     31  C   UNL A   1      43.578  21.878  27.373  1.00  0.00     0.014 A 
ATOM     32  C   UNL A   1      43.440  23.959  25.522  1.00  0.00     0.010 A 
ATOM     33  C   UNL A   1      43.881  23.175  27.772  1.00  0.00     0.010 A 
ATOM     34  C   UNL A   1      43.815  24.229  26.849  1.00  0.00    -0.014 A 
BRANCH  34  35
ATOM     35  C   UNL A   1      44.127  25.618  27.273  1.00  0.00     0.031 A 
ATOM     36  C   UNL A   1      45.528  26.152  27.159  1.00  0.00     0.074 A 
ATOM     37  C   UNL A   1      43.141  26.386  27.779  1.00  0.00     0.049 A 
ATOM     38  N   UNL A   1      45.984  27.340  27.461  1.00  0.00    -0.248 NA
ATOM     39  C   UNL A   1      46.557  25.222  26.666  1.00  0.00     0.031 C 
ATOM     40  C   UNL A   1      41.759  25.949  27.995  1.00  0.00     0.029 A 
ATOM     41  N   UNL A   1      43.142  27.692  28.196  1.00  0.00    -0.354 N 
ATOM     42  C   UNL A   1      47.347  27.305  27.185  1.00  0.00     0.074 A 
ATOM     43  C   UNL A   1      47.655  25.954  26.770  1.00  0.00     0.031 C 
ATOM     44  C   UNL A   1      41.039  26.981  28.465  1.00  0.00     0.029 A 
ATOM     45  C   UNL A   1      41.913  28.138  28.624  1.00  0.00     0.049 A 
ATOM     46  H   UNL A   1      43.947  28.259  28.189  1.00  0.00     0.167 HD
ATOM     47  C   UNL A   1      48.249  28.315  27.239  1.00  0.00     0.034 A 
ATOM     48  C   UNL A   1      41.533  29.342  29.095  1.00  0.00     0.034 A 
ATOM     49  C   UNL A   1      47.922  29.657  27.658  1.00  0.00     0.049 A 
ATOM     50  C   UNL A   1      42.561  30.444  29.160  1.00  0.00     0.074 A 
ATOM     51  C   UNL A   1      48.749  30.765  27.725  1.00  0.00     0.029 A 
ATOM     52  N   UNL A   1      46.668  30.074  28.086  1.00  0.00    -0.354 N 
ATOM     53  N   UNL A   1      43.834  30.408  28.835  1.00  0.00    -0.248 NA
ATOM     54  C   UNL A   1      42.095  31.753  29.632  1.00  0.00     0.031 C 
ATOM     55  C   UNL A   1      48.014  31.831  28.255  1.00  0.00     0.029 A 
ATOM     56  C   UNL A   1      46.706  31.414  28.443  1.00  0.00     0.049 A 
ATOM     57  H   UNL A   1      45.868  29.502  28.131  1.00  0.00     0.167 HD
ATOM     58  C   UNL A   1      44.313  31.698  29.045  1.00  0.00     0.074 A 
ATOM     59  C   UNL A   1      43.183  32.492  29.482  1.00  0.00     0.031 C 
ATOM     60  C   UNL A   1      45.573  32.185  28.898  1.00  0.00     0.034 A 
BRANCH  47  61
ATOM     61  C   UNL A   1      49.672  28.000  26.845  1.00  0.00     0.023 A 
ATOM     62  C   UNL A   1      50.163  28.306  25.563  1.00  0.00     0.031 A 
ATOM     63  C   UNL A   1      50.549  27.382  27.753  1.00  0.00     0.131 A 
ATOM     64  C   UNL A   1      51.469  27.939  25.205  1.00  0.00     0.055 A 
ATOM     65  C   UNL A   1      51.872  27.091  27.416  1.00  0.00     0.041 A 
ATOM     66  F   UNL A   1      50.131  27.044  28.984  1.00  0.00    -0.206 F 
ATOM     67  C   UNL A   1      52.336  27.358  26.132  1.00  0.00     0.022 A 
BRANCH  64  68
ATOM     68  S   UNL A   1      51.975  28.116  23.472  1.00  0.00     0.124 S 
ATOM     69  O   UNL A   1      51.380  29.405  23.122  1.00  0.00    -0.237 OA
ATOM     70  O   UNL A   1      53.430  28.090  23.564  1.00  0.00    -0.237 OA
ATOM     71  O   UNL A   1      51.369  26.959  22.817  1.00  0.00    -0.744 OA
ENDBRANCH  64  68
ENDBRANCH  47  61
BRANCH  48  72
ATOM     72  C   UNL A   1      40.131  29.576  29.553  1.00  0.00     0.023 A 
ATOM     73  C   UNL A   1      39.810  29.635  30.917  1.00  0.00     0.031 A 
ATOM     74  C   UNL A   1      39.079  29.678  28.625  1.00  0.00     0.131 A 
ATOM     75  C   UNL A   1      38.467  29.725  31.318  1.00  0.00     0.055 A 
ATOM     76  C   UNL A   1      37.751  29.835  29.027  1.00  0.00     0.041 A 
ATOM     77  F   UNL A   1      39.327  29.633  27.306  1.00  0.00    -0.206 F 
ATOM     78  C   UNL A   1      37.438  29.839  30.382  1.00  0.00     0.022 A 
BRANCH  75  79
ATOM     79  S   UNL A   1      38.076  29.569  33.083  1.00  0.00     0.124 S 
ATOM     80  O   UNL A   1      39.406  29.511  33.678  1.00  0.00    -0.237 OA
ATOM     81  O   UNL A   1      37.313  30.787  33.332  1.00  0.00    -0.237 OA
ATOM     82  O   UNL A   1      37.307  28.329  33.152  1.00  0.00    -0.744 OA
ENDBRANCH  75  79
ENDBRANCH  48  72
BRANCH  60  83
ATOM     83  C   UNL A   1      45.770  33.655  29.191  1.00  0.00     0.023 A 
ATOM     84  C   UNL A   1      45.597  34.632  28.195  1.00  0.00     0.031 A 
ATOM     85  C   UNL A   1      46.184  34.079  30.466  1.00  0.00     0.131 A 
ATOM     86  C   UNL A   1      45.921  35.969  28.464  1.00  0.00     0.055 A 
ATOM     87  C   UNL A   1      46.429  35.422  30.750  1.00  0.00     0.041 A 
ATOM     88  F   UNL A   1      46.366  33.191  31.457  1.00  0.00    -0.206 F 
ATOM     89  C   UNL A   1      46.319  36.374  29.740  1.00  0.00     0.022 A 
BRANCH  86  90
ATOM     90  S   UNL A   1      45.952  37.147  27.083  1.00  0.00     0.124 S 
ATOM     91  O   UNL A   1      46.839  38.187  27.593  1.00  0.00    -0.237 OA
ATOM     92  O   UNL A   1      46.483  36.334  25.994  1.00  0.00    -0.237 OA
ATOM     93  O   UNL A   1      44.552  37.540  26.938  1.00  0.00    -0.744 OA
ENDBRANCH  86  90
ENDBRANCH  60  83
ENDBRANCH  34  35
ENDBRANCH  26  29
ENDBRANCH  24  25
ENDBRANCH  23  24
ENDBRANCH   1  23
TORSDOF 17
ENDMDL
