MODEL 1
REMARK VINA RESULT:     -11.8      0.000      0.000
REMARK SMILES CC1(C)[C@H](C(=O)Nc2ccccc2C(N)=O)[C@@H]1C(=O)NCCCCNC(=O)c1ccc(-c2c3nc(c(-c4cc(S(=O)(=O)[O-])ccc4F)c4ccc([nH]4)c(-c4cc(S(=O)(=O)[O-])ccc4F)c4nc(c(-c5cc(S(=O)(=O)[O-])ccc5F)c5ccc2[nH]5)C=C4)C=C3)cc1
REMARK SMILES IDX 22 1 21 2 20 3 18 4 19 5 17 7 1 8 2 9 3 10 4 11 5 12 6 13
REMARK SMILES IDX 7 14 8 16 9 17 13 18 10 19 12 20 11 21 14 22 15 23 16 24
REMARK SMILES IDX 23 27 24 28 25 29 26 30 27 32 28 33 29 34 90 35 30 36 89 37
REMARK SMILES IDX 31 38 32 39 33 40 83 41 34 42 88 43 82 44 84 45 35 46 87 47
REMARK SMILES IDX 81 48 80 49 36 51 68 52 48 53 67 54 49 55 52 56 66 57 85 58
REMARK SMILES IDX 50 59 51 60 65 62 86 63 53 64 37 65 38 66 46 67 39 68 45 69
REMARK SMILES IDX 47 70 44 71 40 72 41 73 42 74 43 75 69 76 70 77 78 78 71 79
REMARK SMILES IDX 77 80 79 81 76 82 72 83 73 84 74 85 75 86 54 87 55 88 63 89
REMARK SMILES IDX 56 90 62 91 64 92 61 93 57 94 58 95 59 96 60 97
REMARK H PARENT 20 6 7 15 15 25 15 26 25 31 84 50 52 61
REMARK Flexibility Score: inf
ROOT
ATOM      1  C   UNL A   1      34.666  21.948  26.848  1.00  0.00     0.023 C 
ENDROOT
BRANCH   1   2
ATOM      2  C   UNL A   1      33.226  21.485  26.668  1.00  0.00     0.116 C 
BRANCH   2   3
ATOM      3  N   UNL A   1      32.281  22.510  27.039  1.00  0.00    -0.356 N 
ATOM      4  C   UNL A   1      31.875  23.590  26.313  1.00  0.00     0.224 C 
ATOM      5  O   UNL A   1      31.253  24.480  26.882  1.00  0.00    -0.275 OA
ATOM      6  H   UNL A   1      31.878  22.418  27.932  1.00  0.00     0.163 HD
BRANCH   4   7
ATOM      7  C   UNL A   1      32.245  23.721  24.871  1.00  0.00     0.098 C 
ATOM      8  C   UNL A   1      34.320  24.346  23.378  1.00  0.00     0.013 C 
ATOM      9  C   UNL A   1      33.345  24.726  24.487  1.00  0.00    -0.011 C 
ATOM     10  C   UNL A   1      34.065  25.390  25.628  1.00  0.00     0.013 C 
ATOM     11  C   UNL A   1      31.931  24.915  23.977  1.00  0.00     0.098 C 
BRANCH  11  12
ATOM     12  C   UNL A   1      30.685  25.693  24.190  1.00  0.00     0.228 C 
ATOM     13  O   UNL A   1      29.644  25.146  23.812  1.00  0.00    -0.274 OA
ATOM     14  N   UNL A   1      30.527  26.852  24.889  1.00  0.00    -0.325 N 
ATOM     15  H   UNL A   1      29.590  27.066  25.101  1.00  0.00     0.169 HD
BRANCH  14  16
ATOM     16  C   UNL A   1      31.436  27.790  25.358  1.00  0.00     0.053 A 
ATOM     17  C   UNL A   1      31.515  27.880  26.756  1.00  0.00     0.027 A 
ATOM     18  C   UNL A   1      32.223  28.623  24.550  1.00  0.00     0.063 A 
ATOM     19  C   UNL A   1      32.484  28.675  27.356  1.00  0.00     0.002 A 
ATOM     20  C   UNL A   1      33.187  29.438  25.169  1.00  0.00     0.016 A 
ATOM     21  C   UNL A   1      33.339  29.431  26.561  1.00  0.00     0.001 A 
BRANCH  18  22
ATOM     22  C   UNL A   1      31.988  28.714  23.077  1.00  0.00     0.250 C 
ATOM     23  N   UNL A   1      32.951  28.215  22.243  1.00  0.00    -0.366 N 
ATOM     24  O   UNL A   1      30.978  29.211  22.596  1.00  0.00    -0.269 OA
ATOM     25  H   UNL A   1      33.767  27.814  22.619  1.00  0.00     0.159 HD
ATOM     26  H   UNL A   1      32.825  28.258  21.267  1.00  0.00     0.159 HD
ENDBRANCH  18  22
ENDBRANCH  14  16
ENDBRANCH  11  12
ENDBRANCH   4   7
ENDBRANCH   2   3
ENDBRANCH   1   2
BRANCH   1  27
ATOM     27  C   UNL A   1      35.561  21.750  25.624  1.00  0.00     0.023 C 
BRANCH  27  28
ATOM     28  C   UNL A   1      36.963  22.339  25.734  1.00  0.00     0.116 C 
BRANCH  28  29
ATOM     29  N   UNL A   1      37.978  21.331  25.984  1.00  0.00    -0.352 N 
ATOM     30  C   UNL A   1      39.290  21.488  26.364  1.00  0.00     0.251 C 
ATOM     31  H   UNL A   1      37.684  20.399  25.865  1.00  0.00     0.163 HD
ATOM     32  O   UNL A   1      40.049  20.524  26.335  1.00  0.00    -0.269 OA
BRANCH  30  33
ATOM     33  C   UNL A   1      39.785  22.818  26.781  1.00  0.00     0.039 A 
ATOM     34  C   UNL A   1      40.721  22.898  27.813  1.00  0.00     0.014 A 
ATOM     35  C   UNL A   1      39.321  23.984  26.165  1.00  0.00     0.014 A 
ATOM     36  C   UNL A   1      41.225  24.144  28.196  1.00  0.00     0.010 A 
ATOM     37  C   UNL A   1      39.896  25.211  26.480  1.00  0.00     0.010 A 
ATOM     38  C   UNL A   1      40.835  25.310  27.516  1.00  0.00    -0.014 A 
BRANCH  38  39
ATOM     39  C   UNL A   1      41.350  26.644  27.925  1.00  0.00     0.031 A 
ATOM     40  C   UNL A   1      42.770  27.029  27.596  1.00  0.00     0.074 A 
ATOM     41  C   UNL A   1      40.560  27.494  28.611  1.00  0.00     0.049 A 
ATOM     42  N   UNL A   1      43.422  28.125  27.889  1.00  0.00    -0.248 NA
ATOM     43  C   UNL A   1      43.573  26.034  26.867  1.00  0.00     0.031 C 
ATOM     44  C   UNL A   1      39.182  27.221  29.023  1.00  0.00     0.029 A 
ATOM     45  N   UNL A   1      40.799  28.763  29.079  1.00  0.00    -0.354 N 
ATOM     46  C   UNL A   1      44.710  27.945  27.393  1.00  0.00     0.074 A 
ATOM     47  C   UNL A   1      44.767  26.604  26.855  1.00  0.00     0.031 C 
ATOM     48  C   UNL A   1      38.687  28.302  29.647  1.00  0.00     0.029 A 
ATOM     49  C   UNL A   1      39.722  29.328  29.722  1.00  0.00     0.049 A 
ATOM     50  H   UNL A   1      41.661  29.224  28.967  1.00  0.00     0.167 HD
ATOM     51  C   UNL A   1      45.740  28.826  27.357  1.00  0.00     0.034 A 
ATOM     52  C   UNL A   1      39.586  30.536  30.307  1.00  0.00     0.034 A 
ATOM     53  C   UNL A   1      45.661  30.166  27.886  1.00  0.00     0.049 A 
ATOM     54  C   UNL A   1      40.752  31.494  30.274  1.00  0.00     0.074 A 
ATOM     55  C   UNL A   1      46.628  31.157  27.871  1.00  0.00     0.029 A 
ATOM     56  N   UNL A   1      44.552  30.704  28.528  1.00  0.00    -0.354 N 
ATOM     57  N   UNL A   1      41.950  31.324  29.762  1.00  0.00    -0.248 NA
ATOM     58  C   UNL A   1      40.540  32.813  30.880  1.00  0.00     0.031 C 
ATOM     59  C   UNL A   1      46.132  32.263  28.570  1.00  0.00     0.029 A 
ATOM     60  C   UNL A   1      44.821  32.002  28.936  1.00  0.00     0.049 A 
ATOM     61  H   UNL A   1      43.700  30.233  28.673  1.00  0.00     0.167 HD
ATOM     62  C   UNL A   1      42.615  32.534  29.944  1.00  0.00     0.074 A 
ATOM     63  C   UNL A   1      41.681  33.424  30.600  1.00  0.00     0.031 C 
ATOM     64  C   UNL A   1      43.881  32.881  29.591  1.00  0.00     0.034 A 
BRANCH  51  65
ATOM     65  C   UNL A   1      47.040  28.352  26.748  1.00  0.00     0.023 A 
ATOM     66  C   UNL A   1      47.243  28.334  25.356  1.00  0.00     0.031 A 
ATOM     67  C   UNL A   1      48.081  27.879  27.566  1.00  0.00     0.131 A 
ATOM     68  C   UNL A   1      48.414  27.775  24.824  1.00  0.00     0.055 A 
ATOM     69  C   UNL A   1      49.284  27.411  27.034  1.00  0.00     0.041 A 
ATOM     70  F   UNL A   1      47.941  27.847  28.902  1.00  0.00    -0.206 F 
ATOM     71  C   UNL A   1      49.450  27.341  25.654  1.00  0.00     0.022 A 
BRANCH  68  72
ATOM     72  S   UNL A   1      48.495  27.473  23.037  1.00  0.00     0.124 S 
ATOM     73  O   UNL A   1      49.783  28.077  22.697  1.00  0.00    -0.237 OA
ATOM     74  O   UNL A   1      48.431  26.019  22.959  1.00  0.00    -0.237 OA
ATOM     75  O   UNL A   1      47.328  28.181  22.516  1.00  0.00    -0.744 OA
ENDBRANCH  68  72
ENDBRANCH  51  65
BRANCH  52  76
ATOM     76  C   UNL A   1      38.305  30.919  30.970  1.00  0.00     0.023 A 
ATOM     77  C   UNL A   1      37.282  31.566  30.257  1.00  0.00     0.031 A 
ATOM     78  C   UNL A   1      38.105  30.692  32.345  1.00  0.00     0.131 A 
ATOM     79  C   UNL A   1      36.135  32.016  30.930  1.00  0.00     0.055 A 
ATOM     80  C   UNL A   1      36.934  31.086  32.996  1.00  0.00     0.041 A 
ATOM     81  F   UNL A   1      39.047  30.075  33.076  1.00  0.00    -0.206 F 
ATOM     82  C   UNL A   1      35.947  31.767  32.291  1.00  0.00     0.022 A 
BRANCH  79  83
ATOM     83  S   UNL A   1      34.933  33.026  30.020  1.00  0.00     0.124 S 
ATOM     84  O   UNL A   1      34.377  32.053  29.086  1.00  0.00    -0.237 OA
ATOM     85  O   UNL A   1      34.045  33.475  31.086  1.00  0.00    -0.237 OA
ATOM     86  O   UNL A   1      35.757  34.072  29.415  1.00  0.00    -0.744 OA
ENDBRANCH  79  83
ENDBRANCH  52  76
BRANCH  64  87
ATOM     87  C   UNL A   1      44.299  34.312  29.845  1.00  0.00     0.023 A 
ATOM     88  C   UNL A   1      44.164  35.315  28.870  1.00  0.00     0.031 A 
ATOM     89  C   UNL A   1      44.866  34.667  31.083  1.00  0.00     0.131 A 
ATOM     90  C   UNL A   1      44.657  36.605  29.123  1.00  0.00     0.055 A 
ATOM     91  C   UNL A   1      45.285  35.969  31.355  1.00  0.00     0.041 A 
ATOM     92  F   UNL A   1      45.024  33.750  32.052  1.00  0.00    -0.206 F 
ATOM     93  C   UNL A   1      45.199  36.943  30.366  1.00  0.00     0.022 A 
BRANCH  90  94
ATOM     94  S   UNL A   1      44.700  37.802  27.760  1.00  0.00     0.124 S 
ATOM     95  O   UNL A   1      45.504  37.100  26.765  1.00  0.00    -0.237 OA
ATOM     96  O   UNL A   1      43.285  37.959  27.440  1.00  0.00    -0.237 OA
ATOM     97  O   UNL A   1      45.335  38.977  28.355  1.00  0.00    -0.744 OA
ENDBRANCH  90  94
ENDBRANCH  64  87
ENDBRANCH  38  39
ENDBRANCH  30  33
ENDBRANCH  28  29
ENDBRANCH  27  28
ENDBRANCH   1  27
TORSDOF 17
ENDMDL
MODEL 2
REMARK VINA RESULT:     -11.8      4.616      9.686
REMARK SMILES CC1(C)[C@H](C(=O)Nc2ccccc2C(N)=O)[C@@H]1C(=O)NCCCCNC(=O)c1ccc(-c2c3nc(c(-c4cc(S(=O)(=O)[O-])ccc4F)c4ccc([nH]4)c(-c4cc(S(=O)(=O)[O-])ccc4F)c4nc(c(-c5cc(S(=O)(=O)[O-])ccc5F)c5ccc2[nH]5)C=C4)C=C3)cc1
REMARK SMILES IDX 22 1 21 2 20 3 18 4 19 5 17 7 1 8 2 9 3 10 4 11 5 12 6 13
REMARK SMILES IDX 7 14 8 16 9 17 13 18 10 19 12 20 11 21 14 22 15 23 16 24
REMARK SMILES IDX 23 27 24 28 25 29 26 30 27 32 28 33 29 34 90 35 30 36 89 37
REMARK SMILES IDX 31 38 32 39 33 40 83 41 34 42 88 43 82 44 84 45 35 46 87 47
REMARK SMILES IDX 81 48 80 49 36 51 68 52 48 53 67 54 49 55 52 56 66 57 85 58
REMARK SMILES IDX 50 59 51 60 65 62 86 63 53 64 37 65 38 66 46 67 39 68 45 69
REMARK SMILES IDX 47 70 44 71 40 72 41 73 42 74 43 75 69 76 70 77 78 78 71 79
REMARK SMILES IDX 77 80 79 81 76 82 72 83 73 84 74 85 75 86 54 87 55 88 63 89
REMARK SMILES IDX 56 90 62 91 64 92 61 93 57 94 58 95 59 96 60 97
REMARK H PARENT 20 6 7 15 15 25 15 26 25 31 84 50 52 61
REMARK Flexibility Score: inf
ROOT
ATOM      1  C   UNL A   1      33.616  29.087  23.850  1.00  0.00     0.023 C 
ENDROOT
BRANCH   1   2
ATOM      2  C   UNL A   1      32.666  28.641  22.746  1.00  0.00     0.116 C 
BRANCH   2   3
ATOM      3  N   UNL A   1      33.118  27.430  22.105  1.00  0.00    -0.356 N 
ATOM      4  C   UNL A   1      33.008  26.146  22.547  1.00  0.00     0.224 C 
ATOM      5  O   UNL A   1      33.662  25.273  21.987  1.00  0.00    -0.275 OA
ATOM      6  H   UNL A   1      33.565  27.547  21.235  1.00  0.00     0.163 HD
BRANCH   4   7
ATOM      7  C   UNL A   1      32.163  25.820  23.737  1.00  0.00     0.098 C 
ATOM      8  C   UNL A   1      32.232  26.008  26.360  1.00  0.00     0.013 C 
ATOM      9  C   UNL A   1      32.867  25.507  25.069  1.00  0.00    -0.011 C 
ATOM     10  C   UNL A   1      34.358  25.703  25.094  1.00  0.00     0.013 C 
ATOM     11  C   UNL A   1      32.029  24.447  24.383  1.00  0.00     0.098 C 
BRANCH  11  12
ATOM     12  C   UNL A   1      32.113  23.223  23.547  1.00  0.00     0.228 C 
ATOM     13  O   UNL A   1      31.129  22.996  22.835  1.00  0.00    -0.274 OA
ATOM     14  N   UNL A   1      33.191  22.413  23.347  1.00  0.00    -0.325 N 
ATOM     15  H   UNL A   1      33.095  21.803  22.581  1.00  0.00     0.169 HD
BRANCH  14  16
ATOM     16  C   UNL A   1      34.398  22.285  24.020  1.00  0.00     0.053 A 
ATOM     17  C   UNL A   1      35.489  22.900  23.387  1.00  0.00     0.027 A 
ATOM     18  C   UNL A   1      34.579  21.590  25.224  1.00  0.00     0.063 A 
ATOM     19  C   UNL A   1      36.723  22.968  24.021  1.00  0.00     0.002 A 
ATOM     20  C   UNL A   1      35.838  21.649  25.847  1.00  0.00     0.016 A 
ATOM     21  C   UNL A   1      36.889  22.368  25.265  1.00  0.00     0.001 A 
BRANCH  18  22
ATOM     22  C   UNL A   1      33.494  20.733  25.790  1.00  0.00     0.250 C 
ATOM     23  N   UNL A   1      33.465  20.548  27.145  1.00  0.00    -0.366 N 
ATOM     24  O   UNL A   1      32.638  20.198  25.095  1.00  0.00    -0.269 OA
ATOM     25  H   UNL A   1      34.147  20.972  27.714  1.00  0.00     0.159 HD
ATOM     26  H   UNL A   1      32.761  19.991  27.551  1.00  0.00     0.159 HD
ENDBRANCH  18  22
ENDBRANCH  14  16
ENDBRANCH  11  12
ENDBRANCH   4   7
ENDBRANCH   2   3
ENDBRANCH   1   2
BRANCH   1  27
ATOM     27  C   UNL A   1      32.967  29.254  25.225  1.00  0.00     0.023 C 
BRANCH  27  28
ATOM     28  C   UNL A   1      33.931  29.496  26.380  1.00  0.00     0.116 C 
BRANCH  28  29
ATOM     29  N   UNL A   1      33.741  30.792  27.010  1.00  0.00    -0.352 N 
ATOM     30  C   UNL A   1      34.456  31.384  28.023  1.00  0.00     0.251 C 
ATOM     31  H   UNL A   1      32.989  31.323  26.660  1.00  0.00     0.163 HD
ATOM     32  O   UNL A   1      34.022  32.400  28.557  1.00  0.00    -0.269 OA
BRANCH  30  33
ATOM     33  C   UNL A   1      35.727  30.782  28.480  1.00  0.00     0.039 A 
ATOM     34  C   UNL A   1      36.926  31.221  27.914  1.00  0.00     0.014 A 
ATOM     35  C   UNL A   1      35.740  29.781  29.456  1.00  0.00     0.014 A 
ATOM     36  C   UNL A   1      38.138  30.688  28.359  1.00  0.00     0.010 A 
ATOM     37  C   UNL A   1      36.951  29.323  29.966  1.00  0.00     0.010 A 
ATOM     38  C   UNL A   1      38.163  29.751  29.406  1.00  0.00    -0.014 A 
BRANCH  38  39
ATOM     39  C   UNL A   1      39.446  29.163  29.878  1.00  0.00     0.031 A 
ATOM     40  C   UNL A   1      40.147  29.760  31.071  1.00  0.00     0.074 A 
ATOM     41  C   UNL A   1      39.992  28.118  29.224  1.00  0.00     0.049 A 
ATOM     42  N   UNL A   1      41.286  29.421  31.620  1.00  0.00    -0.248 NA
ATOM     43  C   UNL A   1      39.497  30.915  31.711  1.00  0.00     0.031 C 
ATOM     44  C   UNL A   1      39.428  27.478  28.034  1.00  0.00     0.029 A 
ATOM     45  N   UNL A   1      41.140  27.406  29.469  1.00  0.00    -0.354 N 
ATOM     46  C   UNL A   1      41.491  30.325  32.658  1.00  0.00     0.074 A 
ATOM     47  C   UNL A   1      40.401  31.274  32.607  1.00  0.00     0.031 C 
ATOM     48  C   UNL A   1      40.211  26.446  27.678  1.00  0.00     0.029 A 
ATOM     49  C   UNL A   1      41.354  26.376  28.582  1.00  0.00     0.049 A 
ATOM     50  H   UNL A   1      41.753  27.613  30.211  1.00  0.00     0.167 HD
ATOM     51  C   UNL A   1      42.476  30.343  33.589  1.00  0.00     0.034 A 
ATOM     52  C   UNL A   1      42.360  25.481  28.505  1.00  0.00     0.034 A 
ATOM     53  C   UNL A   1      43.548  29.378  33.634  1.00  0.00     0.049 A 
ATOM     54  C   UNL A   1      43.458  25.532  29.540  1.00  0.00     0.074 A 
ATOM     55  C   UNL A   1      44.578  29.277  34.553  1.00  0.00     0.029 A 
ATOM     56  N   UNL A   1      43.731  28.348  32.719  1.00  0.00    -0.354 N 
ATOM     57  N   UNL A   1      43.614  26.367  30.542  1.00  0.00    -0.248 NA
ATOM     58  C   UNL A   1      44.503  24.507  29.444  1.00  0.00     0.031 C 
ATOM     59  C   UNL A   1      45.424  28.237  34.150  1.00  0.00     0.029 A 
ATOM     60  C   UNL A   1      44.870  27.625  33.037  1.00  0.00     0.049 A 
ATOM     61  H   UNL A   1      43.138  28.160  31.956  1.00  0.00     0.167 HD
ATOM     62  C   UNL A   1      44.750  25.935  31.222  1.00  0.00     0.074 A 
ATOM     63  C   UNL A   1      45.229  24.762  30.522  1.00  0.00     0.031 C 
ATOM     64  C   UNL A   1      45.339  26.456  32.330  1.00  0.00     0.034 A 
BRANCH  51  65
ATOM     65  C   UNL A   1      42.446  31.455  34.612  1.00  0.00     0.023 A 
ATOM     66  C   UNL A   1      41.495  31.483  35.650  1.00  0.00     0.031 A 
ATOM     67  C   UNL A   1      43.357  32.523  34.533  1.00  0.00     0.131 A 
ATOM     68  C   UNL A   1      41.422  32.591  36.506  1.00  0.00     0.055 A 
ATOM     69  C   UNL A   1      43.339  33.579  35.447  1.00  0.00     0.041 A 
ATOM     70  F   UNL A   1      44.274  32.569  33.552  1.00  0.00    -0.206 F 
ATOM     71  C   UNL A   1      42.357  33.625  36.431  1.00  0.00     0.022 A 
BRANCH  68  72
ATOM     72  S   UNL A   1      39.989  32.739  37.609  1.00  0.00     0.124 S 
ATOM     73  O   UNL A   1      39.147  31.639  37.144  1.00  0.00    -0.237 OA
ATOM     74  O   UNL A   1      40.588  32.571  38.928  1.00  0.00    -0.237 OA
ATOM     75  O   UNL A   1      39.471  34.074  37.322  1.00  0.00    -0.744 OA
ENDBRANCH  68  72
ENDBRANCH  51  65
BRANCH  52  76
ATOM     76  C   UNL A   1      42.383  24.456  27.420  1.00  0.00     0.023 A 
ATOM     77  C   UNL A   1      41.747  23.215  27.579  1.00  0.00     0.031 A 
ATOM     78  C   UNL A   1      43.091  24.683  26.225  1.00  0.00     0.131 A 
ATOM     79  C   UNL A   1      41.880  22.227  26.590  1.00  0.00     0.055 A 
ATOM     80  C   UNL A   1      43.167  23.720  25.217  1.00  0.00     0.041 A 
ATOM     81  F   UNL A   1      43.716  25.853  26.017  1.00  0.00    -0.206 F 
ATOM     82  C   UNL A   1      42.572  22.476  25.404  1.00  0.00     0.022 A 
BRANCH  79  83
ATOM     83  S   UNL A   1      41.219  20.570  26.922  1.00  0.00     0.124 S 
ATOM     84  O   UNL A   1      40.132  20.485  25.954  1.00  0.00    -0.237 OA
ATOM     85  O   UNL A   1      42.379  19.723  26.663  1.00  0.00    -0.237 OA
ATOM     86  O   UNL A   1      40.804  20.644  28.322  1.00  0.00    -0.744 OA
ENDBRANCH  79  83
ENDBRANCH  52  76
BRANCH  64  87
ATOM     87  C   UNL A   1      46.527  25.710  32.895  1.00  0.00     0.023 A 
ATOM     88  C   UNL A   1      47.832  25.904  32.411  1.00  0.00     0.031 A 
ATOM     89  C   UNL A   1      46.338  24.769  33.925  1.00  0.00     0.131 A 
ATOM     90  C   UNL A   1      48.884  25.116  32.904  1.00  0.00     0.055 A 
ATOM     91  C   UNL A   1      47.401  24.043  34.464  1.00  0.00     0.041 A 
ATOM     92  F   UNL A   1      45.114  24.538  34.426  1.00  0.00    -0.206 F 
ATOM     93  C   UNL A   1      48.680  24.201  33.940  1.00  0.00     0.022 A 
BRANCH  90  94
ATOM     94  S   UNL A   1      50.499  25.210  32.082  1.00  0.00     0.124 S 
ATOM     95  O   UNL A   1      50.203  26.052  30.927  1.00  0.00    -0.237 OA
ATOM     96  O   UNL A   1      51.337  25.814  33.113  1.00  0.00    -0.237 OA
ATOM     97  O   UNL A   1      50.807  23.816  31.771  1.00  0.00    -0.744 OA
ENDBRANCH  90  94
ENDBRANCH  64  87
ENDBRANCH  38  39
ENDBRANCH  30  33
ENDBRANCH  28  29
ENDBRANCH  27  28
ENDBRANCH   1  27
TORSDOF 17
ENDMDL
MODEL 3
REMARK VINA RESULT:     -11.6      5.593      8.605
REMARK SMILES CC1(C)[C@H](C(=O)Nc2ccccc2C(N)=O)[C@@H]1C(=O)NCCCCNC(=O)c1ccc(-c2c3nc(c(-c4cc(S(=O)(=O)[O-])ccc4F)c4ccc([nH]4)c(-c4cc(S(=O)(=O)[O-])ccc4F)c4nc(c(-c5cc(S(=O)(=O)[O-])ccc5F)c5ccc2[nH]5)C=C4)C=C3)cc1
REMARK SMILES IDX 22 1 21 2 20 3 18 4 19 5 17 7 1 8 2 9 3 10 4 11 5 12 6 13
REMARK SMILES IDX 7 14 8 16 9 17 13 18 10 19 12 20 11 21 14 22 15 23 16 24
REMARK SMILES IDX 23 27 24 28 25 29 26 30 27 32 28 33 29 34 90 35 30 36 89 37
REMARK SMILES IDX 31 38 32 39 33 40 83 41 34 42 88 43 82 44 84 45 35 46 87 47
REMARK SMILES IDX 81 48 80 49 36 51 68 52 48 53 67 54 49 55 52 56 66 57 85 58
REMARK SMILES IDX 50 59 51 60 65 62 86 63 53 64 37 65 38 66 46 67 39 68 45 69
REMARK SMILES IDX 47 70 44 71 40 72 41 73 42 74 43 75 69 76 70 77 78 78 71 79
REMARK SMILES IDX 77 80 79 81 76 82 72 83 73 84 74 85 75 86 54 87 55 88 63 89
REMARK SMILES IDX 56 90 62 91 64 92 61 93 57 94 58 95 59 96 60 97
REMARK H PARENT 20 6 7 15 15 25 15 26 25 31 84 50 52 61
REMARK Flexibility Score: inf
ROOT
ATOM      1  C   UNL A   1      31.569  30.608  26.578  1.00  0.00     0.023 C 
ENDROOT
BRANCH   1   2
ATOM      2  C   UNL A   1      31.537  30.260  25.096  1.00  0.00     0.116 C 
BRANCH   2   3
ATOM      3  N   UNL A   1      32.778  29.673  24.654  1.00  0.00    -0.356 N 
ATOM      4  C   UNL A   1      32.964  28.580  23.862  1.00  0.00     0.224 C 
ATOM      5  O   UNL A   1      34.085  28.088  23.792  1.00  0.00    -0.275 OA
ATOM      6  H   UNL A   1      33.598  30.120  24.966  1.00  0.00     0.163 HD
BRANCH   4   7
ATOM      7  C   UNL A   1      31.809  27.950  23.151  1.00  0.00     0.098 C 
ATOM      8  C   UNL A   1      29.498  26.813  23.690  1.00  0.00     0.013 C 
ATOM      9  C   UNL A   1      31.010  26.857  23.883  1.00  0.00    -0.011 C 
ATOM     10  C   UNL A   1      31.372  26.620  25.323  1.00  0.00     0.013 C 
ATOM     11  C   UNL A   1      31.766  26.525  22.613  1.00  0.00     0.098 C 
BRANCH  11  12
ATOM     12  C   UNL A   1      33.006  25.888  22.101  1.00  0.00     0.228 C 
ATOM     13  O   UNL A   1      33.374  26.262  20.983  1.00  0.00    -0.274 OA
ATOM     14  N   UNL A   1      33.869  25.072  22.768  1.00  0.00    -0.325 N 
ATOM     15  H   UNL A   1      34.738  24.957  22.319  1.00  0.00     0.169 HD
BRANCH  14  16
ATOM     16  C   UNL A   1      33.756  24.370  23.960  1.00  0.00     0.053 A 
ATOM     17  C   UNL A   1      34.771  24.632  24.892  1.00  0.00     0.027 A 
ATOM     18  C   UNL A   1      32.746  23.444  24.256  1.00  0.00     0.063 A 
ATOM     19  C   UNL A   1      34.700  24.105  26.176  1.00  0.00     0.002 A 
ATOM     20  C   UNL A   1      32.695  22.902  25.552  1.00  0.00     0.016 A 
ATOM     21  C   UNL A   1      33.646  23.263  26.514  1.00  0.00     0.001 A 
BRANCH  18  22
ATOM     22  C   UNL A   1      31.798  22.973  23.202  1.00  0.00     0.250 C 
ATOM     23  N   UNL A   1      32.278  22.129  22.238  1.00  0.00    -0.366 N 
ATOM     24  O   UNL A   1      30.620  23.307  23.171  1.00  0.00    -0.269 OA
ATOM     25  H   UNL A   1      33.223  21.854  22.253  1.00  0.00     0.159 HD
ATOM     26  H   UNL A   1      31.678  21.798  21.531  1.00  0.00     0.159 HD
ENDBRANCH  18  22
ENDBRANCH  14  16
ENDBRANCH  11  12
ENDBRANCH   4   7
ENDBRANCH   2   3
ENDBRANCH   1   2
BRANCH   1  27
ATOM     27  C   UNL A   1      31.466  32.102  26.889  1.00  0.00     0.023 C 
BRANCH  27  28
ATOM     28  C   UNL A   1      32.788  32.805  27.177  1.00  0.00     0.116 C 
BRANCH  28  29
ATOM     29  N   UNL A   1      32.608  34.161  27.666  1.00  0.00    -0.352 N 
ATOM     30  C   UNL A   1      33.197  34.787  28.739  1.00  0.00     0.251 C 
ATOM     31  H   UNL A   1      31.973  34.712  27.155  1.00  0.00     0.163 HD
ATOM     32  O   UNL A   1      32.770  35.875  29.114  1.00  0.00    -0.269 OA
BRANCH  30  33
ATOM     33  C   UNL A   1      34.320  34.139  29.449  1.00  0.00     0.039 A 
ATOM     34  C   UNL A   1      35.628  34.463  29.086  1.00  0.00     0.014 A 
ATOM     35  C   UNL A   1      34.087  33.205  30.464  1.00  0.00     0.014 A 
ATOM     36  C   UNL A   1      36.700  33.885  29.770  1.00  0.00     0.010 A 
ATOM     37  C   UNL A   1      35.152  32.707  31.207  1.00  0.00     0.010 A 
ATOM     38  C   UNL A   1      36.472  33.020  30.853  1.00  0.00    -0.014 A 
BRANCH  38  39
ATOM     39  C   UNL A   1      37.605  32.384  31.578  1.00  0.00     0.031 A 
ATOM     40  C   UNL A   1      38.361  31.250  30.935  1.00  0.00     0.074 A 
ATOM     41  C   UNL A   1      37.936  32.803  32.816  1.00  0.00     0.049 A 
ATOM     42  N   UNL A   1      39.353  30.540  31.408  1.00  0.00    -0.248 NA
ATOM     43  C   UNL A   1      37.919  30.837  29.593  1.00  0.00     0.031 C 
ATOM     44  C   UNL A   1      37.256  33.865  33.559  1.00  0.00     0.029 A 
ATOM     45  N   UNL A   1      38.932  32.390  33.667  1.00  0.00    -0.354 N 
ATOM     46  C   UNL A   1      39.644  29.594  30.430  1.00  0.00     0.074 A 
ATOM     47  C   UNL A   1      38.670  29.770  29.376  1.00  0.00     0.031 C 
ATOM     48  C   UNL A   1      37.877  34.046  34.736  1.00  0.00     0.029 A 
ATOM     49  C   UNL A   1      38.969  33.085  34.854  1.00  0.00     0.049 A 
ATOM     50  H   UNL A   1      39.559  31.665  33.449  1.00  0.00     0.167 HD
ATOM     51  C   UNL A   1      40.650  28.685  30.396  1.00  0.00     0.034 A 
ATOM     52  C   UNL A   1      39.789  32.960  35.918  1.00  0.00     0.034 A 
ATOM     53  C   UNL A   1      41.623  28.533  31.450  1.00  0.00     0.049 A 
ATOM     54  C   UNL A   1      40.890  31.928  35.867  1.00  0.00     0.074 A 
ATOM     55  C   UNL A   1      42.706  27.673  31.506  1.00  0.00     0.029 A 
ATOM     56  N   UNL A   1      41.629  29.257  32.637  1.00  0.00    -0.354 N 
ATOM     57  N   UNL A   1      41.178  31.069  34.915  1.00  0.00    -0.248 NA
ATOM     58  C   UNL A   1      41.787  31.862  37.026  1.00  0.00     0.031 C 
ATOM     59  C   UNL A   1      43.320  27.823  32.755  1.00  0.00     0.029 A 
ATOM     60  C   UNL A   1      42.681  28.844  33.440  1.00  0.00     0.049 A 
ATOM     61  H   UNL A   1      40.982  29.960  32.873  1.00  0.00     0.167 HD
ATOM     62  C   UNL A   1      42.320  30.396  35.344  1.00  0.00     0.074 A 
ATOM     63  C   UNL A   1      42.671  30.958  36.632  1.00  0.00     0.031 C 
ATOM     64  C   UNL A   1      43.021  29.411  34.725  1.00  0.00     0.034 A 
BRANCH  51  65
ATOM     65  C   UNL A   1      40.725  27.776  29.191  1.00  0.00     0.023 A 
ATOM     66  C   UNL A   1      41.664  27.983  28.163  1.00  0.00     0.031 A 
ATOM     67  C   UNL A   1      39.825  26.706  29.046  1.00  0.00     0.131 A 
ATOM     68  C   UNL A   1      41.624  27.193  27.005  1.00  0.00     0.055 A 
ATOM     69  C   UNL A   1      39.851  25.863  27.933  1.00  0.00     0.041 A 
ATOM     70  F   UNL A   1      38.888  26.469  29.979  1.00  0.00    -0.206 F 
ATOM     71  C   UNL A   1      40.744  26.115  26.896  1.00  0.00     0.022 A 
BRANCH  68  72
ATOM     72  S   UNL A   1      42.625  27.697  25.578  1.00  0.00     0.124 S 
ATOM     73  O   UNL A   1      42.575  26.495  24.748  1.00  0.00    -0.237 OA
ATOM     74  O   UNL A   1      41.896  28.854  25.073  1.00  0.00    -0.237 OA
ATOM     75  O   UNL A   1      43.933  27.987  26.162  1.00  0.00    -0.744 OA
ENDBRANCH  68  72
ENDBRANCH  51  65
BRANCH  52  76
ATOM     76  C   UNL A   1      39.615  33.828  37.119  1.00  0.00     0.023 A 
ATOM     77  C   UNL A   1      38.977  33.351  38.275  1.00  0.00     0.031 A 
ATOM     78  C   UNL A   1      40.038  35.171  37.109  1.00  0.00     0.131 A 
ATOM     79  C   UNL A   1      38.725  34.221  39.347  1.00  0.00     0.055 A 
ATOM     80  C   UNL A   1      39.841  36.015  38.203  1.00  0.00     0.041 A 
ATOM     81  F   UNL A   1      40.657  35.680  36.032  1.00  0.00    -0.206 F 
ATOM     82  C   UNL A   1      39.166  35.546  39.326  1.00  0.00     0.022 A 
BRANCH  79  83
ATOM     83  S   UNL A   1      37.718  33.624  40.734  1.00  0.00     0.124 S 
ATOM     84  O   UNL A   1      38.689  32.838  41.487  1.00  0.00    -0.237 OA
ATOM     85  O   UNL A   1      37.283  34.872  41.352  1.00  0.00    -0.237 OA
ATOM     86  O   UNL A   1      36.663  32.853  40.080  1.00  0.00    -0.744 OA
ENDBRANCH  79  83
ENDBRANCH  52  76
BRANCH  64  87
ATOM     87  C   UNL A   1      44.283  28.930  35.405  1.00  0.00     0.023 A 
ATOM     88  C   UNL A   1      44.277  27.874  36.333  1.00  0.00     0.031 A 
ATOM     89  C   UNL A   1      45.511  29.561  35.132  1.00  0.00     0.131 A 
ATOM     90  C   UNL A   1      45.459  27.531  37.008  1.00  0.00     0.055 A 
ATOM     91  C   UNL A   1      46.697  29.165  35.750  1.00  0.00     0.041 A 
ATOM     92  F   UNL A   1      45.578  30.578  34.257  1.00  0.00    -0.206 F 
ATOM     93  C   UNL A   1      46.672  28.156  36.708  1.00  0.00     0.022 A 
BRANCH  90  94
ATOM     94  S   UNL A   1      45.365  26.345  38.377  1.00  0.00     0.124 S 
ATOM     95  O   UNL A   1      45.502  25.068  37.682  1.00  0.00    -0.237 OA
ATOM     96  O   UNL A   1      46.495  26.742  39.211  1.00  0.00    -0.237 OA
ATOM     97  O   UNL A   1      44.047  26.596  38.959  1.00  0.00    -0.744 OA
ENDBRANCH  90  94
ENDBRANCH  64  87
ENDBRANCH  38  39
ENDBRANCH  30  33
ENDBRANCH  28  29
ENDBRANCH  27  28
ENDBRANCH   1  27
TORSDOF 17
ENDMDL
