MODEL 1
REMARK VINA RESULT:     -12.2      0.000      0.000
REMARK SMILES O=C(Cc1ccccc1Nc1c(Cl)cccc1C(F)(F)F)NCCCCNC(=O)c1ccc(-c2c3nc(c(-c4cc(S(=O)(=O)[O-])ccc4F)c4ccc([nH]4)c(-c4cc(S(=O)(=O)[O-])ccc4F)c4nc(c(-c5cc(S(=O)(=O)[O-])ccc5F)c5ccc2[nH]5)C=C4)C=C3)cc1
REMARK SMILES IDX 24 1 23 2 22 3 1 4 2 5 3 7 4 8 5 9 9 10 6 11 8 12 7 13 10 14
REMARK SMILES IDX 11 16 12 17 17 18 13 19 14 20 16 21 15 22 18 23 19 24 20 25
REMARK SMILES IDX 21 26 25 27 26 28 27 29 28 30 29 32 30 33 31 34 92 35 32 36
REMARK SMILES IDX 91 37 33 38 34 39 35 40 85 41 36 42 90 43 84 44 86 45 37 46
REMARK SMILES IDX 89 47 83 48 82 49 38 51 70 52 50 53 69 54 51 55 54 56 68 57
REMARK SMILES IDX 87 58 52 59 53 60 67 62 88 63 55 64 39 65 40 66 48 67 41 68
REMARK SMILES IDX 47 69 49 70 46 71 42 72 43 73 44 74 45 75 71 76 72 77 80 78
REMARK SMILES IDX 73 79 79 80 81 81 78 82 74 83 75 84 76 85 77 86 56 87 57 88
REMARK SMILES IDX 65 89 58 90 64 91 66 92 63 93 59 94 60 95 61 96 62 97
REMARK H PARENT 22 6 10 15 27 31 86 50 54 61
REMARK Flexibility Score: inf
ROOT
ATOM      1  C   UNL A   1      34.635  22.107  25.367  1.00  0.00     0.023 C 
ENDROOT
BRANCH   1   2
ATOM      2  C   UNL A   1      35.168  23.475  25.783  1.00  0.00     0.116 C 
BRANCH   2   3
ATOM      3  N   UNL A   1      34.685  24.541  24.928  1.00  0.00    -0.356 N 
ATOM      4  O   UNL A   1      32.769  24.970  26.125  1.00  0.00    -0.275 OA
ATOM      5  C   UNL A   1      33.531  25.246  25.202  1.00  0.00     0.224 C 
ATOM      6  H   UNL A   1      35.200  24.771  24.122  1.00  0.00     0.163 HD
BRANCH   5   7
ATOM      7  C   UNL A   1      33.286  26.421  24.271  1.00  0.00     0.137 C 
BRANCH   7   8
ATOM      8  C   UNL A   1      32.987  27.754  24.940  1.00  0.00    -0.015 A 
ATOM      9  C   UNL A   1      33.847  28.288  25.922  1.00  0.00     0.006 A 
ATOM     10  C   UNL A   1      31.853  28.509  24.549  1.00  0.00     0.042 A 
ATOM     11  C   UNL A   1      33.606  29.532  26.502  1.00  0.00     0.000 A 
ATOM     12  C   UNL A   1      31.611  29.742  25.180  1.00  0.00     0.026 A 
ATOM     13  C   UNL A   1      32.482  30.255  26.138  1.00  0.00     0.002 A 
BRANCH  10  14
ATOM     14  N   UNL A   1      31.022  28.063  23.495  1.00  0.00    -0.354 N 
ATOM     15  H   UNL A   1      31.503  27.752  22.695  1.00  0.00     0.167 HD
BRANCH  14  16
ATOM     16  C   UNL A   1      29.611  27.991  23.403  1.00  0.00     0.070 A 
ATOM     17  C   UNL A   1      28.964  26.843  23.924  1.00  0.00     0.065 A 
ATOM     18  C   UNL A   1      28.807  29.030  22.893  1.00  0.00     0.080 A 
ATOM     19  Cl  UNL A   1      29.888  25.502  24.522  1.00  0.00    -0.082 Cl
ATOM     20  C   UNL A   1      27.571  26.746  23.989  1.00  0.00     0.023 A 
ATOM     21  C   UNL A   1      27.398  28.923  22.991  1.00  0.00     0.015 A 
ATOM     22  C   UNL A   1      26.787  27.797  23.537  1.00  0.00     0.002 A 
BRANCH  18  23
ATOM     23  C   UNL A   1      29.346  30.265  22.201  1.00  0.00     0.418 C 
ATOM     24  F   UNL A   1      29.518  31.297  23.082  1.00  0.00    -0.166 F 
ATOM     25  F   UNL A   1      30.579  30.057  21.659  1.00  0.00    -0.166 F 
ATOM     26  F   UNL A   1      28.562  30.779  21.216  1.00  0.00    -0.166 F 
ENDBRANCH  18  23
ENDBRANCH  14  16
ENDBRANCH  10  14
ENDBRANCH   7   8
ENDBRANCH   5   7
ENDBRANCH   2   3
ENDBRANCH   1   2
BRANCH   1  27
ATOM     27  C   UNL A   1      35.654  21.193  24.680  1.00  0.00     0.023 C 
BRANCH  27  28
ATOM     28  C   UNL A   1      37.113  21.619  24.815  1.00  0.00     0.116 C 
BRANCH  28  29
ATOM     29  N   UNL A   1      37.971  20.541  25.277  1.00  0.00    -0.352 N 
ATOM     30  C   UNL A   1      39.191  20.601  25.909  1.00  0.00     0.251 C 
ATOM     31  H   UNL A   1      37.628  19.632  25.112  1.00  0.00     0.163 HD
ATOM     32  O   UNL A   1      39.842  19.569  26.062  1.00  0.00    -0.269 OA
BRANCH  30  33
ATOM     33  C   UNL A   1      39.735  21.899  26.372  1.00  0.00     0.039 A 
ATOM     34  C   UNL A   1      40.901  21.905  27.143  1.00  0.00     0.014 A 
ATOM     35  C   UNL A   1      39.104  23.105  26.056  1.00  0.00     0.014 A 
ATOM     36  C   UNL A   1      41.471  23.121  27.532  1.00  0.00     0.010 A 
ATOM     37  C   UNL A   1      39.716  24.317  26.378  1.00  0.00     0.010 A 
ATOM     38  C   UNL A   1      40.909  24.339  27.117  1.00  0.00    -0.014 A 
BRANCH  38  39
ATOM     39  C   UNL A   1      41.559  25.640  27.440  1.00  0.00     0.031 A 
ATOM     40  C   UNL A   1      40.830  26.674  28.257  1.00  0.00     0.074 A 
ATOM     41  C   UNL A   1      42.784  25.915  26.947  1.00  0.00     0.049 A 
ATOM     42  N   UNL A   1      41.202  27.887  28.583  1.00  0.00    -0.248 NA
ATOM     43  C   UNL A   1      39.497  26.303  28.753  1.00  0.00     0.031 C 
ATOM     44  C   UNL A   1      43.582  25.010  26.115  1.00  0.00     0.029 A 
ATOM     45  N   UNL A   1      43.574  27.033  27.065  1.00  0.00    -0.354 N 
ATOM     46  C   UNL A   1      40.146  28.428  29.308  1.00  0.00     0.074 A 
ATOM     47  C   UNL A   1      39.097  27.430  29.322  1.00  0.00     0.031 C 
ATOM     48  C   UNL A   1      44.756  25.595  25.828  1.00  0.00     0.029 A 
ATOM     49  C   UNL A   1      44.777  26.936  26.403  1.00  0.00     0.049 A 
ATOM     50  H   UNL A   1      43.305  27.829  27.578  1.00  0.00     0.167 HD
ATOM     51  C   UNL A   1      40.067  29.636  29.922  1.00  0.00     0.034 A 
ATOM     52  C   UNL A   1      45.777  27.830  26.259  1.00  0.00     0.034 A 
ATOM     53  C   UNL A   1      41.126  30.616  29.905  1.00  0.00     0.049 A 
ATOM     54  C   UNL A   1      45.645  29.184  26.913  1.00  0.00     0.074 A 
ATOM     55  C   UNL A   1      41.171  31.845  30.542  1.00  0.00     0.029 A 
ATOM     56  N   UNL A   1      42.320  30.491  29.206  1.00  0.00    -0.354 N 
ATOM     57  N   UNL A   1      44.660  29.658  27.639  1.00  0.00    -0.248 NA
ATOM     58  C   UNL A   1      46.764  30.117  26.734  1.00  0.00     0.031 C 
ATOM     59  C   UNL A   1      42.349  32.495  30.161  1.00  0.00     0.029 A 
ATOM     60  C   UNL A   1      43.088  31.636  29.363  1.00  0.00     0.049 A 
ATOM     61  H   UNL A   1      42.584  29.703  28.677  1.00  0.00     0.167 HD
ATOM     62  C   UNL A   1      45.060  30.933  28.034  1.00  0.00     0.074 A 
ATOM     63  C   UNL A   1      46.380  31.144  27.476  1.00  0.00     0.031 C 
ATOM     64  C   UNL A   1      44.399  31.844  28.794  1.00  0.00     0.034 A 
BRANCH  51  65
ATOM     65  C   UNL A   1      38.777  29.974  30.634  1.00  0.00     0.023 A 
ATOM     66  C   UNL A   1      37.778  30.756  30.029  1.00  0.00     0.031 A 
ATOM     67  C   UNL A   1      38.550  29.521  31.946  1.00  0.00     0.131 A 
ATOM     68  C   UNL A   1      36.637  31.124  30.759  1.00  0.00     0.055 A 
ATOM     69  C   UNL A   1      37.373  29.817  32.636  1.00  0.00     0.041 A 
ATOM     70  F   UNL A   1      39.476  28.789  32.587  1.00  0.00    -0.206 F 
ATOM     71  C   UNL A   1      36.415  30.637  32.048  1.00  0.00     0.022 A 
BRANCH  68  72
ATOM     72  S   UNL A   1      35.524  32.371  30.055  1.00  0.00     0.124 S 
ATOM     73  O   UNL A   1      36.405  33.533  29.960  1.00  0.00    -0.237 OA
ATOM     74  O   UNL A   1      35.129  31.764  28.790  1.00  0.00    -0.237 OA
ATOM     75  O   UNL A   1      34.462  32.485  31.052  1.00  0.00    -0.744 OA
ENDBRANCH  68  72
ENDBRANCH  51  65
BRANCH  52  76
ATOM     76  C   UNL A   1      46.989  27.490  25.456  1.00  0.00     0.023 A 
ATOM     77  C   UNL A   1      47.106  27.899  24.118  1.00  0.00     0.031 A 
ATOM     78  C   UNL A   1      48.023  26.706  25.997  1.00  0.00     0.131 A 
ATOM     79  C   UNL A   1      48.204  27.478  23.351  1.00  0.00     0.055 A 
ATOM     80  C   UNL A   1      49.144  26.342  25.249  1.00  0.00     0.041 A 
ATOM     81  F   UNL A   1      47.962  26.286  27.272  1.00  0.00    -0.206 F 
ATOM     82  C   UNL A   1      49.231  26.717  23.912  1.00  0.00     0.022 A 
BRANCH  79  83
ATOM     83  S   UNL A   1      48.220  27.858  21.577  1.00  0.00     0.124 S 
ATOM     84  O   UNL A   1      48.572  26.566  21.000  1.00  0.00    -0.237 OA
ATOM     85  O   UNL A   1      46.852  28.312  21.352  1.00  0.00    -0.237 OA
ATOM     86  O   UNL A   1      49.245  28.894  21.462  1.00  0.00    -0.744 OA
ENDBRANCH  79  83
ENDBRANCH  52  76
BRANCH  64  87
ATOM     87  C   UNL A   1      45.120  33.134  29.109  1.00  0.00     0.023 A 
ATOM     88  C   UNL A   1      45.011  34.269  28.287  1.00  0.00     0.031 A 
ATOM     89  C   UNL A   1      45.940  33.222  30.249  1.00  0.00     0.131 A 
ATOM     90  C   UNL A   1      45.755  35.423  28.584  1.00  0.00     0.055 A 
ATOM     91  C   UNL A   1      46.623  34.395  30.577  1.00  0.00     0.041 A 
ATOM     92  F   UNL A   1      46.088  32.169  31.069  1.00  0.00    -0.206 F 
ATOM     93  C   UNL A   1      46.543  35.499  29.735  1.00  0.00     0.022 A 
BRANCH  90  94
ATOM     94  S   UNL A   1      45.758  36.788  27.390  1.00  0.00     0.124 S 
ATOM     95  O   UNL A   1      44.333  36.976  27.140  1.00  0.00    -0.237 OA
ATOM     96  O   UNL A   1      46.421  37.853  28.135  1.00  0.00    -0.237 OA
ATOM     97  O   UNL A   1      46.520  36.254  26.261  1.00  0.00    -0.744 OA
ENDBRANCH  90  94
ENDBRANCH  64  87
ENDBRANCH  38  39
ENDBRANCH  30  33
ENDBRANCH  28  29
ENDBRANCH  27  28
ENDBRANCH   1  27
TORSDOF 18
ENDMDL
MODEL 2
REMARK VINA RESULT:     -12.1      5.858      9.285
REMARK SMILES O=C(Cc1ccccc1Nc1c(Cl)cccc1C(F)(F)F)NCCCCNC(=O)c1ccc(-c2c3nc(c(-c4cc(S(=O)(=O)[O-])ccc4F)c4ccc([nH]4)c(-c4cc(S(=O)(=O)[O-])ccc4F)c4nc(c(-c5cc(S(=O)(=O)[O-])ccc5F)c5ccc2[nH]5)C=C4)C=C3)cc1
REMARK SMILES IDX 24 1 23 2 22 3 1 4 2 5 3 7 4 8 5 9 9 10 6 11 8 12 7 13 10 14
REMARK SMILES IDX 11 16 12 17 17 18 13 19 14 20 16 21 15 22 18 23 19 24 20 25
REMARK SMILES IDX 21 26 25 27 26 28 27 29 28 30 29 32 30 33 31 34 92 35 32 36
REMARK SMILES IDX 91 37 33 38 34 39 35 40 85 41 36 42 90 43 84 44 86 45 37 46
REMARK SMILES IDX 89 47 83 48 82 49 38 51 70 52 50 53 69 54 51 55 54 56 68 57
REMARK SMILES IDX 87 58 52 59 53 60 67 62 88 63 55 64 39 65 40 66 48 67 41 68
REMARK SMILES IDX 47 69 49 70 46 71 42 72 43 73 44 74 45 75 71 76 72 77 80 78
REMARK SMILES IDX 73 79 79 80 81 81 78 82 74 83 75 84 76 85 77 86 56 87 57 88
REMARK SMILES IDX 65 89 58 90 64 91 66 92 63 93 59 94 60 95 61 96 62 97
REMARK H PARENT 22 6 10 15 27 31 86 50 54 61
REMARK Flexibility Score: inf
ROOT
ATOM      1  C   UNL A   1      31.729  30.751  26.175  1.00  0.00     0.023 C 
ENDROOT
BRANCH   1   2
ATOM      2  C   UNL A   1      32.103  29.758  27.271  1.00  0.00     0.116 C 
BRANCH   2   3
ATOM      3  N   UNL A   1      32.463  28.457  26.742  1.00  0.00    -0.356 N 
ATOM      4  O   UNL A   1      34.735  28.812  26.736  1.00  0.00    -0.275 OA
ATOM      5  C   UNL A   1      33.773  28.067  26.562  1.00  0.00     0.224 C 
ATOM      6  H   UNL A   1      31.744  27.829  26.503  1.00  0.00     0.163 HD
BRANCH   5   7
ATOM      7  C   UNL A   1      33.936  26.615  26.145  1.00  0.00     0.137 C 
BRANCH   7   8
ATOM      8  C   UNL A   1      33.678  26.308  24.677  1.00  0.00    -0.015 A 
ATOM      9  C   UNL A   1      33.613  27.338  23.715  1.00  0.00     0.006 A 
ATOM     10  C   UNL A   1      33.544  24.965  24.243  1.00  0.00     0.042 A 
ATOM     11  C   UNL A   1      33.428  27.059  22.362  1.00  0.00     0.000 A 
ATOM     12  C   UNL A   1      33.316  24.716  22.879  1.00  0.00     0.026 A 
ATOM     13  C   UNL A   1      33.270  25.748  21.945  1.00  0.00     0.002 A 
BRANCH  10  14
ATOM     14  N   UNL A   1      33.707  23.897  25.155  1.00  0.00    -0.354 N 
ATOM     15  H   UNL A   1      33.264  24.026  26.024  1.00  0.00     0.167 HD
BRANCH  14  16
ATOM     16  C   UNL A   1      34.402  22.670  25.021  1.00  0.00     0.070 A 
ATOM     17  C   UNL A   1      35.785  22.646  25.330  1.00  0.00     0.065 A 
ATOM     18  C   UNL A   1      33.780  21.453  24.674  1.00  0.00     0.080 A 
ATOM     19  Cl  UNL A   1      36.629  24.112  25.716  1.00  0.00    -0.082 Cl
ATOM     20  C   UNL A   1      36.517  21.457  25.348  1.00  0.00     0.023 A 
ATOM     21  C   UNL A   1      34.534  20.256  24.722  1.00  0.00     0.015 A 
ATOM     22  C   UNL A   1      35.885  20.256  25.059  1.00  0.00     0.002 A 
BRANCH  18  23
ATOM     23  C   UNL A   1      32.343  21.332  24.209  1.00  0.00     0.418 C 
ATOM     24  F   UNL A   1      31.927  20.029  24.207  1.00  0.00    -0.166 F 
ATOM     25  F   UNL A   1      31.475  21.977  25.039  1.00  0.00    -0.166 F 
ATOM     26  F   UNL A   1      32.092  21.776  22.949  1.00  0.00    -0.166 F 
ENDBRANCH  18  23
ENDBRANCH  14  16
ENDBRANCH  10  14
ENDBRANCH   7   8
ENDBRANCH   5   7
ENDBRANCH   2   3
ENDBRANCH   1   2
BRANCH   1  27
ATOM     27  C   UNL A   1      31.547  32.198  26.643  1.00  0.00     0.023 C 
BRANCH  27  28
ATOM     28  C   UNL A   1      32.745  32.813  27.360  1.00  0.00     0.116 C 
BRANCH  28  29
ATOM     29  N   UNL A   1      32.508  34.187  27.771  1.00  0.00    -0.352 N 
ATOM     30  C   UNL A   1      33.091  34.912  28.783  1.00  0.00     0.251 C 
ATOM     31  H   UNL A   1      31.828  34.670  27.246  1.00  0.00     0.163 HD
ATOM     32  O   UNL A   1      32.626  36.011  29.083  1.00  0.00    -0.269 OA
BRANCH  30  33
ATOM     33  C   UNL A   1      34.249  34.366  29.530  1.00  0.00     0.039 A 
ATOM     34  C   UNL A   1      34.019  33.685  30.727  1.00  0.00     0.014 A 
ATOM     35  C   UNL A   1      35.555  34.525  29.060  1.00  0.00     0.014 A 
ATOM     36  C   UNL A   1      35.089  33.101  31.413  1.00  0.00     0.010 A 
ATOM     37  C   UNL A   1      36.610  33.877  29.702  1.00  0.00     0.010 A 
ATOM     38  C   UNL A   1      36.389  33.154  30.885  1.00  0.00    -0.014 A 
BRANCH  38  39
ATOM     39  C   UNL A   1      37.523  32.454  31.551  1.00  0.00     0.031 A 
ATOM     40  C   UNL A   1      38.003  32.899  32.907  1.00  0.00     0.074 A 
ATOM     41  C   UNL A   1      38.158  31.452  30.909  1.00  0.00     0.049 A 
ATOM     42  N   UNL A   1      39.014  32.460  33.614  1.00  0.00    -0.248 NA
ATOM     43  C   UNL A   1      37.264  34.002  33.539  1.00  0.00     0.031 C 
ATOM     44  C   UNL A   1      37.811  30.946  29.579  1.00  0.00     0.029 A 
ATOM     45  N   UNL A   1      39.233  30.681  31.282  1.00  0.00    -0.354 N 
ATOM     46  C   UNL A   1      39.040  33.239  34.766  1.00  0.00     0.074 A 
ATOM     47  C   UNL A   1      37.980  34.216  34.632  1.00  0.00     0.031 C 
ATOM     48  C   UNL A   1      38.632  29.933  29.263  1.00  0.00     0.029 A 
ATOM     49  C   UNL A   1      39.602  29.749  30.338  1.00  0.00     0.049 A 
ATOM     50  H   UNL A   1      39.695  30.785  32.145  1.00  0.00     0.167 HD
ATOM     51  C   UNL A   1      39.859  33.137  35.843  1.00  0.00     0.034 A 
ATOM     52  C   UNL A   1      40.615  28.858  30.329  1.00  0.00     0.034 A 
ATOM     53  C   UNL A   1      40.907  32.151  35.965  1.00  0.00     0.049 A 
ATOM     54  C   UNL A   1      41.541  28.795  31.519  1.00  0.00     0.074 A 
ATOM     55  C   UNL A   1      41.754  31.924  37.036  1.00  0.00     0.029 A 
ATOM     56  N   UNL A   1      41.264  31.239  34.979  1.00  0.00    -0.354 N 
ATOM     57  N   UNL A   1      41.518  29.505  32.623  1.00  0.00    -0.248 NA
ATOM     58  C   UNL A   1      42.622  27.803  31.465  1.00  0.00     0.031 C 
ATOM     59  C   UNL A   1      42.673  30.936  36.668  1.00  0.00     0.029 A 
ATOM     60  C   UNL A   1      42.343  30.477  35.403  1.00  0.00     0.049 A 
ATOM     61  H   UNL A   1      40.815  31.146  34.108  1.00  0.00     0.167 HD
ATOM     62  C   UNL A   1      42.560  29.018  33.409  1.00  0.00     0.074 A 
ATOM     63  C   UNL A   1      43.180  27.946  32.657  1.00  0.00     0.031 C 
ATOM     64  C   UNL A   1      42.964  29.417  34.643  1.00  0.00     0.034 A 
BRANCH  51  65
ATOM     65  C   UNL A   1      39.673  34.138  36.960  1.00  0.00     0.023 A 
ATOM     66  C   UNL A   1      39.214  33.754  38.232  1.00  0.00     0.031 A 
ATOM     67  C   UNL A   1      39.943  35.502  36.745  1.00  0.00     0.131 A 
ATOM     68  C   UNL A   1      38.967  34.728  39.212  1.00  0.00     0.055 A 
ATOM     69  C   UNL A   1      39.779  36.455  37.752  1.00  0.00     0.041 A 
ATOM     70  F   UNL A   1      40.362  35.935  35.545  1.00  0.00    -0.206 F 
ATOM     71  C   UNL A   1      39.273  36.072  38.990  1.00  0.00     0.022 A 
BRANCH  68  72
ATOM     72  S   UNL A   1      38.098  34.233  40.725  1.00  0.00     0.124 S 
ATOM     73  O   UNL A   1      39.134  33.479  41.427  1.00  0.00    -0.237 OA
ATOM     74  O   UNL A   1      37.731  35.515  41.313  1.00  0.00    -0.237 OA
ATOM     75  O   UNL A   1      36.981  33.429  40.231  1.00  0.00    -0.744 OA
ENDBRANCH  68  72
ENDBRANCH  51  65
BRANCH  52  76
ATOM     76  C   UNL A   1      40.825  27.959  29.156  1.00  0.00     0.023 A 
ATOM     77  C   UNL A   1      41.809  28.244  28.196  1.00  0.00     0.031 A 
ATOM     78  C   UNL A   1      40.010  26.833  28.948  1.00  0.00     0.131 A 
ATOM     79  C   UNL A   1      41.918  27.444  27.047  1.00  0.00     0.055 A 
ATOM     80  C   UNL A   1      40.163  26.004  27.835  1.00  0.00     0.041 A 
ATOM     81  F   UNL A   1      39.052  26.514  29.835  1.00  0.00    -0.206 F 
ATOM     82  C   UNL A   1      41.113  26.317  26.869  1.00  0.00     0.022 A 
BRANCH  79  83
ATOM     83  S   UNL A   1      43.063  27.958  25.737  1.00  0.00     0.124 S 
ATOM     84  O   UNL A   1      43.784  29.048  26.386  1.00  0.00    -0.237 OA
ATOM     85  O   UNL A   1      43.823  26.735  25.501  1.00  0.00    -0.237 OA
ATOM     86  O   UNL A   1      42.175  28.358  24.648  1.00  0.00    -0.744 OA
ENDBRANCH  79  83
ENDBRANCH  52  76
BRANCH  64  87
ATOM     87  C   UNL A   1      44.101  28.651  35.278  1.00  0.00     0.023 A 
ATOM     88  C   UNL A   1      43.876  27.572  36.151  1.00  0.00     0.031 A 
ATOM     89  C   UNL A   1      45.433  29.017  35.013  1.00  0.00     0.131 A 
ATOM     90  C   UNL A   1      44.963  26.935  36.772  1.00  0.00     0.055 A 
ATOM     91  C   UNL A   1      46.511  28.335  35.579  1.00  0.00     0.041 A 
ATOM     92  F   UNL A   1      45.710  30.043  34.192  1.00  0.00    -0.206 F 
ATOM     93  C   UNL A   1      46.279  27.297  36.475  1.00  0.00     0.022 A 
BRANCH  90  94
ATOM     94  S   UNL A   1      44.630  25.694  38.052  1.00  0.00     0.124 S 
ATOM     95  O   UNL A   1      45.933  25.054  38.199  1.00  0.00    -0.237 OA
ATOM     96  O   UNL A   1      44.192  26.514  39.176  1.00  0.00    -0.237 OA
ATOM     97  O   UNL A   1      43.592  24.856  37.455  1.00  0.00    -0.744 OA
ENDBRANCH  90  94
ENDBRANCH  64  87
ENDBRANCH  38  39
ENDBRANCH  30  33
ENDBRANCH  28  29
ENDBRANCH  27  28
ENDBRANCH   1  27
TORSDOF 18
ENDMDL
MODEL 3
REMARK VINA RESULT:     -12.1      5.868     11.092
REMARK SMILES O=C(Cc1ccccc1Nc1c(Cl)cccc1C(F)(F)F)NCCCCNC(=O)c1ccc(-c2c3nc(c(-c4cc(S(=O)(=O)[O-])ccc4F)c4ccc([nH]4)c(-c4cc(S(=O)(=O)[O-])ccc4F)c4nc(c(-c5cc(S(=O)(=O)[O-])ccc5F)c5ccc2[nH]5)C=C4)C=C3)cc1
REMARK SMILES IDX 24 1 23 2 22 3 1 4 2 5 3 7 4 8 5 9 9 10 6 11 8 12 7 13 10 14
REMARK SMILES IDX 11 16 12 17 17 18 13 19 14 20 16 21 15 22 18 23 19 24 20 25
REMARK SMILES IDX 21 26 25 27 26 28 27 29 28 30 29 32 30 33 31 34 92 35 32 36
REMARK SMILES IDX 91 37 33 38 34 39 35 40 85 41 36 42 90 43 84 44 86 45 37 46
REMARK SMILES IDX 89 47 83 48 82 49 38 51 70 52 50 53 69 54 51 55 54 56 68 57
REMARK SMILES IDX 87 58 52 59 53 60 67 62 88 63 55 64 39 65 40 66 48 67 41 68
REMARK SMILES IDX 47 69 49 70 46 71 42 72 43 73 44 74 45 75 71 76 72 77 80 78
REMARK SMILES IDX 73 79 79 80 81 81 78 82 74 83 75 84 76 85 77 86 56 87 57 88
REMARK SMILES IDX 65 89 58 90 64 91 66 92 63 93 59 94 60 95 61 96 62 97
REMARK H PARENT 22 6 10 15 27 31 86 50 54 61
REMARK Flexibility Score: inf
ROOT
ATOM      1  C   UNL A   1      32.017  30.481  26.438  1.00  0.00     0.023 C 
ENDROOT
BRANCH   1   2
ATOM      2  C   UNL A   1      31.690  29.218  27.229  1.00  0.00     0.116 C 
BRANCH   2   3
ATOM      3  N   UNL A   1      32.272  28.028  26.641  1.00  0.00    -0.356 N 
ATOM      4  O   UNL A   1      34.435  28.807  26.596  1.00  0.00    -0.275 OA
ATOM      5  C   UNL A   1      33.626  27.900  26.415  1.00  0.00     0.224 C 
ATOM      6  H   UNL A   1      31.677  27.284  26.393  1.00  0.00     0.163 HD
BRANCH   5   7
ATOM      7  C   UNL A   1      34.047  26.521  25.936  1.00  0.00     0.137 C 
BRANCH   7   8
ATOM      8  C   UNL A   1      33.740  26.194  24.482  1.00  0.00    -0.015 A 
ATOM      9  C   UNL A   1      33.545  27.216  23.530  1.00  0.00     0.006 A 
ATOM     10  C   UNL A   1      33.692  24.846  24.050  1.00  0.00     0.042 A 
ATOM     11  C   UNL A   1      33.314  26.924  22.187  1.00  0.00     0.000 A 
ATOM     12  C   UNL A   1      33.416  24.579  22.697  1.00  0.00     0.026 A 
ATOM     13  C   UNL A   1      33.240  25.605  21.772  1.00  0.00     0.002 A 
BRANCH  10  14
ATOM     14  N   UNL A   1      33.986  23.793  24.947  1.00  0.00    -0.354 N 
ATOM     15  H   UNL A   1      34.503  24.060  25.741  1.00  0.00     0.167 HD
BRANCH  14  16
ATOM     16  C   UNL A   1      33.657  22.417  24.891  1.00  0.00     0.070 A 
ATOM     17  C   UNL A   1      34.689  21.493  24.589  1.00  0.00     0.065 A 
ATOM     18  C   UNL A   1      32.379  21.906  25.195  1.00  0.00     0.080 A 
ATOM     19  Cl  UNL A   1      36.274  22.049  24.155  1.00  0.00    -0.082 Cl
ATOM     20  C   UNL A   1      34.481  20.112  24.638  1.00  0.00     0.023 A 
ATOM     21  C   UNL A   1      32.196  20.503  25.264  1.00  0.00     0.015 A 
ATOM     22  C   UNL A   1      33.235  19.616  24.993  1.00  0.00     0.002 A 
BRANCH  18  23
ATOM     23  C   UNL A   1      31.150  22.762  25.426  1.00  0.00     0.418 C 
ATOM     24  F   UNL A   1      31.420  23.806  26.267  1.00  0.00    -0.166 F 
ATOM     25  F   UNL A   1      30.702  23.342  24.277  1.00  0.00    -0.166 F 
ATOM     26  F   UNL A   1      30.089  22.128  25.991  1.00  0.00    -0.166 F 
ENDBRANCH  18  23
ENDBRANCH  14  16
ENDBRANCH  10  14
ENDBRANCH   7   8
ENDBRANCH   5   7
ENDBRANCH   2   3
ENDBRANCH   1   2
BRANCH   1  27
ATOM     27  C   UNL A   1      31.835  31.794  27.204  1.00  0.00     0.023 C 
BRANCH  27  28
ATOM     28  C   UNL A   1      33.022  32.752  27.158  1.00  0.00     0.116 C 
BRANCH  28  29
ATOM     29  N   UNL A   1      32.675  34.096  27.590  1.00  0.00    -0.352 N 
ATOM     30  C   UNL A   1      33.165  34.832  28.643  1.00  0.00     0.251 C 
ATOM     31  H   UNL A   1      31.986  34.545  27.048  1.00  0.00     0.163 HD
ATOM     32  O   UNL A   1      32.613  35.889  28.948  1.00  0.00    -0.269 OA
BRANCH  30  33
ATOM     33  C   UNL A   1      34.324  34.346  29.427  1.00  0.00     0.039 A 
ATOM     34  C   UNL A   1      34.092  33.599  30.584  1.00  0.00     0.014 A 
ATOM     35  C   UNL A   1      35.635  34.625  29.031  1.00  0.00     0.014 A 
ATOM     36  C   UNL A   1      35.171  33.071  31.300  1.00  0.00     0.010 A 
ATOM     37  C   UNL A   1      36.706  34.034  29.700  1.00  0.00     0.010 A 
ATOM     38  C   UNL A   1      36.487  33.247  30.842  1.00  0.00    -0.014 A 
BRANCH  38  39
ATOM     39  C   UNL A   1      37.639  32.608  31.537  1.00  0.00     0.031 A 
ATOM     40  C   UNL A   1      38.371  31.457  30.899  1.00  0.00     0.074 A 
ATOM     41  C   UNL A   1      37.990  33.027  32.771  1.00  0.00     0.049 A 
ATOM     42  N   UNL A   1      39.351  30.731  31.377  1.00  0.00    -0.248 NA
ATOM     43  C   UNL A   1      37.925  31.054  29.558  1.00  0.00     0.031 C 
ATOM     44  C   UNL A   1      37.341  34.112  33.511  1.00  0.00     0.029 A 
ATOM     45  N   UNL A   1      38.974  32.591  33.625  1.00  0.00    -0.354 N 
ATOM     46  C   UNL A   1      39.629  29.779  30.402  1.00  0.00     0.074 A 
ATOM     47  C   UNL A   1      38.674  29.985  29.334  1.00  0.00     0.031 C 
ATOM     48  C   UNL A   1      37.963  34.276  34.689  1.00  0.00     0.029 A 
ATOM     49  C   UNL A   1      39.018  33.276  34.818  1.00  0.00     0.049 A 
ATOM     50  H   UNL A   1      39.592  31.857  33.403  1.00  0.00     0.167 HD
ATOM     51  C   UNL A   1      40.603  28.833  30.391  1.00  0.00     0.034 A 
ATOM     52  C   UNL A   1      39.805  33.109  35.901  1.00  0.00     0.034 A 
ATOM     53  C   UNL A   1      41.553  28.646  31.461  1.00  0.00     0.049 A 
ATOM     54  C   UNL A   1      40.850  32.021  35.882  1.00  0.00     0.074 A 
ATOM     55  C   UNL A   1      42.614  27.759  31.524  1.00  0.00     0.029 A 
ATOM     56  N   UNL A   1      41.552  29.345  32.662  1.00  0.00    -0.354 N 
ATOM     57  N   UNL A   1      41.133  31.163  34.929  1.00  0.00    -0.248 NA
ATOM     58  C   UNL A   1      41.687  31.886  37.081  1.00  0.00     0.031 C 
ATOM     59  C   UNL A   1      43.199  27.861  32.791  1.00  0.00     0.029 A 
ATOM     60  C   UNL A   1      42.566  28.879  33.486  1.00  0.00     0.049 A 
ATOM     61  H   UNL A   1      40.924  30.066  32.894  1.00  0.00     0.167 HD
ATOM     62  C   UNL A   1      42.207  30.412  35.403  1.00  0.00     0.074 A 
ATOM     63  C   UNL A   1      42.526  30.928  36.718  1.00  0.00     0.031 C 
ATOM     64  C   UNL A   1      42.872  29.391  34.802  1.00  0.00     0.034 A 
BRANCH  51  65
ATOM     65  C   UNL A   1      40.666  27.910  29.196  1.00  0.00     0.023 A 
ATOM     66  C   UNL A   1      41.607  28.090  28.167  1.00  0.00     0.031 A 
ATOM     67  C   UNL A   1      39.759  26.841  29.074  1.00  0.00     0.131 A 
ATOM     68  C   UNL A   1      41.571  27.267  27.031  1.00  0.00     0.055 A 
ATOM     69  C   UNL A   1      39.786  25.971  27.983  1.00  0.00     0.041 A 
ATOM     70  F   UNL A   1      38.822  26.630  30.012  1.00  0.00    -0.206 F 
ATOM     71  C   UNL A   1      40.686  26.191  26.945  1.00  0.00     0.022 A 
BRANCH  68  72
ATOM     72  S   UNL A   1      42.595  27.716  25.603  1.00  0.00     0.124 S 
ATOM     73  O   UNL A   1      42.509  26.508  24.787  1.00  0.00    -0.237 OA
ATOM     74  O   UNL A   1      41.910  28.891  25.081  1.00  0.00    -0.237 OA
ATOM     75  O   UNL A   1      43.910  27.969  26.190  1.00  0.00    -0.744 OA
ENDBRANCH  68  72
ENDBRANCH  51  65
BRANCH  52  76
ATOM     76  C   UNL A   1      39.636  33.978  37.103  1.00  0.00     0.023 A 
ATOM     77  C   UNL A   1      39.027  33.487  38.269  1.00  0.00     0.031 A 
ATOM     78  C   UNL A   1      40.032  35.327  37.086  1.00  0.00     0.131 A 
ATOM     79  C   UNL A   1      38.783  34.351  39.348  1.00  0.00     0.055 A 
ATOM     80  C   UNL A   1      39.844  36.167  38.185  1.00  0.00     0.041 A 
ATOM     81  F   UNL A   1      40.618  35.850  35.996  1.00  0.00    -0.206 F 
ATOM     82  C   UNL A   1      39.202  35.683  39.320  1.00  0.00     0.022 A 
BRANCH  79  83
ATOM     83  S   UNL A   1      37.818  33.732  40.754  1.00  0.00     0.124 S 
ATOM     84  O   UNL A   1      36.707  33.069  40.081  1.00  0.00    -0.237 OA
ATOM     85  O   UNL A   1      38.779  32.859  41.421  1.00  0.00    -0.237 OA
ATOM     86  O   UNL A   1      37.469  34.947  41.487  1.00  0.00    -0.744 OA
ENDBRANCH  79  83
ENDBRANCH  52  76
BRANCH  64  87
ATOM     87  C   UNL A   1      44.048  28.802  35.544  1.00  0.00     0.023 A 
ATOM     88  C   UNL A   1      43.906  27.710  36.418  1.00  0.00     0.031 A 
ATOM     89  C   UNL A   1      45.333  29.353  35.381  1.00  0.00     0.131 A 
ATOM     90  C   UNL A   1      45.017  27.241  37.139  1.00  0.00     0.055 A 
ATOM     91  C   UNL A   1      46.446  28.838  36.048  1.00  0.00     0.041 A 
ATOM     92  F   UNL A   1      45.529  30.401  34.565  1.00  0.00    -0.206 F 
ATOM     93  C   UNL A   1      46.289  27.785  36.943  1.00  0.00     0.022 A 
BRANCH  90  94
ATOM     94  S   UNL A   1      44.758  25.976  38.413  1.00  0.00     0.124 S 
ATOM     95  O   UNL A   1      46.098  25.417  38.562  1.00  0.00    -0.237 OA
ATOM     96  O   UNL A   1      44.265  26.763  39.539  1.00  0.00    -0.237 OA
ATOM     97  O   UNL A   1      43.775  25.078  37.809  1.00  0.00    -0.744 OA
ENDBRANCH  90  94
ENDBRANCH  64  87
ENDBRANCH  38  39
ENDBRANCH  30  33
ENDBRANCH  28  29
ENDBRANCH  27  28
ENDBRANCH   1  27
TORSDOF 18
ENDMDL
