MODEL 1
REMARK VINA RESULT:     -10.0      0.000      0.000
REMARK SMILES CC[C@H](CCC1CC1)C(=O)NCCCCNC(=O)c1ccc(-c2c3nc(c(-c4cc(S(=O)(=O)[O-])ccc4F)c4ccc([nH]4)c(-c4cc(S(=O)(=O)[O-])ccc4F)c4nc(c(-c5cc(S(=O)(=O)[O-])ccc5F)c5ccc2[nH]5)C=C4)C=C3)cc1
REMARK SMILES IDX 13 1 12 2 11 3 9 4 10 5 3 7 2 8 1 9 4 10 5 11 6 12 7 13 8 14
REMARK SMILES IDX 14 15 15 16 16 17 17 18 18 20 19 21 20 22 81 23 21 24 80 25
REMARK SMILES IDX 22 26 23 27 24 28 74 29 25 30 79 31 73 32 75 33 26 34 78 35
REMARK SMILES IDX 72 36 71 37 27 39 59 40 39 41 58 42 40 43 43 44 57 45 76 46
REMARK SMILES IDX 41 47 42 48 56 50 77 51 44 52 28 53 29 54 37 55 30 56 36 57
REMARK SMILES IDX 38 58 35 59 31 60 32 61 33 62 34 63 60 64 61 65 69 66 62 67
REMARK SMILES IDX 68 68 70 69 67 70 63 71 64 72 65 73 66 74 45 75 46 76 54 77
REMARK SMILES IDX 47 78 53 79 55 80 52 81 48 82 49 83 50 84 51 85
REMARK H PARENT 11 6 16 19 75 38 43 49
REMARK Flexibility Score: inf
ROOT
ATOM      1  C   UNL A   1      31.335  30.636  25.621  1.00  0.00     0.023 C 
ENDROOT
BRANCH   1   2
ATOM      2  C   UNL A   1      32.557  29.763  25.898  1.00  0.00     0.116 C 
BRANCH   2   3
ATOM      3  N   UNL A   1      33.433  29.620  24.753  1.00  0.00    -0.356 N 
ATOM      4  C   UNL A   1      33.607  28.560  23.916  1.00  0.00     0.223 C 
ATOM      5  O   UNL A   1      34.241  28.746  22.873  1.00  0.00    -0.275 OA
ATOM      6  H   UNL A   1      33.986  30.408  24.550  1.00  0.00     0.163 HD
BRANCH   4   7
ATOM      7  C   UNL A   1      32.996  27.189  24.208  1.00  0.00     0.078 C 
BRANCH   7   8
ATOM      8  C   UNL A   1      33.969  26.415  25.138  1.00  0.00     0.010 C 
ATOM      9  C   UNL A   1      33.744  24.923  25.329  1.00  0.00     0.005 C 
ENDBRANCH   7   8
BRANCH   7  10
ATOM     10  C   UNL A   1      32.453  26.466  22.954  1.00  0.00     0.014 C 
BRANCH  10  11
ATOM     11  C   UNL A   1      31.105  27.004  22.451  1.00  0.00     0.004 C 
BRANCH  11  12
ATOM     12  C   UNL A   1      30.136  27.498  23.489  1.00  0.00    -0.011 C 
ATOM     13  C   UNL A   1      29.111  28.514  23.036  1.00  0.00     0.004 C 
ATOM     14  C   UNL A   1      28.661  27.195  23.581  1.00  0.00     0.004 C 
ENDBRANCH  11  12
ENDBRANCH  10  11
ENDBRANCH   7  10
ENDBRANCH   4   7
ENDBRANCH   2   3
ENDBRANCH   1   2
BRANCH   1  15
ATOM     15  C   UNL A   1      31.259  31.931  26.424  1.00  0.00     0.023 C 
BRANCH  15  16
ATOM     16  C   UNL A   1      32.573  32.403  27.030  1.00  0.00     0.116 C 
BRANCH  16  17
ATOM     17  N   UNL A   1      32.520  33.759  27.555  1.00  0.00    -0.352 N 
ATOM     18  C   UNL A   1      33.367  34.367  28.451  1.00  0.00     0.251 C 
ATOM     19  H   UNL A   1      31.778  34.315  27.225  1.00  0.00     0.163 HD
ATOM     20  O   UNL A   1      33.119  35.498  28.858  1.00  0.00    -0.269 OA
BRANCH  18  21
ATOM     21  C   UNL A   1      34.545  33.626  28.950  1.00  0.00     0.039 A 
ATOM     22  C   UNL A   1      35.816  34.170  28.756  1.00  0.00     0.014 A 
ATOM     23  C   UNL A   1      34.387  32.431  29.657  1.00  0.00     0.014 A 
ATOM     24  C   UNL A   1      36.926  33.551  29.335  1.00  0.00     0.010 A 
ATOM     25  C   UNL A   1      35.480  31.865  30.302  1.00  0.00     0.010 A 
ATOM     26  C   UNL A   1      36.762  32.416  30.146  1.00  0.00    -0.014 A 
BRANCH  26  27
ATOM     27  C   UNL A   1      37.917  31.777  30.827  1.00  0.00     0.031 A 
ATOM     28  C   UNL A   1      38.714  30.721  30.112  1.00  0.00     0.074 A 
ATOM     29  C   UNL A   1      38.198  32.089  32.108  1.00  0.00     0.049 A 
ATOM     30  N   UNL A   1      39.695  29.979  30.555  1.00  0.00    -0.248 NA
ATOM     31  C   UNL A   1      38.324  30.438  28.723  1.00  0.00     0.031 C 
ATOM     32  C   UNL A   1      37.467  33.061  32.922  1.00  0.00     0.029 A 
ATOM     33  N   UNL A   1      39.170  31.614  32.952  1.00  0.00    -0.354 N 
ATOM     34  C   UNL A   1      40.027  29.127  29.507  1.00  0.00     0.074 A 
ATOM     35  C   UNL A   1      39.091  29.399  28.436  1.00  0.00     0.031 C 
ATOM     36  C   UNL A   1      38.033  33.131  34.138  1.00  0.00     0.029 A 
ATOM     37  C   UNL A   1      39.138  32.179  34.205  1.00  0.00     0.049 A 
ATOM     38  H   UNL A   1      39.828  30.932  32.685  1.00  0.00     0.167 HD
ATOM     39  C   UNL A   1      41.035  28.221  29.433  1.00  0.00     0.034 A 
ATOM     40  C   UNL A   1      39.909  31.951  35.287  1.00  0.00     0.034 A 
ATOM     41  C   UNL A   1      41.966  27.976  30.507  1.00  0.00     0.049 A 
ATOM     42  C   UNL A   1      41.018  30.936  35.190  1.00  0.00     0.074 A 
ATOM     43  C   UNL A   1      43.059  27.127  30.526  1.00  0.00     0.029 A 
ATOM     44  N   UNL A   1      41.912  28.577  31.759  1.00  0.00    -0.354 N 
ATOM     45  N   UNL A   1      41.353  30.172  34.175  1.00  0.00    -0.248 NA
ATOM     46  C   UNL A   1      41.858  30.760  36.381  1.00  0.00     0.031 C 
ATOM     47  C   UNL A   1      43.625  27.167  31.806  1.00  0.00     0.029 A 
ATOM     48  C   UNL A   1      42.933  28.097  32.566  1.00  0.00     0.049 A 
ATOM     49  H   UNL A   1      41.244  29.246  32.034  1.00  0.00     0.167 HD
ATOM     50  C   UNL A   1      42.465  29.449  34.597  1.00  0.00     0.074 A 
ATOM     51  C   UNL A   1      42.747  29.875  35.953  1.00  0.00     0.031 C 
ATOM     52  C   UNL A   1      43.193  28.523  33.921  1.00  0.00     0.034 A 
BRANCH  39  53
ATOM     53  C   UNL A   1      41.149  27.422  28.155  1.00  0.00     0.023 A 
ATOM     54  C   UNL A   1      40.785  26.063  28.100  1.00  0.00     0.031 A 
ATOM     55  C   UNL A   1      41.688  28.003  26.995  1.00  0.00     0.131 A 
ATOM     56  C   UNL A   1      41.061  25.309  26.950  1.00  0.00     0.055 A 
ATOM     57  C   UNL A   1      41.871  27.269  25.819  1.00  0.00     0.041 A 
ATOM     58  F   UNL A   1      42.073  29.288  26.988  1.00  0.00    -0.206 F 
ATOM     59  C   UNL A   1      41.578  25.908  25.800  1.00  0.00     0.022 A 
BRANCH  56  60
ATOM     60  S   UNL A   1      40.907  23.504  27.045  1.00  0.00     0.124 S 
ATOM     61  O   UNL A   1      39.463  23.325  26.909  1.00  0.00    -0.237 OA
ATOM     62  O   UNL A   1      41.715  23.059  25.916  1.00  0.00    -0.237 OA
ATOM     63  O   UNL A   1      41.444  23.183  28.365  1.00  0.00    -0.744 OA
ENDBRANCH  56  60
ENDBRANCH  39  53
BRANCH  40  64
ATOM     64  C   UNL A   1      39.669  32.702  36.551  1.00  0.00     0.023 A 
ATOM     65  C   UNL A   1      38.733  32.246  37.492  1.00  0.00     0.031 A 
ATOM     66  C   UNL A   1      40.356  33.896  36.827  1.00  0.00     0.131 A 
ATOM     67  C   UNL A   1      38.480  33.000  38.649  1.00  0.00     0.055 A 
ATOM     68  C   UNL A   1      40.134  34.620  38.001  1.00  0.00     0.041 A 
ATOM     69  F   UNL A   1      41.269  34.370  35.964  1.00  0.00    -0.206 F 
ATOM     70  C   UNL A   1      39.182  34.177  38.915  1.00  0.00     0.022 A 
BRANCH  67  71
ATOM     71  S   UNL A   1      37.173  32.446  39.778  1.00  0.00     0.124 S 
ATOM     72  O   UNL A   1      37.696  31.162  40.231  1.00  0.00    -0.237 OA
ATOM     73  O   UNL A   1      37.153  33.516  40.768  1.00  0.00    -0.237 OA
ATOM     74  O   UNL A   1      35.992  32.372  38.920  1.00  0.00    -0.744 OA
ENDBRANCH  67  71
ENDBRANCH  40  64
BRANCH  52  75
ATOM     75  C   UNL A   1      44.396  27.948  34.630  1.00  0.00     0.023 A 
ATOM     76  C   UNL A   1      44.322  26.753  35.367  1.00  0.00     0.031 A 
ATOM     77  C   UNL A   1      45.631  28.618  34.577  1.00  0.00     0.131 A 
ATOM     78  C   UNL A   1      45.449  26.294  36.066  1.00  0.00     0.055 A 
ATOM     79  C   UNL A   1      46.763  28.125  35.226  1.00  0.00     0.041 A 
ATOM     80  F   UNL A   1      45.757  29.765  33.890  1.00  0.00    -0.206 F 
ATOM     81  C   UNL A   1      46.673  26.963  35.986  1.00  0.00     0.022 A 
BRANCH  78  82
ATOM     82  S   UNL A   1      45.271  24.854  37.156  1.00  0.00     0.124 S 
ATOM     83  O   UNL A   1      44.546  25.420  38.290  1.00  0.00    -0.237 OA
ATOM     84  O   UNL A   1      44.521  23.921  36.322  1.00  0.00    -0.237 OA
ATOM     85  O   UNL A   1      46.652  24.464  37.435  1.00  0.00    -0.744 OA
ENDBRANCH  78  82
ENDBRANCH  52  75
ENDBRANCH  26  27
ENDBRANCH  18  21
ENDBRANCH  16  17
ENDBRANCH  15  16
ENDBRANCH   1  15
TORSDOF 18
ENDMDL
MODEL 2
REMARK VINA RESULT:      -9.7      6.336     11.687
REMARK SMILES CC[C@H](CCC1CC1)C(=O)NCCCCNC(=O)c1ccc(-c2c3nc(c(-c4cc(S(=O)(=O)[O-])ccc4F)c4ccc([nH]4)c(-c4cc(S(=O)(=O)[O-])ccc4F)c4nc(c(-c5cc(S(=O)(=O)[O-])ccc5F)c5ccc2[nH]5)C=C4)C=C3)cc1
REMARK SMILES IDX 13 1 12 2 11 3 9 4 10 5 3 7 2 8 1 9 4 10 5 11 6 12 7 13 8 14
REMARK SMILES IDX 14 15 15 16 16 17 17 18 18 20 19 21 20 22 81 23 21 24 80 25
REMARK SMILES IDX 22 26 23 27 24 28 74 29 25 30 79 31 73 32 75 33 26 34 78 35
REMARK SMILES IDX 72 36 71 37 27 39 59 40 39 41 58 42 40 43 43 44 57 45 76 46
REMARK SMILES IDX 41 47 42 48 56 50 77 51 44 52 28 53 29 54 37 55 30 56 36 57
REMARK SMILES IDX 38 58 35 59 31 60 32 61 33 62 34 63 60 64 61 65 69 66 62 67
REMARK SMILES IDX 68 68 70 69 67 70 63 71 64 72 65 73 66 74 45 75 46 76 54 77
REMARK SMILES IDX 47 78 53 79 55 80 52 81 48 82 49 83 50 84 51 85
REMARK H PARENT 11 6 16 19 75 38 43 49
REMARK Flexibility Score: inf
ROOT
ATOM      1  C   UNL A   1      37.291  20.798  24.733  1.00  0.00     0.023 C 
ENDROOT
BRANCH   1   2
ATOM      2  C   UNL A   1      35.830  20.433  24.983  1.00  0.00     0.116 C 
BRANCH   2   3
ATOM      3  N   UNL A   1      35.265  21.084  26.147  1.00  0.00    -0.356 N 
ATOM      4  C   UNL A   1      35.181  22.409  26.449  1.00  0.00     0.223 C 
ATOM      5  O   UNL A   1      34.455  22.741  27.391  1.00  0.00    -0.275 OA
ATOM      6  H   UNL A   1      34.886  20.476  26.822  1.00  0.00     0.163 HD
BRANCH   4   7
ATOM      7  C   UNL A   1      35.907  23.474  25.626  1.00  0.00     0.078 C 
BRANCH   7   8
ATOM      8  C   UNL A   1      37.040  24.073  26.502  1.00  0.00     0.010 C 
ATOM      9  C   UNL A   1      38.479  23.763  26.124  1.00  0.00     0.005 C 
ENDBRANCH   7   8
BRANCH   7  10
ATOM     10  C   UNL A   1      34.958  24.450  24.891  1.00  0.00     0.014 C 
BRANCH  10  11
ATOM     11  C   UNL A   1      34.246  23.839  23.676  1.00  0.00     0.004 C 
BRANCH  11  12
ATOM     12  C   UNL A   1      33.003  23.037  23.944  1.00  0.00    -0.011 C 
ATOM     13  C   UNL A   1      32.084  22.791  22.767  1.00  0.00     0.004 C 
ATOM     14  C   UNL A   1      32.704  21.632  23.482  1.00  0.00     0.004 C 
ENDBRANCH  11  12
ENDBRANCH  10  11
ENDBRANCH   7  10
ENDBRANCH   4   7
ENDBRANCH   2   3
ENDBRANCH   1   2
BRANCH   1  15
ATOM     15  C   UNL A   1      38.289  19.654  24.889  1.00  0.00     0.023 C 
BRANCH  15  16
ATOM     16  C   UNL A   1      39.174  19.722  26.125  1.00  0.00     0.116 C 
BRANCH  16  17
ATOM     17  N   UNL A   1      40.415  18.974  25.997  1.00  0.00    -0.352 N 
ATOM     18  C   UNL A   1      41.708  19.431  26.094  1.00  0.00     0.251 C 
ATOM     19  H   UNL A   1      40.315  18.011  25.816  1.00  0.00     0.163 HD
ATOM     20  O   UNL A   1      42.645  18.672  25.865  1.00  0.00    -0.269 OA
BRANCH  18  21
ATOM     21  C   UNL A   1      41.950  20.851  26.426  1.00  0.00     0.039 A 
ATOM     22  C   UNL A   1      42.297  21.187  27.736  1.00  0.00     0.014 A 
ATOM     23  C   UNL A   1      41.892  21.834  25.435  1.00  0.00     0.014 A 
ATOM     24  C   UNL A   1      42.658  22.503  28.037  1.00  0.00     0.010 A 
ATOM     25  C   UNL A   1      42.331  23.122  25.718  1.00  0.00     0.010 A 
ATOM     26  C   UNL A   1      42.716  23.471  27.022  1.00  0.00    -0.014 A 
BRANCH  26  27
ATOM     27  C   UNL A   1      43.159  24.861  27.302  1.00  0.00     0.031 A 
ATOM     28  C   UNL A   1      42.213  25.827  27.960  1.00  0.00     0.074 A 
ATOM     29  C   UNL A   1      44.376  25.273  26.896  1.00  0.00     0.049 A 
ATOM     30  N   UNL A   1      42.368  27.102  28.209  1.00  0.00    -0.248 NA
ATOM     31  C   UNL A   1      40.902  25.291  28.355  1.00  0.00     0.031 C 
ATOM     32  C   UNL A   1      45.363  24.442  26.204  1.00  0.00     0.029 A 
ATOM     33  N   UNL A   1      44.988  26.497  27.000  1.00  0.00    -0.354 N 
ATOM     34  C   UNL A   1      41.167  27.525  28.771  1.00  0.00     0.074 A 
ATOM     35  C   UNL A   1      40.274  26.385  28.755  1.00  0.00     0.031 C 
ATOM     36  C   UNL A   1      46.466  25.173  25.970  1.00  0.00     0.029 A 
ATOM     37  C   UNL A   1      46.250  26.533  26.456  1.00  0.00     0.049 A 
ATOM     38  H   UNL A   1      44.561  27.277  27.424  1.00  0.00     0.167 HD
ATOM     39  C   UNL A   1      40.847  28.743  29.277  1.00  0.00     0.034 A 
ATOM     40  C   UNL A   1      47.131  27.548  26.355  1.00  0.00     0.034 A 
ATOM     41  C   UNL A   1      41.757  29.862  29.296  1.00  0.00     0.049 A 
ATOM     42  C   UNL A   1      46.755  28.895  26.915  1.00  0.00     0.074 A 
ATOM     43  C   UNL A   1      41.564  31.123  29.834  1.00  0.00     0.029 A 
ATOM     44  N   UNL A   1      43.034  29.858  28.747  1.00  0.00    -0.354 N 
ATOM     45  N   UNL A   1      45.635  29.269  27.488  1.00  0.00    -0.248 NA
ATOM     46  C   UNL A   1      47.769  29.954  26.821  1.00  0.00     0.031 C 
ATOM     47  C   UNL A   1      42.697  31.898  29.554  1.00  0.00     0.029 A 
ATOM     48  C   UNL A   1      43.629  31.100  28.908  1.00  0.00     0.049 A 
ATOM     49  H   UNL A   1      43.455  29.085  28.307  1.00  0.00     0.167 HD
ATOM     50  C   UNL A   1      45.822  30.599  27.855  1.00  0.00     0.074 A 
ATOM     51  C   UNL A   1      47.165  30.956  27.444  1.00  0.00     0.031 C 
ATOM     52  C   UNL A   1      44.965  31.445  28.481  1.00  0.00     0.034 A 
BRANCH  39  53
ATOM     53  C   UNL A   1      39.447  28.916  29.820  1.00  0.00     0.023 A 
ATOM     54  C   UNL A   1      38.448  29.582  29.085  1.00  0.00     0.031 A 
ATOM     55  C   UNL A   1      39.122  28.469  31.112  1.00  0.00     0.131 A 
ATOM     56  C   UNL A   1      37.214  29.873  29.685  1.00  0.00     0.055 A 
ATOM     57  C   UNL A   1      37.856  28.678  31.667  1.00  0.00     0.041 A 
ATOM     58  F   UNL A   1      40.035  27.844  31.871  1.00  0.00    -0.206 F 
ATOM     59  C   UNL A   1      36.901  29.403  30.961  1.00  0.00     0.022 A 
BRANCH  56  60
ATOM     60  S   UNL A   1      36.099  31.030  28.842  1.00  0.00     0.124 S 
ATOM     61  O   UNL A   1      37.033  32.054  28.378  1.00  0.00    -0.237 OA
ATOM     62  O   UNL A   1      35.502  30.195  27.806  1.00  0.00    -0.237 OA
ATOM     63  O   UNL A   1      35.189  31.462  29.900  1.00  0.00    -0.744 OA
ENDBRANCH  56  60
ENDBRANCH  39  53
BRANCH  40  64
ATOM     64  C   UNL A   1      48.455  27.331  25.708  1.00  0.00     0.023 A 
ATOM     65  C   UNL A   1      48.608  27.461  24.319  1.00  0.00     0.031 A 
ATOM     66  C   UNL A   1      49.582  26.969  26.466  1.00  0.00     0.131 A 
ATOM     67  C   UNL A   1      49.850  27.195  23.724  1.00  0.00     0.055 A 
ATOM     68  C   UNL A   1      50.828  26.749  25.875  1.00  0.00     0.041 A 
ATOM     69  F   UNL A   1      49.491  26.841  27.800  1.00  0.00    -0.206 F 
ATOM     70  C   UNL A   1      50.964  26.851  24.494  1.00  0.00     0.022 A 
BRANCH  67  71
ATOM     71  S   UNL A   1      49.977  27.250  21.915  1.00  0.00     0.124 S 
ATOM     72  O   UNL A   1      48.904  26.346  21.515  1.00  0.00    -0.237 OA
ATOM     73  O   UNL A   1      49.760  28.665  21.638  1.00  0.00    -0.237 OA
ATOM     74  O   UNL A   1      51.331  26.767  21.655  1.00  0.00    -0.744 OA
ENDBRANCH  67  71
ENDBRANCH  40  64
BRANCH  52  75
ATOM     75  C   UNL A   1      45.482  32.827  28.803  1.00  0.00     0.023 A 
ATOM     76  C   UNL A   1      45.369  33.892  27.892  1.00  0.00     0.031 A 
ATOM     77  C   UNL A   1      46.109  33.074  30.037  1.00  0.00     0.131 A 
ATOM     78  C   UNL A   1      45.924  35.141  28.208  1.00  0.00     0.055 A 
ATOM     79  C   UNL A   1      46.607  34.335  30.368  1.00  0.00     0.041 A 
ATOM     80  F   UNL A   1      46.246  32.092  30.942  1.00  0.00    -0.206 F 
ATOM     81  C   UNL A   1      46.528  35.374  29.446  1.00  0.00     0.022 A 
BRANCH  78  82
ATOM     82  S   UNL A   1      45.928  36.439  26.939  1.00  0.00     0.124 S 
ATOM     83  O   UNL A   1      46.346  35.701  25.752  1.00  0.00    -0.237 OA
ATOM     84  O   UNL A   1      44.541  36.892  26.952  1.00  0.00    -0.237 OA
ATOM     85  O   UNL A   1      46.901  37.407  27.443  1.00  0.00    -0.744 OA
ENDBRANCH  78  82
ENDBRANCH  52  75
ENDBRANCH  26  27
ENDBRANCH  18  21
ENDBRANCH  16  17
ENDBRANCH  15  16
ENDBRANCH   1  15
TORSDOF 18
ENDMDL
MODEL 3
REMARK VINA RESULT:      -9.6      3.059      8.730
REMARK SMILES CC[C@H](CCC1CC1)C(=O)NCCCCNC(=O)c1ccc(-c2c3nc(c(-c4cc(S(=O)(=O)[O-])ccc4F)c4ccc([nH]4)c(-c4cc(S(=O)(=O)[O-])ccc4F)c4nc(c(-c5cc(S(=O)(=O)[O-])ccc5F)c5ccc2[nH]5)C=C4)C=C3)cc1
REMARK SMILES IDX 13 1 12 2 11 3 9 4 10 5 3 7 2 8 1 9 4 10 5 11 6 12 7 13 8 14
REMARK SMILES IDX 14 15 15 16 16 17 17 18 18 20 19 21 20 22 81 23 21 24 80 25
REMARK SMILES IDX 22 26 23 27 24 28 74 29 25 30 79 31 73 32 75 33 26 34 78 35
REMARK SMILES IDX 72 36 71 37 27 39 59 40 39 41 58 42 40 43 43 44 57 45 76 46
REMARK SMILES IDX 41 47 42 48 56 50 77 51 44 52 28 53 29 54 37 55 30 56 36 57
REMARK SMILES IDX 38 58 35 59 31 60 32 61 33 62 34 63 60 64 61 65 69 66 62 67
REMARK SMILES IDX 68 68 70 69 67 70 63 71 64 72 65 73 66 74 45 75 46 76 54 77
REMARK SMILES IDX 47 78 53 79 55 80 52 81 48 82 49 83 50 84 51 85
REMARK H PARENT 11 6 16 19 75 38 43 49
REMARK Flexibility Score: inf
ROOT
ATOM      1  C   UNL A   1      31.935  27.759  26.777  1.00  0.00     0.023 C 
ENDROOT
BRANCH   1   2
ATOM      2  C   UNL A   1      31.665  26.546  25.891  1.00  0.00     0.116 C 
BRANCH   2   3
ATOM      3  N   UNL A   1      31.245  25.374  26.632  1.00  0.00    -0.356 N 
ATOM      4  C   UNL A   1      31.772  24.118  26.648  1.00  0.00     0.223 C 
ATOM      5  O   UNL A   1      31.388  23.342  27.528  1.00  0.00    -0.275 OA
ATOM      6  H   UNL A   1      30.460  25.505  27.211  1.00  0.00     0.163 HD
BRANCH   4   7
ATOM      7  C   UNL A   1      32.848  23.680  25.654  1.00  0.00     0.078 C 
BRANCH   7   8
ATOM      8  C   UNL A   1      34.135  24.501  25.942  1.00  0.00     0.010 C 
ATOM      9  C   UNL A   1      35.358  24.245  25.076  1.00  0.00     0.005 C 
ENDBRANCH   7   8
BRANCH   7  10
ATOM     10  C   UNL A   1      32.351  23.590  24.193  1.00  0.00     0.014 C 
BRANCH  10  11
ATOM     11  C   UNL A   1      32.991  22.454  23.380  1.00  0.00     0.004 C 
BRANCH  11  12
ATOM     12  C   UNL A   1      32.512  21.058  23.662  1.00  0.00    -0.011 C 
ATOM     13  C   UNL A   1      33.474  20.141  24.385  1.00  0.00     0.004 C 
ATOM     14  C   UNL A   1      32.152  20.469  25.004  1.00  0.00     0.004 C 
ENDBRANCH  11  12
ENDBRANCH  10  11
ENDBRANCH   7  10
ENDBRANCH   4   7
ENDBRANCH   2   3
ENDBRANCH   1   2
BRANCH   1  15
ATOM     15  C   UNL A   1      33.402  28.015  27.111  1.00  0.00     0.023 C 
BRANCH  15  16
ATOM     16  C   UNL A   1      34.075  29.114  26.301  1.00  0.00     0.116 C 
BRANCH  16  17
ATOM     17  N   UNL A   1      33.691  30.457  26.708  1.00  0.00    -0.352 N 
ATOM     18  C   UNL A   1      34.294  31.281  27.629  1.00  0.00     0.251 C 
ATOM     19  H   UNL A   1      32.892  30.825  26.266  1.00  0.00     0.163 HD
ATOM     20  O   UNL A   1      33.779  32.356  27.919  1.00  0.00    -0.269 OA
BRANCH  18  21
ATOM     21  C   UNL A   1      35.536  30.835  28.295  1.00  0.00     0.039 A 
ATOM     22  C   UNL A   1      35.444  29.956  29.376  1.00  0.00     0.014 A 
ATOM     23  C   UNL A   1      36.785  31.239  27.817  1.00  0.00     0.014 A 
ATOM     24  C   UNL A   1      36.609  29.423  29.932  1.00  0.00     0.010 A 
ATOM     25  C   UNL A   1      37.937  30.644  28.316  1.00  0.00     0.010 A 
ATOM     26  C   UNL A   1      37.863  29.732  29.380  1.00  0.00    -0.014 A 
BRANCH  26  27
ATOM     27  C   UNL A   1      39.112  29.128  29.910  1.00  0.00     0.031 A 
ATOM     28  C   UNL A   1      39.760  29.709  31.136  1.00  0.00     0.074 A 
ATOM     29  C   UNL A   1      39.701  28.113  29.247  1.00  0.00     0.049 A 
ATOM     30  N   UNL A   1      40.894  29.393  31.706  1.00  0.00    -0.248 NA
ATOM     31  C   UNL A   1      39.051  30.824  31.783  1.00  0.00     0.031 C 
ATOM     32  C   UNL A   1      39.195  27.497  28.020  1.00  0.00     0.029 A 
ATOM     33  N   UNL A   1      40.860  27.427  29.509  1.00  0.00    -0.354 N 
ATOM     34  C   UNL A   1      41.045  30.282  32.765  1.00  0.00     0.074 A 
ATOM     35  C   UNL A   1      39.921  31.193  32.709  1.00  0.00     0.031 C 
ATOM     36  C   UNL A   1      40.024  26.506  27.651  1.00  0.00     0.029 A 
ATOM     37  C   UNL A   1      41.141  26.444  28.589  1.00  0.00     0.049 A 
ATOM     38  H   UNL A   1      41.437  27.621  30.283  1.00  0.00     0.167 HD
ATOM     39  C   UNL A   1      42.016  30.319  33.713  1.00  0.00     0.034 A 
ATOM     40  C   UNL A   1      42.183  25.594  28.508  1.00  0.00     0.034 A 
ATOM     41  C   UNL A   1      43.119  29.391  33.760  1.00  0.00     0.049 A 
ATOM     42  C   UNL A   1      43.256  25.655  29.564  1.00  0.00     0.074 A 
ATOM     43  C   UNL A   1      44.128  29.296  34.703  1.00  0.00     0.029 A 
ATOM     44  N   UNL A   1      43.365  28.400  32.818  1.00  0.00    -0.354 N 
ATOM     45  N   UNL A   1      43.361  26.468  30.590  1.00  0.00    -0.248 NA
ATOM     46  C   UNL A   1      44.345  24.676  29.455  1.00  0.00     0.031 C 
ATOM     47  C   UNL A   1      45.015  28.291  34.298  1.00  0.00     0.029 A 
ATOM     48  C   UNL A   1      44.522  27.707  33.141  1.00  0.00     0.049 A 
ATOM     49  H   UNL A   1      42.799  28.216  32.033  1.00  0.00     0.167 HD
ATOM     50  C   UNL A   1      44.511  26.075  31.268  1.00  0.00     0.074 A 
ATOM     51  C   UNL A   1      45.058  24.949  30.539  1.00  0.00     0.031 C 
ATOM     52  C   UNL A   1      45.061  26.593  32.396  1.00  0.00     0.034 A 
BRANCH  39  53
ATOM     53  C   UNL A   1      41.925  31.416  34.749  1.00  0.00     0.023 A 
ATOM     54  C   UNL A   1      40.941  31.401  35.755  1.00  0.00     0.031 A 
ATOM     55  C   UNL A   1      42.787  32.525  34.692  1.00  0.00     0.131 A 
ATOM     56  C   UNL A   1      40.777  32.515  36.592  1.00  0.00     0.055 A 
ATOM     57  C   UNL A   1      42.680  33.589  35.593  1.00  0.00     0.041 A 
ATOM     58  F   UNL A   1      43.733  32.609  33.745  1.00  0.00    -0.206 F 
ATOM     59  C   UNL A   1      41.656  33.598  36.536  1.00  0.00     0.022 A 
BRANCH  56  60
ATOM     60  S   UNL A   1      39.289  32.603  37.627  1.00  0.00     0.124 S 
ATOM     61  O   UNL A   1      38.697  33.864  37.184  1.00  0.00    -0.237 OA
ATOM     62  O   UNL A   1      38.570  31.392  37.248  1.00  0.00    -0.237 OA
ATOM     63  O   UNL A   1      39.818  32.617  38.988  1.00  0.00    -0.744 OA
ENDBRANCH  56  60
ENDBRANCH  39  53
BRANCH  40  64
ATOM     64  C   UNL A   1      42.262  24.607  27.394  1.00  0.00     0.023 A 
ATOM     65  C   UNL A   1      41.526  23.413  27.438  1.00  0.00     0.031 A 
ATOM     66  C   UNL A   1      43.090  24.833  26.282  1.00  0.00     0.131 A 
ATOM     67  C   UNL A   1      41.661  22.470  26.407  1.00  0.00     0.055 A 
ATOM     68  C   UNL A   1      43.187  23.913  25.236  1.00  0.00     0.041 A 
ATOM     69  F   UNL A   1      43.807  25.965  26.188  1.00  0.00    -0.206 F 
ATOM     70  C   UNL A   1      42.477  22.718  25.301  1.00  0.00     0.022 A 
BRANCH  67  71
ATOM     71  S   UNL A   1      40.793  20.885  26.560  1.00  0.00     0.124 S 
ATOM     72  O   UNL A   1      41.622  20.011  25.738  1.00  0.00    -0.237 OA
ATOM     73  O   UNL A   1      40.843  20.649  27.999  1.00  0.00    -0.237 OA
ATOM     74  O   UNL A   1      39.464  21.172  26.024  1.00  0.00    -0.744 OA
ENDBRANCH  67  71
ENDBRANCH  40  64
BRANCH  52  75
ATOM     75  C   UNL A   1      46.294  25.906  32.933  1.00  0.00     0.023 A 
ATOM     76  C   UNL A   1      47.584  26.242  32.487  1.00  0.00     0.031 A 
ATOM     77  C   UNL A   1      46.170  24.891  33.898  1.00  0.00     0.131 A 
ATOM     78  C   UNL A   1      48.695  25.529  32.965  1.00  0.00     0.055 A 
ATOM     79  C   UNL A   1      47.284  24.226  34.413  1.00  0.00     0.041 A 
ATOM     80  F   UNL A   1      44.961  24.529  34.357  1.00  0.00    -0.206 F 
ATOM     81  C   UNL A   1      48.554  24.536  33.937  1.00  0.00     0.022 A 
BRANCH  78  82
ATOM     82  S   UNL A   1      50.322  25.857  32.232  1.00  0.00     0.124 S 
ATOM     83  O   UNL A   1      50.323  24.958  31.082  1.00  0.00    -0.237 OA
ATOM     84  O   UNL A   1      50.246  27.282  31.927  1.00  0.00    -0.237 OA
ATOM     85  O   UNL A   1      51.256  25.501  33.299  1.00  0.00    -0.744 OA
ENDBRANCH  78  82
ENDBRANCH  52  75
ENDBRANCH  26  27
ENDBRANCH  18  21
ENDBRANCH  16  17
ENDBRANCH  15  16
ENDBRANCH   1  15
TORSDOF 18
ENDMDL
