MODEL 1
REMARK VINA RESULT:     -12.3      0.000      0.000
REMARK SMILES NS(=O)(=O)c1ccc(N2N=C(C(=O)NCCCCNC(=O)c3ccc(-c4c5nc(c(-c6cc(S(=O)(=O)[O-])ccc6F)c6ccc([nH]6)c(-c6cc(S(=O)(=O)[O-])ccc6F)c6nc(c(-c7cc(S(=O)(=O)[O-])ccc7F)c7ccc4[nH]7)C=C6)C=C5)cc3)C[C@H]2c2ccco2)cc1
REMARK SMILES IDX 16 1 15 2 14 3 12 4 13 5 11 7 9 8 10 9 86 10 85 11 8 12 5 13
REMARK SMILES IDX 6 14 93 15 7 16 92 17 2 18 3 19 4 20 1 21 87 24 88 25 91 26
REMARK SMILES IDX 89 27 90 28 17 29 18 30 19 31 20 32 21 34 22 35 23 36 84 37
REMARK SMILES IDX 24 38 83 39 25 40 26 41 27 42 77 43 28 44 82 45 76 46 78 47
REMARK SMILES IDX 29 48 81 49 75 50 74 51 30 53 62 54 42 55 61 56 43 57 46 58
REMARK SMILES IDX 60 59 79 60 44 61 45 62 59 64 80 65 47 66 31 67 32 68 40 69
REMARK SMILES IDX 33 70 39 71 41 72 38 73 34 74 35 75 36 76 37 77 63 78 64 79
REMARK SMILES IDX 72 80 65 81 71 82 73 83 70 84 66 85 67 86 68 87 69 88 48 89
REMARK SMILES IDX 49 90 57 91 50 92 56 93 58 94 55 95 51 96 52 97 53 98 54 99
REMARK H PARENT 14 6 1 22 1 23 19 33 78 52 46 63
REMARK Flexibility Score: inf
ROOT
ATOM      1  C   UNL A   1      35.258  23.508  23.948  1.00  0.00     0.023 C 
ENDROOT
BRANCH   1   2
ATOM      2  C   UNL A   1      34.033  23.191  23.096  1.00  0.00     0.116 C 
BRANCH   2   3
ATOM      3  N   UNL A   1      32.982  22.579  23.889  1.00  0.00    -0.351 N 
ATOM      4  C   UNL A   1      32.070  23.045  24.801  1.00  0.00     0.267 C 
ATOM      5  O   UNL A   1      31.359  22.218  25.369  1.00  0.00    -0.268 OA
ATOM      6  H   UNL A   1      32.909  21.609  23.738  1.00  0.00     0.163 HD
BRANCH   4   7
ATOM      7  C   UNL A   1      31.855  24.519  25.122  1.00  0.00     0.128 C 
ATOM      8  N   UNL A   1      31.433  26.586  24.765  1.00  0.00    -0.254 N 
ATOM      9  N   UNL A   1      31.341  25.329  24.244  1.00  0.00    -0.171 NA
ATOM     10  C   UNL A   1      31.839  26.600  26.175  1.00  0.00     0.180 C 
ATOM     11  C   UNL A   1      32.230  25.141  26.420  1.00  0.00     0.099 C 
BRANCH   8  12
ATOM     12  C   UNL A   1      30.667  27.618  24.230  1.00  0.00     0.060 A 
ATOM     13  C   UNL A   1      29.126  29.663  23.073  1.00  0.00     0.082 A 
ATOM     14  C   UNL A   1      30.269  29.987  23.806  1.00  0.00     0.024 A 
ATOM     15  C   UNL A   1      28.727  28.335  22.933  1.00  0.00     0.024 A 
ATOM     16  C   UNL A   1      31.026  28.965  24.391  1.00  0.00     0.029 A 
ATOM     17  C   UNL A   1      29.498  27.326  23.513  1.00  0.00     0.029 A 
BRANCH  13  18
ATOM     18  S   UNL A   1      28.157  30.941  22.336  1.00  0.00     0.238 S 
ATOM     19  O   UNL A   1      29.026  32.036  21.948  1.00  0.00    -0.207 OA
ATOM     20  O   UNL A   1      26.973  31.140  23.131  1.00  0.00    -0.207 OA
BRANCH  18  21
ATOM     21  N   UNL A   1      27.652  30.255  20.891  1.00  0.00    -0.225 NA
ATOM     22  H   UNL A   1      26.681  29.954  20.978  1.00  0.00     0.137 HD
ATOM     23  H   UNL A   1      28.239  29.450  20.673  1.00  0.00     0.137 HD
ENDBRANCH  18  21
ENDBRANCH  13  18
ENDBRANCH   8  12
BRANCH  10  24
ATOM     24  C   UNL A   1      32.920  27.560  26.584  1.00  0.00     0.128 A 
ATOM     25  C   UNL A   1      34.217  27.755  26.148  1.00  0.00     0.048 A 
ATOM     26  O   UNL A   1      32.636  28.467  27.567  1.00  0.00    -0.467 OA
ATOM     27  C   UNL A   1      34.748  28.822  26.911  1.00  0.00     0.042 A 
ATOM     28  C   UNL A   1      33.739  29.232  27.749  1.00  0.00     0.195 A 
ENDBRANCH  10  24
ENDBRANCH   4   7
ENDBRANCH   2   3
ENDBRANCH   1   2
BRANCH   1  29
ATOM     29  C   UNL A   1      36.263  22.360  24.058  1.00  0.00     0.023 C 
BRANCH  29  30
ATOM     30  C   UNL A   1      36.580  21.902  25.480  1.00  0.00     0.116 C 
BRANCH  30  31
ATOM     31  N   UNL A   1      37.614  20.879  25.539  1.00  0.00    -0.352 N 
ATOM     32  C   UNL A   1      38.925  20.993  25.935  1.00  0.00     0.251 C 
ATOM     33  H   UNL A   1      37.334  19.979  25.257  1.00  0.00     0.163 HD
ATOM     34  O   UNL A   1      39.682  20.035  25.805  1.00  0.00    -0.269 OA
BRANCH  32  35
ATOM     35  C   UNL A   1      39.423  22.278  26.469  1.00  0.00     0.039 A 
ATOM     36  C   UNL A   1      40.430  22.258  27.435  1.00  0.00     0.014 A 
ATOM     37  C   UNL A   1      38.923  23.495  25.996  1.00  0.00     0.014 A 
ATOM     38  C   UNL A   1      40.991  23.459  27.869  1.00  0.00     0.010 A 
ATOM     39  C   UNL A   1      39.535  24.687  26.375  1.00  0.00     0.010 A 
ATOM     40  C   UNL A   1      40.580  24.681  27.311  1.00  0.00    -0.014 A 
BRANCH  40  41
ATOM     41  C   UNL A   1      41.259  25.951  27.677  1.00  0.00     0.031 A 
ATOM     42  C   UNL A   1      42.676  26.211  27.250  1.00  0.00     0.074 A 
ATOM     43  C   UNL A   1      40.608  26.846  28.447  1.00  0.00     0.049 A 
ATOM     44  N   UNL A   1      43.436  27.249  27.491  1.00  0.00    -0.248 NA
ATOM     45  C   UNL A   1      43.338  25.149  26.479  1.00  0.00     0.031 C 
ATOM     46  C   UNL A   1      39.254  26.673  28.982  1.00  0.00     0.029 A 
ATOM     47  N   UNL A   1      40.995  28.075  28.922  1.00  0.00    -0.354 N 
ATOM     48  C   UNL A   1      44.668  26.961  26.912  1.00  0.00     0.074 A 
ATOM     49  C   UNL A   1      44.569  25.624  26.366  1.00  0.00     0.031 C 
ATOM     50  C   UNL A   1      38.916  27.765  29.686  1.00  0.00     0.029 A 
ATOM     51  C   UNL A   1      40.037  28.699  29.686  1.00  0.00     0.049 A 
ATOM     52  H   UNL A   1      41.876  28.471  28.732  1.00  0.00     0.167 HD
ATOM     53  C   UNL A   1      45.770  27.748  26.826  1.00  0.00     0.034 A 
ATOM     54  C   UNL A   1      40.059  29.888  30.320  1.00  0.00     0.034 A 
ATOM     55  C   UNL A   1      45.844  29.083  27.370  1.00  0.00     0.049 A 
ATOM     56  C   UNL A   1      41.288  30.750  30.200  1.00  0.00     0.074 A 
ATOM     57  C   UNL A   1      46.878  29.998  27.274  1.00  0.00     0.029 A 
ATOM     58  N   UNL A   1      44.850  29.692  28.128  1.00  0.00    -0.354 N 
ATOM     59  N   UNL A   1      42.416  30.498  29.575  1.00  0.00    -0.248 NA
ATOM     60  C   UNL A   1      41.239  32.062  30.855  1.00  0.00     0.031 C 
ATOM     61  C   UNL A   1      46.541  31.127  28.029  1.00  0.00     0.029 A 
ATOM     62  C   UNL A   1      45.262  30.953  28.535  1.00  0.00     0.049 A 
ATOM     63  H   UNL A   1      43.979  29.288  28.344  1.00  0.00     0.167 HD
ATOM     64  C   UNL A   1      43.205  31.633  29.748  1.00  0.00     0.074 A 
ATOM     65  C   UNL A   1      42.409  32.576  30.508  1.00  0.00     0.031 C 
ATOM     66  C   UNL A   1      44.471  31.873  29.320  1.00  0.00     0.034 A 
BRANCH  53  67
ATOM     67  C   UNL A   1      46.985  27.169  26.139  1.00  0.00     0.023 A 
ATOM     68  C   UNL A   1      47.962  26.447  26.848  1.00  0.00     0.031 A 
ATOM     69  C   UNL A   1      47.190  27.368  24.762  1.00  0.00     0.131 A 
ATOM     70  C   UNL A   1      49.133  26.024  26.199  1.00  0.00     0.055 A 
ATOM     71  C   UNL A   1      48.316  26.871  24.104  1.00  0.00     0.041 A 
ATOM     72  F   UNL A   1      46.304  28.067  24.034  1.00  0.00    -0.206 F 
ATOM     73  C   UNL A   1      49.305  26.209  24.826  1.00  0.00     0.022 A 
BRANCH  70  74
ATOM     74  S   UNL A   1      50.493  25.368  27.205  1.00  0.00     0.124 S 
ATOM     75  O   UNL A   1      49.849  24.233  27.865  1.00  0.00    -0.237 OA
ATOM     76  O   UNL A   1      51.498  25.039  26.202  1.00  0.00    -0.237 OA
ATOM     77  O   UNL A   1      50.832  26.481  28.089  1.00  0.00    -0.744 OA
ENDBRANCH  70  74
ENDBRANCH  53  67
BRANCH  54  78
ATOM     78  C   UNL A   1      38.887  30.331  31.129  1.00  0.00     0.023 A 
ATOM     79  C   UNL A   1      37.835  31.054  30.546  1.00  0.00     0.031 A 
ATOM     80  C   UNL A   1      38.821  30.062  32.508  1.00  0.00     0.131 A 
ATOM     81  C   UNL A   1      36.780  31.521  31.347  1.00  0.00     0.055 A 
ATOM     82  C   UNL A   1      37.745  30.485  33.291  1.00  0.00     0.041 A 
ATOM     83  F   UNL A   1      39.797  29.366  33.112  1.00  0.00    -0.206 F 
ATOM     84  C   UNL A   1      36.722  31.231  32.713  1.00  0.00     0.022 A 
BRANCH  81  85
ATOM     85  S   UNL A   1      35.516  32.579  30.589  1.00  0.00     0.124 S 
ATOM     86  O   UNL A   1      36.206  33.861  30.514  1.00  0.00    -0.237 OA
ATOM     87  O   UNL A   1      35.278  31.902  29.318  1.00  0.00    -0.237 OA
ATOM     88  O   UNL A   1      34.408  32.518  31.541  1.00  0.00    -0.744 OA
ENDBRANCH  81  85
ENDBRANCH  54  78
BRANCH  66  89
ATOM     89  C   UNL A   1      45.054  33.226  29.656  1.00  0.00     0.023 A 
ATOM     90  C   UNL A   1      44.916  34.323  28.788  1.00  0.00     0.031 A 
ATOM     91  C   UNL A   1      45.793  33.408  30.837  1.00  0.00     0.131 A 
ATOM     92  C   UNL A   1      45.568  35.531  29.076  1.00  0.00     0.055 A 
ATOM     93  C   UNL A   1      46.382  34.634  31.154  1.00  0.00     0.041 A 
ATOM     94  F   UNL A   1      45.962  32.396  31.703  1.00  0.00    -0.206 F 
ATOM     95  C   UNL A   1      46.287  35.698  30.262  1.00  0.00     0.022 A 
BRANCH  92  96
ATOM     96  S   UNL A   1      45.570  36.840  27.820  1.00  0.00     0.124 S 
ATOM     97  O   UNL A   1      45.682  36.073  26.584  1.00  0.00    -0.237 OA
ATOM     98  O   UNL A   1      44.285  37.494  28.051  1.00  0.00    -0.237 OA
ATOM     99  O   UNL A   1      46.743  37.642  28.162  1.00  0.00    -0.744 OA
ENDBRANCH  92  96
ENDBRANCH  66  89
ENDBRANCH  40  41
ENDBRANCH  32  35
ENDBRANCH  30  31
ENDBRANCH  29  30
ENDBRANCH   1  29
TORSDOF 18
ENDMDL
MODEL 2
REMARK VINA RESULT:     -12.3      4.834     10.490
REMARK SMILES NS(=O)(=O)c1ccc(N2N=C(C(=O)NCCCCNC(=O)c3ccc(-c4c5nc(c(-c6cc(S(=O)(=O)[O-])ccc6F)c6ccc([nH]6)c(-c6cc(S(=O)(=O)[O-])ccc6F)c6nc(c(-c7cc(S(=O)(=O)[O-])ccc7F)c7ccc4[nH]7)C=C6)C=C5)cc3)C[C@H]2c2ccco2)cc1
REMARK SMILES IDX 16 1 15 2 14 3 12 4 13 5 11 7 9 8 10 9 86 10 85 11 8 12 5 13
REMARK SMILES IDX 6 14 93 15 7 16 92 17 2 18 3 19 4 20 1 21 87 24 88 25 91 26
REMARK SMILES IDX 89 27 90 28 17 29 18 30 19 31 20 32 21 34 22 35 23 36 84 37
REMARK SMILES IDX 24 38 83 39 25 40 26 41 27 42 77 43 28 44 82 45 76 46 78 47
REMARK SMILES IDX 29 48 81 49 75 50 74 51 30 53 62 54 42 55 61 56 43 57 46 58
REMARK SMILES IDX 60 59 79 60 44 61 45 62 59 64 80 65 47 66 31 67 32 68 40 69
REMARK SMILES IDX 33 70 39 71 41 72 38 73 34 74 35 75 36 76 37 77 63 78 64 79
REMARK SMILES IDX 72 80 65 81 71 82 73 83 70 84 66 85 67 86 68 87 69 88 48 89
REMARK SMILES IDX 49 90 57 91 50 92 56 93 58 94 55 95 51 96 52 97 53 98 54 99
REMARK H PARENT 14 6 1 22 1 23 19 33 78 52 46 63
REMARK Flexibility Score: inf
ROOT
ATOM      1  C   UNL A   1      32.142  27.396  26.452  1.00  0.00     0.023 C 
ENDROOT
BRANCH   1   2
ATOM      2  C   UNL A   1      31.157  26.588  25.614  1.00  0.00     0.116 C 
BRANCH   2   3
ATOM      3  N   UNL A   1      30.503  25.564  26.407  1.00  0.00    -0.351 N 
ATOM      4  C   UNL A   1      30.662  24.209  26.551  1.00  0.00     0.267 C 
ATOM      5  O   UNL A   1      29.857  23.613  27.264  1.00  0.00    -0.268 OA
ATOM      6  H   UNL A   1      29.779  25.924  26.969  1.00  0.00     0.163 HD
BRANCH   4   7
ATOM      7  C   UNL A   1      31.794  23.408  25.920  1.00  0.00     0.128 C 
ATOM      8  N   UNL A   1      33.100  21.747  25.580  1.00  0.00    -0.254 N 
ATOM      9  N   UNL A   1      31.916  22.132  26.139  1.00  0.00    -0.171 NA
ATOM     10  C   UNL A   1      33.711  22.788  24.744  1.00  0.00     0.180 C 
ATOM     11  C   UNL A   1      32.839  24.008  25.047  1.00  0.00     0.099 C 
BRANCH   8  12
ATOM     12  C   UNL A   1      33.350  20.398  25.340  1.00  0.00     0.060 A 
ATOM     13  C   UNL A   1      33.869  17.696  24.774  1.00  0.00     0.082 A 
ATOM     14  C   UNL A   1      32.676  18.055  25.405  1.00  0.00     0.024 A 
ATOM     15  C   UNL A   1      34.817  18.665  24.448  1.00  0.00     0.024 A 
ATOM     16  C   UNL A   1      32.429  19.402  25.696  1.00  0.00     0.029 A 
ATOM     17  C   UNL A   1      34.551  20.004  24.734  1.00  0.00     0.029 A 
BRANCH  13  18
ATOM     18  S   UNL A   1      34.199  16.002  24.407  1.00  0.00     0.238 S 
ATOM     19  O   UNL A   1      35.209  15.503  25.322  1.00  0.00    -0.207 OA
ATOM     20  O   UNL A   1      34.310  15.851  22.979  1.00  0.00    -0.207 OA
BRANCH  18  21
ATOM     21  N   UNL A   1      32.782  15.227  24.861  1.00  0.00    -0.225 NA
ATOM     22  H   UNL A   1      32.264  15.818  25.510  1.00  0.00     0.137 HD
ATOM     23  H   UNL A   1      33.009  14.342  25.314  1.00  0.00     0.137 HD
ENDBRANCH  18  21
ENDBRANCH  13  18
ENDBRANCH   8  12
BRANCH  10  24
ATOM     24  C   UNL A   1      35.175  23.068  24.931  1.00  0.00     0.128 A 
ATOM     25  C   UNL A   1      36.236  23.143  24.049  1.00  0.00     0.048 A 
ATOM     26  O   UNL A   1      35.623  23.329  26.196  1.00  0.00    -0.467 OA
ATOM     27  C   UNL A   1      37.384  23.452  24.817  1.00  0.00     0.042 A 
ATOM     28  C   UNL A   1      36.954  23.571  26.117  1.00  0.00     0.195 A 
ENDBRANCH  10  24
ENDBRANCH   4   7
ENDBRANCH   2   3
ENDBRANCH   1   2
BRANCH   1  29
ATOM     29  C   UNL A   1      31.768  28.869  26.618  1.00  0.00     0.023 C 
BRANCH  29  30
ATOM     30  C   UNL A   1      32.757  29.867  26.019  1.00  0.00     0.116 C 
BRANCH  30  31
ATOM     31  N   UNL A   1      32.509  31.241  26.429  1.00  0.00    -0.352 N 
ATOM     32  C   UNL A   1      33.251  32.046  27.262  1.00  0.00     0.251 C 
ATOM     33  H   UNL A   1      31.696  31.653  26.058  1.00  0.00     0.163 HD
ATOM     34  O   UNL A   1      32.816  33.148  27.584  1.00  0.00    -0.269 OA
BRANCH  32  35
ATOM     35  C   UNL A   1      34.540  31.560  27.797  1.00  0.00     0.039 A 
ATOM     36  C   UNL A   1      35.511  32.494  28.159  1.00  0.00     0.014 A 
ATOM     37  C   UNL A   1      34.777  30.193  27.970  1.00  0.00     0.014 A 
ATOM     38  C   UNL A   1      36.689  32.062  28.769  1.00  0.00     0.010 A 
ATOM     39  C   UNL A   1      35.918  29.770  28.647  1.00  0.00     0.010 A 
ATOM     40  C   UNL A   1      36.883  30.701  29.059  1.00  0.00    -0.014 A 
BRANCH  40  41
ATOM     41  C   UNL A   1      38.077  30.248  29.820  1.00  0.00     0.031 A 
ATOM     42  C   UNL A   1      38.305  30.713  31.231  1.00  0.00     0.074 A 
ATOM     43  C   UNL A   1      38.985  29.460  29.210  1.00  0.00     0.049 A 
ATOM     44  N   UNL A   1      39.295  30.440  32.042  1.00  0.00    -0.248 NA
ATOM     45  C   UNL A   1      37.306  31.633  31.793  1.00  0.00     0.031 C 
ATOM     46  C   UNL A   1      38.907  29.002  27.820  1.00  0.00     0.029 A 
ATOM     47  N   UNL A   1      40.154  28.910  29.673  1.00  0.00    -0.354 N 
ATOM     48  C   UNL A   1      39.046  31.162  33.204  1.00  0.00     0.074 A 
ATOM     49  C   UNL A   1      37.844  31.934  32.964  1.00  0.00     0.031 C 
ATOM     50  C   UNL A   1      39.966  28.220  27.553  1.00  0.00     0.029 A 
ATOM     51  C   UNL A   1      40.816  28.150  28.737  1.00  0.00     0.049 A 
ATOM     52  H   UNL A   1      40.486  29.046  30.589  1.00  0.00     0.167 HD
ATOM     53  C   UNL A   1      39.741  31.163  34.369  1.00  0.00     0.034 A 
ATOM     54  C   UNL A   1      41.980  27.476  28.819  1.00  0.00     0.034 A 
ATOM     55  C   UNL A   1      40.933  30.379  34.590  1.00  0.00     0.049 A 
ATOM     56  C   UNL A   1      42.729  27.481  30.126  1.00  0.00     0.074 A 
ATOM     57  C   UNL A   1      41.673  30.242  35.752  1.00  0.00     0.029 A 
ATOM     58  N   UNL A   1      41.571  29.608  33.624  1.00  0.00    -0.354 N 
ATOM     59  N   UNL A   1      42.433  28.102  31.246  1.00  0.00    -0.248 NA
ATOM     60  C   UNL A   1      43.957  26.681  30.185  1.00  0.00     0.031 C 
ATOM     61  C   UNL A   1      42.792  29.450  35.471  1.00  0.00     0.029 A 
ATOM     62  C   UNL A   1      42.713  29.025  34.154  1.00  0.00     0.049 A 
ATOM     63  H   UNL A   1      41.258  29.492  32.699  1.00  0.00     0.167 HD
ATOM     64  C   UNL A   1      43.433  27.750  32.149  1.00  0.00     0.074 A 
ATOM     65  C   UNL A   1      44.319  26.840  31.449  1.00  0.00     0.031 C 
ATOM     66  C   UNL A   1      43.606  28.144  33.437  1.00  0.00     0.034 A 
BRANCH  53  67
ATOM     67  C   UNL A   1      39.240  32.061  35.477  1.00  0.00     0.023 A 
ATOM     68  C   UNL A   1      39.654  33.400  35.590  1.00  0.00     0.031 A 
ATOM     69  C   UNL A   1      38.360  31.563  36.455  1.00  0.00     0.131 A 
ATOM     70  C   UNL A   1      39.258  34.167  36.697  1.00  0.00     0.055 A 
ATOM     71  C   UNL A   1      37.902  32.358  37.507  1.00  0.00     0.041 A 
ATOM     72  F   UNL A   1      37.945  30.287  36.414  1.00  0.00    -0.206 F 
ATOM     73  C   UNL A   1      38.364  33.664  37.643  1.00  0.00     0.022 A 
BRANCH  70  74
ATOM     74  S   UNL A   1      40.050  35.778  36.962  1.00  0.00     0.124 S 
ATOM     75  O   UNL A   1      39.629  36.513  35.770  1.00  0.00    -0.237 OA
ATOM     76  O   UNL A   1      39.463  36.215  38.222  1.00  0.00    -0.237 OA
ATOM     77  O   UNL A   1      41.474  35.455  37.013  1.00  0.00    -0.744 OA
ENDBRANCH  70  74
ENDBRANCH  53  67
BRANCH  54  78
ATOM     78  C   UNL A   1      42.513  26.747  27.634  1.00  0.00     0.023 A 
ATOM     79  C   UNL A   1      42.220  25.391  27.423  1.00  0.00     0.031 A 
ATOM     80  C   UNL A   1      43.352  27.393  26.708  1.00  0.00     0.131 A 
ATOM     81  C   UNL A   1      42.794  24.712  26.336  1.00  0.00     0.055 A 
ATOM     82  C   UNL A   1      43.881  26.726  25.601  1.00  0.00     0.041 A 
ATOM     83  F   UNL A   1      43.657  28.692  26.858  1.00  0.00    -0.206 F 
ATOM     84  C   UNL A   1      43.613  25.373  25.418  1.00  0.00     0.022 A 
BRANCH  81  85
ATOM     85  S   UNL A   1      42.514  22.926  26.181  1.00  0.00     0.124 S 
ATOM     86  O   UNL A   1      42.783  22.704  24.765  1.00  0.00    -0.237 OA
ATOM     87  O   UNL A   1      43.495  22.383  27.114  1.00  0.00    -0.237 OA
ATOM     88  O   UNL A   1      41.118  22.765  26.585  1.00  0.00    -0.744 OA
ENDBRANCH  81  85
ENDBRANCH  54  78
BRANCH  66  89
ATOM     89  C   UNL A   1      44.795  27.565  34.168  1.00  0.00     0.023 A 
ATOM     90  C   UNL A   1      44.714  26.336  34.848  1.00  0.00     0.031 A 
ATOM     91  C   UNL A   1      46.009  28.270  34.222  1.00  0.00     0.131 A 
ATOM     92  C   UNL A   1      45.800  25.886  35.612  1.00  0.00     0.055 A 
ATOM     93  C   UNL A   1      47.111  27.783  34.927  1.00  0.00     0.041 A 
ATOM     94  F   UNL A   1      46.145  29.450  33.595  1.00  0.00    -0.206 F 
ATOM     95  C   UNL A   1      47.004  26.593  35.643  1.00  0.00     0.022 A 
BRANCH  92  96
ATOM     96  S   UNL A   1      45.576  24.428  36.668  1.00  0.00     0.124 S 
ATOM     97  O   UNL A   1      44.770  24.965  37.759  1.00  0.00    -0.237 OA
ATOM     98  O   UNL A   1      44.896  23.497  35.772  1.00  0.00    -0.237 OA
ATOM     99  O   UNL A   1      46.942  24.054  37.030  1.00  0.00    -0.744 OA
ENDBRANCH  92  96
ENDBRANCH  66  89
ENDBRANCH  40  41
ENDBRANCH  32  35
ENDBRANCH  30  31
ENDBRANCH  29  30
ENDBRANCH   1  29
TORSDOF 18
ENDMDL
MODEL 3
REMARK VINA RESULT:     -12.2      1.888      2.565
REMARK SMILES NS(=O)(=O)c1ccc(N2N=C(C(=O)NCCCCNC(=O)c3ccc(-c4c5nc(c(-c6cc(S(=O)(=O)[O-])ccc6F)c6ccc([nH]6)c(-c6cc(S(=O)(=O)[O-])ccc6F)c6nc(c(-c7cc(S(=O)(=O)[O-])ccc7F)c7ccc4[nH]7)C=C6)C=C5)cc3)C[C@H]2c2ccco2)cc1
REMARK SMILES IDX 16 1 15 2 14 3 12 4 13 5 11 7 9 8 10 9 86 10 85 11 8 12 5 13
REMARK SMILES IDX 6 14 93 15 7 16 92 17 2 18 3 19 4 20 1 21 87 24 88 25 91 26
REMARK SMILES IDX 89 27 90 28 17 29 18 30 19 31 20 32 21 34 22 35 23 36 84 37
REMARK SMILES IDX 24 38 83 39 25 40 26 41 27 42 77 43 28 44 82 45 76 46 78 47
REMARK SMILES IDX 29 48 81 49 75 50 74 51 30 53 62 54 42 55 61 56 43 57 46 58
REMARK SMILES IDX 60 59 79 60 44 61 45 62 59 64 80 65 47 66 31 67 32 68 40 69
REMARK SMILES IDX 33 70 39 71 41 72 38 73 34 74 35 75 36 76 37 77 63 78 64 79
REMARK SMILES IDX 72 80 65 81 71 82 73 83 70 84 66 85 67 86 68 87 69 88 48 89
REMARK SMILES IDX 49 90 57 91 50 92 56 93 58 94 55 95 51 96 52 97 53 98 54 99
REMARK H PARENT 14 6 1 22 1 23 19 33 78 52 46 63
REMARK Flexibility Score: inf
ROOT
ATOM      1  C   UNL A   1      35.158  24.023  24.262  1.00  0.00     0.023 C 
ENDROOT
BRANCH   1   2
ATOM      2  C   UNL A   1      34.208  23.379  23.258  1.00  0.00     0.116 C 
BRANCH   2   3
ATOM      3  N   UNL A   1      33.100  22.721  23.926  1.00  0.00    -0.351 N 
ATOM      4  C   UNL A   1      32.082  23.141  24.744  1.00  0.00     0.267 C 
ATOM      5  O   UNL A   1      31.342  22.282  25.220  1.00  0.00    -0.268 OA
ATOM      6  H   UNL A   1      33.074  21.752  23.753  1.00  0.00     0.163 HD
BRANCH   4   7
ATOM      7  C   UNL A   1      31.787  24.601  25.063  1.00  0.00     0.128 C 
ATOM      8  N   UNL A   1      31.332  26.660  24.696  1.00  0.00    -0.254 N 
ATOM      9  N   UNL A   1      31.334  25.409  24.151  1.00  0.00    -0.171 NA
ATOM     10  C   UNL A   1      31.599  26.663  26.140  1.00  0.00     0.180 C 
ATOM     11  C   UNL A   1      32.014  25.213  26.400  1.00  0.00     0.099 C 
BRANCH   8  12
ATOM     12  C   UNL A   1      30.586  27.676  24.104  1.00  0.00     0.060 A 
ATOM     13  C   UNL A   1      29.085  29.770  22.985  1.00  0.00     0.082 A 
ATOM     14  C   UNL A   1      28.590  28.466  22.947  1.00  0.00     0.024 A 
ATOM     15  C   UNL A   1      30.332  30.038  23.549  1.00  0.00     0.024 A 
ATOM     16  C   UNL A   1      29.348  27.425  23.495  1.00  0.00     0.029 A 
ATOM     17  C   UNL A   1      31.071  28.992  24.101  1.00  0.00     0.029 A 
BRANCH  13  18
ATOM     18  S   UNL A   1      28.145  31.093  22.291  1.00  0.00     0.238 S 
ATOM     19  O   UNL A   1      27.187  31.564  23.273  1.00  0.00    -0.207 OA
ATOM     20  O   UNL A   1      27.763  30.735  20.949  1.00  0.00    -0.207 OA
BRANCH  18  21
ATOM     21  N   UNL A   1      29.269  32.332  22.153  1.00  0.00    -0.225 NA
ATOM     22  H   UNL A   1      28.782  33.223  22.053  1.00  0.00     0.137 HD
ATOM     23  H   UNL A   1      29.853  32.171  21.334  1.00  0.00     0.137 HD
ENDBRANCH  18  21
ENDBRANCH  13  18
ENDBRANCH   8  12
BRANCH  10  24
ATOM     24  C   UNL A   1      32.602  27.649  26.666  1.00  0.00     0.128 A 
ATOM     25  C   UNL A   1      32.501  28.709  27.548  1.00  0.00     0.048 A 
ATOM     26  O   UNL A   1      33.899  27.532  26.251  1.00  0.00    -0.467 OA
ATOM     27  C   UNL A   1      33.797  29.268  27.663  1.00  0.00     0.042 A 
ATOM     28  C   UNL A   1      34.616  28.503  26.866  1.00  0.00     0.195 A 
ENDBRANCH  10  24
ENDBRANCH   4   7
ENDBRANCH   2   3
ENDBRANCH   1   2
BRANCH   1  29
ATOM     29  C   UNL A   1      36.502  23.308  24.406  1.00  0.00     0.023 C 
BRANCH  29  30
ATOM     30  C   UNL A   1      37.107  23.328  25.808  1.00  0.00     0.116 C 
BRANCH  30  31
ATOM     31  N   UNL A   1      38.024  22.226  26.056  1.00  0.00    -0.352 N 
ATOM     32  C   UNL A   1      39.327  22.262  26.496  1.00  0.00     0.251 C 
ATOM     33  H   UNL A   1      37.660  21.327  25.886  1.00  0.00     0.163 HD
ATOM     34  O   UNL A   1      39.981  21.224  26.534  1.00  0.00    -0.269 OA
BRANCH  32  35
ATOM     35  C   UNL A   1      39.939  23.553  26.874  1.00  0.00     0.039 A 
ATOM     36  C   UNL A   1      39.843  24.626  25.987  1.00  0.00     0.014 A 
ATOM     37  C   UNL A   1      40.574  23.713  28.108  1.00  0.00     0.014 A 
ATOM     38  C   UNL A   1      40.314  25.882  26.371  1.00  0.00     0.010 A 
ATOM     39  C   UNL A   1      40.975  24.981  28.519  1.00  0.00     0.010 A 
ATOM     40  C   UNL A   1      40.844  26.081  27.657  1.00  0.00    -0.014 A 
BRANCH  40  41
ATOM     41  C   UNL A   1      41.232  27.439  28.118  1.00  0.00     0.031 A 
ATOM     42  C   UNL A   1      42.679  27.843  28.174  1.00  0.00     0.074 A 
ATOM     43  C   UNL A   1      40.275  28.288  28.542  1.00  0.00     0.049 A 
ATOM     44  N   UNL A   1      43.208  28.973  28.566  1.00  0.00    -0.248 NA
ATOM     45  C   UNL A   1      43.663  26.829  27.768  1.00  0.00     0.031 C 
ATOM     46  C   UNL A   1      38.842  27.984  28.601  1.00  0.00     0.029 A 
ATOM     47  N   UNL A   1      40.357  29.576  29.010  1.00  0.00    -0.354 N 
ATOM     48  C   UNL A   1      44.585  28.805  28.464  1.00  0.00     0.074 A 
ATOM     49  C   UNL A   1      44.806  27.440  28.036  1.00  0.00     0.031 C 
ATOM     50  C   UNL A   1      38.180  29.061  29.051  1.00  0.00     0.029 A 
ATOM     51  C   UNL A   1      39.140  30.120  29.348  1.00  0.00     0.049 A 
ATOM     52  H   UNL A   1      41.207  30.063  29.095  1.00  0.00     0.167 HD
ATOM     53  C   UNL A   1      45.570  29.711  28.686  1.00  0.00     0.034 A 
ATOM     54  C   UNL A   1      38.830  31.333  29.846  1.00  0.00     0.034 A 
ATOM     55  C   UNL A   1      45.326  31.071  29.105  1.00  0.00     0.049 A 
ATOM     56  C   UNL A   1      39.938  32.328  30.072  1.00  0.00     0.074 A 
ATOM     57  C   UNL A   1      46.239  32.096  29.284  1.00  0.00     0.029 A 
ATOM     58  N   UNL A   1      44.079  31.596  29.426  1.00  0.00    -0.354 N 
ATOM     59  N   UNL A   1      41.231  32.180  29.890  1.00  0.00    -0.248 NA
ATOM     60  C   UNL A   1      39.543  33.656  30.554  1.00  0.00     0.031 C 
ATOM     61  C   UNL A   1      45.558  33.213  29.779  1.00  0.00     0.029 A 
ATOM     62  C   UNL A   1      44.205  32.915  29.836  1.00  0.00     0.049 A 
ATOM     63  H   UNL A   1      43.229  31.103  29.370  1.00  0.00     0.167 HD
ATOM     64  C   UNL A   1      41.801  33.407  30.219  1.00  0.00     0.074 A 
ATOM     65  C   UNL A   1      40.707  34.287  30.580  1.00  0.00     0.031 C 
ATOM     66  C   UNL A   1      43.109  33.773  30.224  1.00  0.00     0.034 A 
BRANCH  53  67
ATOM     67  C   UNL A   1      46.996  29.246  28.504  1.00  0.00     0.023 A 
ATOM     68  C   UNL A   1      47.549  29.032  27.228  1.00  0.00     0.031 A 
ATOM     69  C   UNL A   1      47.807  28.979  29.622  1.00  0.00     0.131 A 
ATOM     70  C   UNL A   1      48.837  28.489  27.102  1.00  0.00     0.055 A 
ATOM     71  C   UNL A   1      49.119  28.521  29.488  1.00  0.00     0.041 A 
ATOM     72  F   UNL A   1      47.332  29.144  30.866  1.00  0.00    -0.206 F 
ATOM     73  C   UNL A   1      49.636  28.257  28.222  1.00  0.00     0.022 A 
BRANCH  70  74
ATOM     74  S   UNL A   1      49.393  27.950  25.461  1.00  0.00     0.124 S 
ATOM     75  O   UNL A   1      48.200  28.192  24.652  1.00  0.00    -0.237 OA
ATOM     76  O   UNL A   1      50.527  28.830  25.207  1.00  0.00    -0.237 OA
ATOM     77  O   UNL A   1      49.726  26.541  25.659  1.00  0.00    -0.744 OA
ENDBRANCH  70  74
ENDBRANCH  53  67
BRANCH  54  78
ATOM     78  C   UNL A   1      37.415  31.676  30.169  1.00  0.00     0.023 A 
ATOM     79  C   UNL A   1      36.581  32.287  29.220  1.00  0.00     0.031 A 
ATOM     80  C   UNL A   1      36.887  31.421  31.448  1.00  0.00     0.131 A 
ATOM     81  C   UNL A   1      35.275  32.663  29.576  1.00  0.00     0.055 A 
ATOM     82  C   UNL A   1      35.572  31.752  31.781  1.00  0.00     0.041 A 
ATOM     83  F   UNL A   1      37.640  30.830  32.389  1.00  0.00    -0.206 F 
ATOM     84  C   UNL A   1      34.762  32.388  30.846  1.00  0.00     0.022 A 
BRANCH  81  85
ATOM     85  S   UNL A   1      34.278  33.584  28.373  1.00  0.00     0.124 S 
ATOM     86  O   UNL A   1      35.295  34.055  27.441  1.00  0.00    -0.237 OA
ATOM     87  O   UNL A   1      33.377  32.551  27.873  1.00  0.00    -0.237 OA
ATOM     88  O   UNL A   1      33.643  34.622  29.183  1.00  0.00    -0.744 OA
ENDBRANCH  81  85
ENDBRANCH  54  78
BRANCH  66  89
ATOM     89  C   UNL A   1      43.411  35.201  30.618  1.00  0.00     0.023 A 
ATOM     90  C   UNL A   1      43.428  36.238  29.669  1.00  0.00     0.031 A 
ATOM     91  C   UNL A   1      43.726  35.520  31.950  1.00  0.00     0.131 A 
ATOM     92  C   UNL A   1      43.826  37.528  30.048  1.00  0.00     0.055 A 
ATOM     93  C   UNL A   1      44.053  36.821  32.336  1.00  0.00     0.041 A 
ATOM     94  F   UNL A   1      43.729  34.571  32.900  1.00  0.00    -0.206 F 
ATOM     95  C   UNL A   1      44.123  37.830  31.380  1.00  0.00     0.022 A 
BRANCH  92  96
ATOM     96  S   UNL A   1      44.073  38.778  28.757  1.00  0.00     0.124 S 
ATOM     97  O   UNL A   1      42.993  38.468  27.825  1.00  0.00    -0.237 OA
ATOM     98  O   UNL A   1      43.935  40.026  29.501  1.00  0.00    -0.237 OA
ATOM     99  O   UNL A   1      45.420  38.498  28.262  1.00  0.00    -0.744 OA
ENDBRANCH  92  96
ENDBRANCH  66  89
ENDBRANCH  40  41
ENDBRANCH  32  35
ENDBRANCH  30  31
ENDBRANCH  29  30
ENDBRANCH   1  29
TORSDOF 18
ENDMDL
