MODEL 1
REMARK VINA RESULT:     -12.3      0.000      0.000
REMARK SMILES O=C(NCCCCNC(=O)[C@@H]1[C@@H](C(=O)NCc2ccccc2OCc2ccccc2)[C@@H]2C=C[C@H]1C2)c1ccc(-c2c3nc(c(-c4cc(S(=O)(=O)[O-])ccc4F)c4ccc([nH]4)c(-c4cc(S(=O)(=O)[O-])ccc4F)c4nc(c(-c5cc(S(=O)(=O)[O-])ccc5F)c5ccc2[nH]5)C=C4)C=C3)cc1
REMARK SMILES IDX 7 1 6 2 5 3 4 4 3 5 1 6 2 7 36 9 37 10 98 11 38 12 97 13
REMARK SMILES IDX 39 14 40 15 41 16 91 17 42 18 96 19 90 20 92 21 43 22 95 23
REMARK SMILES IDX 89 24 88 25 44 27 76 28 56 29 75 30 57 31 60 32 74 33 93 34
REMARK SMILES IDX 58 35 59 36 73 38 94 39 61 40 45 41 46 42 54 43 47 44 53 45
REMARK SMILES IDX 55 46 52 47 48 48 49 49 50 50 51 51 77 52 78 53 86 54 79 55
REMARK SMILES IDX 85 56 87 57 84 58 80 59 81 60 82 61 83 62 62 63 63 64 71 65
REMARK SMILES IDX 64 66 70 67 72 68 69 69 65 70 66 71 67 72 68 73 8 74 9 75
REMARK SMILES IDX 10 77 11 78 12 79 34 80 31 81 33 82 35 83 32 84 13 85 14 86
REMARK SMILES IDX 15 87 16 89 17 90 18 91 22 92 19 93 21 94 20 95 23 96 24 97
REMARK SMILES IDX 25 98 26 99 30 100 27 101 29 102 28 103
REMARK H PARENT 3 8 92 26 60 37 8 76 15 88
REMARK Flexibility Score: inf
ROOT
ATOM      1  C   UNL A   1      36.892  22.016  24.245  1.00  0.00     0.116 C 
ENDROOT
BRANCH   1   2
ATOM      2  C   UNL A   1      36.817  20.676  24.961  1.00  0.00     0.023 C 
BRANCH   2   3
ATOM      3  C   UNL A   1      38.091  19.840  24.897  1.00  0.00     0.023 C 
BRANCH   3   4
ATOM      4  C   UNL A   1      39.175  20.246  25.885  1.00  0.00     0.116 C 
BRANCH   4   5
ATOM      5  N   UNL A   1      40.248  19.263  25.972  1.00  0.00    -0.352 N 
ATOM      6  O   UNL A   1      42.385  18.535  26.001  1.00  0.00    -0.269 OA
ATOM      7  C   UNL A   1      41.599  19.469  26.125  1.00  0.00     0.251 C 
ATOM      8  H   UNL A   1      39.966  18.321  25.914  1.00  0.00     0.163 HD
BRANCH   7   9
ATOM      9  C   UNL A   1      42.090  20.830  26.421  1.00  0.00     0.039 A 
ATOM     10  C   UNL A   1      42.317  21.216  27.743  1.00  0.00     0.014 A 
ATOM     11  C   UNL A   1      42.291  21.735  25.376  1.00  0.00     0.014 A 
ATOM     12  C   UNL A   1      42.574  22.548  28.034  1.00  0.00     0.010 A 
ATOM     13  C   UNL A   1      42.657  23.053  25.667  1.00  0.00     0.010 A 
ATOM     14  C   UNL A   1      42.768  23.479  27.000  1.00  0.00    -0.014 A 
BRANCH  14  15
ATOM     15  C   UNL A   1      43.149  24.871  27.349  1.00  0.00     0.031 A 
ATOM     16  C   UNL A   1      44.526  25.402  27.057  1.00  0.00     0.074 A 
ATOM     17  C   UNL A   1      42.214  25.670  27.900  1.00  0.00     0.049 A 
ATOM     18  N   UNL A   1      45.020  26.589  27.302  1.00  0.00    -0.248 NA
ATOM     19  C   UNL A   1      45.475  24.478  26.419  1.00  0.00     0.031 C 
ATOM     20  C   UNL A   1      40.843  25.259  28.220  1.00  0.00     0.029 A 
ATOM     21  N   UNL A   1      42.255  26.990  28.267  1.00  0.00    -0.354 N 
ATOM     22  C   UNL A   1      46.338  26.556  26.860  1.00  0.00     0.074 A 
ATOM     23  C   UNL A   1      46.576  25.215  26.366  1.00  0.00     0.031 C 
ATOM     24  C   UNL A   1      40.163  26.315  28.683  1.00  0.00     0.029 A 
ATOM     25  C   UNL A   1      41.066  27.454  28.776  1.00  0.00     0.049 A 
ATOM     26  H   UNL A   1      43.059  27.551  28.175  1.00  0.00     0.167 HD
ATOM     27  C   UNL A   1      47.257  27.556  26.861  1.00  0.00     0.034 A 
ATOM     28  C   UNL A   1      40.741  28.656  29.291  1.00  0.00     0.034 A 
ATOM     29  C   UNL A   1      46.996  28.886  27.361  1.00  0.00     0.049 A 
ATOM     30  C   UNL A   1      41.795  29.728  29.331  1.00  0.00     0.074 A 
ATOM     31  C   UNL A   1      47.848  29.977  27.400  1.00  0.00     0.029 A 
ATOM     32  N   UNL A   1      45.793  29.307  27.919  1.00  0.00    -0.354 N 
ATOM     33  N   UNL A   1      43.038  29.677  28.909  1.00  0.00    -0.248 NA
ATOM     34  C   UNL A   1      41.404  31.015  29.914  1.00  0.00     0.031 C 
ATOM     35  C   UNL A   1      47.186  31.033  28.039  1.00  0.00     0.029 A 
ATOM     36  C   UNL A   1      45.892  30.629  28.329  1.00  0.00     0.049 A 
ATOM     37  H   UNL A   1      44.988  28.748  28.008  1.00  0.00     0.167 HD
ATOM     38  C   UNL A   1      43.571  30.937  29.160  1.00  0.00     0.074 A 
ATOM     39  C   UNL A   1      42.506  31.728  29.744  1.00  0.00     0.031 C 
ATOM     40  C   UNL A   1      44.826  31.399  28.928  1.00  0.00     0.034 A 
BRANCH  27  41
ATOM     41  C   UNL A   1      48.641  27.233  26.346  1.00  0.00     0.023 A 
ATOM     42  C   UNL A   1      49.050  27.581  25.046  1.00  0.00     0.031 A 
ATOM     43  C   UNL A   1      49.563  26.552  27.162  1.00  0.00     0.131 A 
ATOM     44  C   UNL A   1      50.316  27.192  24.580  1.00  0.00     0.055 A 
ATOM     45  C   UNL A   1      50.849  26.236  26.719  1.00  0.00     0.041 A 
ATOM     46  F   UNL A   1      49.226  26.173  28.405  1.00  0.00    -0.206 F 
ATOM     47  C   UNL A   1      51.228  26.544  25.416  1.00  0.00     0.022 A 
BRANCH  44  48
ATOM     48  S   UNL A   1      50.704  27.423  22.823  1.00  0.00     0.124 S 
ATOM     49  O   UNL A   1      49.575  26.753  22.181  1.00  0.00    -0.237 OA
ATOM     50  O   UNL A   1      50.740  28.876  22.696  1.00  0.00    -0.237 OA
ATOM     51  O   UNL A   1      51.991  26.749  22.664  1.00  0.00    -0.744 OA
ENDBRANCH  44  48
ENDBRANCH  27  41
BRANCH  28  52
ATOM     52  C   UNL A   1      39.378  28.891  29.846  1.00  0.00     0.023 A 
ATOM     53  C   UNL A   1      38.366  29.467  29.064  1.00  0.00     0.031 A 
ATOM     54  C   UNL A   1      39.077  28.567  31.181  1.00  0.00     0.131 A 
ATOM     55  C   UNL A   1      37.115  29.742  29.636  1.00  0.00     0.055 A 
ATOM     56  C   UNL A   1      37.812  28.785  31.727  1.00  0.00     0.041 A 
ATOM     57  F   UNL A   1      40.008  28.010  31.973  1.00  0.00    -0.206 F 
ATOM     58  C   UNL A   1      36.826  29.390  30.957  1.00  0.00     0.022 A 
BRANCH  55  59
ATOM     59  S   UNL A   1      35.894  30.653  28.652  1.00  0.00     0.124 S 
ATOM     60  O   UNL A   1      36.732  31.252  27.620  1.00  0.00    -0.237 OA
ATOM     61  O   UNL A   1      35.000  29.586  28.216  1.00  0.00    -0.237 OA
ATOM     62  O   UNL A   1      35.318  31.593  29.612  1.00  0.00    -0.744 OA
ENDBRANCH  55  59
ENDBRANCH  28  52
BRANCH  40  63
ATOM     63  C   UNL A   1      45.089  32.842  29.279  1.00  0.00     0.023 A 
ATOM     64  C   UNL A   1      44.787  33.886  28.387  1.00  0.00     0.031 A 
ATOM     65  C   UNL A   1      45.685  33.173  30.509  1.00  0.00     0.131 A 
ATOM     66  C   UNL A   1      45.141  35.204  28.710  1.00  0.00     0.055 A 
ATOM     67  C   UNL A   1      45.978  34.494  30.851  1.00  0.00     0.041 A 
ATOM     68  F   UNL A   1      45.999  32.215  31.396  1.00  0.00    -0.206 F 
ATOM     69  C   UNL A   1      45.719  35.517  29.942  1.00  0.00     0.022 A 
BRANCH  66  70
ATOM     70  S   UNL A   1      44.928  36.495  27.453  1.00  0.00     0.124 S 
ATOM     71  O   UNL A   1      46.285  36.643  26.938  1.00  0.00    -0.237 OA
ATOM     72  O   UNL A   1      43.964  35.889  26.542  1.00  0.00    -0.237 OA
ATOM     73  O   UNL A   1      44.426  37.637  28.216  1.00  0.00    -0.744 OA
ENDBRANCH  66  70
ENDBRANCH  40  63
ENDBRANCH  14  15
ENDBRANCH   7   9
ENDBRANCH   4   5
ENDBRANCH   3   4
ENDBRANCH   2   3
ENDBRANCH   1   2
BRANCH   1  74
ATOM     74  N   UNL A   1      36.346  23.107  25.022  1.00  0.00    -0.356 N 
ATOM     75  C   UNL A   1      35.115  23.681  24.925  1.00  0.00     0.224 C 
ATOM     76  H   UNL A   1      36.941  23.483  25.711  1.00  0.00     0.163 HD
ATOM     77  O   UNL A   1      34.836  24.587  25.710  1.00  0.00    -0.275 OA
BRANCH  75  78
ATOM     78  C   UNL A   1      34.164  23.203  23.837  1.00  0.00     0.098 C 
ATOM     79  C   UNL A   1      32.850  24.088  23.791  1.00  0.00     0.098 C 
ATOM     80  C   UNL A   1      33.601  21.764  24.065  1.00  0.00     0.025 C 
ATOM     81  C   UNL A   1      31.783  23.017  24.136  1.00  0.00     0.025 C 
ATOM     82  C   UNL A   1      33.073  21.670  25.474  1.00  0.00    -0.027 C 
ATOM     83  C   UNL A   1      32.273  21.829  23.317  1.00  0.00     0.017 C 
ATOM     84  C   UNL A   1      32.006  22.474  25.529  1.00  0.00    -0.027 C 
BRANCH  79  85
ATOM     85  C   UNL A   1      32.765  24.818  22.427  1.00  0.00     0.224 C 
ATOM     86  O   UNL A   1      33.527  24.549  21.495  1.00  0.00    -0.275 OA
ATOM     87  N   UNL A   1      31.901  25.861  22.225  1.00  0.00    -0.352 N 
ATOM     88  H   UNL A   1      32.074  26.459  21.464  1.00  0.00     0.163 HD
BRANCH  87  89
ATOM     89  C   UNL A   1      30.761  26.139  23.049  1.00  0.00     0.155 C 
BRANCH  89  90
ATOM     90  C   UNL A   1      30.109  27.486  23.032  1.00  0.00     0.013 A 
ATOM     91  C   UNL A   1      28.714  27.589  23.205  1.00  0.00     0.009 A 
ATOM     92  C   UNL A   1      30.828  28.637  22.646  1.00  0.00     0.124 A 
ATOM     93  C   UNL A   1      28.039  28.780  22.938  1.00  0.00     0.001 A 
ATOM     94  C   UNL A   1      30.120  29.803  22.319  1.00  0.00     0.047 A 
ATOM     95  C   UNL A   1      28.739  29.878  22.458  1.00  0.00     0.004 A 
BRANCH  92  96
ATOM     96  O   UNL A   1      32.167  28.839  22.486  1.00  0.00    -0.489 OA
BRANCH  96  97
ATOM     97  C   UNL A   1      33.148  28.979  23.509  1.00  0.00     0.265 C 
BRANCH  97  98
ATOM     98  C   UNL A   1      32.751  28.782  24.963  1.00  0.00    -0.011 A 
ATOM     99  C   UNL A   1      32.174  29.780  25.758  1.00  0.00     0.007 A 
ATOM    100  C   UNL A   1      32.872  27.495  25.521  1.00  0.00     0.007 A 
ATOM    101  C   UNL A   1      31.737  29.509  27.058  1.00  0.00     0.000 A 
ATOM    102  C   UNL A   1      32.449  27.226  26.826  1.00  0.00     0.000 A 
ATOM    103  C   UNL A   1      31.877  28.234  27.594  1.00  0.00     0.000 A 
ENDBRANCH  97  98
ENDBRANCH  96  97
ENDBRANCH  92  96
ENDBRANCH  89  90
ENDBRANCH  87  89
ENDBRANCH  79  85
ENDBRANCH  75  78
ENDBRANCH   1  74
TORSDOF 20
ENDMDL
MODEL 2
REMARK VINA RESULT:     -12.2      1.471      2.129
REMARK SMILES O=C(NCCCCNC(=O)[C@@H]1[C@@H](C(=O)NCc2ccccc2OCc2ccccc2)[C@@H]2C=C[C@H]1C2)c1ccc(-c2c3nc(c(-c4cc(S(=O)(=O)[O-])ccc4F)c4ccc([nH]4)c(-c4cc(S(=O)(=O)[O-])ccc4F)c4nc(c(-c5cc(S(=O)(=O)[O-])ccc5F)c5ccc2[nH]5)C=C4)C=C3)cc1
REMARK SMILES IDX 7 1 6 2 5 3 4 4 3 5 1 6 2 7 36 9 37 10 98 11 38 12 97 13
REMARK SMILES IDX 39 14 40 15 41 16 91 17 42 18 96 19 90 20 92 21 43 22 95 23
REMARK SMILES IDX 89 24 88 25 44 27 76 28 56 29 75 30 57 31 60 32 74 33 93 34
REMARK SMILES IDX 58 35 59 36 73 38 94 39 61 40 45 41 46 42 54 43 47 44 53 45
REMARK SMILES IDX 55 46 52 47 48 48 49 49 50 50 51 51 77 52 78 53 86 54 79 55
REMARK SMILES IDX 85 56 87 57 84 58 80 59 81 60 82 61 83 62 62 63 63 64 71 65
REMARK SMILES IDX 64 66 70 67 72 68 69 69 65 70 66 71 67 72 68 73 8 74 9 75
REMARK SMILES IDX 10 77 11 78 12 79 34 80 31 81 33 82 35 83 32 84 13 85 14 86
REMARK SMILES IDX 15 87 16 89 17 90 18 91 22 92 19 93 21 94 20 95 23 96 24 97
REMARK SMILES IDX 25 98 26 99 30 100 27 101 29 102 28 103
REMARK H PARENT 3 8 92 26 60 37 8 76 15 88
REMARK Flexibility Score: inf
ROOT
ATOM      1  C   UNL A   1      33.664  20.610  25.325  1.00  0.00     0.116 C 
ENDROOT
BRANCH   1   2
ATOM      2  C   UNL A   1      35.125  20.337  25.000  1.00  0.00     0.023 C 
BRANCH   2   3
ATOM      3  C   UNL A   1      36.124  21.239  25.718  1.00  0.00     0.023 C 
BRANCH   3   4
ATOM      4  C   UNL A   1      37.505  21.301  25.082  1.00  0.00     0.116 C 
BRANCH   4   5
ATOM      5  N   UNL A   1      38.388  20.244  25.561  1.00  0.00    -0.352 N 
ATOM      6  O   UNL A   1      40.308  19.358  26.355  1.00  0.00    -0.269 OA
ATOM      7  C   UNL A   1      39.613  20.355  26.176  1.00  0.00     0.251 C 
ATOM      8  H   UNL A   1      38.062  19.325  25.427  1.00  0.00     0.163 HD
BRANCH   7   9
ATOM      9  C   UNL A   1      40.089  21.687  26.598  1.00  0.00     0.039 A 
ATOM     10  C   UNL A   1      39.663  22.827  25.915  1.00  0.00     0.014 A 
ATOM     11  C   UNL A   1      40.994  21.795  27.657  1.00  0.00     0.014 A 
ATOM     12  C   UNL A   1      40.268  24.049  26.173  1.00  0.00     0.010 A 
ATOM     13  C   UNL A   1      41.522  23.047  27.987  1.00  0.00     0.010 A 
ATOM     14  C   UNL A   1      41.188  24.179  27.226  1.00  0.00    -0.014 A 
BRANCH  14  15
ATOM     15  C   UNL A   1      41.733  25.524  27.542  1.00  0.00     0.031 A 
ATOM     16  C   UNL A   1      43.088  25.955  27.050  1.00  0.00     0.074 A 
ATOM     17  C   UNL A   1      40.964  26.375  28.250  1.00  0.00     0.049 A 
ATOM     18  N   UNL A   1      43.711  27.090  27.240  1.00  0.00    -0.248 NA
ATOM     19  C   UNL A   1      43.846  24.982  26.250  1.00  0.00     0.031 C 
ATOM     20  C   UNL A   1      39.629  26.062  28.772  1.00  0.00     0.029 A 
ATOM     21  N   UNL A   1      41.171  27.674  28.635  1.00  0.00    -0.354 N 
ATOM     22  C   UNL A   1      44.938  26.969  26.597  1.00  0.00     0.074 A 
ATOM     23  C   UNL A   1      44.984  25.631  26.042  1.00  0.00     0.031 C 
ATOM     24  C   UNL A   1      39.119  27.151  29.360  1.00  0.00     0.029 A 
ATOM     25  C   UNL A   1      40.117  28.212  29.335  1.00  0.00     0.049 A 
ATOM     26  H   UNL A   1      41.995  28.172  28.432  1.00  0.00     0.167 HD
ATOM     27  C   UNL A   1      45.926  27.892  26.476  1.00  0.00     0.034 A 
ATOM     28  C   UNL A   1      39.977  29.416  29.921  1.00  0.00     0.034 A 
ATOM     29  C   UNL A   1      45.857  29.221  27.041  1.00  0.00     0.049 A 
ATOM     30  C   UNL A   1      41.110  30.400  29.819  1.00  0.00     0.074 A 
ATOM     31  C   UNL A   1      46.792  30.240  26.970  1.00  0.00     0.029 A 
ATOM     32  N   UNL A   1      44.794  29.716  27.789  1.00  0.00    -0.354 N 
ATOM     33  N   UNL A   1      42.265  30.267  29.207  1.00  0.00    -0.248 NA
ATOM     34  C   UNL A   1      40.923  31.693  30.485  1.00  0.00     0.031 C 
ATOM     35  C   UNL A   1      46.327  31.321  27.728  1.00  0.00     0.029 A 
ATOM     36  C   UNL A   1      45.065  31.010  28.208  1.00  0.00     0.049 A 
ATOM     37  H   UNL A   1      43.968  29.219  27.990  1.00  0.00     0.167 HD
ATOM     38  C   UNL A   1      42.933  31.471  29.399  1.00  0.00     0.074 A 
ATOM     39  C   UNL A   1      42.041  32.323  30.160  1.00  0.00     0.031 C 
ATOM     40  C   UNL A   1      44.171  31.840  28.983  1.00  0.00     0.034 A 
BRANCH  27  41
ATOM     41  C   UNL A   1      47.182  27.480  25.743  1.00  0.00     0.023 A 
ATOM     42  C   UNL A   1      47.405  27.825  24.399  1.00  0.00     0.031 A 
ATOM     43  C   UNL A   1      48.167  26.715  26.395  1.00  0.00     0.131 A 
ATOM     44  C   UNL A   1      48.548  27.353  23.732  1.00  0.00     0.055 A 
ATOM     45  C   UNL A   1      49.339  26.315  25.750  1.00  0.00     0.041 A 
ATOM     46  F   UNL A   1      48.003  26.336  27.673  1.00  0.00    -0.206 F 
ATOM     47  C   UNL A   1      49.529  26.622  24.406  1.00  0.00     0.022 A 
BRANCH  44  48
ATOM     48  S   UNL A   1      48.668  27.593  21.938  1.00  0.00     0.124 S 
ATOM     49  O   UNL A   1      47.350  28.141  21.624  1.00  0.00    -0.237 OA
ATOM     50  O   UNL A   1      49.789  28.518  21.818  1.00  0.00    -0.237 OA
ATOM     51  O   UNL A   1      48.911  26.245  21.427  1.00  0.00    -0.744 OA
ENDBRANCH  44  48
ENDBRANCH  27  41
BRANCH  28  52
ATOM     52  C   UNL A   1      38.740  29.739  30.688  1.00  0.00     0.023 A 
ATOM     53  C   UNL A   1      37.734  30.545  30.135  1.00  0.00     0.031 A 
ATOM     54  C   UNL A   1      38.562  29.266  32.000  1.00  0.00     0.131 A 
ATOM     55  C   UNL A   1      36.615  30.889  30.909  1.00  0.00     0.055 A 
ATOM     56  C   UNL A   1      37.418  29.560  32.742  1.00  0.00     0.041 A 
ATOM     57  F   UNL A   1      39.493  28.488  32.576  1.00  0.00    -0.206 F 
ATOM     58  C   UNL A   1      36.442  30.389  32.202  1.00  0.00     0.022 A 
BRANCH  55  59
ATOM     59  S   UNL A   1      35.427  32.080  30.229  1.00  0.00     0.124 S 
ATOM     60  O   UNL A   1      34.550  32.310  31.372  1.00  0.00    -0.237 OA
ATOM     61  O   UNL A   1      36.295  33.190  29.851  1.00  0.00    -0.237 OA
ATOM     62  O   UNL A   1      34.822  31.356  29.113  1.00  0.00    -0.744 OA
ENDBRANCH  55  59
ENDBRANCH  28  52
BRANCH  40  63
ATOM     63  C   UNL A   1      44.605  33.245  29.321  1.00  0.00     0.023 A 
ATOM     64  C   UNL A   1      44.322  34.329  28.471  1.00  0.00     0.031 A 
ATOM     65  C   UNL A   1      45.343  33.495  30.491  1.00  0.00     0.131 A 
ATOM     66  C   UNL A   1      44.831  35.601  28.771  1.00  0.00     0.055 A 
ATOM     67  C   UNL A   1      45.793  34.776  30.816  1.00  0.00     0.041 A 
ATOM     68  F   UNL A   1      45.646  32.495  31.335  1.00  0.00    -0.206 F 
ATOM     69  C   UNL A   1      45.550  35.835  29.945  1.00  0.00     0.022 A 
BRANCH  66  70
ATOM     70  S   UNL A   1      44.626  36.930  27.552  1.00  0.00     0.124 S 
ATOM     71  O   UNL A   1      44.056  36.213  26.416  1.00  0.00    -0.237 OA
ATOM     72  O   UNL A   1      43.728  37.850  28.240  1.00  0.00    -0.237 OA
ATOM     73  O   UNL A   1      45.987  37.425  27.354  1.00  0.00    -0.744 OA
ENDBRANCH  66  70
ENDBRANCH  40  63
ENDBRANCH  14  15
ENDBRANCH   7   9
ENDBRANCH   4   5
ENDBRANCH   3   4
ENDBRANCH   2   3
ENDBRANCH   1   2
BRANCH   1  74
ATOM     74  N   UNL A   1      32.887  20.994  24.168  1.00  0.00    -0.356 N 
ATOM     75  C   UNL A   1      32.423  22.230  23.833  1.00  0.00     0.224 C 
ATOM     76  H   UNL A   1      32.664  20.269  23.540  1.00  0.00     0.163 HD
ATOM     77  O   UNL A   1      31.800  22.349  22.778  1.00  0.00    -0.275 OA
BRANCH  75  78
ATOM     78  C   UNL A   1      32.664  23.391  24.788  1.00  0.00     0.098 C 
ATOM     79  C   UNL A   1      31.948  24.711  24.285  1.00  0.00     0.098 C 
ATOM     80  C   UNL A   1      34.158  23.831  24.898  1.00  0.00     0.025 C 
ATOM     81  C   UNL A   1      33.179  25.627  24.067  1.00  0.00     0.025 C 
ATOM     82  C   UNL A   1      34.711  24.012  23.507  1.00  0.00    -0.027 C 
ATOM     83  C   UNL A   1      34.021  25.298  25.293  1.00  0.00     0.017 C 
ATOM     84  C   UNL A   1      34.074  25.066  22.985  1.00  0.00    -0.027 C 
BRANCH  79  85
ATOM     85  C   UNL A   1      30.867  25.138  25.311  1.00  0.00     0.224 C 
ATOM     86  O   UNL A   1      31.038  25.013  26.526  1.00  0.00    -0.275 OA
ATOM     87  N   UNL A   1      29.638  25.587  24.911  1.00  0.00    -0.352 N 
ATOM     88  H   UNL A   1      28.909  25.579  25.571  1.00  0.00     0.163 HD
BRANCH  87  89
ATOM     89  C   UNL A   1      29.340  26.071  23.594  1.00  0.00     0.155 C 
BRANCH  89  90
ATOM     90  C   UNL A   1      28.993  27.507  23.361  1.00  0.00     0.013 A 
ATOM     91  C   UNL A   1      27.656  27.933  23.500  1.00  0.00     0.009 A 
ATOM     92  C   UNL A   1      29.934  28.403  22.810  1.00  0.00     0.124 A 
ATOM     93  C   UNL A   1      27.247  29.187  23.045  1.00  0.00     0.001 A 
ATOM     94  C   UNL A   1      29.485  29.629  22.298  1.00  0.00     0.047 A 
ATOM     95  C   UNL A   1      28.155  30.021  22.408  1.00  0.00     0.004 A 
BRANCH  92  96
ATOM     96  O   UNL A   1      31.280  28.284  22.635  1.00  0.00    -0.489 OA
BRANCH  96  97
ATOM     97  C   UNL A   1      32.304  29.046  23.267  1.00  0.00     0.265 C 
BRANCH  97  98
ATOM     98  C   UNL A   1      32.508  28.930  24.769  1.00  0.00    -0.011 A 
ATOM     99  C   UNL A   1      31.472  28.698  25.683  1.00  0.00     0.007 A 
ATOM    100  C   UNL A   1      33.823  28.955  25.269  1.00  0.00     0.007 A 
ATOM    101  C   UNL A   1      31.735  28.499  27.042  1.00  0.00     0.000 A 
ATOM    102  C   UNL A   1      34.087  28.772  26.630  1.00  0.00     0.000 A 
ATOM    103  C   UNL A   1      33.041  28.541  27.516  1.00  0.00     0.000 A 
ENDBRANCH  97  98
ENDBRANCH  96  97
ENDBRANCH  92  96
ENDBRANCH  89  90
ENDBRANCH  87  89
ENDBRANCH  79  85
ENDBRANCH  75  78
ENDBRANCH   1  74
TORSDOF 20
ENDMDL
MODEL 3
REMARK VINA RESULT:     -12.1      0.859      2.037
REMARK SMILES O=C(NCCCCNC(=O)[C@@H]1[C@@H](C(=O)NCc2ccccc2OCc2ccccc2)[C@@H]2C=C[C@H]1C2)c1ccc(-c2c3nc(c(-c4cc(S(=O)(=O)[O-])ccc4F)c4ccc([nH]4)c(-c4cc(S(=O)(=O)[O-])ccc4F)c4nc(c(-c5cc(S(=O)(=O)[O-])ccc5F)c5ccc2[nH]5)C=C4)C=C3)cc1
REMARK SMILES IDX 7 1 6 2 5 3 4 4 3 5 1 6 2 7 36 9 37 10 98 11 38 12 97 13
REMARK SMILES IDX 39 14 40 15 41 16 91 17 42 18 96 19 90 20 92 21 43 22 95 23
REMARK SMILES IDX 89 24 88 25 44 27 76 28 56 29 75 30 57 31 60 32 74 33 93 34
REMARK SMILES IDX 58 35 59 36 73 38 94 39 61 40 45 41 46 42 54 43 47 44 53 45
REMARK SMILES IDX 55 46 52 47 48 48 49 49 50 50 51 51 77 52 78 53 86 54 79 55
REMARK SMILES IDX 85 56 87 57 84 58 80 59 81 60 82 61 83 62 62 63 63 64 71 65
REMARK SMILES IDX 64 66 70 67 72 68 69 69 65 70 66 71 67 72 68 73 8 74 9 75
REMARK SMILES IDX 10 77 11 78 12 79 34 80 31 81 33 82 35 83 32 84 13 85 14 86
REMARK SMILES IDX 15 87 16 89 17 90 18 91 22 92 19 93 21 94 20 95 23 96 24 97
REMARK SMILES IDX 25 98 26 99 30 100 27 101 29 102 28 103
REMARK H PARENT 3 8 92 26 60 37 8 76 15 88
REMARK Flexibility Score: inf
ROOT
ATOM      1  C   UNL A   1      36.859  22.140  24.074  1.00  0.00     0.116 C 
ENDROOT
BRANCH   1   2
ATOM      2  C   UNL A   1      36.809  20.924  24.988  1.00  0.00     0.023 C 
BRANCH   2   3
ATOM      3  C   UNL A   1      38.047  20.035  24.943  1.00  0.00     0.023 C 
BRANCH   3   4
ATOM      4  C   UNL A   1      39.141  20.408  25.934  1.00  0.00     0.116 C 
BRANCH   4   5
ATOM      5  N   UNL A   1      40.238  19.448  25.942  1.00  0.00    -0.352 N 
ATOM      6  O   UNL A   1      42.392  18.772  25.875  1.00  0.00    -0.269 OA
ATOM      7  C   UNL A   1      41.588  19.679  26.068  1.00  0.00     0.251 C 
ATOM      8  H   UNL A   1      39.976  18.504  25.846  1.00  0.00     0.163 HD
BRANCH   7   9
ATOM      9  C   UNL A   1      42.057  21.035  26.417  1.00  0.00     0.039 A 
ATOM     10  C   UNL A   1      42.175  21.407  27.756  1.00  0.00     0.014 A 
ATOM     11  C   UNL A   1      42.344  21.951  25.401  1.00  0.00     0.014 A 
ATOM     12  C   UNL A   1      42.410  22.736  28.082  1.00  0.00     0.010 A 
ATOM     13  C   UNL A   1      42.688  23.264  25.734  1.00  0.00     0.010 A 
ATOM     14  C   UNL A   1      42.691  23.676  27.077  1.00  0.00    -0.014 A 
BRANCH  14  15
ATOM     15  C   UNL A   1      43.045  25.064  27.470  1.00  0.00     0.031 A 
ATOM     16  C   UNL A   1      44.432  25.607  27.258  1.00  0.00     0.074 A 
ATOM     17  C   UNL A   1      42.078  25.848  27.987  1.00  0.00     0.049 A 
ATOM     18  N   UNL A   1      44.905  26.792  27.549  1.00  0.00    -0.248 NA
ATOM     19  C   UNL A   1      45.417  24.700  26.652  1.00  0.00     0.031 C 
ATOM     20  C   UNL A   1      40.695  25.423  28.229  1.00  0.00     0.029 A 
ATOM     21  N   UNL A   1      42.093  27.160  28.380  1.00  0.00    -0.354 N 
ATOM     22  C   UNL A   1      46.244  26.774  27.175  1.00  0.00     0.074 A 
ATOM     23  C   UNL A   1      46.515  25.444  26.669  1.00  0.00     0.031 C 
ATOM     24  C   UNL A   1      39.986  26.467  28.676  1.00  0.00     0.029 A 
ATOM     25  C   UNL A   1      40.876  27.609  28.836  1.00  0.00     0.049 A 
ATOM     26  H   UNL A   1      42.897  27.727  28.339  1.00  0.00     0.167 HD
ATOM     27  C   UNL A   1      47.156  27.778  27.240  1.00  0.00     0.034 A 
ATOM     28  C   UNL A   1      40.518  28.799  29.356  1.00  0.00     0.034 A 
ATOM     29  C   UNL A   1      46.862  29.098  27.752  1.00  0.00     0.049 A 
ATOM     30  C   UNL A   1      41.562  29.876  29.469  1.00  0.00     0.074 A 
ATOM     31  C   UNL A   1      47.704  30.192  27.854  1.00  0.00     0.029 A 
ATOM     32  N   UNL A   1      45.630  29.502  28.254  1.00  0.00    -0.354 N 
ATOM     33  N   UNL A   1      42.825  29.839  29.110  1.00  0.00    -0.248 NA
ATOM     34  C   UNL A   1      41.134  31.149  30.055  1.00  0.00     0.031 C 
ATOM     35  C   UNL A   1      47.003  31.232  28.477  1.00  0.00     0.029 A 
ATOM     36  C   UNL A   1      45.700  30.817  28.694  1.00  0.00     0.049 A 
ATOM     37  H   UNL A   1      44.824  28.938  28.292  1.00  0.00     0.167 HD
ATOM     38  C   UNL A   1      43.337  31.097  29.410  1.00  0.00     0.074 A 
ATOM     39  C   UNL A   1      42.239  31.872  29.954  1.00  0.00     0.031 C 
ATOM     40  C   UNL A   1      44.599  31.569  29.251  1.00  0.00     0.034 A 
BRANCH  27  41
ATOM     41  C   UNL A   1      48.566  27.472  26.791  1.00  0.00     0.023 A 
ATOM     42  C   UNL A   1      49.068  27.926  25.558  1.00  0.00     0.031 A 
ATOM     43  C   UNL A   1      49.420  26.701  27.602  1.00  0.00     0.131 A 
ATOM     44  C   UNL A   1      50.356  27.552  25.143  1.00  0.00     0.055 A 
ATOM     45  C   UNL A   1      50.728  26.397  27.217  1.00  0.00     0.041 A 
ATOM     46  F   UNL A   1      48.993  26.220  28.780  1.00  0.00    -0.206 F 
ATOM     47  C   UNL A   1      51.199  26.812  25.975  1.00  0.00     0.022 A 
BRANCH  44  48
ATOM     48  S   UNL A   1      50.865  27.930  23.443  1.00  0.00     0.124 S 
ATOM     49  O   UNL A   1      49.575  28.065  22.772  1.00  0.00    -0.237 OA
ATOM     50  O   UNL A   1      51.630  29.161  23.610  1.00  0.00    -0.237 OA
ATOM     51  O   UNL A   1      51.645  26.758  23.050  1.00  0.00    -0.744 OA
ENDBRANCH  44  48
ENDBRANCH  27  41
BRANCH  28  52
ATOM     52  C   UNL A   1      39.127  29.017  29.844  1.00  0.00     0.023 A 
ATOM     53  C   UNL A   1      38.164  29.640  29.037  1.00  0.00     0.031 A 
ATOM     54  C   UNL A   1      38.750  28.629  31.143  1.00  0.00     0.131 A 
ATOM     55  C   UNL A   1      36.884  29.895  29.552  1.00  0.00     0.055 A 
ATOM     56  C   UNL A   1      37.458  28.829  31.628  1.00  0.00     0.041 A 
ATOM     57  F   UNL A   1      39.632  28.026  31.956  1.00  0.00    -0.206 F 
ATOM     58  C   UNL A   1      36.519  29.480  30.835  1.00  0.00     0.022 A 
BRANCH  55  59
ATOM     59  S   UNL A   1      35.725  30.864  28.548  1.00  0.00     0.124 S 
ATOM     60  O   UNL A   1      36.633  31.658  27.729  1.00  0.00    -0.237 OA
ATOM     61  O   UNL A   1      34.979  29.819  27.855  1.00  0.00    -0.237 OA
ATOM     62  O   UNL A   1      34.962  31.617  29.542  1.00  0.00    -0.744 OA
ENDBRANCH  55  59
ENDBRANCH  28  52
BRANCH  40  63
ATOM     63  C   UNL A   1      44.836  33.007  29.642  1.00  0.00     0.023 A 
ATOM     64  C   UNL A   1      44.553  34.067  28.762  1.00  0.00     0.031 A 
ATOM     65  C   UNL A   1      45.386  33.318  30.898  1.00  0.00     0.131 A 
ATOM     66  C   UNL A   1      44.882  35.381  29.125  1.00  0.00     0.055 A 
ATOM     67  C   UNL A   1      45.654  34.633  31.278  1.00  0.00     0.041 A 
ATOM     68  F   UNL A   1      45.680  32.343  31.775  1.00  0.00    -0.206 F 
ATOM     69  C   UNL A   1      45.415  35.673  30.383  1.00  0.00     0.022 A 
BRANCH  66  70
ATOM     70  S   UNL A   1      44.698  36.697  27.889  1.00  0.00     0.124 S 
ATOM     71  O   UNL A   1      46.022  37.311  27.902  1.00  0.00    -0.237 OA
ATOM     72  O   UNL A   1      44.354  35.949  26.685  1.00  0.00    -0.237 OA
ATOM     73  O   UNL A   1      43.623  37.528  28.431  1.00  0.00    -0.744 OA
ENDBRANCH  66  70
ENDBRANCH  40  63
ENDBRANCH  14  15
ENDBRANCH   7   9
ENDBRANCH   4   5
ENDBRANCH   3   4
ENDBRANCH   2   3
ENDBRANCH   1   2
BRANCH   1  74
ATOM     74  N   UNL A   1      36.238  23.311  24.653  1.00  0.00    -0.356 N 
ATOM     75  C   UNL A   1      34.986  23.799  24.435  1.00  0.00     0.224 C 
ATOM     76  H   UNL A   1      36.793  23.822  25.287  1.00  0.00     0.163 HD
ATOM     77  O   UNL A   1      34.639  24.803  25.057  1.00  0.00    -0.275 OA
BRANCH  75  78
ATOM     78  C   UNL A   1      34.094  23.107  23.414  1.00  0.00     0.098 C 
ATOM     79  C   UNL A   1      32.822  23.986  23.069  1.00  0.00     0.098 C 
ATOM     80  C   UNL A   1      33.462  21.771  23.917  1.00  0.00     0.025 C 
ATOM     81  C   UNL A   1      31.693  23.046  23.565  1.00  0.00     0.025 C 
ATOM     82  C   UNL A   1      32.835  22.012  25.267  1.00  0.00    -0.027 C 
ATOM     83  C   UNL A   1      32.192  21.692  23.075  1.00  0.00     0.017 C 
ATOM     84  C   UNL A   1      31.798  22.831  25.058  1.00  0.00    -0.027 C 
BRANCH  79  85
ATOM     85  C   UNL A   1      32.860  24.388  21.573  1.00  0.00     0.224 C 
ATOM     86  O   UNL A   1      33.430  23.695  20.726  1.00  0.00    -0.275 OA
ATOM     87  N   UNL A   1      32.342  25.579  21.138  1.00  0.00    -0.352 N 
ATOM     88  H   UNL A   1      32.629  25.910  20.257  1.00  0.00     0.163 HD
BRANCH  87  89
ATOM     89  C   UNL A   1      31.407  26.375  21.878  1.00  0.00     0.155 C 
BRANCH  89  90
ATOM     90  C   UNL A   1      31.868  27.533  22.705  1.00  0.00     0.013 A 
ATOM     91  C   UNL A   1      33.234  27.881  22.721  1.00  0.00     0.009 A 
ATOM     92  C   UNL A   1      31.002  28.160  23.627  1.00  0.00     0.124 A 
ATOM     93  C   UNL A   1      33.742  28.773  23.665  1.00  0.00     0.001 A 
ATOM     94  C   UNL A   1      31.547  29.000  24.608  1.00  0.00     0.047 A 
ATOM     95  C   UNL A   1      32.903  29.304  24.635  1.00  0.00     0.004 A 
BRANCH  92  96
ATOM     96  O   UNL A   1      29.650  28.072  23.779  1.00  0.00    -0.489 OA
BRANCH  96  97
ATOM     97  C   UNL A   1      28.648  28.514  22.867  1.00  0.00     0.265 C 
BRANCH  97  98
ATOM     98  C   UNL A   1      28.489  29.999  22.587  1.00  0.00    -0.011 A 
ATOM     99  C   UNL A   1      28.691  31.001  23.545  1.00  0.00     0.007 A 
ATOM    100  C   UNL A   1      28.224  30.406  21.266  1.00  0.00     0.007 A 
ATOM    101  C   UNL A   1      28.630  32.355  23.201  1.00  0.00     0.000 A 
ATOM    102  C   UNL A   1      28.146  31.759  20.924  1.00  0.00     0.000 A 
ATOM    103  C   UNL A   1      28.354  32.735  21.892  1.00  0.00     0.000 A 
ENDBRANCH  97  98
ENDBRANCH  96  97
ENDBRANCH  92  96
ENDBRANCH  89  90
ENDBRANCH  87  89
ENDBRANCH  79  85
ENDBRANCH  75  78
ENDBRANCH   1  74
TORSDOF 20
ENDMDL
