MODEL 1
REMARK VINA RESULT:     -11.0      0.000      0.000
REMARK SMILES C[C@H](C(=O)NCCCCNC(=O)c1ccc(-c2c3nc(c(-c4cc(S(=O)(=O)[O-])ccc4F)c4ccc([nH]4)c(-c4cc(S(=O)(=O)[O-])ccc4F)c4nc(c(-c5cc(S(=O)(=O)[O-])ccc5F)c5ccc2[nH]5)C=C4)C=C3)cc1)[C@H](C)[S@@](=O)c1cccs1
REMARK SMILES IDX 7 1 6 2 5 3 3 4 4 5 2 7 1 8 76 9 77 10 78 11 79 12 80 13
REMARK SMILES IDX 81 14 84 15 82 16 83 17 8 18 9 19 10 20 11 21 12 23 13 24
REMARK SMILES IDX 14 25 75 26 15 27 74 28 16 29 17 30 18 31 68 32 19 33 73 34
REMARK SMILES IDX 67 35 69 36 20 37 72 38 66 39 65 40 21 42 53 43 33 44 52 45
REMARK SMILES IDX 34 46 37 47 51 48 70 49 35 50 36 51 50 53 71 54 38 55 22 56
REMARK SMILES IDX 23 57 31 58 24 59 30 60 32 61 29 62 25 63 26 64 27 65 28 66
REMARK SMILES IDX 54 67 55 68 63 69 56 70 62 71 64 72 61 73 57 74 58 75 59 76
REMARK SMILES IDX 60 77 39 78 40 79 48 80 41 81 47 82 49 83 46 84 42 85 43 86
REMARK SMILES IDX 44 87 45 88
REMARK H PARENT 5 6 10 22 69 41 37 52
REMARK Flexibility Score: inf
ROOT
ATOM      1  C   UNL A   1      31.207  31.660  26.534  1.00  0.00     0.023 C 
ENDROOT
BRANCH   1   2
ATOM      2  C   UNL A   1      32.284  30.581  26.583  1.00  0.00     0.116 C 
BRANCH   2   3
ATOM      3  N   UNL A   1      31.820  29.396  27.284  1.00  0.00    -0.356 N 
ATOM      4  C   UNL A   1      31.615  28.127  26.831  1.00  0.00     0.224 C 
ATOM      5  O   UNL A   1      31.276  27.285  27.660  1.00  0.00    -0.275 OA
ATOM      6  H   UNL A   1      31.622  29.531  28.238  1.00  0.00     0.163 HD
BRANCH   4   7
ATOM      7  C   UNL A   1      31.931  27.786  25.375  1.00  0.00     0.091 C 
ATOM      8  C   UNL A   1      32.822  26.544  25.449  1.00  0.00     0.019 C 
BRANCH   7   9
ATOM      9  C   UNL A   1      30.691  27.770  24.426  1.00  0.00     0.094 C 
ATOM     10  C   UNL A   1      29.836  26.509  24.326  1.00  0.00     0.023 C 
BRANCH   9  11
ATOM     11  S   UNL A   1      30.877  28.579  22.783  1.00  0.00     0.067 S 
ATOM     12  O   UNL A   1      30.559  27.576  21.717  1.00  0.00    -0.253 OA
BRANCH  11  13
ATOM     13  C   UNL A   1      29.639  29.808  22.796  1.00  0.00     0.091 A 
ATOM     14  C   UNL A   1      29.421  30.680  23.841  1.00  0.00     0.029 A 
ATOM     15  S   UNL A   1      28.638  30.169  21.459  1.00  0.00    -0.135 S 
ATOM     16  C   UNL A   1      28.299  31.530  23.604  1.00  0.00     0.013 A 
ATOM     17  C   UNL A   1      27.741  31.310  22.364  1.00  0.00     0.066 A 
ENDBRANCH  11  13
ENDBRANCH   9  11
ENDBRANCH   7   9
ENDBRANCH   4   7
ENDBRANCH   2   3
ENDBRANCH   1   2
BRANCH   1  18
ATOM     18  C   UNL A   1      31.744  33.093  26.493  1.00  0.00     0.023 C 
BRANCH  18  19
ATOM     19  C   UNL A   1      32.812  33.421  27.531  1.00  0.00     0.116 C 
BRANCH  19  20
ATOM     20  N   UNL A   1      32.700  34.777  28.037  1.00  0.00    -0.352 N 
ATOM     21  C   UNL A   1      33.353  35.366  29.092  1.00  0.00     0.251 C 
ATOM     22  H   UNL A   1      32.068  35.358  27.555  1.00  0.00     0.163 HD
ATOM     23  O   UNL A   1      32.993  36.480  29.472  1.00  0.00    -0.269 OA
BRANCH  21  24
ATOM     24  C   UNL A   1      34.456  34.661  29.784  1.00  0.00     0.039 A 
ATOM     25  C   UNL A   1      34.194  34.039  31.007  1.00  0.00     0.014 A 
ATOM     26  C   UNL A   1      35.750  34.632  29.253  1.00  0.00     0.014 A 
ATOM     27  C   UNL A   1      35.217  33.364  31.678  1.00  0.00     0.010 A 
ATOM     28  C   UNL A   1      36.745  33.885  29.878  1.00  0.00     0.010 A 
ATOM     29  C   UNL A   1      36.499  33.265  31.112  1.00  0.00    -0.014 A 
BRANCH  29  30
ATOM     30  C   UNL A   1      37.599  32.570  31.832  1.00  0.00     0.031 A 
ATOM     31  C   UNL A   1      38.329  31.429  31.170  1.00  0.00     0.074 A 
ATOM     32  C   UNL A   1      37.929  32.947  33.083  1.00  0.00     0.049 A 
ATOM     33  N   UNL A   1      39.308  30.692  31.629  1.00  0.00    -0.248 NA
ATOM     34  C   UNL A   1      37.874  31.045  29.825  1.00  0.00     0.031 C 
ATOM     35  C   UNL A   1      37.272  34.011  33.846  1.00  0.00     0.029 A 
ATOM     36  N   UNL A   1      38.904  32.486  33.934  1.00  0.00    -0.354 N 
ATOM     37  C   UNL A   1      39.576  29.753  30.638  1.00  0.00     0.074 A 
ATOM     38  C   UNL A   1      38.605  29.969  29.587  1.00  0.00     0.031 C 
ATOM     39  C   UNL A   1      37.889  34.149  35.031  1.00  0.00     0.029 A 
ATOM     40  C   UNL A   1      38.955  33.158  35.134  1.00  0.00     0.049 A 
ATOM     41  H   UNL A   1      39.509  31.744  33.706  1.00  0.00     0.167 HD
ATOM     42  C   UNL A   1      40.556  28.816  30.593  1.00  0.00     0.034 A 
ATOM     43  C   UNL A   1      39.772  32.995  36.194  1.00  0.00     0.034 A 
ATOM     44  C   UNL A   1      41.526  28.626  31.644  1.00  0.00     0.049 A 
ATOM     45  C   UNL A   1      40.847  31.938  36.128  1.00  0.00     0.074 A 
ATOM     46  C   UNL A   1      42.593  27.745  31.685  1.00  0.00     0.029 A 
ATOM     47  N   UNL A   1      41.545  29.323  32.847  1.00  0.00    -0.354 N 
ATOM     48  N   UNL A   1      41.123  31.095  35.159  1.00  0.00    -0.248 NA
ATOM     49  C   UNL A   1      41.734  31.826  37.293  1.00  0.00     0.031 C 
ATOM     50  C   UNL A   1      43.206  27.853  32.937  1.00  0.00     0.029 A 
ATOM     51  C   UNL A   1      42.585  28.869  33.645  1.00  0.00     0.049 A 
ATOM     52  H   UNL A   1      40.912  30.034  33.096  1.00  0.00     0.167 HD
ATOM     53  C   UNL A   1      42.246  30.387  35.581  1.00  0.00     0.074 A 
ATOM     54  C   UNL A   1      42.599  30.912  36.883  1.00  0.00     0.031 C 
ATOM     55  C   UNL A   1      42.928  29.398  34.946  1.00  0.00     0.034 A 
BRANCH  42  56
ATOM     56  C   UNL A   1      40.604  27.912  29.381  1.00  0.00     0.023 A 
ATOM     57  C   UNL A   1      41.534  28.107  28.344  1.00  0.00     0.031 A 
ATOM     58  C   UNL A   1      39.681  26.860  29.243  1.00  0.00     0.131 A 
ATOM     59  C   UNL A   1      41.466  27.321  27.183  1.00  0.00     0.055 A 
ATOM     60  C   UNL A   1      39.679  26.022  28.126  1.00  0.00     0.041 A 
ATOM     61  F   UNL A   1      38.753  26.636  30.187  1.00  0.00    -0.206 F 
ATOM     62  C   UNL A   1      40.564  26.261  27.080  1.00  0.00     0.022 A 
BRANCH  59  63
ATOM     63  S   UNL A   1      42.461  27.810  25.747  1.00  0.00     0.124 S 
ATOM     64  O   UNL A   1      41.837  29.078  25.375  1.00  0.00    -0.237 OA
ATOM     65  O   UNL A   1      43.804  27.899  26.309  1.00  0.00    -0.237 OA
ATOM     66  O   UNL A   1      42.251  26.719  24.797  1.00  0.00    -0.744 OA
ENDBRANCH  59  63
ENDBRANCH  42  56
BRANCH  43  67
ATOM     67  C   UNL A   1      39.625  33.854  37.407  1.00  0.00     0.023 A 
ATOM     68  C   UNL A   1      38.934  33.394  38.540  1.00  0.00     0.031 A 
ATOM     69  C   UNL A   1      40.126  35.168  37.430  1.00  0.00     0.131 A 
ATOM     70  C   UNL A   1      38.712  34.257  39.624  1.00  0.00     0.055 A 
ATOM     71  C   UNL A   1      39.955  36.002  38.536  1.00  0.00     0.041 A 
ATOM     72  F   UNL A   1      40.798  35.658  36.377  1.00  0.00    -0.206 F 
ATOM     73  C   UNL A   1      39.230  35.554  39.636  1.00  0.00     0.022 A 
BRANCH  70  74
ATOM     74  S   UNL A   1      37.647  33.693  40.980  1.00  0.00     0.124 S 
ATOM     75  O   UNL A   1      36.576  33.019  40.255  1.00  0.00    -0.237 OA
ATOM     76  O   UNL A   1      38.551  32.833  41.737  1.00  0.00    -0.237 OA
ATOM     77  O   UNL A   1      37.265  34.934  41.650  1.00  0.00    -0.744 OA
ENDBRANCH  70  74
ENDBRANCH  43  67
BRANCH  55  78
ATOM     78  C   UNL A   1      44.171  28.872  35.628  1.00  0.00     0.023 A 
ATOM     79  C   UNL A   1      44.130  27.801  36.536  1.00  0.00     0.031 A 
ATOM     80  C   UNL A   1      45.417  29.480  35.382  1.00  0.00     0.131 A 
ATOM     81  C   UNL A   1      45.292  27.422  37.226  1.00  0.00     0.055 A 
ATOM     82  C   UNL A   1      46.584  29.047  36.012  1.00  0.00     0.041 A 
ATOM     83  F   UNL A   1      45.520  30.509  34.527  1.00  0.00    -0.206 F 
ATOM     84  C   UNL A   1      46.523  28.025  36.955  1.00  0.00     0.022 A 
BRANCH  81  85
ATOM     85  S   UNL A   1      45.150  26.221  38.577  1.00  0.00     0.124 S 
ATOM     86  O   UNL A   1      44.310  25.189  37.977  1.00  0.00    -0.237 OA
ATOM     87  O   UNL A   1      46.542  25.851  38.812  1.00  0.00    -0.237 OA
ATOM     88  O   UNL A   1      44.520  26.985  39.652  1.00  0.00    -0.744 OA
ENDBRANCH  81  85
ENDBRANCH  55  78
ENDBRANCH  29  30
ENDBRANCH  21  24
ENDBRANCH  19  20
ENDBRANCH  18  19
ENDBRANCH   1  18
TORSDOF 17
ENDMDL
MODEL 2
REMARK VINA RESULT:     -10.9      2.940      8.646
REMARK SMILES C[C@H](C(=O)NCCCCNC(=O)c1ccc(-c2c3nc(c(-c4cc(S(=O)(=O)[O-])ccc4F)c4ccc([nH]4)c(-c4cc(S(=O)(=O)[O-])ccc4F)c4nc(c(-c5cc(S(=O)(=O)[O-])ccc5F)c5ccc2[nH]5)C=C4)C=C3)cc1)[C@H](C)[S@@](=O)c1cccs1
REMARK SMILES IDX 7 1 6 2 5 3 3 4 4 5 2 7 1 8 76 9 77 10 78 11 79 12 80 13
REMARK SMILES IDX 81 14 84 15 82 16 83 17 8 18 9 19 10 20 11 21 12 23 13 24
REMARK SMILES IDX 14 25 75 26 15 27 74 28 16 29 17 30 18 31 68 32 19 33 73 34
REMARK SMILES IDX 67 35 69 36 20 37 72 38 66 39 65 40 21 42 53 43 33 44 52 45
REMARK SMILES IDX 34 46 37 47 51 48 70 49 35 50 36 51 50 53 71 54 38 55 22 56
REMARK SMILES IDX 23 57 31 58 24 59 30 60 32 61 29 62 25 63 26 64 27 65 28 66
REMARK SMILES IDX 54 67 55 68 63 69 56 70 62 71 64 72 61 73 57 74 58 75 59 76
REMARK SMILES IDX 60 77 39 78 40 79 48 80 41 81 47 82 49 83 46 84 42 85 43 86
REMARK SMILES IDX 44 87 45 88
REMARK H PARENT 5 6 10 22 69 41 37 52
REMARK Flexibility Score: inf
ROOT
ATOM      1  C   UNL A   1      31.468  27.598  26.738  1.00  0.00     0.023 C 
ENDROOT
BRANCH   1   2
ATOM      2  C   UNL A   1      32.650  26.916  26.056  1.00  0.00     0.116 C 
BRANCH   2   3
ATOM      3  N   UNL A   1      32.800  25.541  26.500  1.00  0.00    -0.356 N 
ATOM      4  C   UNL A   1      33.526  24.517  25.968  1.00  0.00     0.224 C 
ATOM      5  O   UNL A   1      33.531  23.454  26.587  1.00  0.00    -0.275 OA
ATOM      6  H   UNL A   1      32.297  25.312  27.314  1.00  0.00     0.163 HD
BRANCH   4   7
ATOM      7  C   UNL A   1      34.383  24.765  24.728  1.00  0.00     0.091 C 
ATOM      8  C   UNL A   1      35.697  24.032  25.007  1.00  0.00     0.019 C 
BRANCH   7   9
ATOM      9  C   UNL A   1      33.653  24.515  23.370  1.00  0.00     0.094 C 
ATOM     10  C   UNL A   1      34.049  23.316  22.513  1.00  0.00     0.023 C 
BRANCH   9  11
ATOM     11  S   UNL A   1      33.285  25.986  22.327  1.00  0.00     0.067 S 
ATOM     12  O   UNL A   1      33.249  25.557  20.892  1.00  0.00    -0.253 OA
BRANCH  11  13
ATOM     13  C   UNL A   1      31.676  26.441  22.826  1.00  0.00     0.091 A 
ATOM     14  C   UNL A   1      31.131  27.693  22.641  1.00  0.00     0.029 A 
ATOM     15  S   UNL A   1      30.535  25.350  23.478  1.00  0.00    -0.135 S 
ATOM     16  C   UNL A   1      29.825  27.798  23.209  1.00  0.00     0.013 A 
ATOM     17  C   UNL A   1      29.405  26.605  23.754  1.00  0.00     0.066 A 
ENDBRANCH  11  13
ENDBRANCH   9  11
ENDBRANCH   7   9
ENDBRANCH   4   7
ENDBRANCH   2   3
ENDBRANCH   1   2
BRANCH   1  18
ATOM     18  C   UNL A   1      31.767  29.000  27.278  1.00  0.00     0.023 C 
BRANCH  18  19
ATOM     19  C   UNL A   1      33.068  29.626  26.786  1.00  0.00     0.116 C 
BRANCH  19  20
ATOM     20  N   UNL A   1      33.069  31.073  26.902  1.00  0.00    -0.352 N 
ATOM     21  C   UNL A   1      33.935  31.888  27.587  1.00  0.00     0.251 C 
ATOM     22  H   UNL A   1      32.346  31.536  26.419  1.00  0.00     0.163 HD
ATOM     23  O   UNL A   1      33.667  33.083  27.705  1.00  0.00    -0.269 OA
BRANCH  21  24
ATOM     24  C   UNL A   1      35.164  31.335  28.201  1.00  0.00     0.039 A 
ATOM     25  C   UNL A   1      36.353  32.060  28.097  1.00  0.00     0.014 A 
ATOM     26  C   UNL A   1      35.160  30.097  28.851  1.00  0.00     0.014 A 
ATOM     27  C   UNL A   1      37.525  31.561  28.671  1.00  0.00     0.010 A 
ATOM     28  C   UNL A   1      36.307  29.644  29.499  1.00  0.00     0.010 A 
ATOM     29  C   UNL A   1      37.511  30.357  29.393  1.00  0.00    -0.014 A 
BRANCH  29  30
ATOM     30  C   UNL A   1      38.760  29.807  29.985  1.00  0.00     0.031 A 
ATOM     31  C   UNL A   1      39.207  30.260  31.352  1.00  0.00     0.074 A 
ATOM     32  C   UNL A   1      39.500  28.920  29.292  1.00  0.00     0.049 A 
ATOM     33  N   UNL A   1      40.264  29.907  32.038  1.00  0.00    -0.248 NA
ATOM     34  C   UNL A   1      38.371  31.268  32.020  1.00  0.00     0.031 C 
ATOM     35  C   UNL A   1      39.194  28.433  27.945  1.00  0.00     0.029 A 
ATOM     36  N   UNL A   1      40.660  28.262  29.623  1.00  0.00    -0.354 N 
ATOM     37  C   UNL A   1      40.226  30.658  33.209  1.00  0.00     0.074 A 
ATOM     38  C   UNL A   1      39.083  31.537  33.103  1.00  0.00     0.031 C 
ATOM     39  C   UNL A   1      40.115  27.525  27.585  1.00  0.00     0.029 A 
ATOM     40  C   UNL A   1      41.102  27.394  28.651  1.00  0.00     0.049 A 
ATOM     41  H   UNL A   1      41.130  28.400  30.477  1.00  0.00     0.167 HD
ATOM     42  C   UNL A   1      41.050  30.601  34.286  1.00  0.00     0.034 A 
ATOM     43  C   UNL A   1      42.179  26.584  28.625  1.00  0.00     0.034 A 
ATOM     44  C   UNL A   1      42.178  29.706  34.381  1.00  0.00     0.049 A 
ATOM     45  C   UNL A   1      43.090  26.546  29.829  1.00  0.00     0.074 A 
ATOM     46  C   UNL A   1      43.049  29.525  35.441  1.00  0.00     0.029 A 
ATOM     47  N   UNL A   1      42.598  28.843  33.374  1.00  0.00    -0.354 N 
ATOM     48  N   UNL A   1      43.008  27.222  30.952  1.00  0.00    -0.248 NA
ATOM     49  C   UNL A   1      44.227  25.620  29.766  1.00  0.00     0.031 C 
ATOM     50  C   UNL A   1      44.037  28.616  35.049  1.00  0.00     0.029 A 
ATOM     51  C   UNL A   1      43.731  28.154  33.779  1.00  0.00     0.049 A 
ATOM     52  H   UNL A   1      42.155  28.738  32.502  1.00  0.00     0.167 HD
ATOM     53  C   UNL A   1      44.056  26.765  31.747  1.00  0.00     0.074 A 
ATOM     54  C   UNL A   1      44.745  25.750  30.977  1.00  0.00     0.031 C 
ATOM     55  C   UNL A   1      44.413  27.143  33.002  1.00  0.00     0.034 A 
BRANCH  42  56
ATOM     56  C   UNL A   1      40.774  31.554  35.427  1.00  0.00     0.023 A 
ATOM     57  C   UNL A   1      39.626  31.439  36.231  1.00  0.00     0.031 A 
ATOM     58  C   UNL A   1      41.656  32.617  35.695  1.00  0.00     0.131 A 
ATOM     59  C   UNL A   1      39.347  32.414  37.201  1.00  0.00     0.055 A 
ATOM     60  C   UNL A   1      41.420  33.531  36.724  1.00  0.00     0.041 A 
ATOM     61  F   UNL A   1      42.758  32.796  34.949  1.00  0.00    -0.206 F 
ATOM     62  C   UNL A   1      40.251  33.443  37.473  1.00  0.00     0.022 A 
BRANCH  59  63
ATOM     63  S   UNL A   1      37.712  32.412  37.987  1.00  0.00     0.124 S 
ATOM     64  O   UNL A   1      37.421  30.982  38.058  1.00  0.00    -0.237 OA
ATOM     65  O   UNL A   1      37.972  33.076  39.259  1.00  0.00    -0.237 OA
ATOM     66  O   UNL A   1      36.880  33.163  37.048  1.00  0.00    -0.744 OA
ENDBRANCH  59  63
ENDBRANCH  42  56
BRANCH  43  67
ATOM     67  C   UNL A   1      42.459  25.728  27.434  1.00  0.00     0.023 A 
ATOM     68  C   UNL A   1      42.000  24.403  27.371  1.00  0.00     0.031 A 
ATOM     69  C   UNL A   1      43.238  26.207  26.365  1.00  0.00     0.131 A 
ATOM     70  C   UNL A   1      42.370  23.583  26.292  1.00  0.00     0.055 A 
ATOM     71  C   UNL A   1      43.552  25.406  25.265  1.00  0.00     0.041 A 
ATOM     72  F   UNL A   1      43.700  27.467  26.371  1.00  0.00    -0.206 F 
ATOM     73  C   UNL A   1      43.131  24.080  25.232  1.00  0.00     0.022 A 
BRANCH  70  74
ATOM     74  S   UNL A   1      41.926  21.825  26.345  1.00  0.00     0.124 S 
ATOM     75  O   UNL A   1      40.507  21.868  26.012  1.00  0.00    -0.237 OA
ATOM     76  O   UNL A   1      42.807  21.260  25.327  1.00  0.00    -0.237 OA
ATOM     77  O   UNL A   1      42.236  21.438  27.718  1.00  0.00    -0.744 OA
ENDBRANCH  70  74
ENDBRANCH  43  67
BRANCH  55  78
ATOM     78  C   UNL A   1      45.561  26.399  33.645  1.00  0.00     0.023 A 
ATOM     79  C   UNL A   1      45.369  25.218  34.382  1.00  0.00     0.031 A 
ATOM     80  C   UNL A   1      46.871  26.904  33.541  1.00  0.00     0.131 A 
ATOM     81  C   UNL A   1      46.450  24.625  35.051  1.00  0.00     0.055 A 
ATOM     82  C   UNL A   1      47.956  26.266  34.144  1.00  0.00     0.041 A 
ATOM     83  F   UNL A   1      47.118  28.030  32.853  1.00  0.00    -0.206 F 
ATOM     84  C   UNL A   1      47.746  25.131  34.921  1.00  0.00     0.022 A 
BRANCH  81  85
ATOM     85  S   UNL A   1      46.122  23.262  36.201  1.00  0.00     0.124 S 
ATOM     86  O   UNL A   1      45.280  22.383  35.397  1.00  0.00    -0.237 OA
ATOM     87  O   UNL A   1      47.464  22.768  36.490  1.00  0.00    -0.237 OA
ATOM     88  O   UNL A   1      45.445  23.914  37.321  1.00  0.00    -0.744 OA
ENDBRANCH  81  85
ENDBRANCH  55  78
ENDBRANCH  29  30
ENDBRANCH  21  24
ENDBRANCH  19  20
ENDBRANCH  18  19
ENDBRANCH   1  18
TORSDOF 17
ENDMDL
MODEL 3
REMARK VINA RESULT:     -10.8      6.078      9.306
REMARK SMILES C[C@H](C(=O)NCCCCNC(=O)c1ccc(-c2c3nc(c(-c4cc(S(=O)(=O)[O-])ccc4F)c4ccc([nH]4)c(-c4cc(S(=O)(=O)[O-])ccc4F)c4nc(c(-c5cc(S(=O)(=O)[O-])ccc5F)c5ccc2[nH]5)C=C4)C=C3)cc1)[C@H](C)[S@@](=O)c1cccs1
REMARK SMILES IDX 7 1 6 2 5 3 3 4 4 5 2 7 1 8 76 9 77 10 78 11 79 12 80 13
REMARK SMILES IDX 81 14 84 15 82 16 83 17 8 18 9 19 10 20 11 21 12 23 13 24
REMARK SMILES IDX 14 25 75 26 15 27 74 28 16 29 17 30 18 31 68 32 19 33 73 34
REMARK SMILES IDX 67 35 69 36 20 37 72 38 66 39 65 40 21 42 53 43 33 44 52 45
REMARK SMILES IDX 34 46 37 47 51 48 70 49 35 50 36 51 50 53 71 54 38 55 22 56
REMARK SMILES IDX 23 57 31 58 24 59 30 60 32 61 29 62 25 63 26 64 27 65 28 66
REMARK SMILES IDX 54 67 55 68 63 69 56 70 62 71 64 72 61 73 57 74 58 75 59 76
REMARK SMILES IDX 60 77 39 78 40 79 48 80 41 81 47 82 49 83 46 84 42 85 43 86
REMARK SMILES IDX 44 87 45 88
REMARK H PARENT 5 6 10 22 69 41 37 52
REMARK Flexibility Score: inf
ROOT
ATOM      1  C   UNL A   1      34.062  20.881  25.454  1.00  0.00     0.023 C 
ENDROOT
BRANCH   1   2
ATOM      2  C   UNL A   1      32.747  20.977  24.687  1.00  0.00     0.116 C 
BRANCH   2   3
ATOM      3  N   UNL A   1      31.653  21.378  25.555  1.00  0.00    -0.356 N 
ATOM      4  C   UNL A   1      31.090  22.603  25.755  1.00  0.00     0.224 C 
ATOM      5  O   UNL A   1      30.118  22.656  26.507  1.00  0.00    -0.275 OA
ATOM      6  H   UNL A   1      31.255  20.649  26.082  1.00  0.00     0.163 HD
BRANCH   4   7
ATOM      7  C   UNL A   1      31.595  23.805  24.957  1.00  0.00     0.091 C 
ATOM      8  C   UNL A   1      30.711  23.846  23.709  1.00  0.00     0.019 C 
BRANCH   7   9
ATOM      9  C   UNL A   1      31.781  25.110  25.794  1.00  0.00     0.094 C 
ATOM     10  C   UNL A   1      30.711  26.198  25.739  1.00  0.00     0.023 C 
BRANCH   9  11
ATOM     11  S   UNL A   1      33.470  25.840  25.855  1.00  0.00     0.067 S 
ATOM     12  O   UNL A   1      34.470  24.748  25.628  1.00  0.00    -0.253 OA
BRANCH  11  13
ATOM     13  C   UNL A   1      33.489  26.924  24.489  1.00  0.00     0.091 A 
ATOM     14  C   UNL A   1      33.445  26.518  23.173  1.00  0.00     0.029 A 
ATOM     15  S   UNL A   1      33.425  28.627  24.622  1.00  0.00    -0.135 S 
ATOM     16  C   UNL A   1      33.544  27.618  22.269  1.00  0.00     0.013 A 
ATOM     17  C   UNL A   1      33.603  28.824  22.931  1.00  0.00     0.066 A 
ENDBRANCH  11  13
ENDBRANCH   9  11
ENDBRANCH   7   9
ENDBRANCH   4   7
ENDBRANCH   2   3
ENDBRANCH   1   2
BRANCH   1  18
ATOM     18  C   UNL A   1      35.286  21.389  24.685  1.00  0.00     0.023 C 
BRANCH  18  19
ATOM     19  C   UNL A   1      36.483  21.776  25.546  1.00  0.00     0.116 C 
BRANCH  19  20
ATOM     20  N   UNL A   1      37.449  20.699  25.675  1.00  0.00    -0.352 N 
ATOM     21  C   UNL A   1      38.790  20.766  25.959  1.00  0.00     0.251 C 
ATOM     22  H   UNL A   1      37.091  19.792  25.540  1.00  0.00     0.163 HD
ATOM     23  O   UNL A   1      39.476  19.750  25.854  1.00  0.00    -0.269 OA
BRANCH  21  24
ATOM     24  C   UNL A   1      39.412  22.049  26.359  1.00  0.00     0.039 A 
ATOM     25  C   UNL A   1      40.482  22.026  27.257  1.00  0.00     0.014 A 
ATOM     26  C   UNL A   1      38.933  23.273  25.880  1.00  0.00     0.014 A 
ATOM     27  C   UNL A   1      41.089  23.222  27.647  1.00  0.00     0.010 A 
ATOM     28  C   UNL A   1      39.594  24.456  26.201  1.00  0.00     0.010 A 
ATOM     29  C   UNL A   1      40.663  24.448  27.110  1.00  0.00    -0.014 A 
BRANCH  29  30
ATOM     30  C   UNL A   1      41.287  25.728  27.540  1.00  0.00     0.031 A 
ATOM     31  C   UNL A   1      42.705  26.047  27.137  1.00  0.00     0.074 A 
ATOM     32  C   UNL A   1      40.592  26.593  28.306  1.00  0.00     0.049 A 
ATOM     33  N   UNL A   1      43.429  27.101  27.414  1.00  0.00    -0.248 NA
ATOM     34  C   UNL A   1      43.411  25.029  26.345  1.00  0.00     0.031 C 
ATOM     35  C   UNL A   1      39.228  26.381  28.793  1.00  0.00     0.029 A 
ATOM     36  N   UNL A   1      40.933  27.826  28.804  1.00  0.00    -0.354 N 
ATOM     37  C   UNL A   1      44.676  26.866  26.843  1.00  0.00     0.074 A 
ATOM     38  C   UNL A   1      44.630  25.539  26.270  1.00  0.00     0.031 C 
ATOM     39  C   UNL A   1      38.833  27.465  29.481  1.00  0.00     0.029 A 
ATOM     40  C   UNL A   1      39.927  28.430  29.524  1.00  0.00     0.049 A 
ATOM     41  H   UNL A   1      41.814  28.240  28.659  1.00  0.00     0.167 HD
ATOM     42  C   UNL A   1      45.753  27.691  26.776  1.00  0.00     0.034 A 
ATOM     43  C   UNL A   1      39.891  29.626  30.146  1.00  0.00     0.034 A 
ATOM     44  C   UNL A   1      45.776  29.019  27.340  1.00  0.00     0.049 A 
ATOM     45  C   UNL A   1      41.104  30.521  30.070  1.00  0.00     0.074 A 
ATOM     46  C   UNL A   1      46.789  29.961  27.288  1.00  0.00     0.029 A 
ATOM     47  N   UNL A   1      44.739  29.595  28.066  1.00  0.00    -0.354 N 
ATOM     48  N   UNL A   1      42.257  30.307  29.478  1.00  0.00    -0.248 NA
ATOM     49  C   UNL A   1      41.000  31.828  30.731  1.00  0.00     0.031 C 
ATOM     50  C   UNL A   1      46.399  31.069  28.046  1.00  0.00     0.029 A 
ATOM     51  C   UNL A   1      45.103  30.864  28.492  1.00  0.00     0.049 A 
ATOM     52  H   UNL A   1      43.874  29.164  28.251  1.00  0.00     0.167 HD
ATOM     53  C   UNL A   1      42.996  31.474  29.655  1.00  0.00     0.074 A 
ATOM     54  C   UNL A   1      42.153  32.388  30.398  1.00  0.00     0.031 C 
ATOM     55  C   UNL A   1      44.255  31.768  29.235  1.00  0.00     0.034 A 
BRANCH  42  56
ATOM     56  C   UNL A   1      46.996  27.163  26.096  1.00  0.00     0.023 A 
ATOM     57  C   UNL A   1      47.969  26.426  26.794  1.00  0.00     0.031 A 
ATOM     58  C   UNL A   1      47.229  27.429  24.734  1.00  0.00     0.131 A 
ATOM     59  C   UNL A   1      49.163  26.057  26.154  1.00  0.00     0.055 A 
ATOM     60  C   UNL A   1      48.377  26.979  24.080  1.00  0.00     0.041 A 
ATOM     61  F   UNL A   1      46.349  28.147  24.018  1.00  0.00    -0.206 F 
ATOM     62  C   UNL A   1      49.361  26.303  24.795  1.00  0.00     0.022 A 
BRANCH  59  63
ATOM     63  S   UNL A   1      50.520  25.400  27.164  1.00  0.00     0.124 S 
ATOM     64  O   UNL A   1      51.493  25.024  26.142  1.00  0.00    -0.237 OA
ATOM     65  O   UNL A   1      50.876  26.544  27.996  1.00  0.00    -0.237 OA
ATOM     66  O   UNL A   1      49.907  24.278  27.873  1.00  0.00    -0.744 OA
ENDBRANCH  59  63
ENDBRANCH  42  56
BRANCH  43  67
ATOM     67  C   UNL A   1      38.670  30.063  30.884  1.00  0.00     0.023 A 
ATOM     68  C   UNL A   1      37.651  30.780  30.237  1.00  0.00     0.031 A 
ATOM     69  C   UNL A   1      38.529  29.817  32.262  1.00  0.00     0.131 A 
ATOM     70  C   UNL A   1      36.565  31.278  30.976  1.00  0.00     0.055 A 
ATOM     71  C   UNL A   1      37.416  30.261  32.980  1.00  0.00     0.041 A 
ATOM     72  F   UNL A   1      39.470  29.132  32.930  1.00  0.00    -0.206 F 
ATOM     73  C   UNL A   1      36.434  31.010  32.340  1.00  0.00     0.022 A 
BRANCH  70  74
ATOM     74  S   UNL A   1      35.375  32.367  30.146  1.00  0.00     0.124 S 
ATOM     75  O   UNL A   1      36.209  33.514  29.809  1.00  0.00    -0.237 OA
ATOM     76  O   UNL A   1      34.938  31.540  29.026  1.00  0.00    -0.237 OA
ATOM     77  O   UNL A   1      34.363  32.607  31.172  1.00  0.00    -0.744 OA
ENDBRANCH  70  74
ENDBRANCH  43  67
BRANCH  55  78
ATOM     78  C   UNL A   1      44.764  33.164  29.511  1.00  0.00     0.023 A 
ATOM     79  C   UNL A   1      44.514  34.238  28.639  1.00  0.00     0.031 A 
ATOM     80  C   UNL A   1      45.542  33.414  30.657  1.00  0.00     0.131 A 
ATOM     81  C   UNL A   1      45.101  35.489  28.883  1.00  0.00     0.055 A 
ATOM     82  C   UNL A   1      46.058  34.681  30.936  1.00  0.00     0.041 A 
ATOM     83  F   UNL A   1      45.817  32.429  31.526  1.00  0.00    -0.206 F 
ATOM     84  C   UNL A   1      45.855  35.722  30.036  1.00  0.00     0.022 A 
BRANCH  81  85
ATOM     85  S   UNL A   1      44.977  36.772  27.608  1.00  0.00     0.124 S 
ATOM     86  O   UNL A   1      46.335  36.803  27.075  1.00  0.00    -0.237 OA
ATOM     87  O   UNL A   1      43.957  36.229  26.718  1.00  0.00    -0.237 OA
ATOM     88  O   UNL A   1      44.579  37.963  28.356  1.00  0.00    -0.744 OA
ENDBRANCH  81  85
ENDBRANCH  55  78
ENDBRANCH  29  30
ENDBRANCH  21  24
ENDBRANCH  19  20
ENDBRANCH  18  19
ENDBRANCH   1  18
TORSDOF 17
ENDMDL
