MODEL 1
REMARK VINA RESULT:     -11.2      0.000      0.000
REMARK SMILES [NH3+][C@]1(C(=O)NCCCCNC(=O)c2ccc(-c3c4nc(c(-c5cc(S(=O)(=O)[O-])ccc5F)c5ccc([nH]5)c(-c5cc(S(=O)(=O)[O-])ccc5F)c5nc(c(-c6cc(S(=O)(=O)[O-])ccc6F)c6ccc3[nH]6)C=C5)C=C4)cc2)CCC[C@@H](Oc2ccc3c(c2)CCC3)C1
REMARK SMILES IDX 8 1 7 2 6 3 5 4 3 5 4 6 2 8 76 9 90 10 77 11 79 12 78 13
REMARK SMILES IDX 1 14 80 18 81 19 82 20 86 21 83 22 85 23 84 24 87 25 89 26
REMARK SMILES IDX 88 27 9 28 10 29 11 30 12 32 13 33 14 34 75 35 15 36 74 37
REMARK SMILES IDX 16 38 17 39 18 40 68 41 19 42 73 43 67 44 69 45 20 46 72 47
REMARK SMILES IDX 66 48 65 49 21 51 53 52 33 53 52 54 34 55 37 56 51 57 70 58
REMARK SMILES IDX 35 59 36 60 50 62 71 63 38 64 22 65 23 66 31 67 24 68 30 69
REMARK SMILES IDX 32 70 29 71 25 72 26 73 27 74 28 75 54 76 55 77 63 78 56 79
REMARK SMILES IDX 62 80 64 81 61 82 57 83 58 84 59 85 60 86 39 87 40 88 48 89
REMARK SMILES IDX 41 90 47 91 49 92 46 93 42 94 43 95 44 96 45 97
REMARK H PARENT 5 7 1 15 1 16 1 17 10 31 69 50 37 61
REMARK Flexibility Score: inf
ROOT
ATOM      1  C   UNL A   1      41.531  19.996  27.695  1.00  0.00     0.023 C 
ENDROOT
BRANCH   1   2
ATOM      2  C   UNL A   1      42.096  19.173  26.531  1.00  0.00     0.023 C 
BRANCH   2   3
ATOM      3  C   UNL A   1      42.893  19.835  25.387  1.00  0.00     0.116 C 
BRANCH   3   4
ATOM      4  N   UNL A   1      44.333  20.002  25.542  1.00  0.00    -0.351 N 
ATOM      5  C   UNL A   1      45.253  20.946  25.145  1.00  0.00     0.281 C 
ATOM      6  O   UNL A   1      46.370  20.867  25.669  1.00  0.00    -0.268 OA
ATOM      7  H   UNL A   1      44.745  19.265  26.049  1.00  0.00     0.163 HD
BRANCH   5   8
ATOM      8  C   UNL A   1      44.896  22.137  24.188  1.00  0.00     0.177 C 
ATOM      9  C   UNL A   1      43.558  22.824  24.583  1.00  0.00     0.079 C 
ATOM     10  C   UNL A   1      46.001  23.201  24.033  1.00  0.00     0.124 C 
ATOM     11  C   UNL A   1      43.659  23.883  25.683  1.00  0.00     0.011 C 
ATOM     12  C   UNL A   1      46.087  24.316  25.103  1.00  0.00     0.180 C 
ATOM     13  C   UNL A   1      44.721  24.932  25.388  1.00  0.00     0.046 C 
BRANCH   8  14
ATOM     14  N   UNL A   1      44.591  21.491  22.873  1.00  0.00    -0.345 N 
ATOM     15  H   UNL A   1      43.696  21.003  22.933  1.00  0.00     0.345 HD
ATOM     16  H   UNL A   1      45.327  20.823  22.643  1.00  0.00     0.345 HD
ATOM     17  H   UNL A   1      44.539  22.205  22.146  1.00  0.00     0.345 HD
ENDBRANCH   8  14
BRANCH  12  18
ATOM     18  O   UNL A   1      46.955  24.102  26.235  1.00  0.00    -0.490 OA
BRANCH  18  19
ATOM     19  C   UNL A   1      46.484  24.311  27.496  1.00  0.00     0.120 A 
ATOM     20  C   UNL A   1      47.014  25.267  28.365  1.00  0.00     0.047 A 
ATOM     21  C   UNL A   1      45.520  23.438  27.967  1.00  0.00     0.050 A 
ATOM     22  C   UNL A   1      46.458  25.447  29.646  1.00  0.00     0.008 A 
ATOM     23  C   UNL A   1      44.938  23.634  29.203  1.00  0.00    -0.041 A 
ATOM     24  C   UNL A   1      45.394  24.645  30.038  1.00  0.00    -0.045 A 
ATOM     25  C   UNL A   1      43.726  22.957  29.760  1.00  0.00     0.036 C 
ATOM     26  C   UNL A   1      44.535  24.734  31.261  1.00  0.00     0.036 C 
ATOM     27  C   UNL A   1      43.785  23.390  31.225  1.00  0.00     0.010 C 
ENDBRANCH  18  19
ENDBRANCH  12  18
ENDBRANCH   5   8
ENDBRANCH   3   4
ENDBRANCH   2   3
ENDBRANCH   1   2
BRANCH   1  28
ATOM     28  C   UNL A   1      41.147  21.435  27.418  1.00  0.00     0.116 C 
BRANCH  28  29
ATOM     29  N   UNL A   1      39.955  21.535  26.601  1.00  0.00    -0.352 N 
ATOM     30  C   UNL A   1      39.131  22.609  26.359  1.00  0.00     0.251 C 
ATOM     31  H   UNL A   1      39.692  20.702  26.148  1.00  0.00     0.163 HD
ATOM     32  O   UNL A   1      38.063  22.409  25.789  1.00  0.00    -0.269 OA
BRANCH  30  33
ATOM     33  C   UNL A   1      39.497  23.981  26.795  1.00  0.00     0.039 A 
ATOM     34  C   UNL A   1      39.227  24.352  28.117  1.00  0.00     0.014 A 
ATOM     35  C   UNL A   1      40.059  24.916  25.922  1.00  0.00     0.014 A 
ATOM     36  C   UNL A   1      39.577  25.627  28.575  1.00  0.00     0.010 A 
ATOM     37  C   UNL A   1      40.481  26.159  26.400  1.00  0.00     0.010 A 
ATOM     38  C   UNL A   1      40.242  26.532  27.731  1.00  0.00    -0.014 A 
BRANCH  38  39
ATOM     39  C   UNL A   1      40.690  27.864  28.225  1.00  0.00     0.031 A 
ATOM     40  C   UNL A   1      42.158  28.176  28.349  1.00  0.00     0.074 A 
ATOM     41  C   UNL A   1      39.775  28.776  28.614  1.00  0.00     0.049 A 
ATOM     42  N   UNL A   1      42.742  29.244  28.831  1.00  0.00    -0.248 NA
ATOM     43  C   UNL A   1      43.094  27.138  27.892  1.00  0.00     0.031 C 
ATOM     44  C   UNL A   1      38.324  28.587  28.569  1.00  0.00     0.029 A 
ATOM     45  N   UNL A   1      39.928  30.039  29.132  1.00  0.00    -0.354 N 
ATOM     46  C   UNL A   1      44.109  29.004  28.746  1.00  0.00     0.074 A 
ATOM     47  C   UNL A   1      44.264  27.663  28.222  1.00  0.00     0.031 C 
ATOM     48  C   UNL A   1      37.721  29.700  29.015  1.00  0.00     0.029 A 
ATOM     49  C   UNL A   1      38.736  30.662  29.432  1.00  0.00     0.049 A 
ATOM     50  H   UNL A   1      40.806  30.461  29.275  1.00  0.00     0.167 HD
ATOM     51  C   UNL A   1      45.140  29.831  29.057  1.00  0.00     0.034 A 
ATOM     52  C   UNL A   1      38.487  31.861  29.997  1.00  0.00     0.034 A 
ATOM     53  C   UNL A   1      44.969  31.168  29.574  1.00  0.00     0.049 A 
ATOM     54  C   UNL A   1      39.651  32.743  30.380  1.00  0.00     0.074 A 
ATOM     55  C   UNL A   1      45.944  32.105  29.874  1.00  0.00     0.029 A 
ATOM     56  N   UNL A   1      43.749  31.757  29.881  1.00  0.00    -0.354 N 
ATOM     57  N   UNL A   1      40.938  32.517  30.252  1.00  0.00    -0.248 NA
ATOM     58  C   UNL A   1      39.326  34.045  30.979  1.00  0.00     0.031 C 
ATOM     59  C   UNL A   1      45.320  33.225  30.435  1.00  0.00     0.029 A 
ATOM     60  C   UNL A   1      43.949  33.027  30.402  1.00  0.00     0.049 A 
ATOM     61  H   UNL A   1      42.870  31.334  29.747  1.00  0.00     0.167 HD
ATOM     62  C   UNL A   1      41.573  33.663  30.722  1.00  0.00     0.074 A 
ATOM     63  C   UNL A   1      40.528  34.582  31.122  1.00  0.00     0.031 C 
ATOM     64  C   UNL A   1      42.900  33.934  30.809  1.00  0.00     0.034 A 
BRANCH  51  65
ATOM     65  C   UNL A   1      46.542  29.299  28.873  1.00  0.00     0.023 A 
ATOM     66  C   UNL A   1      47.107  29.124  27.597  1.00  0.00     0.031 A 
ATOM     67  C   UNL A   1      47.322  28.942  29.987  1.00  0.00     0.131 A 
ATOM     68  C   UNL A   1      48.375  28.539  27.464  1.00  0.00     0.055 A 
ATOM     69  C   UNL A   1      48.618  28.441  29.852  1.00  0.00     0.041 A 
ATOM     70  F   UNL A   1      46.833  29.065  31.232  1.00  0.00    -0.206 F 
ATOM     71  C   UNL A   1      49.147  28.221  28.583  1.00  0.00     0.022 A 
BRANCH  68  72
ATOM     72  S   UNL A   1      48.936  28.057  25.807  1.00  0.00     0.124 S 
ATOM     73  O   UNL A   1      47.748  28.331  25.002  1.00  0.00    -0.237 OA
ATOM     74  O   UNL A   1      50.074  28.942  25.590  1.00  0.00    -0.237 OA
ATOM     75  O   UNL A   1      49.266  26.641  25.955  1.00  0.00    -0.744 OA
ENDBRANCH  68  72
ENDBRANCH  51  65
BRANCH  52  76
ATOM     76  C   UNL A   1      37.085  32.298  30.258  1.00  0.00     0.023 A 
ATOM     77  C   UNL A   1      36.321  32.918  29.255  1.00  0.00     0.031 A 
ATOM     78  C   UNL A   1      36.503  32.147  31.529  1.00  0.00     0.131 A 
ATOM     79  C   UNL A   1      35.041  33.410  29.554  1.00  0.00     0.055 A 
ATOM     80  C   UNL A   1      35.206  32.583  31.804  1.00  0.00     0.041 A 
ATOM     81  F   UNL A   1      37.187  31.562  32.525  1.00  0.00    -0.206 F 
ATOM     82  C   UNL A   1      34.471  33.232  30.817  1.00  0.00     0.022 A 
BRANCH  79  83
ATOM     83  S   UNL A   1      34.164  34.374  28.291  1.00  0.00     0.124 S 
ATOM     84  O   UNL A   1      33.045  33.494  27.974  1.00  0.00    -0.237 OA
ATOM     85  O   UNL A   1      33.834  35.595  29.018  1.00  0.00    -0.237 OA
ATOM     86  O   UNL A   1      35.157  34.529  27.232  1.00  0.00    -0.744 OA
ENDBRANCH  79  83
ENDBRANCH  52  76
BRANCH  64  87
ATOM     87  C   UNL A   1      43.295  35.303  31.312  1.00  0.00     0.023 A 
ATOM     88  C   UNL A   1      43.512  36.384  30.439  1.00  0.00     0.031 A 
ATOM     89  C   UNL A   1      43.462  35.526  32.692  1.00  0.00     0.131 A 
ATOM     90  C   UNL A   1      43.935  37.620  30.948  1.00  0.00     0.055 A 
ATOM     91  C   UNL A   1      43.819  36.777  33.198  1.00  0.00     0.041 A 
ATOM     92  F   UNL A   1      43.273  34.531  33.574  1.00  0.00    -0.206 F 
ATOM     93  C   UNL A   1      44.072  37.829  32.323  1.00  0.00     0.022 A 
BRANCH  90  94
ATOM     94  S   UNL A   1      44.401  38.930  29.783  1.00  0.00     0.124 S 
ATOM     95  O   UNL A   1      43.868  38.421  28.524  1.00  0.00    -0.237 OA
ATOM     96  O   UNL A   1      43.722  40.097  30.338  1.00  0.00    -0.237 OA
ATOM     97  O   UNL A   1      45.860  38.966  29.871  1.00  0.00    -0.744 OA
ENDBRANCH  90  94
ENDBRANCH  64  87
ENDBRANCH  38  39
ENDBRANCH  30  33
ENDBRANCH  28  29
ENDBRANCH   1  28
TORSDOF 17
ENDMDL
MODEL 2
REMARK VINA RESULT:     -10.9      6.034     10.269
REMARK SMILES [NH3+][C@]1(C(=O)NCCCCNC(=O)c2ccc(-c3c4nc(c(-c5cc(S(=O)(=O)[O-])ccc5F)c5ccc([nH]5)c(-c5cc(S(=O)(=O)[O-])ccc5F)c5nc(c(-c6cc(S(=O)(=O)[O-])ccc6F)c6ccc3[nH]6)C=C5)C=C4)cc2)CCC[C@@H](Oc2ccc3c(c2)CCC3)C1
REMARK SMILES IDX 8 1 7 2 6 3 5 4 3 5 4 6 2 8 76 9 90 10 77 11 79 12 78 13
REMARK SMILES IDX 1 14 80 18 81 19 82 20 86 21 83 22 85 23 84 24 87 25 89 26
REMARK SMILES IDX 88 27 9 28 10 29 11 30 12 32 13 33 14 34 75 35 15 36 74 37
REMARK SMILES IDX 16 38 17 39 18 40 68 41 19 42 73 43 67 44 69 45 20 46 72 47
REMARK SMILES IDX 66 48 65 49 21 51 53 52 33 53 52 54 34 55 37 56 51 57 70 58
REMARK SMILES IDX 35 59 36 60 50 62 71 63 38 64 22 65 23 66 31 67 24 68 30 69
REMARK SMILES IDX 32 70 29 71 25 72 26 73 27 74 28 75 54 76 55 77 63 78 56 79
REMARK SMILES IDX 62 80 64 81 61 82 57 83 58 84 59 85 60 86 39 87 40 88 48 89
REMARK SMILES IDX 41 90 47 91 49 92 46 93 42 94 43 95 44 96 45 97
REMARK H PARENT 5 7 1 15 1 16 1 17 10 31 69 50 37 61
REMARK Flexibility Score: inf
ROOT
ATOM      1  C   UNL A   1      31.563  28.718  25.919  1.00  0.00     0.023 C 
ENDROOT
BRANCH   1   2
ATOM      2  C   UNL A   1      31.898  27.549  26.852  1.00  0.00     0.023 C 
BRANCH   2   3
ATOM      3  C   UNL A   1      32.291  26.163  26.299  1.00  0.00     0.116 C 
BRANCH   3   4
ATOM      4  N   UNL A   1      31.627  24.981  26.834  1.00  0.00    -0.351 N 
ATOM      5  C   UNL A   1      31.911  23.634  26.865  1.00  0.00     0.281 C 
ATOM      6  O   UNL A   1      31.214  22.952  27.625  1.00  0.00    -0.268 OA
ATOM      7  H   UNL A   1      30.775  25.196  27.278  1.00  0.00     0.163 HD
BRANCH   5   8
ATOM      8  C   UNL A   1      33.120  22.997  26.095  1.00  0.00     0.177 C 
ATOM      9  C   UNL A   1      33.054  21.444  26.083  1.00  0.00     0.079 C 
ATOM     10  C   UNL A   1      33.323  23.519  24.658  1.00  0.00     0.124 C 
ATOM     11  C   UNL A   1      32.176  20.827  24.993  1.00  0.00     0.011 C 
ATOM     12  C   UNL A   1      32.487  22.871  23.527  1.00  0.00     0.180 C 
ATOM     13  C   UNL A   1      32.519  21.348  23.604  1.00  0.00     0.046 C 
BRANCH   8  14
ATOM     14  N   UNL A   1      34.314  23.298  26.944  1.00  0.00    -0.345 N 
ATOM     15  H   UNL A   1      34.724  24.185  26.653  1.00  0.00     0.345 HD
ATOM     16  H   UNL A   1      35.004  22.554  26.838  1.00  0.00     0.345 HD
ATOM     17  H   UNL A   1      34.030  23.361  27.922  1.00  0.00     0.345 HD
ENDBRANCH   8  14
BRANCH  12  18
ATOM     18  O   UNL A   1      31.226  23.481  23.184  1.00  0.00    -0.490 OA
BRANCH  18  19
ATOM     19  C   UNL A   1      31.162  24.825  22.973  1.00  0.00     0.120 A 
ATOM     20  C   UNL A   1      32.194  25.560  22.384  1.00  0.00     0.047 A 
ATOM     21  C   UNL A   1      30.070  25.499  23.489  1.00  0.00     0.050 A 
ATOM     22  C   UNL A   1      32.047  26.944  22.171  1.00  0.00     0.008 A 
ATOM     23  C   UNL A   1      29.896  26.847  23.247  1.00  0.00    -0.041 A 
ATOM     24  C   UNL A   1      30.874  27.568  22.577  1.00  0.00    -0.045 A 
ATOM     25  C   UNL A   1      28.674  27.670  23.502  1.00  0.00     0.036 C 
ATOM     26  C   UNL A   1      30.408  28.969  22.331  1.00  0.00     0.036 C 
ATOM     27  C   UNL A   1      29.217  29.085  23.300  1.00  0.00     0.010 C 
ENDBRANCH  18  19
ENDBRANCH  12  18
ENDBRANCH   5   8
ENDBRANCH   3   4
ENDBRANCH   2   3
ENDBRANCH   1   2
BRANCH   1  28
ATOM     28  C   UNL A   1      32.674  29.692  25.584  1.00  0.00     0.116 C 
BRANCH  28  29
ATOM     29  N   UNL A   1      32.368  31.041  26.015  1.00  0.00    -0.352 N 
ATOM     30  C   UNL A   1      32.948  31.815  26.991  1.00  0.00     0.251 C 
ATOM     31  H   UNL A   1      31.625  31.471  25.532  1.00  0.00     0.163 HD
ATOM     32  O   UNL A   1      32.391  32.859  27.317  1.00  0.00    -0.269 OA
BRANCH  30  33
ATOM     33  C   UNL A   1      34.203  31.398  27.668  1.00  0.00     0.039 A 
ATOM     34  C   UNL A   1      35.210  32.353  27.849  1.00  0.00     0.014 A 
ATOM     35  C   UNL A   1      34.422  30.084  28.089  1.00  0.00     0.014 A 
ATOM     36  C   UNL A   1      36.398  32.007  28.502  1.00  0.00     0.010 A 
ATOM     37  C   UNL A   1      35.573  29.760  28.811  1.00  0.00     0.010 A 
ATOM     38  C   UNL A   1      36.577  30.716  29.024  1.00  0.00    -0.014 A 
BRANCH  38  39
ATOM     39  C   UNL A   1      37.803  30.353  29.789  1.00  0.00     0.031 A 
ATOM     40  C   UNL A   1      38.805  29.390  29.209  1.00  0.00     0.074 A 
ATOM     41  C   UNL A   1      37.988  30.848  31.030  1.00  0.00     0.049 A 
ATOM     42  N   UNL A   1      39.887  28.892  29.752  1.00  0.00    -0.248 NA
ATOM     43  C   UNL A   1      38.541  28.905  27.847  1.00  0.00     0.031 C 
ATOM     44  C   UNL A   1      37.078  31.768  31.715  1.00  0.00     0.029 A 
ATOM     45  N   UNL A   1      38.996  30.642  31.940  1.00  0.00    -0.354 N 
ATOM     46  C   UNL A   1      40.428  28.029  28.806  1.00  0.00     0.074 A 
ATOM     47  C   UNL A   1      39.518  28.026  27.678  1.00  0.00     0.031 C 
ATOM     48  C   UNL A   1      37.580  32.066  32.924  1.00  0.00     0.029 A 
ATOM     49  C   UNL A   1      38.816  31.317  33.127  1.00  0.00     0.049 A 
ATOM     50  H   UNL A   1      39.774  30.066  31.761  1.00  0.00     0.167 HD
ATOM     51  C   UNL A   1      41.584  27.319  28.861  1.00  0.00     0.034 A 
ATOM     52  C   UNL A   1      39.551  31.319  34.259  1.00  0.00     0.034 A 
ATOM     53  C   UNL A   1      42.482  27.336  29.991  1.00  0.00     0.049 A 
ATOM     54  C   UNL A   1      40.806  30.482  34.316  1.00  0.00     0.074 A 
ATOM     55  C   UNL A   1      43.702  26.694  30.130  1.00  0.00     0.029 A 
ATOM     56  N   UNL A   1      42.259  28.017  31.181  1.00  0.00    -0.354 N 
ATOM     57  N   UNL A   1      41.325  29.705  33.394  1.00  0.00    -0.248 NA
ATOM     58  C   UNL A   1      41.577  30.530  35.566  1.00  0.00     0.031 C 
ATOM     59  C   UNL A   1      44.174  26.921  31.427  1.00  0.00     0.029 A 
ATOM     60  C   UNL A   1      43.296  27.779  32.070  1.00  0.00     0.049 A 
ATOM     61  H   UNL A   1      41.477  28.586  31.366  1.00  0.00     0.167 HD
ATOM     62  C   UNL A   1      42.501  29.200  33.941  1.00  0.00     0.074 A 
ATOM     63  C   UNL A   1      42.621  29.772  35.266  1.00  0.00     0.031 C 
ATOM     64  C   UNL A   1      43.404  28.345  33.395  1.00  0.00     0.034 A 
BRANCH  51  65
ATOM     65  C   UNL A   1      41.923  26.443  27.677  1.00  0.00     0.023 A 
ATOM     66  C   UNL A   1      41.551  25.088  27.627  1.00  0.00     0.031 A 
ATOM     67  C   UNL A   1      42.646  26.965  26.589  1.00  0.00     0.131 A 
ATOM     68  C   UNL A   1      41.967  24.285  26.554  1.00  0.00     0.055 A 
ATOM     69  C   UNL A   1      42.981  26.181  25.482  1.00  0.00     0.041 A 
ATOM     70  F   UNL A   1      43.049  28.245  26.586  1.00  0.00    -0.206 F 
ATOM     71  C   UNL A   1      42.656  24.828  25.468  1.00  0.00     0.022 A 
BRANCH  68  72
ATOM     72  S   UNL A   1      41.727  22.491  26.673  1.00  0.00     0.124 S 
ATOM     73  O   UNL A   1      42.584  22.153  27.807  1.00  0.00    -0.237 OA
ATOM     74  O   UNL A   1      40.291  22.379  26.901  1.00  0.00    -0.237 OA
ATOM     75  O   UNL A   1      42.195  21.996  25.380  1.00  0.00    -0.744 OA
ENDBRANCH  68  72
ENDBRANCH  51  65
BRANCH  52  76
ATOM     76  C   UNL A   1      39.116  32.117  35.442  1.00  0.00     0.023 A 
ATOM     77  C   UNL A   1      39.568  33.433  35.632  1.00  0.00     0.031 A 
ATOM     78  C   UNL A   1      38.281  31.560  36.426  1.00  0.00     0.131 A 
ATOM     79  C   UNL A   1      39.225  34.129  36.803  1.00  0.00     0.055 A 
ATOM     80  C   UNL A   1      37.893  32.278  37.559  1.00  0.00     0.041 A 
ATOM     81  F   UNL A   1      37.819  30.306  36.295  1.00  0.00    -0.206 F 
ATOM     82  C   UNL A   1      38.377  33.566  37.759  1.00  0.00     0.022 A 
BRANCH  79  83
ATOM     83  S   UNL A   1      39.983  35.749  37.104  1.00  0.00     0.124 S 
ATOM     84  O   UNL A   1      39.653  36.462  35.875  1.00  0.00    -0.237 OA
ATOM     85  O   UNL A   1      39.288  36.190  38.308  1.00  0.00    -0.237 OA
ATOM     86  O   UNL A   1      41.398  35.434  37.283  1.00  0.00    -0.744 OA
ENDBRANCH  79  83
ENDBRANCH  52  76
BRANCH  64  87
ATOM     87  C   UNL A   1      44.629  28.018  34.216  1.00  0.00     0.023 A 
ATOM     88  C   UNL A   1      44.674  26.907  35.078  1.00  0.00     0.031 A 
ATOM     89  C   UNL A   1      45.770  28.837  34.136  1.00  0.00     0.131 A 
ATOM     90  C   UNL A   1      45.813  26.678  35.865  1.00  0.00     0.055 A 
ATOM     91  C   UNL A   1      46.925  28.566  34.873  1.00  0.00     0.041 A 
ATOM     92  F   UNL A   1      45.785  29.915  33.335  1.00  0.00    -0.206 F 
ATOM     93  C   UNL A   1      46.945  27.489  35.753  1.00  0.00     0.022 A 
BRANCH  90  94
ATOM     94  S   UNL A   1      45.761  25.361  37.110  1.00  0.00     0.124 S 
ATOM     95  O   UNL A   1      46.968  24.601  36.799  1.00  0.00    -0.237 OA
ATOM     96  O   UNL A   1      45.786  26.113  38.361  1.00  0.00    -0.237 OA
ATOM     97  O   UNL A   1      44.503  24.671  36.829  1.00  0.00    -0.744 OA
ENDBRANCH  90  94
ENDBRANCH  64  87
ENDBRANCH  38  39
ENDBRANCH  30  33
ENDBRANCH  28  29
ENDBRANCH   1  28
TORSDOF 17
ENDMDL
MODEL 3
REMARK VINA RESULT:     -10.8      1.776      2.080
REMARK SMILES [NH3+][C@]1(C(=O)NCCCCNC(=O)c2ccc(-c3c4nc(c(-c5cc(S(=O)(=O)[O-])ccc5F)c5ccc([nH]5)c(-c5cc(S(=O)(=O)[O-])ccc5F)c5nc(c(-c6cc(S(=O)(=O)[O-])ccc6F)c6ccc3[nH]6)C=C5)C=C4)cc2)CCC[C@@H](Oc2ccc3c(c2)CCC3)C1
REMARK SMILES IDX 8 1 7 2 6 3 5 4 3 5 4 6 2 8 76 9 90 10 77 11 79 12 78 13
REMARK SMILES IDX 1 14 80 18 81 19 82 20 86 21 83 22 85 23 84 24 87 25 89 26
REMARK SMILES IDX 88 27 9 28 10 29 11 30 12 32 13 33 14 34 75 35 15 36 74 37
REMARK SMILES IDX 16 38 17 39 18 40 68 41 19 42 73 43 67 44 69 45 20 46 72 47
REMARK SMILES IDX 66 48 65 49 21 51 53 52 33 53 52 54 34 55 37 56 51 57 70 58
REMARK SMILES IDX 35 59 36 60 50 62 71 63 38 64 22 65 23 66 31 67 24 68 30 69
REMARK SMILES IDX 32 70 29 71 25 72 26 73 27 74 28 75 54 76 55 77 63 78 56 79
REMARK SMILES IDX 62 80 64 81 61 82 57 83 58 84 59 85 60 86 39 87 40 88 48 89
REMARK SMILES IDX 41 90 47 91 49 92 46 93 42 94 43 95 44 96 45 97
REMARK H PARENT 5 7 1 15 1 16 1 17 10 31 69 50 37 61
REMARK Flexibility Score: inf
ROOT
ATOM      1  C   UNL A   1      41.505  20.031  27.829  1.00  0.00     0.023 C 
ENDROOT
BRANCH   1   2
ATOM      2  C   UNL A   1      42.148  19.239  26.685  1.00  0.00     0.023 C 
BRANCH   2   3
ATOM      3  C   UNL A   1      42.900  19.946  25.537  1.00  0.00     0.116 C 
BRANCH   3   4
ATOM      4  N   UNL A   1      44.350  20.075  25.624  1.00  0.00    -0.351 N 
ATOM      5  C   UNL A   1      45.277  20.979  25.157  1.00  0.00     0.281 C 
ATOM      6  O   UNL A   1      46.413  20.884  25.636  1.00  0.00    -0.268 OA
ATOM      7  H   UNL A   1      44.763  19.344  26.138  1.00  0.00     0.163 HD
BRANCH   5   8
ATOM      8  C   UNL A   1      44.912  22.149  24.178  1.00  0.00     0.177 C 
ATOM      9  C   UNL A   1      43.577  22.844  24.568  1.00  0.00     0.079 C 
ATOM     10  C   UNL A   1      46.015  23.210  23.991  1.00  0.00     0.124 C 
ATOM     11  C   UNL A   1      43.686  23.926  25.644  1.00  0.00     0.011 C 
ATOM     12  C   UNL A   1      46.109  24.348  25.037  1.00  0.00     0.180 C 
ATOM     13  C   UNL A   1      44.745  24.969  25.319  1.00  0.00     0.046 C 
BRANCH   8  14
ATOM     14  N   UNL A   1      44.597  21.475  22.880  1.00  0.00    -0.345 N 
ATOM     15  H   UNL A   1      45.382  21.589  22.238  1.00  0.00     0.345 HD
ATOM     16  H   UNL A   1      43.762  21.894  22.472  1.00  0.00     0.345 HD
ATOM     17  H   UNL A   1      44.434  20.481  23.042  1.00  0.00     0.345 HD
ENDBRANCH   8  14
BRANCH  12  18
ATOM     18  O   UNL A   1      46.986  24.159  26.167  1.00  0.00    -0.490 OA
BRANCH  18  19
ATOM     19  C   UNL A   1      46.522  24.386  27.426  1.00  0.00     0.120 A 
ATOM     20  C   UNL A   1      47.028  25.384  28.263  1.00  0.00     0.047 A 
ATOM     21  C   UNL A   1      45.594  23.494  27.933  1.00  0.00     0.050 A 
ATOM     22  C   UNL A   1      46.481  25.579  29.545  1.00  0.00     0.008 A 
ATOM     23  C   UNL A   1      45.019  23.704  29.170  1.00  0.00    -0.041 A 
ATOM     24  C   UNL A   1      45.449  24.753  29.972  1.00  0.00    -0.045 A 
ATOM     25  C   UNL A   1      43.837  23.002  29.759  1.00  0.00     0.036 C 
ATOM     26  C   UNL A   1      44.601  24.846  31.202  1.00  0.00     0.036 C 
ATOM     27  C   UNL A   1      43.898  23.476  31.212  1.00  0.00     0.010 C 
ENDBRANCH  18  19
ENDBRANCH  12  18
ENDBRANCH   5   8
ENDBRANCH   3   4
ENDBRANCH   2   3
ENDBRANCH   1   2
BRANCH   1  28
ATOM     28  C   UNL A   1      41.109  21.467  27.555  1.00  0.00     0.116 C 
BRANCH  28  29
ATOM     29  N   UNL A   1      39.956  21.559  26.682  1.00  0.00    -0.352 N 
ATOM     30  C   UNL A   1      39.155  22.635  26.378  1.00  0.00     0.251 C 
ATOM     31  H   UNL A   1      39.707  20.718  26.236  1.00  0.00     0.163 HD
ATOM     32  O   UNL A   1      38.112  22.432  25.764  1.00  0.00    -0.269 OA
BRANCH  30  33
ATOM     33  C   UNL A   1      39.513  24.013  26.802  1.00  0.00     0.039 A 
ATOM     34  C   UNL A   1      39.254  24.392  28.123  1.00  0.00     0.014 A 
ATOM     35  C   UNL A   1      40.059  24.946  25.916  1.00  0.00     0.014 A 
ATOM     36  C   UNL A   1      39.597  25.673  28.568  1.00  0.00     0.010 A 
ATOM     37  C   UNL A   1      40.474  26.196  26.381  1.00  0.00     0.010 A 
ATOM     38  C   UNL A   1      40.246  26.576  27.711  1.00  0.00    -0.014 A 
BRANCH  38  39
ATOM     39  C   UNL A   1      40.688  27.916  28.191  1.00  0.00     0.031 A 
ATOM     40  C   UNL A   1      42.151  28.270  28.219  1.00  0.00     0.074 A 
ATOM     41  C   UNL A   1      39.775  28.796  28.653  1.00  0.00     0.049 A 
ATOM     42  N   UNL A   1      42.735  29.350  28.674  1.00  0.00    -0.248 NA
ATOM     43  C   UNL A   1      43.083  27.266  27.686  1.00  0.00     0.031 C 
ATOM     44  C   UNL A   1      38.331  28.564  28.705  1.00  0.00     0.029 A 
ATOM     45  N   UNL A   1      39.926  30.057  29.176  1.00  0.00    -0.354 N 
ATOM     46  C   UNL A   1      44.100  29.153  28.494  1.00  0.00     0.074 A 
ATOM     47  C   UNL A   1      44.258  27.822  27.943  1.00  0.00     0.031 C 
ATOM     48  C   UNL A   1      37.727  29.653  29.206  1.00  0.00     0.029 A 
ATOM     49  C   UNL A   1      38.740  30.640  29.564  1.00  0.00     0.049 A 
ATOM     50  H   UNL A   1      40.799  30.503  29.265  1.00  0.00     0.167 HD
ATOM     51  C   UNL A   1      45.125  30.007  28.744  1.00  0.00     0.034 A 
ATOM     52  C   UNL A   1      38.496  31.825  30.161  1.00  0.00     0.034 A 
ATOM     53  C   UNL A   1      44.951  31.332  29.289  1.00  0.00     0.049 A 
ATOM     54  C   UNL A   1      39.656  32.737  30.476  1.00  0.00     0.074 A 
ATOM     55  C   UNL A   1      45.916  32.295  29.535  1.00  0.00     0.029 A 
ATOM     56  N   UNL A   1      43.738  31.881  29.686  1.00  0.00    -0.354 N 
ATOM     57  N   UNL A   1      40.937  32.552  30.258  1.00  0.00    -0.248 NA
ATOM     58  C   UNL A   1      39.335  34.023  31.112  1.00  0.00     0.031 C 
ATOM     59  C   UNL A   1      45.299  33.389  30.152  1.00  0.00     0.029 A 
ATOM     60  C   UNL A   1      43.935  33.150  30.209  1.00  0.00     0.049 A 
ATOM     61  H   UNL A   1      42.864  31.433  29.607  1.00  0.00     0.167 HD
ATOM     62  C   UNL A   1      41.570  33.711  30.698  1.00  0.00     0.074 A 
ATOM     63  C   UNL A   1      40.528  34.594  31.181  1.00  0.00     0.031 C 
ATOM     64  C   UNL A   1      42.891  34.021  30.699  1.00  0.00     0.034 A 
BRANCH  51  65
ATOM     65  C   UNL A   1      46.526  29.518  28.458  1.00  0.00     0.023 A 
ATOM     66  C   UNL A   1      47.343  28.976  29.466  1.00  0.00     0.031 A 
ATOM     67  C   UNL A   1      47.063  29.612  27.161  1.00  0.00     0.131 A 
ATOM     68  C   UNL A   1      48.670  28.622  29.181  1.00  0.00     0.055 A 
ATOM     69  C   UNL A   1      48.356  29.177  26.864  1.00  0.00     0.041 A 
ATOM     70  F   UNL A   1      46.342  30.140  26.159  1.00  0.00    -0.206 F 
ATOM     71  C   UNL A   1      49.174  28.693  27.881  1.00  0.00     0.022 A 
BRANCH  68  72
ATOM     72  S   UNL A   1      49.773  28.215  30.562  1.00  0.00     0.124 S 
ATOM     73  O   UNL A   1      51.086  28.465  29.975  1.00  0.00    -0.237 OA
ATOM     74  O   UNL A   1      49.344  29.151  31.595  1.00  0.00    -0.237 OA
ATOM     75  O   UNL A   1      49.477  26.809  30.833  1.00  0.00    -0.744 OA
ENDBRANCH  68  72
ENDBRANCH  51  65
BRANCH  52  76
ATOM     76  C   UNL A   1      37.102  32.218  30.522  1.00  0.00     0.023 A 
ATOM     77  C   UNL A   1      36.266  32.858  29.593  1.00  0.00     0.031 A 
ATOM     78  C   UNL A   1      36.601  32.001  31.818  1.00  0.00     0.131 A 
ATOM     79  C   UNL A   1      34.995  33.306  29.987  1.00  0.00     0.055 A 
ATOM     80  C   UNL A   1      35.313  32.394  32.187  1.00  0.00     0.041 A 
ATOM     81  F   UNL A   1      37.357  31.394  32.747  1.00  0.00    -0.206 F 
ATOM     82  C   UNL A   1      34.507  33.064  31.273  1.00  0.00     0.022 A 
BRANCH  79  83
ATOM     83  S   UNL A   1      34.023  34.297  28.820  1.00  0.00     0.124 S 
ATOM     84  O   UNL A   1      35.063  35.076  28.157  1.00  0.00    -0.237 OA
ATOM     85  O   UNL A   1      33.378  33.268  28.012  1.00  0.00    -0.237 OA
ATOM     86  O   UNL A   1      33.128  35.061  29.686  1.00  0.00    -0.744 OA
ENDBRANCH  79  83
ENDBRANCH  52  76
BRANCH  64  87
ATOM     87  C   UNL A   1      43.279  35.395  31.191  1.00  0.00     0.023 A 
ATOM     88  C   UNL A   1      43.394  35.690  32.562  1.00  0.00     0.031 A 
ATOM     89  C   UNL A   1      43.532  36.429  30.271  1.00  0.00     0.131 A 
ATOM     90  C   UNL A   1      43.698  36.997  32.973  1.00  0.00     0.055 A 
ATOM     91  C   UNL A   1      43.899  37.711  30.685  1.00  0.00     0.041 A 
ATOM     92  F   UNL A   1      43.433  36.208  28.950  1.00  0.00    -0.206 F 
ATOM     93  C   UNL A   1      43.970  38.004  32.043  1.00  0.00     0.022 A 
BRANCH  90  94
ATOM     94  S   UNL A   1      43.639  37.391  34.743  1.00  0.00     0.124 S 
ATOM     95  O   UNL A   1      44.726  36.574  35.272  1.00  0.00    -0.237 OA
ATOM     96  O   UNL A   1      43.863  38.833  34.749  1.00  0.00    -0.237 OA
ATOM     97  O   UNL A   1      42.296  36.972  35.143  1.00  0.00    -0.744 OA
ENDBRANCH  90  94
ENDBRANCH  64  87
ENDBRANCH  38  39
ENDBRANCH  30  33
ENDBRANCH  28  29
ENDBRANCH   1  28
TORSDOF 17
ENDMDL
