MODEL 1
REMARK VINA RESULT:     -12.9      0.000      0.000
REMARK SMILES Cc1nc(Oc2ccc(F)cc2)c(C(=O)NCCCCNC(=O)c2ccc(-c3c4nc(c(-c5cc(S(=O)(=O)[O-])ccc5F)c5ccc([nH]5)c(-c5cc(S(=O)(=O)[O-])ccc5F)c5nc(c(-c6cc(S(=O)(=O)[O-])ccc6F)c6ccc3[nH]6)C=C5)C=C4)cc2)c(C)c1Cl
REMARK SMILES IDX 19 1 18 2 17 3 16 4 14 5 15 6 13 8 1 9 2 10 3 11 89 12 4 13
REMARK SMILES IDX 87 14 90 15 88 16 5 17 6 18 7 19 12 20 8 21 11 22 9 23 10 24
REMARK SMILES IDX 20 25 21 26 22 27 23 29 24 30 25 31 86 32 26 33 85 34 27 35
REMARK SMILES IDX 28 36 29 37 79 38 30 39 84 40 78 41 80 42 31 43 83 44 77 45
REMARK SMILES IDX 76 46 32 48 64 49 44 50 63 51 45 52 48 53 62 54 81 55 46 56
REMARK SMILES IDX 47 57 61 59 82 60 49 61 33 62 34 63 42 64 35 65 41 66 43 67
REMARK SMILES IDX 40 68 36 69 37 70 38 71 39 72 65 73 66 74 74 75 67 76 73 77
REMARK SMILES IDX 75 78 72 79 68 80 69 81 70 82 71 83 50 84 51 85 59 86 52 87
REMARK SMILES IDX 58 88 60 89 57 90 53 91 54 92 55 93 56 94
REMARK H PARENT 16 7 21 28 80 47 48 58
REMARK Flexibility Score: inf
ROOT
ATOM      1  C   UNL A   1      35.719  21.546  25.655  1.00  0.00     0.023 C 
ENDROOT
BRANCH   1   2
ATOM      2  C   UNL A   1      35.271  22.260  26.928  1.00  0.00     0.023 C 
BRANCH   2   3
ATOM      3  C   UNL A   1      33.997  21.782  27.608  1.00  0.00     0.116 C 
BRANCH   3   4
ATOM      4  N   UNL A   1      32.931  22.749  27.773  1.00  0.00    -0.352 N 
ATOM      5  C   UNL A   1      31.880  22.922  26.885  1.00  0.00     0.257 C 
ATOM      6  O   UNL A   1      30.725  22.989  27.292  1.00  0.00    -0.269 OA
ATOM      7  H   UNL A   1      32.954  23.323  28.572  1.00  0.00     0.163 HD
BRANCH   5   8
ATOM      8  C   UNL A   1      32.132  23.086  25.435  1.00  0.00     0.106 A 
ATOM      9  C   UNL A   1      33.276  23.191  21.321  1.00  0.00     0.068 C 
ATOM     10  C   UNL A   1      32.825  23.237  22.753  1.00  0.00     0.060 A 
ATOM     11  N   UNL A   1      32.369  22.069  23.256  1.00  0.00    -0.216 NA
ATOM     12  C   UNL A   1      32.955  24.378  23.541  1.00  0.00     0.066 A 
ATOM     13  C   UNL A   1      32.033  21.982  24.573  1.00  0.00     0.232 A 
ATOM     14  C   UNL A   1      32.657  24.301  24.917  1.00  0.00    -0.012 A 
ATOM     15  Cl  UNL A   1      33.512  25.859  22.828  1.00  0.00    -0.082 Cl
ATOM     16  C   UNL A   1      32.959  25.493  25.794  1.00  0.00     0.047 C 
BRANCH  13  17
ATOM     17  O   UNL A   1      31.777  20.669  24.871  1.00  0.00    -0.438 OA
BRANCH  17  18
ATOM     18  C   UNL A   1      32.505  19.636  24.359  1.00  0.00     0.129 A 
ATOM     19  C   UNL A   1      32.059  19.093  23.149  1.00  0.00     0.050 A 
ATOM     20  C   UNL A   1      33.552  19.041  25.062  1.00  0.00     0.050 A 
ATOM     21  C   UNL A   1      32.709  17.993  22.599  1.00  0.00     0.043 A 
ATOM     22  C   UNL A   1      34.200  17.933  24.510  1.00  0.00     0.043 A 
ATOM     23  C   UNL A   1      33.778  17.426  23.282  1.00  0.00     0.123 A 
ATOM     24  F   UNL A   1      34.402  16.366  22.756  1.00  0.00    -0.207 F 
ENDBRANCH  17  18
ENDBRANCH  13  17
ENDBRANCH   5   8
ENDBRANCH   3   4
ENDBRANCH   2   3
ENDBRANCH   1   2
BRANCH   1  25
ATOM     25  C   UNL A   1      37.103  21.878  25.108  1.00  0.00     0.116 C 
BRANCH  25  26
ATOM     26  N   UNL A   1      38.120  20.860  25.347  1.00  0.00    -0.352 N 
ATOM     27  C   UNL A   1      39.287  20.967  26.075  1.00  0.00     0.251 C 
ATOM     28  H   UNL A   1      37.951  19.981  24.935  1.00  0.00     0.163 HD
ATOM     29  O   UNL A   1      40.036  20.013  26.209  1.00  0.00    -0.269 OA
BRANCH  27  30
ATOM     30  C   UNL A   1      39.636  22.285  26.641  1.00  0.00     0.039 A 
ATOM     31  C   UNL A   1      40.626  22.348  27.624  1.00  0.00     0.014 A 
ATOM     32  C   UNL A   1      39.086  23.448  26.099  1.00  0.00     0.014 A 
ATOM     33  C   UNL A   1      41.138  23.590  27.998  1.00  0.00     0.010 A 
ATOM     34  C   UNL A   1      39.642  24.680  26.427  1.00  0.00     0.010 A 
ATOM     35  C   UNL A   1      40.683  24.759  27.368  1.00  0.00    -0.014 A 
BRANCH  35  36
ATOM     36  C   UNL A   1      41.287  26.078  27.674  1.00  0.00     0.031 A 
ATOM     37  C   UNL A   1      42.668  26.395  27.186  1.00  0.00     0.074 A 
ATOM     38  C   UNL A   1      40.619  26.957  28.450  1.00  0.00     0.049 A 
ATOM     39  N   UNL A   1      43.381  27.471  27.380  1.00  0.00    -0.248 NA
ATOM     40  C   UNL A   1      43.349  25.353  26.400  1.00  0.00     0.031 C 
ATOM     41  C   UNL A   1      39.295  26.733  29.031  1.00  0.00     0.029 A 
ATOM     42  N   UNL A   1      40.969  28.209  28.893  1.00  0.00    -0.354 N 
ATOM     43  C   UNL A   1      44.595  27.235  26.747  1.00  0.00     0.074 A 
ATOM     44  C   UNL A   1      44.545  25.892  26.215  1.00  0.00     0.031 C 
ATOM     45  C   UNL A   1      38.938  27.816  29.741  1.00  0.00     0.029 A 
ATOM     46  C   UNL A   1      40.016  28.801  29.688  1.00  0.00     0.049 A 
ATOM     47  H   UNL A   1      41.823  28.642  28.663  1.00  0.00     0.167 HD
ATOM     48  C   UNL A   1      45.644  28.075  26.596  1.00  0.00     0.034 A 
ATOM     49  C   UNL A   1      40.007  30.004  30.300  1.00  0.00     0.034 A 
ATOM     50  C   UNL A   1      45.672  29.419  27.105  1.00  0.00     0.049 A 
ATOM     51  C   UNL A   1      41.180  30.932  30.104  1.00  0.00     0.074 A 
ATOM     52  C   UNL A   1      46.662  30.372  26.944  1.00  0.00     0.029 A 
ATOM     53  N   UNL A   1      44.672  30.002  27.868  1.00  0.00    -0.354 N 
ATOM     54  N   UNL A   1      42.275  30.736  29.408  1.00  0.00    -0.248 NA
ATOM     55  C   UNL A   1      41.113  32.248  30.755  1.00  0.00     0.031 C 
ATOM     56  C   UNL A   1      46.277  31.517  27.642  1.00  0.00     0.029 A 
ATOM     57  C   UNL A   1      45.027  31.297  28.198  1.00  0.00     0.049 A 
ATOM     58  H   UNL A   1      43.833  29.559  28.133  1.00  0.00     0.167 HD
ATOM     59  C   UNL A   1      43.015  31.910  29.516  1.00  0.00     0.074 A 
ATOM     60  C   UNL A   1      42.236  32.818  30.331  1.00  0.00     0.031 C 
ATOM     61  C   UNL A   1      44.230  32.205  28.988  1.00  0.00     0.034 A 
BRANCH  48  62
ATOM     62  C   UNL A   1      46.837  27.588  25.821  1.00  0.00     0.023 A 
ATOM     63  C   UNL A   1      47.011  27.965  24.478  1.00  0.00     0.031 A 
ATOM     64  C   UNL A   1      47.748  26.679  26.387  1.00  0.00     0.131 A 
ATOM     65  C   UNL A   1      48.063  27.416  23.737  1.00  0.00     0.055 A 
ATOM     66  C   UNL A   1      48.815  26.162  25.654  1.00  0.00     0.041 A 
ATOM     67  F   UNL A   1      47.623  26.295  27.668  1.00  0.00    -0.206 F 
ATOM     68  C   UNL A   1      48.971  26.524  24.319  1.00  0.00     0.022 A 
BRANCH  65  69
ATOM     69  S   UNL A   1      48.282  27.819  21.983  1.00  0.00     0.124 S 
ATOM     70  O   UNL A   1      47.080  28.600  21.699  1.00  0.00    -0.237 OA
ATOM     71  O   UNL A   1      49.530  28.577  22.001  1.00  0.00    -0.237 OA
ATOM     72  O   UNL A   1      48.342  26.516  21.330  1.00  0.00    -0.744 OA
ENDBRANCH  65  69
ENDBRANCH  48  62
BRANCH  49  73
ATOM     73  C   UNL A   1      38.809  30.413  31.088  1.00  0.00     0.023 A 
ATOM     74  C   UNL A   1      37.738  31.096  30.485  1.00  0.00     0.031 A 
ATOM     75  C   UNL A   1      38.767  30.210  32.478  1.00  0.00     0.131 A 
ATOM     76  C   UNL A   1      36.694  31.593  31.278  1.00  0.00     0.055 A 
ATOM     77  C   UNL A   1      37.698  30.657  33.256  1.00  0.00     0.041 A 
ATOM     78  F   UNL A   1      39.774  29.576  33.098  1.00  0.00    -0.206 F 
ATOM     79  C   UNL A   1      36.659  31.363  32.657  1.00  0.00     0.022 A 
BRANCH  76  80
ATOM     80  S   UNL A   1      35.393  32.632  30.560  1.00  0.00     0.124 S 
ATOM     81  O   UNL A   1      34.383  32.635  31.614  1.00  0.00    -0.237 OA
ATOM     82  O   UNL A   1      36.101  33.896  30.363  1.00  0.00    -0.237 OA
ATOM     83  O   UNL A   1      35.025  31.928  29.337  1.00  0.00    -0.744 OA
ENDBRANCH  76  80
ENDBRANCH  49  73
BRANCH  61  84
ATOM     84  C   UNL A   1      44.818  33.568  29.240  1.00  0.00     0.023 A 
ATOM     85  C   UNL A   1      44.702  34.573  28.261  1.00  0.00     0.031 A 
ATOM     86  C   UNL A   1      45.638  33.812  30.355  1.00  0.00     0.131 A 
ATOM     87  C   UNL A   1      45.433  35.759  28.390  1.00  0.00     0.055 A 
ATOM     88  C   UNL A   1      46.333  35.014  30.500  1.00  0.00     0.041 A 
ATOM     89  F   UNL A   1      45.787  32.879  31.308  1.00  0.00    -0.206 F 
ATOM     90  C   UNL A   1      46.243  35.987  29.508  1.00  0.00     0.022 A 
BRANCH  87  91
ATOM     91  S   UNL A   1      45.422  37.013  27.081  1.00  0.00     0.124 S 
ATOM     92  O   UNL A   1      46.102  36.320  25.990  1.00  0.00    -0.237 OA
ATOM     93  O   UNL A   1      43.992  37.237  26.884  1.00  0.00    -0.237 OA
ATOM     94  O   UNL A   1      46.159  38.132  27.659  1.00  0.00    -0.744 OA
ENDBRANCH  87  91
ENDBRANCH  61  84
ENDBRANCH  35  36
ENDBRANCH  27  30
ENDBRANCH  25  26
ENDBRANCH   1  25
TORSDOF 16
ENDMDL
MODEL 2
REMARK VINA RESULT:     -12.9      5.699     10.676
REMARK SMILES Cc1nc(Oc2ccc(F)cc2)c(C(=O)NCCCCNC(=O)c2ccc(-c3c4nc(c(-c5cc(S(=O)(=O)[O-])ccc5F)c5ccc([nH]5)c(-c5cc(S(=O)(=O)[O-])ccc5F)c5nc(c(-c6cc(S(=O)(=O)[O-])ccc6F)c6ccc3[nH]6)C=C5)C=C4)cc2)c(C)c1Cl
REMARK SMILES IDX 19 1 18 2 17 3 16 4 14 5 15 6 13 8 1 9 2 10 3 11 89 12 4 13
REMARK SMILES IDX 87 14 90 15 88 16 5 17 6 18 7 19 12 20 8 21 11 22 9 23 10 24
REMARK SMILES IDX 20 25 21 26 22 27 23 29 24 30 25 31 86 32 26 33 85 34 27 35
REMARK SMILES IDX 28 36 29 37 79 38 30 39 84 40 78 41 80 42 31 43 83 44 77 45
REMARK SMILES IDX 76 46 32 48 64 49 44 50 63 51 45 52 48 53 62 54 81 55 46 56
REMARK SMILES IDX 47 57 61 59 82 60 49 61 33 62 34 63 42 64 35 65 41 66 43 67
REMARK SMILES IDX 40 68 36 69 37 70 38 71 39 72 65 73 66 74 74 75 67 76 73 77
REMARK SMILES IDX 75 78 72 79 68 80 69 81 70 82 71 83 50 84 51 85 59 86 52 87
REMARK SMILES IDX 58 88 60 89 57 90 53 91 54 92 55 93 56 94
REMARK H PARENT 16 7 21 28 80 47 48 58
REMARK Flexibility Score: inf
ROOT
ATOM      1  C   UNL A   1      32.386  29.553  25.390  1.00  0.00     0.023 C 
ENDROOT
BRANCH   1   2
ATOM      2  C   UNL A   1      33.655  29.125  24.658  1.00  0.00     0.023 C 
BRANCH   2   3
ATOM      3  C   UNL A   1      33.606  29.014  23.141  1.00  0.00     0.116 C 
BRANCH   3   4
ATOM      4  N   UNL A   1      34.041  27.764  22.553  1.00  0.00    -0.352 N 
ATOM      5  C   UNL A   1      33.203  26.707  22.238  1.00  0.00     0.257 C 
ATOM      6  O   UNL A   1      33.278  26.157  21.144  1.00  0.00    -0.269 OA
ATOM      7  H   UNL A   1      35.002  27.658  22.365  1.00  0.00     0.163 HD
BRANCH   5   8
ATOM      8  C   UNL A   1      32.237  26.182  23.230  1.00  0.00     0.106 A 
ATOM      9  C   UNL A   1      29.374  25.203  26.245  1.00  0.00     0.068 C 
ATOM     10  C   UNL A   1      30.409  25.454  25.185  1.00  0.00     0.060 A 
ATOM     11  N   UNL A   1      29.998  26.205  24.140  1.00  0.00    -0.216 NA
ATOM     12  C   UNL A   1      31.728  25.026  25.313  1.00  0.00     0.066 A 
ATOM     13  C   UNL A   1      30.889  26.574  23.178  1.00  0.00     0.232 A 
ATOM     14  C   UNL A   1      32.679  25.432  24.354  1.00  0.00    -0.012 A 
ATOM     15  Cl  UNL A   1      32.185  24.032  26.660  1.00  0.00    -0.082 Cl
ATOM     16  C   UNL A   1      34.134  25.105  24.589  1.00  0.00     0.047 C 
BRANCH  13  17
ATOM     17  O   UNL A   1      30.278  27.468  22.338  1.00  0.00    -0.438 OA
BRANCH  17  18
ATOM     18  C   UNL A   1      29.513  28.503  22.786  1.00  0.00     0.129 A 
ATOM     19  C   UNL A   1      28.125  28.320  22.750  1.00  0.00     0.050 A 
ATOM     20  C   UNL A   1      30.057  29.741  23.124  1.00  0.00     0.050 A 
ATOM     21  C   UNL A   1      27.278  29.358  23.126  1.00  0.00     0.043 A 
ATOM     22  C   UNL A   1      29.204  30.783  23.496  1.00  0.00     0.043 A 
ATOM     23  C   UNL A   1      27.825  30.578  23.501  1.00  0.00     0.123 A 
ATOM     24  F   UNL A   1      27.011  31.578  23.860  1.00  0.00    -0.207 F 
ENDBRANCH  17  18
ENDBRANCH  13  17
ENDBRANCH   5   8
ENDBRANCH   3   4
ENDBRANCH   2   3
ENDBRANCH   1   2
BRANCH   1  25
ATOM     25  C   UNL A   1      32.516  29.948  26.858  1.00  0.00     0.116 C 
BRANCH  25  26
ATOM     26  N   UNL A   1      32.478  31.383  27.115  1.00  0.00    -0.352 N 
ATOM     27  C   UNL A   1      33.492  32.201  27.568  1.00  0.00     0.251 C 
ATOM     28  H   UNL A   1      31.615  31.826  26.942  1.00  0.00     0.163 HD
ATOM     29  O   UNL A   1      33.317  33.400  27.715  1.00  0.00    -0.269 OA
BRANCH  27  30
ATOM     30  C   UNL A   1      34.781  31.578  27.928  1.00  0.00     0.039 A 
ATOM     31  C   UNL A   1      35.916  32.387  28.001  1.00  0.00     0.014 A 
ATOM     32  C   UNL A   1      34.825  30.239  28.324  1.00  0.00     0.014 A 
ATOM     33  C   UNL A   1      37.084  31.875  28.567  1.00  0.00     0.010 A 
ATOM     34  C   UNL A   1      35.970  29.752  28.944  1.00  0.00     0.010 A 
ATOM     35  C   UNL A   1      37.103  30.570  29.084  1.00  0.00    -0.014 A 
BRANCH  35  36
ATOM     36  C   UNL A   1      38.300  30.042  29.782  1.00  0.00     0.031 A 
ATOM     37  C   UNL A   1      38.634  30.533  31.159  1.00  0.00     0.074 A 
ATOM     38  C   UNL A   1      39.119  29.178  29.149  1.00  0.00     0.049 A 
ATOM     39  N   UNL A   1      39.651  30.223  31.917  1.00  0.00    -0.248 NA
ATOM     40  C   UNL A   1      37.720  31.523  31.750  1.00  0.00     0.031 C 
ATOM     41  C   UNL A   1      38.928  28.679  27.787  1.00  0.00     0.029 A 
ATOM     42  N   UNL A   1      40.284  28.579  29.561  1.00  0.00    -0.354 N 
ATOM     43  C   UNL A   1      39.503  30.984  33.071  1.00  0.00     0.074 A 
ATOM     44  C   UNL A   1      38.334  31.812  32.888  1.00  0.00     0.031 C 
ATOM     45  C   UNL A   1      39.930  27.838  27.482  1.00  0.00     0.029 A 
ATOM     46  C   UNL A   1      40.849  27.756  28.615  1.00  0.00     0.049 A 
ATOM     47  H   UNL A   1      40.678  28.724  30.452  1.00  0.00     0.167 HD
ATOM     48  C   UNL A   1      40.258  30.967  34.192  1.00  0.00     0.034 A 
ATOM     49  C   UNL A   1      41.977  27.017  28.656  1.00  0.00     0.034 A 
ATOM     50  C   UNL A   1      41.403  30.118  34.374  1.00  0.00     0.049 A 
ATOM     51  C   UNL A   1      42.794  26.999  29.924  1.00  0.00     0.074 A 
ATOM     52  C   UNL A   1      42.192  29.979  35.502  1.00  0.00     0.029 A 
ATOM     53  N   UNL A   1      41.922  29.265  33.412  1.00  0.00    -0.354 N 
ATOM     54  N   UNL A   1      42.579  27.641  31.049  1.00  0.00    -0.248 NA
ATOM     55  C   UNL A   1      43.993  26.149  29.941  1.00  0.00     0.031 C 
ATOM     56  C   UNL A   1      43.211  29.072  35.208  1.00  0.00     0.029 A 
ATOM     57  C   UNL A   1      43.030  28.608  33.914  1.00  0.00     0.049 A 
ATOM     58  H   UNL A   1      41.555  29.146  32.506  1.00  0.00     0.167 HD
ATOM     59  C   UNL A   1      43.598  27.253  31.914  1.00  0.00     0.074 A 
ATOM     60  C   UNL A   1      44.421  26.309  31.188  1.00  0.00     0.031 C 
ATOM     61  C   UNL A   1      43.828  27.646  33.192  1.00  0.00     0.034 A 
BRANCH  48  62
ATOM     62  C   UNL A   1      39.856  31.865  35.330  1.00  0.00     0.023 A 
ATOM     63  C   UNL A   1      38.968  31.402  36.317  1.00  0.00     0.031 A 
ATOM     64  C   UNL A   1      40.281  33.204  35.383  1.00  0.00     0.131 A 
ATOM     65  C   UNL A   1      38.516  32.281  37.307  1.00  0.00     0.055 A 
ATOM     66  C   UNL A   1      39.854  34.066  36.392  1.00  0.00     0.041 A 
ATOM     67  F   UNL A   1      41.132  33.687  34.465  1.00  0.00    -0.206 F 
ATOM     68  C   UNL A   1      38.960  33.608  37.355  1.00  0.00     0.022 A 
BRANCH  65  69
ATOM     69  S   UNL A   1      37.316  31.747  38.556  1.00  0.00     0.124 S 
ATOM     70  O   UNL A   1      36.228  32.703  38.360  1.00  0.00    -0.237 OA
ATOM     71  O   UNL A   1      37.028  30.379  38.134  1.00  0.00    -0.237 OA
ATOM     72  O   UNL A   1      38.039  31.883  39.816  1.00  0.00    -0.744 OA
ENDBRANCH  65  69
ENDBRANCH  48  62
BRANCH  49  73
ATOM     73  C   UNL A   1      42.342  26.178  27.479  1.00  0.00     0.023 A 
ATOM     74  C   UNL A   1      41.941  24.833  27.389  1.00  0.00     0.031 A 
ATOM     75  C   UNL A   1      43.182  26.687  26.474  1.00  0.00     0.131 A 
ATOM     76  C   UNL A   1      42.421  24.032  26.343  1.00  0.00     0.055 A 
ATOM     77  C   UNL A   1      43.611  25.902  25.403  1.00  0.00     0.041 A 
ATOM     78  F   UNL A   1      43.601  27.961  26.526  1.00  0.00    -0.206 F 
ATOM     79  C   UNL A   1      43.239  24.562  25.340  1.00  0.00     0.022 A 
BRANCH  76  80
ATOM     80  S   UNL A   1      42.071  22.253  26.297  1.00  0.00     0.124 S 
ATOM     81  O   UNL A   1      40.620  22.228  26.137  1.00  0.00    -0.237 OA
ATOM     82  O   UNL A   1      42.840  21.832  25.128  1.00  0.00    -0.237 OA
ATOM     83  O   UNL A   1      42.571  21.770  27.578  1.00  0.00    -0.744 OA
ENDBRANCH  76  80
ENDBRANCH  49  73
BRANCH  61  84
ATOM     84  C   UNL A   1      45.004  27.062  33.930  1.00  0.00     0.023 A 
ATOM     85  C   UNL A   1      44.811  25.980  34.809  1.00  0.00     0.031 A 
ATOM     86  C   UNL A   1      46.264  27.683  33.900  1.00  0.00     0.131 A 
ATOM     87  C   UNL A   1      45.847  25.582  35.661  1.00  0.00     0.055 A 
ATOM     88  C   UNL A   1      47.308  27.255  34.721  1.00  0.00     0.041 A 
ATOM     89  F   UNL A   1      46.490  28.725  33.084  1.00  0.00    -0.206 F 
ATOM     90  C   UNL A   1      47.097  26.210  35.617  1.00  0.00     0.022 A 
BRANCH  87  91
ATOM     91  S   UNL A   1      45.591  24.290  36.908  1.00  0.00     0.124 S 
ATOM     92  O   UNL A   1      45.327  23.117  36.079  1.00  0.00    -0.237 OA
ATOM     93  O   UNL A   1      46.871  24.285  37.610  1.00  0.00    -0.237 OA
ATOM     94  O   UNL A   1      44.451  24.769  37.682  1.00  0.00    -0.744 OA
ENDBRANCH  87  91
ENDBRANCH  61  84
ENDBRANCH  35  36
ENDBRANCH  27  30
ENDBRANCH  25  26
ENDBRANCH   1  25
TORSDOF 16
ENDMDL
MODEL 3
REMARK VINA RESULT:     -12.7      6.142      9.151
REMARK SMILES Cc1nc(Oc2ccc(F)cc2)c(C(=O)NCCCCNC(=O)c2ccc(-c3c4nc(c(-c5cc(S(=O)(=O)[O-])ccc5F)c5ccc([nH]5)c(-c5cc(S(=O)(=O)[O-])ccc5F)c5nc(c(-c6cc(S(=O)(=O)[O-])ccc6F)c6ccc3[nH]6)C=C5)C=C4)cc2)c(C)c1Cl
REMARK SMILES IDX 19 1 18 2 17 3 16 4 14 5 15 6 13 8 1 9 2 10 3 11 89 12 4 13
REMARK SMILES IDX 87 14 90 15 88 16 5 17 6 18 7 19 12 20 8 21 11 22 9 23 10 24
REMARK SMILES IDX 20 25 21 26 22 27 23 29 24 30 25 31 86 32 26 33 85 34 27 35
REMARK SMILES IDX 28 36 29 37 79 38 30 39 84 40 78 41 80 42 31 43 83 44 77 45
REMARK SMILES IDX 76 46 32 48 64 49 44 50 63 51 45 52 48 53 62 54 81 55 46 56
REMARK SMILES IDX 47 57 61 59 82 60 49 61 33 62 34 63 42 64 35 65 41 66 43 67
REMARK SMILES IDX 40 68 36 69 37 70 38 71 39 72 65 73 66 74 74 75 67 76 73 77
REMARK SMILES IDX 75 78 72 79 68 80 69 81 70 82 71 83 50 84 51 85 59 86 52 87
REMARK SMILES IDX 58 88 60 89 57 90 53 91 54 92 55 93 56 94
REMARK H PARENT 16 7 21 28 80 47 48 58
REMARK Flexibility Score: inf
ROOT
ATOM      1  C   UNL A   1      31.443  32.119  26.806  1.00  0.00     0.023 C 
ENDROOT
BRANCH   1   2
ATOM      2  C   UNL A   1      31.606  30.603  26.737  1.00  0.00     0.023 C 
BRANCH   2   3
ATOM      3  C   UNL A   1      31.586  29.940  25.368  1.00  0.00     0.116 C 
BRANCH   3   4
ATOM      4  N   UNL A   1      32.861  29.736  24.711  1.00  0.00    -0.352 N 
ATOM      5  C   UNL A   1      33.067  28.883  23.639  1.00  0.00     0.257 C 
ATOM      6  O   UNL A   1      33.688  29.261  22.651  1.00  0.00    -0.269 OA
ATOM      7  H   UNL A   1      33.636  30.240  25.050  1.00  0.00     0.163 HD
BRANCH   5   8
ATOM      8  C   UNL A   1      32.592  27.481  23.684  1.00  0.00     0.106 A 
ATOM      9  C   UNL A   1      30.721  23.650  23.947  1.00  0.00     0.068 C 
ATOM     10  C   UNL A   1      31.466  24.952  23.860  1.00  0.00     0.060 A 
ATOM     11  N   UNL A   1      31.029  25.807  22.910  1.00  0.00    -0.216 NA
ATOM     12  C   UNL A   1      32.473  25.297  24.758  1.00  0.00     0.066 A 
ATOM     13  C   UNL A   1      31.571  27.054  22.820  1.00  0.00     0.232 A 
ATOM     14  C   UNL A   1      33.018  26.597  24.713  1.00  0.00    -0.012 A 
ATOM     15  Cl  UNL A   1      33.016  24.140  25.932  1.00  0.00    -0.082 Cl
ATOM     16  C   UNL A   1      33.987  27.017  25.792  1.00  0.00     0.047 C 
BRANCH  13  17
ATOM     17  O   UNL A   1      30.844  27.779  21.911  1.00  0.00    -0.438 OA
BRANCH  17  18
ATOM     18  C   UNL A   1      29.842  28.630  22.272  1.00  0.00     0.129 A 
ATOM     19  C   UNL A   1      30.024  29.983  21.962  1.00  0.00     0.050 A 
ATOM     20  C   UNL A   1      28.755  28.218  23.041  1.00  0.00     0.050 A 
ATOM     21  C   UNL A   1      29.076  30.920  22.359  1.00  0.00     0.043 A 
ATOM     22  C   UNL A   1      27.807  29.162  23.443  1.00  0.00     0.043 A 
ATOM     23  C   UNL A   1      27.973  30.501  23.092  1.00  0.00     0.123 A 
ATOM     24  F   UNL A   1      27.062  31.402  23.476  1.00  0.00    -0.207 F 
ENDBRANCH  17  18
ENDBRANCH  13  17
ENDBRANCH   5   8
ENDBRANCH   3   4
ENDBRANCH   2   3
ENDBRANCH   1   2
BRANCH   1  25
ATOM     25  C   UNL A   1      32.703  32.958  26.996  1.00  0.00     0.116 C 
BRANCH  25  26
ATOM     26  N   UNL A   1      32.521  34.172  27.782  1.00  0.00    -0.352 N 
ATOM     27  C   UNL A   1      33.309  34.659  28.804  1.00  0.00     0.251 C 
ATOM     28  H   UNL A   1      31.732  34.716  27.553  1.00  0.00     0.163 HD
ATOM     29  O   UNL A   1      33.041  35.713  29.360  1.00  0.00    -0.269 OA
BRANCH  27  30
ATOM     30  C   UNL A   1      34.454  33.842  29.250  1.00  0.00     0.039 A 
ATOM     31  C   UNL A   1      35.746  34.314  29.007  1.00  0.00     0.014 A 
ATOM     32  C   UNL A   1      34.240  32.698  30.022  1.00  0.00     0.014 A 
ATOM     33  C   UNL A   1      36.829  33.687  29.623  1.00  0.00     0.010 A 
ATOM     34  C   UNL A   1      35.314  32.115  30.685  1.00  0.00     0.010 A 
ATOM     35  C   UNL A   1      36.615  32.614  30.502  1.00  0.00    -0.014 A 
BRANCH  35  36
ATOM     36  C   UNL A   1      37.740  32.000  31.248  1.00  0.00     0.031 A 
ATOM     37  C   UNL A   1      38.545  30.907  30.612  1.00  0.00     0.074 A 
ATOM     38  C   UNL A   1      37.988  32.379  32.519  1.00  0.00     0.049 A 
ATOM     39  N   UNL A   1      39.539  30.223  31.111  1.00  0.00    -0.248 NA
ATOM     40  C   UNL A   1      38.166  30.513  29.246  1.00  0.00     0.031 C 
ATOM     41  C   UNL A   1      37.232  33.389  33.260  1.00  0.00     0.029 A 
ATOM     42  N   UNL A   1      38.936  31.950  33.415  1.00  0.00    -0.354 N 
ATOM     43  C   UNL A   1      39.899  29.313  30.125  1.00  0.00     0.074 A 
ATOM     44  C   UNL A   1      38.981  29.492  29.024  1.00  0.00     0.031 C 
ATOM     45  C   UNL A   1      37.754  33.512  34.492  1.00  0.00     0.029 A 
ATOM     46  C   UNL A   1      38.865  32.574  34.638  1.00  0.00     0.049 A 
ATOM     47  H   UNL A   1      39.605  31.259  33.201  1.00  0.00     0.167 HD
ATOM     48  C   UNL A   1      40.924  28.431  30.126  1.00  0.00     0.034 A 
ATOM     49  C   UNL A   1      39.613  32.414  35.750  1.00  0.00     0.034 A 
ATOM     50  C   UNL A   1      41.848  28.280  31.216  1.00  0.00     0.049 A 
ATOM     51  C   UNL A   1      40.762  31.437  35.723  1.00  0.00     0.074 A 
ATOM     52  C   UNL A   1      42.961  27.462  31.284  1.00  0.00     0.029 A 
ATOM     53  N   UNL A   1      41.774  28.960  32.422  1.00  0.00    -0.354 N 
ATOM     54  N   UNL A   1      41.159  30.662  34.741  1.00  0.00    -0.248 NA
ATOM     55  C   UNL A   1      41.576  31.322  36.942  1.00  0.00     0.031 C 
ATOM     56  C   UNL A   1      43.536  27.617  32.546  1.00  0.00     0.029 A 
ATOM     57  C   UNL A   1      42.812  28.568  33.248  1.00  0.00     0.049 A 
ATOM     58  H   UNL A   1      41.084  29.623  32.655  1.00  0.00     0.167 HD
ATOM     59  C   UNL A   1      42.282  29.988  35.213  1.00  0.00     0.074 A 
ATOM     60  C   UNL A   1      42.511  30.458  36.563  1.00  0.00     0.031 C 
ATOM     61  C   UNL A   1      43.049  29.064  34.582  1.00  0.00     0.034 A 
BRANCH  48  62
ATOM     62  C   UNL A   1      41.129  27.580  28.903  1.00  0.00     0.023 A 
ATOM     63  C   UNL A   1      42.125  27.913  27.969  1.00  0.00     0.031 A 
ATOM     64  C   UNL A   1      40.277  26.498  28.620  1.00  0.00     0.131 A 
ATOM     65  C   UNL A   1      42.232  27.180  26.782  1.00  0.00     0.055 A 
ATOM     66  C   UNL A   1      40.411  25.749  27.451  1.00  0.00     0.041 A 
ATOM     67  F   UNL A   1      39.316  26.141  29.486  1.00  0.00    -0.206 F 
ATOM     68  C   UNL A   1      41.387  26.095  26.522  1.00  0.00     0.022 A 
BRANCH  65  69
ATOM     69  S   UNL A   1      43.455  27.619  25.518  1.00  0.00     0.124 S 
ATOM     70  O   UNL A   1      42.617  27.796  24.334  1.00  0.00    -0.237 OA
ATOM     71  O   UNL A   1      44.029  28.845  26.065  1.00  0.00    -0.237 OA
ATOM     72  O   UNL A   1      44.346  26.464  25.478  1.00  0.00    -0.744 OA
ENDBRANCH  65  69
ENDBRANCH  48  62
BRANCH  49  73
ATOM     73  C   UNL A   1      39.334  33.260  36.945  1.00  0.00     0.023 A 
ATOM     74  C   UNL A   1      40.005  34.479  37.149  1.00  0.00     0.031 A 
ATOM     75  C   UNL A   1      38.459  32.810  37.949  1.00  0.00     0.131 A 
ATOM     76  C   UNL A   1      39.827  35.179  38.351  1.00  0.00     0.055 A 
ATOM     77  C   UNL A   1      38.241  33.539  39.118  1.00  0.00     0.041 A 
ATOM     78  F   UNL A   1      37.807  31.646  37.803  1.00  0.00    -0.206 F 
ATOM     79  C   UNL A   1      38.937  34.726  39.329  1.00  0.00     0.022 A 
BRANCH  76  80
ATOM     80  S   UNL A   1      40.812  36.656  38.722  1.00  0.00     0.124 S 
ATOM     81  O   UNL A   1      41.547  36.244  39.914  1.00  0.00    -0.237 OA
ATOM     82  O   UNL A   1      41.611  36.790  37.506  1.00  0.00    -0.237 OA
ATOM     83  O   UNL A   1      39.811  37.696  38.928  1.00  0.00    -0.744 OA
ENDBRANCH  76  80
ENDBRANCH  49  73
BRANCH  61  84
ATOM     84  C   UNL A   1      44.234  28.487  35.311  1.00  0.00     0.023 A 
ATOM     85  C   UNL A   1      44.046  27.441  36.235  1.00  0.00     0.031 A 
ATOM     86  C   UNL A   1      45.503  29.084  35.225  1.00  0.00     0.131 A 
ATOM     87  C   UNL A   1      45.099  27.056  37.073  1.00  0.00     0.055 A 
ATOM     88  C   UNL A   1      46.561  28.668  36.035  1.00  0.00     0.041 A 
ATOM     89  F   UNL A   1      45.725  30.091  34.366  1.00  0.00    -0.206 F 
ATOM     90  C   UNL A   1      46.357  27.660  36.973  1.00  0.00     0.022 A 
BRANCH  87  91
ATOM     91  S   UNL A   1      44.854  25.816  38.373  1.00  0.00     0.124 S 
ATOM     92  O   UNL A   1      46.222  25.575  38.825  1.00  0.00    -0.237 OA
ATOM     93  O   UNL A   1      43.999  26.528  39.319  1.00  0.00    -0.237 OA
ATOM     94  O   UNL A   1      44.227  24.696  37.678  1.00  0.00    -0.744 OA
ENDBRANCH  87  91
ENDBRANCH  61  84
ENDBRANCH  35  36
ENDBRANCH  27  30
ENDBRANCH  25  26
ENDBRANCH   1  25
TORSDOF 16
ENDMDL
