MODEL 1
REMARK VINA RESULT:     -10.4      0.000      0.000
REMARK SMILES C[C@@H](CC(=O)NCCCCNC(=O)c1ccc(-c2c3nc(c(-c4cc(S(=O)(=O)[O-])ccc4F)c4ccc([nH]4)c(-c4cc(S(=O)(=O)[O-])ccc4F)c4nc(c(-c5cc(S(=O)(=O)[O-])ccc5F)c5ccc2[nH]5)C=C4)C=C3)cc1)N1C(=O)CCCC1=O
REMARK SMILES IDX 9 1 8 2 7 3 6 4 4 5 5 6 3 8 2 9 1 10 77 11 78 12 83 13 79 14
REMARK SMILES IDX 80 15 82 16 84 17 81 18 10 19 11 20 12 21 13 23 14 24 15 25
REMARK SMILES IDX 76 26 16 27 75 28 17 29 18 30 19 31 69 32 20 33 74 34 68 35
REMARK SMILES IDX 70 36 21 37 73 38 67 39 66 40 22 42 54 43 34 44 53 45 35 46
REMARK SMILES IDX 38 47 52 48 71 49 36 50 37 51 51 53 72 54 39 55 23 56 24 57
REMARK SMILES IDX 32 58 25 59 31 60 33 61 30 62 26 63 27 64 28 65 29 66 55 67
REMARK SMILES IDX 56 68 64 69 57 70 63 71 65 72 62 73 58 74 59 75 60 76 61 77
REMARK SMILES IDX 40 78 41 79 49 80 42 81 48 82 50 83 47 84 43 85 44 86 45 87
REMARK SMILES IDX 46 88
REMARK H PARENT 6 7 11 22 70 41 38 52
REMARK Flexibility Score: inf
ROOT
ATOM      1  C   UNL A   1      33.386  34.157  28.476  1.00  0.00     0.023 C 
ENDROOT
BRANCH   1   2
ATOM      2  C   UNL A   1      33.962  35.347  29.239  1.00  0.00     0.023 C 
BRANCH   2   3
ATOM      3  C   UNL A   1      33.007  35.993  30.241  1.00  0.00     0.116 C 
BRANCH   3   4
ATOM      4  N   UNL A   1      33.755  36.597  31.325  1.00  0.00    -0.356 N 
ATOM      5  C   UNL A   1      34.104  36.065  32.524  1.00  0.00     0.222 C 
ATOM      6  O   UNL A   1      34.505  36.828  33.406  1.00  0.00    -0.275 OA
ATOM      7  H   UNL A   1      34.051  37.523  31.170  1.00  0.00     0.163 HD
BRANCH   5   8
ATOM      8  C   UNL A   1      34.036  34.569  32.755  1.00  0.00     0.125 C 
BRANCH   8   9
ATOM      9  C   UNL A   1      35.217  33.740  32.201  1.00  0.00     0.099 C 
ATOM     10  C   UNL A   1      34.775  32.326  31.805  1.00  0.00     0.032 C 
BRANCH   9  11
ATOM     11  N   UNL A   1      36.461  33.881  32.995  1.00  0.00    -0.279 N 
ATOM     12  C   UNL A   1      37.612  34.159  32.241  1.00  0.00     0.229 C 
ATOM     13  C   UNL A   1      36.465  33.733  34.383  1.00  0.00     0.229 C 
ATOM     14  O   UNL A   1      37.652  34.085  31.011  1.00  0.00    -0.274 OA
ATOM     15  C   UNL A   1      38.834  34.586  33.012  1.00  0.00     0.101 C 
ATOM     16  C   UNL A   1      37.774  33.943  35.116  1.00  0.00     0.101 C 
ATOM     17  O   UNL A   1      35.472  33.458  35.057  1.00  0.00    -0.274 OA
ATOM     18  C   UNL A   1      38.980  33.719  34.237  1.00  0.00     0.020 C 
ENDBRANCH   9  11
ENDBRANCH   8   9
ENDBRANCH   5   8
ENDBRANCH   3   4
ENDBRANCH   2   3
ENDBRANCH   1   2
BRANCH   1  19
ATOM     19  C   UNL A   1      34.321  32.964  28.352  1.00  0.00     0.116 C 
BRANCH  19  20
ATOM     20  N   UNL A   1      33.751  31.865  27.588  1.00  0.00    -0.352 N 
ATOM     21  C   UNL A   1      34.286  30.624  27.345  1.00  0.00     0.251 C 
ATOM     22  H   UNL A   1      32.865  32.034  27.192  1.00  0.00     0.163 HD
ATOM     23  O   UNL A   1      33.719  29.847  26.581  1.00  0.00    -0.269 OA
BRANCH  21  24
ATOM     24  C   UNL A   1      35.571  30.260  27.976  1.00  0.00     0.039 A 
ATOM     25  C   UNL A   1      35.563  29.751  29.277  1.00  0.00     0.014 A 
ATOM     26  C   UNL A   1      36.767  30.365  27.262  1.00  0.00     0.014 A 
ATOM     27  C   UNL A   1      36.752  29.279  29.835  1.00  0.00     0.010 A 
ATOM     28  C   UNL A   1      37.932  29.821  27.789  1.00  0.00     0.010 A 
ATOM     29  C   UNL A   1      37.938  29.275  29.083  1.00  0.00    -0.014 A 
BRANCH  29  30
ATOM     30  C   UNL A   1      39.199  28.717  29.631  1.00  0.00     0.031 A 
ATOM     31  C   UNL A   1      39.807  29.322  30.866  1.00  0.00     0.074 A 
ATOM     32  C   UNL A   1      39.828  27.720  28.979  1.00  0.00     0.049 A 
ATOM     33  N   UNL A   1      40.942  29.044  31.454  1.00  0.00    -0.248 NA
ATOM     34  C   UNL A   1      39.054  30.415  31.499  1.00  0.00     0.031 C 
ATOM     35  C   UNL A   1      39.363  27.092  27.739  1.00  0.00     0.029 A 
ATOM     36  N   UNL A   1      41.000  27.066  29.261  1.00  0.00    -0.354 N 
ATOM     37  C   UNL A   1      41.048  29.940  32.513  1.00  0.00     0.074 A 
ATOM     38  C   UNL A   1      39.896  30.812  32.441  1.00  0.00     0.031 C 
ATOM     39  C   UNL A   1      40.226  26.126  27.385  1.00  0.00     0.029 A 
ATOM     40  C   UNL A   1      41.324  26.092  28.345  1.00  0.00     0.049 A 
ATOM     41  H   UNL A   1      41.558  27.274  30.044  1.00  0.00     0.167 HD
ATOM     42  C   UNL A   1      42.006  30.011  33.471  1.00  0.00     0.034 A 
ATOM     43  C   UNL A   1      42.387  25.267  28.287  1.00  0.00     0.034 A 
ATOM     44  C   UNL A   1      43.135  29.117  33.539  1.00  0.00     0.049 A 
ATOM     45  C   UNL A   1      43.430  25.352  29.371  1.00  0.00     0.074 A 
ATOM     46  C   UNL A   1      44.136  29.058  34.493  1.00  0.00     0.029 A 
ATOM     47  N   UNL A   1      43.415  28.120  32.611  1.00  0.00    -0.354 N 
ATOM     48  N   UNL A   1      43.494  26.172  30.395  1.00  0.00    -0.248 NA
ATOM     49  C   UNL A   1      44.537  24.390  29.299  1.00  0.00     0.031 C 
ATOM     50  C   UNL A   1      45.046  28.064  34.115  1.00  0.00     0.029 A 
ATOM     51  C   UNL A   1      44.580  27.457  32.960  1.00  0.00     0.049 A 
ATOM     52  H   UNL A   1      42.864  27.916  31.821  1.00  0.00     0.167 HD
ATOM     53  C   UNL A   1      44.633  25.805  31.104  1.00  0.00     0.074 A 
ATOM     54  C   UNL A   1      45.215  24.680  30.400  1.00  0.00     0.031 C 
ATOM     55  C   UNL A   1      45.151  26.344  32.237  1.00  0.00     0.034 A 
BRANCH  42  56
ATOM     56  C   UNL A   1      41.869  31.108  34.500  1.00  0.00     0.023 A 
ATOM     57  C   UNL A   1      42.494  32.358  34.333  1.00  0.00     0.031 A 
ATOM     58  C   UNL A   1      41.147  30.890  35.687  1.00  0.00     0.131 A 
ATOM     59  C   UNL A   1      42.467  33.300  35.370  1.00  0.00     0.055 A 
ATOM     60  C   UNL A   1      41.049  31.868  36.680  1.00  0.00     0.041 A 
ATOM     61  F   UNL A   1      40.544  29.713  35.914  1.00  0.00    -0.206 F 
ATOM     62  C   UNL A   1      41.727  33.075  36.533  1.00  0.00     0.022 A 
BRANCH  59  63
ATOM     63  S   UNL A   1      43.542  34.755  35.244  1.00  0.00     0.124 S 
ATOM     64  O   UNL A   1      42.707  35.670  34.469  1.00  0.00    -0.237 OA
ATOM     65  O   UNL A   1      43.757  35.113  36.641  1.00  0.00    -0.237 OA
ATOM     66  O   UNL A   1      44.720  34.251  34.540  1.00  0.00    -0.744 OA
ENDBRANCH  59  63
ENDBRANCH  42  56
BRANCH  43  67
ATOM     67  C   UNL A   1      42.523  24.285  27.174  1.00  0.00     0.023 A 
ATOM     68  C   UNL A   1      41.906  23.027  27.243  1.00  0.00     0.031 A 
ATOM     69  C   UNL A   1      43.301  24.578  26.040  1.00  0.00     0.131 A 
ATOM     70  C   UNL A   1      42.111  22.090  26.220  1.00  0.00     0.055 A 
ATOM     71  C   UNL A   1      43.466  23.659  25.002  1.00  0.00     0.041 A 
ATOM     72  F   UNL A   1      43.905  25.772  25.920  1.00  0.00    -0.206 F 
ATOM     73  C   UNL A   1      42.879  22.400  25.095  1.00  0.00     0.022 A 
BRANCH  70  74
ATOM     74  S   UNL A   1      41.419  20.424  26.415  1.00  0.00     0.124 S 
ATOM     75  O   UNL A   1      41.786  20.108  27.791  1.00  0.00    -0.237 OA
ATOM     76  O   UNL A   1      39.999  20.657  26.168  1.00  0.00    -0.237 OA
ATOM     77  O   UNL A   1      42.107  19.646  25.389  1.00  0.00    -0.744 OA
ENDBRANCH  70  74
ENDBRANCH  43  67
BRANCH  55  78
ATOM     78  C   UNL A   1      46.386  25.687  32.798  1.00  0.00     0.023 A 
ATOM     79  C   UNL A   1      46.306  24.630  33.722  1.00  0.00     0.031 A 
ATOM     80  C   UNL A   1      47.662  26.141  32.419  1.00  0.00     0.131 A 
ATOM     81  C   UNL A   1      47.478  24.100  34.280  1.00  0.00     0.055 A 
ATOM     82  C   UNL A   1      48.826  25.572  32.935  1.00  0.00     0.041 A 
ATOM     83  F   UNL A   1      47.795  27.148  31.541  1.00  0.00    -0.206 F 
ATOM     84  C   UNL A   1      48.739  24.555  33.882  1.00  0.00     0.022 A 
BRANCH  81  85
ATOM     85  S   UNL A   1      47.334  22.872  35.607  1.00  0.00     0.124 S 
ATOM     86  O   UNL A   1      47.101  21.641  34.857  1.00  0.00    -0.237 OA
ATOM     87  O   UNL A   1      48.628  22.978  36.272  1.00  0.00    -0.237 OA
ATOM     88  O   UNL A   1      46.193  23.345  36.390  1.00  0.00    -0.744 OA
ENDBRANCH  81  85
ENDBRANCH  55  78
ENDBRANCH  29  30
ENDBRANCH  21  24
ENDBRANCH  19  20
ENDBRANCH   1  19
TORSDOF 16
ENDMDL
MODEL 2
REMARK VINA RESULT:     -10.3      3.903     10.269
REMARK SMILES C[C@@H](CC(=O)NCCCCNC(=O)c1ccc(-c2c3nc(c(-c4cc(S(=O)(=O)[O-])ccc4F)c4ccc([nH]4)c(-c4cc(S(=O)(=O)[O-])ccc4F)c4nc(c(-c5cc(S(=O)(=O)[O-])ccc5F)c5ccc2[nH]5)C=C4)C=C3)cc1)N1C(=O)CCCC1=O
REMARK SMILES IDX 9 1 8 2 7 3 6 4 4 5 5 6 3 8 2 9 1 10 77 11 78 12 83 13 79 14
REMARK SMILES IDX 80 15 82 16 84 17 81 18 10 19 11 20 12 21 13 23 14 24 15 25
REMARK SMILES IDX 76 26 16 27 75 28 17 29 18 30 19 31 69 32 20 33 74 34 68 35
REMARK SMILES IDX 70 36 21 37 73 38 67 39 66 40 22 42 54 43 34 44 53 45 35 46
REMARK SMILES IDX 38 47 52 48 71 49 36 50 37 51 51 53 72 54 39 55 23 56 24 57
REMARK SMILES IDX 32 58 25 59 31 60 33 61 30 62 26 63 27 64 28 65 29 66 55 67
REMARK SMILES IDX 56 68 64 69 57 70 63 71 65 72 62 73 58 74 59 75 60 76 61 77
REMARK SMILES IDX 40 78 41 79 49 80 42 81 48 82 50 83 47 84 43 85 44 86 45 87
REMARK SMILES IDX 46 88
REMARK H PARENT 6 7 11 22 70 41 38 52
REMARK Flexibility Score: inf
ROOT
ATOM      1  C   UNL A   1      31.343  32.037  26.608  1.00  0.00     0.023 C 
ENDROOT
BRANCH   1   2
ATOM      2  C   UNL A   1      31.433  30.726  25.831  1.00  0.00     0.023 C 
BRANCH   2   3
ATOM      3  C   UNL A   1      32.473  29.738  26.356  1.00  0.00     0.116 C 
BRANCH   3   4
ATOM      4  N   UNL A   1      31.820  28.545  26.857  1.00  0.00    -0.356 N 
ATOM      5  C   UNL A   1      31.400  27.449  26.175  1.00  0.00     0.222 C 
ATOM      6  O   UNL A   1      30.634  26.667  26.743  1.00  0.00    -0.275 OA
ATOM      7  H   UNL A   1      31.659  28.527  27.828  1.00  0.00     0.163 HD
BRANCH   5   8
ATOM      8  C   UNL A   1      31.890  27.179  24.768  1.00  0.00     0.125 C 
BRANCH   8   9
ATOM      9  C   UNL A   1      30.817  26.739  23.745  1.00  0.00     0.099 C 
ATOM     10  C   UNL A   1      31.386  25.743  22.726  1.00  0.00     0.032 C 
BRANCH   9  11
ATOM     11  N   UNL A   1      29.993  27.859  23.235  1.00  0.00    -0.279 N 
ATOM     12  C   UNL A   1      28.609  27.700  23.412  1.00  0.00     0.229 C 
ATOM     13  C   UNL A   1      30.569  28.971  22.619  1.00  0.00     0.229 C 
ATOM     14  O   UNL A   1      28.087  26.640  23.762  1.00  0.00    -0.274 OA
ATOM     15  C   UNL A   1      27.756  28.919  23.170  1.00  0.00     0.101 C 
ATOM     16  C   UNL A   1      29.651  30.091  22.173  1.00  0.00     0.101 C 
ATOM     17  O   UNL A   1      31.777  29.114  22.427  1.00  0.00    -0.274 OA
ATOM     18  C   UNL A   1      28.236  29.627  21.929  1.00  0.00     0.020 C 
ENDBRANCH   9  11
ENDBRANCH   8   9
ENDBRANCH   5   8
ENDBRANCH   3   4
ENDBRANCH   2   3
ENDBRANCH   1   2
BRANCH   1  19
ATOM     19  C   UNL A   1      32.668  32.547  27.155  1.00  0.00     0.116 C 
BRANCH  19  20
ATOM     20  N   UNL A   1      32.605  33.926  27.617  1.00  0.00    -0.352 N 
ATOM     21  C   UNL A   1      33.402  34.555  28.540  1.00  0.00     0.251 C 
ATOM     22  H   UNL A   1      31.897  34.480  27.214  1.00  0.00     0.163 HD
ATOM     23  O   UNL A   1      33.142  35.700  28.900  1.00  0.00    -0.269 OA
BRANCH  21  24
ATOM     24  C   UNL A   1      34.542  33.821  29.125  1.00  0.00     0.039 A 
ATOM     25  C   UNL A   1      35.840  34.244  28.831  1.00  0.00     0.014 A 
ATOM     26  C   UNL A   1      34.325  32.757  30.005  1.00  0.00     0.014 A 
ATOM     27  C   UNL A   1      36.921  33.645  29.481  1.00  0.00     0.010 A 
ATOM     28  C   UNL A   1      35.395  32.218  30.709  1.00  0.00     0.010 A 
ATOM     29  C   UNL A   1      36.705  32.654  30.452  1.00  0.00    -0.014 A 
BRANCH  29  30
ATOM     30  C   UNL A   1      37.833  32.050  31.203  1.00  0.00     0.031 A 
ATOM     31  C   UNL A   1      38.636  30.942  30.579  1.00  0.00     0.074 A 
ATOM     32  C   UNL A   1      38.085  32.447  32.466  1.00  0.00     0.049 A 
ATOM     33  N   UNL A   1      39.599  30.223  31.095  1.00  0.00    -0.248 NA
ATOM     34  C   UNL A   1      38.278  30.568  29.203  1.00  0.00     0.031 C 
ATOM     35  C   UNL A   1      37.336  33.473  33.196  1.00  0.00     0.029 A 
ATOM     36  N   UNL A   1      39.033  32.029  33.363  1.00  0.00    -0.354 N 
ATOM     37  C   UNL A   1      39.947  29.299  30.116  1.00  0.00     0.074 A 
ATOM     38  C   UNL A   1      39.044  29.507  29.004  1.00  0.00     0.031 C 
ATOM     39  C   UNL A   1      37.872  33.623  34.419  1.00  0.00     0.029 A 
ATOM     40  C   UNL A   1      38.974  32.680  34.574  1.00  0.00     0.049 A 
ATOM     41  H   UNL A   1      39.695  31.329  33.161  1.00  0.00     0.167 HD
ATOM     42  C   UNL A   1      40.944  28.380  30.132  1.00  0.00     0.034 A 
ATOM     43  C   UNL A   1      39.723  32.529  35.684  1.00  0.00     0.034 A 
ATOM     44  C   UNL A   1      41.849  28.203  31.241  1.00  0.00     0.049 A 
ATOM     45  C   UNL A   1      40.836  31.514  35.674  1.00  0.00     0.074 A 
ATOM     46  C   UNL A   1      42.930  27.345  31.349  1.00  0.00     0.029 A 
ATOM     47  N   UNL A   1      41.779  28.902  32.441  1.00  0.00    -0.354 N 
ATOM     48  N   UNL A   1      41.186  30.679  34.723  1.00  0.00    -0.248 NA
ATOM     49  C   UNL A   1      41.664  31.431  36.884  1.00  0.00     0.031 C 
ATOM     50  C   UNL A   1      43.478  27.487  32.629  1.00  0.00     0.029 A 
ATOM     51  C   UNL A   1      42.783  28.481  33.299  1.00  0.00     0.049 A 
ATOM     52  H   UNL A   1      41.113  29.596  32.650  1.00  0.00     0.167 HD
ATOM     53  C   UNL A   1      42.293  29.992  35.209  1.00  0.00     0.074 A 
ATOM     54  C   UNL A   1      42.561  30.522  36.532  1.00  0.00     0.031 C 
ATOM     55  C   UNL A   1      43.027  29.014  34.619  1.00  0.00     0.034 A 
BRANCH  42  56
ATOM     56  C   UNL A   1      41.081  27.491  28.919  1.00  0.00     0.023 A 
ATOM     57  C   UNL A   1      42.090  27.701  27.961  1.00  0.00     0.031 A 
ATOM     58  C   UNL A   1      40.164  26.451  28.687  1.00  0.00     0.131 A 
ATOM     59  C   UNL A   1      42.101  26.951  26.776  1.00  0.00     0.055 A 
ATOM     60  C   UNL A   1      40.234  25.648  27.546  1.00  0.00     0.041 A 
ATOM     61  F   UNL A   1      39.168  26.212  29.554  1.00  0.00    -0.206 F 
ATOM     62  C   UNL A   1      41.195  25.908  26.573  1.00  0.00     0.022 A 
BRANCH  59  63
ATOM     63  S   UNL A   1      43.213  27.465  25.439  1.00  0.00     0.124 S 
ATOM     64  O   UNL A   1      43.700  26.176  24.951  1.00  0.00    -0.237 OA
ATOM     65  O   UNL A   1      42.318  28.190  24.544  1.00  0.00    -0.237 OA
ATOM     66  O   UNL A   1      44.214  28.283  26.120  1.00  0.00    -0.744 OA
ENDBRANCH  59  63
ENDBRANCH  42  56
BRANCH  43  67
ATOM     67  C   UNL A   1      39.457  33.357  36.893  1.00  0.00     0.023 A 
ATOM     68  C   UNL A   1      40.167  34.546  37.124  1.00  0.00     0.031 A 
ATOM     69  C   UNL A   1      38.513  32.955  37.855  1.00  0.00     0.131 A 
ATOM     70  C   UNL A   1      39.956  35.268  38.308  1.00  0.00     0.055 A 
ATOM     71  C   UNL A   1      38.274  33.701  39.010  1.00  0.00     0.041 A 
ATOM     72  F   UNL A   1      37.800  31.831  37.677  1.00  0.00    -0.206 F 
ATOM     73  C   UNL A   1      39.008  34.860  39.248  1.00  0.00     0.022 A 
BRANCH  70  74
ATOM     74  S   UNL A   1      40.997  36.717  38.638  1.00  0.00     0.124 S 
ATOM     75  O   UNL A   1      41.819  36.247  39.747  1.00  0.00    -0.237 OA
ATOM     76  O   UNL A   1      41.683  36.894  37.362  1.00  0.00    -0.237 OA
ATOM     77  O   UNL A   1      40.032  37.761  38.974  1.00  0.00    -0.744 OA
ENDBRANCH  70  74
ENDBRANCH  43  67
BRANCH  55  78
ATOM     78  C   UNL A   1      44.212  28.493  35.391  1.00  0.00     0.023 A 
ATOM     79  C   UNL A   1      44.076  27.481  36.357  1.00  0.00     0.031 A 
ATOM     80  C   UNL A   1      45.490  29.035  35.171  1.00  0.00     0.131 A 
ATOM     81  C   UNL A   1      45.191  27.082  37.110  1.00  0.00     0.055 A 
ATOM     82  C   UNL A   1      46.606  28.594  35.884  1.00  0.00     0.041 A 
ATOM     83  F   UNL A   1      45.674  30.005  34.261  1.00  0.00    -0.206 F 
ATOM     84  C   UNL A   1      46.457  27.622  36.870  1.00  0.00     0.022 A 
BRANCH  81  85
ATOM     85  S   UNL A   1      44.946  25.914  38.476  1.00  0.00     0.124 S 
ATOM     86  O   UNL A   1      44.702  24.662  37.765  1.00  0.00    -0.237 OA
ATOM     87  O   UNL A   1      46.213  26.003  39.193  1.00  0.00    -0.237 OA
ATOM     88  O   UNL A   1      43.790  26.456  39.188  1.00  0.00    -0.744 OA
ENDBRANCH  81  85
ENDBRANCH  55  78
ENDBRANCH  29  30
ENDBRANCH  21  24
ENDBRANCH  19  20
ENDBRANCH   1  19
TORSDOF 16
ENDMDL
MODEL 3
REMARK VINA RESULT:     -10.2      4.029     10.367
REMARK SMILES C[C@@H](CC(=O)NCCCCNC(=O)c1ccc(-c2c3nc(c(-c4cc(S(=O)(=O)[O-])ccc4F)c4ccc([nH]4)c(-c4cc(S(=O)(=O)[O-])ccc4F)c4nc(c(-c5cc(S(=O)(=O)[O-])ccc5F)c5ccc2[nH]5)C=C4)C=C3)cc1)N1C(=O)CCCC1=O
REMARK SMILES IDX 9 1 8 2 7 3 6 4 4 5 5 6 3 8 2 9 1 10 77 11 78 12 83 13 79 14
REMARK SMILES IDX 80 15 82 16 84 17 81 18 10 19 11 20 12 21 13 23 14 24 15 25
REMARK SMILES IDX 76 26 16 27 75 28 17 29 18 30 19 31 69 32 20 33 74 34 68 35
REMARK SMILES IDX 70 36 21 37 73 38 67 39 66 40 22 42 54 43 34 44 53 45 35 46
REMARK SMILES IDX 38 47 52 48 71 49 36 50 37 51 51 53 72 54 39 55 23 56 24 57
REMARK SMILES IDX 32 58 25 59 31 60 33 61 30 62 26 63 27 64 28 65 29 66 55 67
REMARK SMILES IDX 56 68 64 69 57 70 63 71 65 72 62 73 58 74 59 75 60 76 61 77
REMARK SMILES IDX 40 78 41 79 49 80 42 81 48 82 50 83 47 84 43 85 44 86 45 87
REMARK SMILES IDX 46 88
REMARK H PARENT 6 7 11 22 70 41 38 52
REMARK Flexibility Score: inf
ROOT
ATOM      1  C   UNL A   1      31.362  31.993  26.811  1.00  0.00     0.023 C 
ENDROOT
BRANCH   1   2
ATOM      2  C   UNL A   1      31.461  30.783  25.885  1.00  0.00     0.023 C 
BRANCH   2   3
ATOM      3  C   UNL A   1      32.753  29.980  26.013  1.00  0.00     0.116 C 
BRANCH   3   4
ATOM      4  N   UNL A   1      33.341  29.769  24.706  1.00  0.00    -0.356 N 
ATOM      5  C   UNL A   1      33.429  28.624  23.981  1.00  0.00     0.222 C 
ATOM      6  O   UNL A   1      34.198  28.602  23.017  1.00  0.00    -0.275 OA
ATOM      7  H   UNL A   1      33.732  30.569  24.284  1.00  0.00     0.163 HD
BRANCH   5   8
ATOM      8  C   UNL A   1      32.575  27.423  24.329  1.00  0.00     0.125 C 
BRANCH   8   9
ATOM      9  C   UNL A   1      31.917  26.687  23.139  1.00  0.00     0.099 C 
ATOM     10  C   UNL A   1      30.504  27.215  22.862  1.00  0.00     0.032 C 
BRANCH   9  11
ATOM     11  N   UNL A   1      32.115  25.219  23.170  1.00  0.00    -0.279 N 
ATOM     12  C   UNL A   1      33.079  24.736  22.271  1.00  0.00     0.229 C 
ATOM     13  C   UNL A   1      31.380  24.398  24.027  1.00  0.00     0.229 C 
ATOM     14  O   UNL A   1      33.575  25.422  21.375  1.00  0.00    -0.274 OA
ATOM     15  C   UNL A   1      33.515  23.306  22.457  1.00  0.00     0.101 C 
ATOM     16  C   UNL A   1      31.685  22.915  24.025  1.00  0.00     0.101 C 
ATOM     17  O   UNL A   1      30.509  24.800  24.799  1.00  0.00    -0.274 OA
ATOM     18  C   UNL A   1      32.308  22.446  22.732  1.00  0.00     0.020 C 
ENDBRANCH   9  11
ENDBRANCH   8   9
ENDBRANCH   5   8
ENDBRANCH   3   4
ENDBRANCH   2   3
ENDBRANCH   1   2
BRANCH   1  19
ATOM     19  C   UNL A   1      32.685  32.687  27.098  1.00  0.00     0.116 C 
BRANCH  19  20
ATOM     20  N   UNL A   1      32.524  34.001  27.701  1.00  0.00    -0.352 N 
ATOM     21  C   UNL A   1      33.241  34.565  28.728  1.00  0.00     0.251 C 
ATOM     22  H   UNL A   1      31.807  34.560  27.322  1.00  0.00     0.163 HD
ATOM     23  O   UNL A   1      32.901  35.649  29.194  1.00  0.00    -0.269 OA
BRANCH  21  24
ATOM     24  C   UNL A   1      34.390  33.828  29.290  1.00  0.00     0.039 A 
ATOM     25  C   UNL A   1      35.683  34.240  28.959  1.00  0.00     0.014 A 
ATOM     26  C   UNL A   1      34.189  32.776  30.187  1.00  0.00     0.014 A 
ATOM     27  C   UNL A   1      36.776  33.639  29.586  1.00  0.00     0.010 A 
ATOM     28  C   UNL A   1      35.273  32.236  30.868  1.00  0.00     0.010 A 
ATOM     29  C   UNL A   1      36.579  32.660  30.573  1.00  0.00    -0.014 A 
BRANCH  29  30
ATOM     30  C   UNL A   1      37.722  32.056  31.301  1.00  0.00     0.031 A 
ATOM     31  C   UNL A   1      38.505  30.940  30.665  1.00  0.00     0.074 A 
ATOM     32  C   UNL A   1      38.006  32.460  32.554  1.00  0.00     0.049 A 
ATOM     33  N   UNL A   1      39.477  30.220  31.163  1.00  0.00    -0.248 NA
ATOM     34  C   UNL A   1      38.111  30.558  29.301  1.00  0.00     0.031 C 
ATOM     35  C   UNL A   1      37.280  33.495  33.296  1.00  0.00     0.029 A 
ATOM     36  N   UNL A   1      38.974  32.044  33.432  1.00  0.00    -0.354 N 
ATOM     37  C   UNL A   1      39.796  29.287  30.182  1.00  0.00     0.074 A 
ATOM     38  C   UNL A   1      38.868  29.492  29.091  1.00  0.00     0.031 C 
ATOM     39  C   UNL A   1      37.846  33.650  34.503  1.00  0.00     0.029 A 
ATOM     40  C   UNL A   1      38.947  32.703  34.639  1.00  0.00     0.049 A 
ATOM     41  H   UNL A   1      39.627  31.339  33.218  1.00  0.00     0.167 HD
ATOM     42  C   UNL A   1      40.790  28.363  30.181  1.00  0.00     0.034 A 
ATOM     43  C   UNL A   1      39.721  32.556  35.731  1.00  0.00     0.034 A 
ATOM     44  C   UNL A   1      41.720  28.190  31.269  1.00  0.00     0.049 A 
ATOM     45  C   UNL A   1      40.829  31.535  35.702  1.00  0.00     0.074 A 
ATOM     46  C   UNL A   1      42.799  27.328  31.356  1.00  0.00     0.029 A 
ATOM     47  N   UNL A   1      41.682  28.898  32.465  1.00  0.00    -0.354 N 
ATOM     48  N   UNL A   1      41.152  30.692  34.748  1.00  0.00    -0.248 NA
ATOM     49  C   UNL A   1      41.686  31.456  36.892  1.00  0.00     0.031 C 
ATOM     50  C   UNL A   1      43.379  27.475  32.622  1.00  0.00     0.029 A 
ATOM     51  C   UNL A   1      42.704  28.477  33.301  1.00  0.00     0.049 A 
ATOM     52  H   UNL A   1      41.024  29.596  32.686  1.00  0.00     0.167 HD
ATOM     53  C   UNL A   1      42.267  30.003  35.213  1.00  0.00     0.074 A 
ATOM     54  C   UNL A   1      42.570  30.541  36.524  1.00  0.00     0.031 C 
ATOM     55  C   UNL A   1      42.982  29.018  34.611  1.00  0.00     0.034 A 
BRANCH  42  56
ATOM     56  C   UNL A   1      40.893  27.466  28.970  1.00  0.00     0.023 A 
ATOM     57  C   UNL A   1      41.866  27.678  27.976  1.00  0.00     0.031 A 
ATOM     58  C   UNL A   1      39.979  26.415  28.779  1.00  0.00     0.131 A 
ATOM     59  C   UNL A   1      41.843  26.918  26.798  1.00  0.00     0.055 A 
ATOM     60  C   UNL A   1      40.017  25.603  27.643  1.00  0.00     0.041 A 
ATOM     61  F   UNL A   1      39.016  26.174  29.682  1.00  0.00    -0.206 F 
ATOM     62  C   UNL A   1      40.942  25.864  26.635  1.00  0.00     0.022 A 
BRANCH  59  63
ATOM     63  S   UNL A   1      42.903  27.431  25.419  1.00  0.00     0.124 S 
ATOM     64  O   UNL A   1      43.020  26.187  24.661  1.00  0.00    -0.237 OA
ATOM     65  O   UNL A   1      42.118  28.489  24.793  1.00  0.00    -0.237 OA
ATOM     66  O   UNL A   1      44.132  27.871  26.076  1.00  0.00    -0.744 OA
ENDBRANCH  59  63
ENDBRANCH  42  56
BRANCH  43  67
ATOM     67  C   UNL A   1      39.489  33.394  36.941  1.00  0.00     0.023 A 
ATOM     68  C   UNL A   1      40.254  34.546  37.179  1.00  0.00     0.031 A 
ATOM     69  C   UNL A   1      38.520  33.035  37.896  1.00  0.00     0.131 A 
ATOM     70  C   UNL A   1      40.071  35.275  38.364  1.00  0.00     0.055 A 
ATOM     71  C   UNL A   1      38.310  33.790  39.052  1.00  0.00     0.041 A 
ATOM     72  F   UNL A   1      37.754  31.948  37.711  1.00  0.00    -0.206 F 
ATOM     73  C   UNL A   1      39.098  34.912  39.297  1.00  0.00     0.022 A 
BRANCH  70  74
ATOM     74  S   UNL A   1      41.179  36.670  38.704  1.00  0.00     0.124 S 
ATOM     75  O   UNL A   1      42.028  36.127  39.758  1.00  0.00    -0.237 OA
ATOM     76  O   UNL A   1      41.818  36.872  37.407  1.00  0.00    -0.237 OA
ATOM     77  O   UNL A   1      40.269  37.734  39.120  1.00  0.00    -0.744 OA
ENDBRANCH  70  74
ENDBRANCH  43  67
BRANCH  55  78
ATOM     78  C   UNL A   1      44.183  28.497  35.359  1.00  0.00     0.023 A 
ATOM     79  C   UNL A   1      44.069  27.478  36.320  1.00  0.00     0.031 A 
ATOM     80  C   UNL A   1      45.455  29.046  35.119  1.00  0.00     0.131 A 
ATOM     81  C   UNL A   1      45.199  27.078  37.050  1.00  0.00     0.055 A 
ATOM     82  C   UNL A   1      46.585  28.604  35.809  1.00  0.00     0.041 A 
ATOM     83  F   UNL A   1      45.619  30.022  34.213  1.00  0.00    -0.206 F 
ATOM     84  C   UNL A   1      46.459  27.624  36.790  1.00  0.00     0.022 A 
BRANCH  81  85
ATOM     85  S   UNL A   1      44.983  25.900  38.412  1.00  0.00     0.124 S 
ATOM     86  O   UNL A   1      46.365  25.601  38.777  1.00  0.00    -0.237 OA
ATOM     87  O   UNL A   1      44.222  26.681  39.382  1.00  0.00    -0.237 OA
ATOM     88  O   UNL A   1      44.252  24.794  37.796  1.00  0.00    -0.744 OA
ENDBRANCH  81  85
ENDBRANCH  55  78
ENDBRANCH  29  30
ENDBRANCH  21  24
ENDBRANCH  19  20
ENDBRANCH   1  19
TORSDOF 16
ENDMDL
