MODEL 1
REMARK VINA RESULT:     -10.6      0.000      0.000
REMARK SMILES C[C@H](CO)CSc1cc(Cl)ccc1C(=O)NCCCCNC(=O)c1ccc(-c2c3nc(c(-c4cc(S(=O)(=O)[O-])ccc4F)c4ccc([nH]4)c(-c4cc(S(=O)(=O)[O-])ccc4F)c4nc(c(-c5cc(S(=O)(=O)[O-])ccc5F)c5ccc2[nH]5)C=C4)C=C3)cc1
REMARK SMILES IDX 17 1 16 2 14 3 15 4 13 6 7 7 8 8 9 9 12 10 10 11 11 12 6 13
REMARK SMILES IDX 5 14 2 15 1 16 3 17 4 18 18 20 19 21 20 22 21 23 22 24 23 26
REMARK SMILES IDX 24 27 25 28 86 29 26 30 85 31 27 32 28 33 29 34 79 35 30 36
REMARK SMILES IDX 84 37 78 38 80 39 31 40 83 41 77 42 76 43 32 45 64 46 44 47
REMARK SMILES IDX 63 48 45 49 48 50 62 51 81 52 46 53 47 54 61 56 82 57 49 58
REMARK SMILES IDX 33 59 34 60 42 61 35 62 41 63 43 64 40 65 36 66 37 67 38 68
REMARK SMILES IDX 39 69 65 70 66 71 74 72 67 73 73 74 75 75 72 76 68 77 69 78
REMARK SMILES IDX 70 79 71 80 50 81 51 82 59 83 52 84 58 85 60 86 57 87 53 88
REMARK SMILES IDX 54 89 55 90 56 91
REMARK H PARENT 16 5 4 19 21 25 80 44 48 55
REMARK Flexibility Score: inf
ROOT
ATOM      1  C   UNL A   1      32.728  29.835  25.588  1.00  0.00     0.116 C 
ENDROOT
BRANCH   1   2
ATOM      2  N   UNL A   1      33.134  29.518  24.229  1.00  0.00    -0.352 N 
ATOM      3  C   UNL A   1      33.135  28.335  23.533  1.00  0.00     0.252 C 
ATOM      4  O   UNL A   1      33.291  28.358  22.312  1.00  0.00    -0.269 OA
ATOM      5  H   UNL A   1      33.467  30.288  23.716  1.00  0.00     0.163 HD
BRANCH   3   6
ATOM      6  C   UNL A   1      32.937  27.020  24.185  1.00  0.00     0.053 A 
ATOM      7  C   UNL A   1      31.698  26.441  24.506  1.00  0.00     0.021 A 
ATOM      8  C   UNL A   1      31.683  25.127  25.014  1.00  0.00     0.036 A 
ATOM      9  C   UNL A   1      32.865  24.492  25.388  1.00  0.00     0.042 A 
ATOM     10  C   UNL A   1      34.118  26.398  24.635  1.00  0.00     0.016 A 
ATOM     11  Cl  UNL A   1      32.809  22.919  26.082  1.00  0.00    -0.084 Cl
ATOM     12  C   UNL A   1      34.080  25.149  25.259  1.00  0.00     0.021 A 
BRANCH   7  13
ATOM     13  S   UNL A   1      30.085  27.234  24.590  1.00  0.00    -0.125 SA
BRANCH  13  14
ATOM     14  C   UNL A   1      29.886  27.913  22.911  1.00  0.00     0.080 C 
BRANCH  14  15
ATOM     15  C   UNL A   1      29.115  29.231  22.872  1.00  0.00     0.022 C 
ATOM     16  C   UNL A   1      27.617  28.904  22.915  1.00  0.00     0.011 C 
BRANCH  15  17
ATOM     17  C   UNL A   1      29.466  30.052  21.624  1.00  0.00     0.160 C 
BRANCH  17  18
ATOM     18  O   UNL A   1      30.866  30.078  21.368  1.00  0.00    -0.396 OA
ATOM     19  H   UNL A   1      31.339  29.686  22.119  1.00  0.00     0.210 HD
ENDBRANCH  17  18
ENDBRANCH  15  17
ENDBRANCH  14  15
ENDBRANCH  13  14
ENDBRANCH   7  13
ENDBRANCH   3   6
ENDBRANCH   1   2
BRANCH   1  20
ATOM     20  C   UNL A   1      31.346  30.482  25.728  1.00  0.00     0.023 C 
BRANCH  20  21
ATOM     21  C   UNL A   1      31.277  31.792  26.519  1.00  0.00     0.023 C 
BRANCH  21  22
ATOM     22  C   UNL A   1      32.623  32.395  26.877  1.00  0.00     0.116 C 
BRANCH  22  23
ATOM     23  N   UNL A   1      32.514  33.787  27.269  1.00  0.00    -0.352 N 
ATOM     24  C   UNL A   1      33.158  34.466  28.275  1.00  0.00     0.251 C 
ATOM     25  H   UNL A   1      31.886  34.325  26.736  1.00  0.00     0.163 HD
ATOM     26  O   UNL A   1      32.788  35.603  28.551  1.00  0.00    -0.269 OA
BRANCH  24  27
ATOM     27  C   UNL A   1      34.263  33.833  29.035  1.00  0.00     0.039 A 
ATOM     28  C   UNL A   1      35.573  34.246  28.778  1.00  0.00     0.014 A 
ATOM     29  C   UNL A   1      34.030  32.812  29.961  1.00  0.00     0.014 A 
ATOM     30  C   UNL A   1      36.639  33.649  29.455  1.00  0.00     0.010 A 
ATOM     31  C   UNL A   1      35.081  32.287  30.705  1.00  0.00     0.010 A 
ATOM     32  C   UNL A   1      36.400  32.670  30.431  1.00  0.00    -0.014 A 
BRANCH  32  33
ATOM     33  C   UNL A   1      37.523  31.969  31.104  1.00  0.00     0.031 A 
ATOM     34  C   UNL A   1      38.321  30.947  30.336  1.00  0.00     0.074 A 
ATOM     35  C   UNL A   1      37.798  32.229  32.396  1.00  0.00     0.049 A 
ATOM     36  N   UNL A   1      39.316  30.199  30.738  1.00  0.00    -0.248 NA
ATOM     37  C   UNL A   1      37.920  30.708  28.940  1.00  0.00     0.031 C 
ATOM     38  C   UNL A   1      37.056  33.163  33.246  1.00  0.00     0.029 A 
ATOM     39  N   UNL A   1      38.776  31.736  33.219  1.00  0.00    -0.354 N 
ATOM     40  C   UNL A   1      39.642  29.389  29.652  1.00  0.00     0.074 A 
ATOM     41  C   UNL A   1      38.690  29.686  28.607  1.00  0.00     0.031 C 
ATOM     42  C   UNL A   1      37.630  33.201  34.460  1.00  0.00     0.029 A 
ATOM     43  C   UNL A   1      38.755  32.272  34.486  1.00  0.00     0.049 A 
ATOM     44  H   UNL A   1      39.434  31.062  32.930  1.00  0.00     0.167 HD
ATOM     45  C   UNL A   1      40.664  28.506  29.529  1.00  0.00     0.034 A 
ATOM     46  C   UNL A   1      39.557  32.040  35.544  1.00  0.00     0.034 A 
ATOM     47  C   UNL A   1      41.620  28.252  30.577  1.00  0.00     0.049 A 
ATOM     48  C   UNL A   1      40.696  31.065  35.379  1.00  0.00     0.074 A 
ATOM     49  C   UNL A   1      42.731  27.428  30.554  1.00  0.00     0.029 A 
ATOM     50  N   UNL A   1      41.576  28.825  31.844  1.00  0.00    -0.354 N 
ATOM     51  N   UNL A   1      41.028  30.352  34.328  1.00  0.00    -0.248 NA
ATOM     52  C   UNL A   1      41.578  30.881  36.538  1.00  0.00     0.031 C 
ATOM     53  C   UNL A   1      43.323  27.457  31.823  1.00  0.00     0.029 A 
ATOM     54  C   UNL A   1      42.625  28.353  32.617  1.00  0.00     0.049 A 
ATOM     55  H   UNL A   1      40.898  29.473  32.146  1.00  0.00     0.167 HD
ATOM     56  C   UNL A   1      42.173  29.649  34.693  1.00  0.00     0.074 A 
ATOM     57  C   UNL A   1      42.485  30.047  36.052  1.00  0.00     0.031 C 
ATOM     58  C   UNL A   1      42.903  28.756  33.976  1.00  0.00     0.034 A 
BRANCH  45  59
ATOM     59  C   UNL A   1      40.775  27.751  28.224  1.00  0.00     0.023 A 
ATOM     60  C   UNL A   1      40.268  26.446  28.078  1.00  0.00     0.031 A 
ATOM     61  C   UNL A   1      41.439  28.320  27.123  1.00  0.00     0.131 A 
ATOM     62  C   UNL A   1      40.512  25.723  26.900  1.00  0.00     0.055 A 
ATOM     63  C   UNL A   1      41.602  27.627  25.921  1.00  0.00     0.041 A 
ATOM     64  F   UNL A   1      41.964  29.553  27.204  1.00  0.00    -0.206 F 
ATOM     65  C   UNL A   1      41.154  26.315  25.810  1.00  0.00     0.022 A 
BRANCH  62  66
ATOM     66  S   UNL A   1      40.123  23.952  26.874  1.00  0.00     0.124 S 
ATOM     67  O   UNL A   1      41.264  23.411  26.139  1.00  0.00    -0.237 OA
ATOM     68  O   UNL A   1      40.062  23.621  28.293  1.00  0.00    -0.237 OA
ATOM     69  O   UNL A   1      38.847  23.891  26.163  1.00  0.00    -0.744 OA
ENDBRANCH  62  66
ENDBRANCH  45  59
BRANCH  46  70
ATOM     70  C   UNL A   1      39.324  32.742  36.838  1.00  0.00     0.023 A 
ATOM     71  C   UNL A   1      38.445  32.217  37.799  1.00  0.00     0.031 A 
ATOM     72  C   UNL A   1      39.954  33.966  37.122  1.00  0.00     0.131 A 
ATOM     73  C   UNL A   1      38.186  32.933  38.978  1.00  0.00     0.055 A 
ATOM     74  C   UNL A   1      39.732  34.651  38.319  1.00  0.00     0.041 A 
ATOM     75  F   UNL A   1      40.811  34.508  36.242  1.00  0.00    -0.206 F 
ATOM     76  C   UNL A   1      38.833  34.140  39.250  1.00  0.00     0.022 A 
BRANCH  73  77
ATOM     77  S   UNL A   1      36.928  32.299  40.122  1.00  0.00     0.124 S 
ATOM     78  O   UNL A   1      37.611  31.151  40.709  1.00  0.00    -0.237 OA
ATOM     79  O   UNL A   1      36.719  33.442  41.004  1.00  0.00    -0.237 OA
ATOM     80  O   UNL A   1      35.804  31.976  39.246  1.00  0.00    -0.744 OA
ENDBRANCH  73  77
ENDBRANCH  46  70
BRANCH  58  81
ATOM     81  C   UNL A   1      44.122  28.181  34.650  1.00  0.00     0.023 A 
ATOM     82  C   UNL A   1      44.066  26.967  35.358  1.00  0.00     0.031 A 
ATOM     83  C   UNL A   1      45.350  28.864  34.599  1.00  0.00     0.131 A 
ATOM     84  C   UNL A   1      45.201  26.506  36.039  1.00  0.00     0.055 A 
ATOM     85  C   UNL A   1      46.492  28.367  35.228  1.00  0.00     0.041 A 
ATOM     86  F   UNL A   1      45.458  30.027  33.936  1.00  0.00    -0.206 F 
ATOM     87  C   UNL A   1      46.418  27.189  35.965  1.00  0.00     0.022 A 
BRANCH  84  88
ATOM     88  S   UNL A   1      45.039  25.050  37.108  1.00  0.00     0.124 S 
ATOM     89  O   UNL A   1      44.545  24.042  36.176  1.00  0.00    -0.237 OA
ATOM     90  O   UNL A   1      46.405  24.861  37.587  1.00  0.00    -0.237 OA
ATOM     91  O   UNL A   1      44.081  25.476  38.126  1.00  0.00    -0.744 OA
ENDBRANCH  84  88
ENDBRANCH  58  81
ENDBRANCH  32  33
ENDBRANCH  24  27
ENDBRANCH  22  23
ENDBRANCH  21  22
ENDBRANCH  20  21
ENDBRANCH   1  20
TORSDOF 19
ENDMDL
MODEL 2
REMARK VINA RESULT:     -10.5      5.428      8.306
REMARK SMILES C[C@H](CO)CSc1cc(Cl)ccc1C(=O)NCCCCNC(=O)c1ccc(-c2c3nc(c(-c4cc(S(=O)(=O)[O-])ccc4F)c4ccc([nH]4)c(-c4cc(S(=O)(=O)[O-])ccc4F)c4nc(c(-c5cc(S(=O)(=O)[O-])ccc5F)c5ccc2[nH]5)C=C4)C=C3)cc1
REMARK SMILES IDX 17 1 16 2 14 3 15 4 13 6 7 7 8 8 9 9 12 10 10 11 11 12 6 13
REMARK SMILES IDX 5 14 2 15 1 16 3 17 4 18 18 20 19 21 20 22 21 23 22 24 23 26
REMARK SMILES IDX 24 27 25 28 86 29 26 30 85 31 27 32 28 33 29 34 79 35 30 36
REMARK SMILES IDX 84 37 78 38 80 39 31 40 83 41 77 42 76 43 32 45 64 46 44 47
REMARK SMILES IDX 63 48 45 49 48 50 62 51 81 52 46 53 47 54 61 56 82 57 49 58
REMARK SMILES IDX 33 59 34 60 42 61 35 62 41 63 43 64 40 65 36 66 37 67 38 68
REMARK SMILES IDX 39 69 65 70 66 71 74 72 67 73 73 74 75 75 72 76 68 77 69 78
REMARK SMILES IDX 70 79 71 80 50 81 51 82 59 83 52 84 58 85 60 86 57 87 53 88
REMARK SMILES IDX 54 89 55 90 56 91
REMARK H PARENT 16 5 4 19 21 25 80 44 48 55
REMARK Flexibility Score: inf
ROOT
ATOM      1  C   UNL A   1      33.664  22.970  23.646  1.00  0.00     0.116 C 
ENDROOT
BRANCH   1   2
ATOM      2  N   UNL A   1      33.607  23.972  22.595  1.00  0.00    -0.352 N 
ATOM      3  C   UNL A   1      33.381  25.325  22.639  1.00  0.00     0.252 C 
ATOM      4  O   UNL A   1      33.627  26.007  21.645  1.00  0.00    -0.269 OA
ATOM      5  H   UNL A   1      33.758  23.618  21.689  1.00  0.00     0.163 HD
BRANCH   3   6
ATOM      6  C   UNL A   1      32.867  26.013  23.846  1.00  0.00     0.053 A 
ATOM      7  C   UNL A   1      31.513  26.236  24.151  1.00  0.00     0.021 A 
ATOM      8  C   UNL A   1      31.191  26.799  25.402  1.00  0.00     0.036 A 
ATOM      9  C   UNL A   1      32.184  27.314  26.230  1.00  0.00     0.042 A 
ATOM     10  C   UNL A   1      33.855  26.604  24.657  1.00  0.00     0.016 A 
ATOM     11  Cl  UNL A   1      31.755  28.070  27.715  1.00  0.00    -0.084 Cl
ATOM     12  C   UNL A   1      33.514  27.276  25.832  1.00  0.00     0.021 A 
BRANCH   7  13
ATOM     13  S   UNL A   1      30.091  26.125  23.055  1.00  0.00    -0.125 SA
BRANCH  13  14
ATOM     14  C   UNL A   1      29.011  27.459  23.666  1.00  0.00     0.080 C 
BRANCH  14  15
ATOM     15  C   UNL A   1      29.094  28.741  22.838  1.00  0.00     0.022 C 
ATOM     16  C   UNL A   1      29.916  29.764  23.631  1.00  0.00     0.011 C 
BRANCH  15  17
ATOM     17  C   UNL A   1      27.699  29.288  22.507  1.00  0.00     0.160 C 
BRANCH  17  18
ATOM     18  O   UNL A   1      26.663  28.568  23.166  1.00  0.00    -0.396 OA
ATOM     19  H   UNL A   1      26.178  28.034  22.517  1.00  0.00     0.210 HD
ENDBRANCH  17  18
ENDBRANCH  15  17
ENDBRANCH  14  15
ENDBRANCH  13  14
ENDBRANCH   7  13
ENDBRANCH   3   6
ENDBRANCH   1   2
BRANCH   1  20
ATOM     20  C   UNL A   1      35.071  22.506  24.037  1.00  0.00     0.023 C 
BRANCH  20  21
ATOM     21  C   UNL A   1      35.328  22.269  25.528  1.00  0.00     0.023 C 
BRANCH  21  22
ATOM     22  C   UNL A   1      36.657  22.793  26.039  1.00  0.00     0.116 C 
BRANCH  22  23
ATOM     23  N   UNL A   1      37.678  21.763  26.071  1.00  0.00    -0.352 N 
ATOM     24  C   UNL A   1      39.033  21.878  26.261  1.00  0.00     0.251 C 
ATOM     25  H   UNL A   1      37.350  20.844  25.936  1.00  0.00     0.163 HD
ATOM     26  O   UNL A   1      39.742  20.894  26.075  1.00  0.00    -0.269 OA
BRANCH  24  27
ATOM     27  C   UNL A   1      39.639  23.172  26.659  1.00  0.00     0.039 A 
ATOM     28  C   UNL A   1      40.421  23.216  27.817  1.00  0.00     0.014 A 
ATOM     29  C   UNL A   1      39.411  24.346  25.935  1.00  0.00     0.014 A 
ATOM     30  C   UNL A   1      40.981  24.425  28.236  1.00  0.00     0.010 A 
ATOM     31  C   UNL A   1      40.048  25.528  26.296  1.00  0.00     0.010 A 
ATOM     32  C   UNL A   1      40.806  25.590  27.473  1.00  0.00    -0.014 A 
BRANCH  32  33
ATOM     33  C   UNL A   1      41.327  26.898  27.943  1.00  0.00     0.031 A 
ATOM     34  C   UNL A   1      42.770  27.252  27.691  1.00  0.00     0.074 A 
ATOM     35  C   UNL A   1      40.518  27.741  28.612  1.00  0.00     0.049 A 
ATOM     36  N   UNL A   1      43.436  28.321  28.044  1.00  0.00    -0.248 NA
ATOM     37  C   UNL A   1      43.582  26.249  26.982  1.00  0.00     0.031 C 
ATOM     38  C   UNL A   1      39.119  27.476  28.953  1.00  0.00     0.029 A 
ATOM     39  N   UNL A   1      40.753  28.991  29.123  1.00  0.00    -0.354 N 
ATOM     40  C   UNL A   1      44.745  28.108  27.618  1.00  0.00     0.074 A 
ATOM     41  C   UNL A   1      44.792  26.779  27.053  1.00  0.00     0.031 C 
ATOM     42  C   UNL A   1      38.611  28.547  29.585  1.00  0.00     0.029 A 
ATOM     43  C   UNL A   1      39.654  29.558  29.725  1.00  0.00     0.049 A 
ATOM     44  H   UNL A   1      41.627  29.441  29.064  1.00  0.00     0.167 HD
ATOM     45  C   UNL A   1      45.801  28.958  27.662  1.00  0.00     0.034 A 
ATOM     46  C   UNL A   1      39.508  30.759  30.317  1.00  0.00     0.034 A 
ATOM     47  C   UNL A   1      45.719  30.292  28.203  1.00  0.00     0.049 A 
ATOM     48  C   UNL A   1      40.691  31.695  30.342  1.00  0.00     0.074 A 
ATOM     49  C   UNL A   1      46.699  31.268  28.252  1.00  0.00     0.029 A 
ATOM     50  N   UNL A   1      44.584  30.839  28.791  1.00  0.00    -0.354 N 
ATOM     51  N   UNL A   1      41.906  31.503  29.882  1.00  0.00    -0.248 NA
ATOM     52  C   UNL A   1      40.476  33.014  30.948  1.00  0.00     0.031 C 
ATOM     53  C   UNL A   1      46.175  32.380  28.921  1.00  0.00     0.029 A 
ATOM     54  C   UNL A   1      44.847  32.128  29.227  1.00  0.00     0.049 A 
ATOM     55  H   UNL A   1      43.719  30.378  28.883  1.00  0.00     0.167 HD
ATOM     56  C   UNL A   1      42.595  32.688  30.125  1.00  0.00     0.074 A 
ATOM     57  C   UNL A   1      41.650  33.593  30.748  1.00  0.00     0.031 C 
ATOM     58  C   UNL A   1      43.889  33.004  29.859  1.00  0.00     0.034 A 
BRANCH  45  59
ATOM     59  C   UNL A   1      47.122  28.453  27.129  1.00  0.00     0.023 A 
ATOM     60  C   UNL A   1      47.343  28.267  25.752  1.00  0.00     0.031 A 
ATOM     61  C   UNL A   1      48.161  28.104  28.009  1.00  0.00     0.131 A 
ATOM     62  C   UNL A   1      48.528  27.665  25.303  1.00  0.00     0.055 A 
ATOM     63  C   UNL A   1      49.375  27.587  27.550  1.00  0.00     0.041 A 
ATOM     64  F   UNL A   1      48.007  28.237  29.336  1.00  0.00    -0.206 F 
ATOM     65  C   UNL A   1      49.557  27.347  26.192  1.00  0.00     0.022 A 
BRANCH  62  66
ATOM     66  S   UNL A   1      48.638  27.157  23.566  1.00  0.00     0.124 S 
ATOM     67  O   UNL A   1      48.046  25.822  23.612  1.00  0.00    -0.237 OA
ATOM     68  O   UNL A   1      47.852  28.180  22.887  1.00  0.00    -0.237 OA
ATOM     69  O   UNL A   1      50.072  27.185  23.289  1.00  0.00    -0.744 OA
ENDBRANCH  62  66
ENDBRANCH  45  59
BRANCH  46  70
ATOM     70  C   UNL A   1      38.203  31.152  30.920  1.00  0.00     0.023 A 
ATOM     71  C   UNL A   1      37.220  31.804  30.158  1.00  0.00     0.031 A 
ATOM     72  C   UNL A   1      37.930  30.912  32.278  1.00  0.00     0.131 A 
ATOM     73  C   UNL A   1      36.029  32.231  30.766  1.00  0.00     0.055 A 
ATOM     74  C   UNL A   1      36.723  31.293  32.868  1.00  0.00     0.041 A 
ATOM     75  F   UNL A   1      38.831  30.284  33.050  1.00  0.00    -0.206 F 
ATOM     76  C   UNL A   1      35.769  31.968  32.113  1.00  0.00     0.022 A 
BRANCH  73  77
ATOM     77  S   UNL A   1      34.852  33.204  29.787  1.00  0.00     0.124 S 
ATOM     78  O   UNL A   1      33.976  33.742  30.822  1.00  0.00    -0.237 OA
ATOM     79  O   UNL A   1      35.730  34.165  29.127  1.00  0.00    -0.237 OA
ATOM     80  O   UNL A   1      34.241  32.212  28.904  1.00  0.00    -0.744 OA
ENDBRANCH  73  77
ENDBRANCH  46  70
BRANCH  58  81
ATOM     81  C   UNL A   1      44.333  34.399  30.221  1.00  0.00     0.023 A 
ATOM     82  C   UNL A   1      44.178  35.473  29.328  1.00  0.00     0.031 A 
ATOM     83  C   UNL A   1      44.934  34.651  31.466  1.00  0.00     0.131 A 
ATOM     84  C   UNL A   1      44.676  36.738  29.668  1.00  0.00     0.055 A 
ATOM     85  C   UNL A   1      45.372  35.927  31.824  1.00  0.00     0.041 A 
ATOM     86  F   UNL A   1      45.107  33.660  32.356  1.00  0.00    -0.206 F 
ATOM     87  C   UNL A   1      45.257  36.976  30.917  1.00  0.00     0.022 A 
BRANCH  84  88
ATOM     88  S   UNL A   1      44.644  38.049  28.415  1.00  0.00     0.124 S 
ATOM     89  O   UNL A   1      45.233  39.172  29.137  1.00  0.00    -0.237 OA
ATOM     90  O   UNL A   1      45.461  37.479  27.347  1.00  0.00    -0.237 OA
ATOM     91  O   UNL A   1      43.225  38.189  28.100  1.00  0.00    -0.744 OA
ENDBRANCH  84  88
ENDBRANCH  58  81
ENDBRANCH  32  33
ENDBRANCH  24  27
ENDBRANCH  22  23
ENDBRANCH  21  22
ENDBRANCH  20  21
ENDBRANCH   1  20
TORSDOF 19
ENDMDL
MODEL 3
REMARK VINA RESULT:     -10.4      3.441      9.103
REMARK SMILES C[C@H](CO)CSc1cc(Cl)ccc1C(=O)NCCCCNC(=O)c1ccc(-c2c3nc(c(-c4cc(S(=O)(=O)[O-])ccc4F)c4ccc([nH]4)c(-c4cc(S(=O)(=O)[O-])ccc4F)c4nc(c(-c5cc(S(=O)(=O)[O-])ccc5F)c5ccc2[nH]5)C=C4)C=C3)cc1
REMARK SMILES IDX 17 1 16 2 14 3 15 4 13 6 7 7 8 8 9 9 12 10 10 11 11 12 6 13
REMARK SMILES IDX 5 14 2 15 1 16 3 17 4 18 18 20 19 21 20 22 21 23 22 24 23 26
REMARK SMILES IDX 24 27 25 28 86 29 26 30 85 31 27 32 28 33 29 34 79 35 30 36
REMARK SMILES IDX 84 37 78 38 80 39 31 40 83 41 77 42 76 43 32 45 64 46 44 47
REMARK SMILES IDX 63 48 45 49 48 50 62 51 81 52 46 53 47 54 61 56 82 57 49 58
REMARK SMILES IDX 33 59 34 60 42 61 35 62 41 63 43 64 40 65 36 66 37 67 38 68
REMARK SMILES IDX 39 69 65 70 66 71 74 72 67 73 73 74 75 75 72 76 68 77 69 78
REMARK SMILES IDX 70 79 71 80 50 81 51 82 59 83 52 84 58 85 60 86 57 87 53 88
REMARK SMILES IDX 54 89 55 90 56 91
REMARK H PARENT 16 5 4 19 21 25 80 44 48 55
REMARK Flexibility Score: inf
ROOT
ATOM      1  C   UNL A   1      32.258  26.154  25.254  1.00  0.00     0.116 C 
ENDROOT
BRANCH   1   2
ATOM      2  N   UNL A   1      32.975  26.278  23.995  1.00  0.00    -0.352 N 
ATOM      3  C   UNL A   1      33.325  25.345  23.052  1.00  0.00     0.252 C 
ATOM      4  O   UNL A   1      33.713  25.725  21.948  1.00  0.00    -0.269 OA
ATOM      5  H   UNL A   1      33.261  27.195  23.781  1.00  0.00     0.163 HD
BRANCH   3   6
ATOM      6  C   UNL A   1      33.238  23.886  23.297  1.00  0.00     0.053 A 
ATOM      7  C   UNL A   1      34.075  23.146  24.149  1.00  0.00     0.021 A 
ATOM      8  C   UNL A   1      33.779  21.785  24.362  1.00  0.00     0.036 A 
ATOM      9  C   UNL A   1      32.816  21.134  23.594  1.00  0.00     0.042 A 
ATOM     10  C   UNL A   1      32.322  23.202  22.476  1.00  0.00     0.016 A 
ATOM     11  Cl  UNL A   1      32.534  19.452  23.820  1.00  0.00    -0.084 Cl
ATOM     12  C   UNL A   1      32.130  21.824  22.605  1.00  0.00     0.021 A 
BRANCH   7  13
ATOM     13  S   UNL A   1      35.659  23.628  24.852  1.00  0.00    -0.125 SA
BRANCH  13  14
ATOM     14  C   UNL A   1      36.229  22.089  25.643  1.00  0.00     0.080 C 
BRANCH  14  15
ATOM     15  C   UNL A   1      37.518  21.532  25.038  1.00  0.00     0.022 C 
ATOM     16  C   UNL A   1      37.330  20.024  24.833  1.00  0.00     0.011 C 
BRANCH  15  17
ATOM     17  C   UNL A   1      38.730  21.822  25.932  1.00  0.00     0.160 C 
BRANCH  17  18
ATOM     18  O   UNL A   1      39.220  23.148  25.769  1.00  0.00    -0.396 OA
ATOM     19  H   UNL A   1      39.259  23.587  26.633  1.00  0.00     0.210 HD
ENDBRANCH  17  18
ENDBRANCH  15  17
ENDBRANCH  14  15
ENDBRANCH  13  14
ENDBRANCH   7  13
ENDBRANCH   3   6
ENDBRANCH   1   2
BRANCH   1  20
ATOM     20  C   UNL A   1      31.976  27.472  25.982  1.00  0.00     0.023 C 
BRANCH  20  21
ATOM     21  C   UNL A   1      33.113  28.046  26.832  1.00  0.00     0.023 C 
BRANCH  21  22
ATOM     22  C   UNL A   1      34.025  29.020  26.108  1.00  0.00     0.116 C 
BRANCH  22  23
ATOM     23  N   UNL A   1      33.941  30.361  26.656  1.00  0.00    -0.352 N 
ATOM     24  C   UNL A   1      34.734  30.974  27.595  1.00  0.00     0.251 C 
ATOM     25  H   UNL A   1      33.207  30.913  26.302  1.00  0.00     0.163 HD
ATOM     26  O   UNL A   1      34.382  32.059  28.048  1.00  0.00    -0.269 OA
BRANCH  24  27
ATOM     27  C   UNL A   1      35.982  30.332  28.075  1.00  0.00     0.039 A 
ATOM     28  C   UNL A   1      35.938  29.591  29.260  1.00  0.00     0.014 A 
ATOM     29  C   UNL A   1      37.197  30.486  27.401  1.00  0.00     0.014 A 
ATOM     30  C   UNL A   1      37.102  28.999  29.756  1.00  0.00     0.010 A 
ATOM     31  C   UNL A   1      38.333  29.816  27.841  1.00  0.00     0.010 A 
ATOM     32  C   UNL A   1      38.308  29.099  29.044  1.00  0.00    -0.014 A 
BRANCH  32  33
ATOM     33  C   UNL A   1      39.569  28.543  29.595  1.00  0.00     0.031 A 
ATOM     34  C   UNL A   1      40.197  29.191  30.803  1.00  0.00     0.074 A 
ATOM     35  C   UNL A   1      40.156  27.490  28.996  1.00  0.00     0.049 A 
ATOM     36  N   UNL A   1      41.308  28.889  31.422  1.00  0.00    -0.248 NA
ATOM     37  C   UNL A   1      39.498  30.358  31.364  1.00  0.00     0.031 C 
ATOM     38  C   UNL A   1      39.661  26.820  27.792  1.00  0.00     0.029 A 
ATOM     39  N   UNL A   1      41.293  26.796  29.317  1.00  0.00    -0.354 N 
ATOM     40  C   UNL A   1      41.450  29.841  32.429  1.00  0.00     0.074 A 
ATOM     41  C   UNL A   1      40.353  30.770  32.286  1.00  0.00     0.031 C 
ATOM     42  C   UNL A   1      40.471  25.789  27.498  1.00  0.00     0.029 A 
ATOM     43  C   UNL A   1      41.559  25.746  28.469  1.00  0.00     0.049 A 
ATOM     44  H   UNL A   1      41.866  27.027  30.084  1.00  0.00     0.167 HD
ATOM     45  C   UNL A   1      42.389  29.911  33.405  1.00  0.00     0.034 A 
ATOM     46  C   UNL A   1      42.565  24.850  28.481  1.00  0.00     0.034 A 
ATOM     47  C   UNL A   1      43.456  28.951  33.546  1.00  0.00     0.049 A 
ATOM     48  C   UNL A   1      43.590  24.938  29.584  1.00  0.00     0.074 A 
ATOM     49  C   UNL A   1      44.432  28.880  34.524  1.00  0.00     0.029 A 
ATOM     50  N   UNL A   1      43.685  27.891  32.677  1.00  0.00    -0.354 N 
ATOM     51  N   UNL A   1      43.678  25.808  30.564  1.00  0.00    -0.248 NA
ATOM     52  C   UNL A   1      44.640  23.911  29.592  1.00  0.00     0.031 C 
ATOM     53  C   UNL A   1      45.284  27.814  34.213  1.00  0.00     0.029 A 
ATOM     54  C   UNL A   1      44.800  27.175  33.082  1.00  0.00     0.049 A 
ATOM     55  H   UNL A   1      43.134  27.679  31.888  1.00  0.00     0.167 HD
ATOM     56  C   UNL A   1      44.781  25.419  31.319  1.00  0.00     0.074 A 
ATOM     57  C   UNL A   1      45.308  24.223  30.693  1.00  0.00     0.031 C 
ATOM     58  C   UNL A   1      45.313  25.994  32.428  1.00  0.00     0.034 A 
BRANCH  45  59
ATOM     59  C   UNL A   1      42.302  31.071  34.371  1.00  0.00     0.023 A 
ATOM     60  C   UNL A   1      41.258  31.179  35.307  1.00  0.00     0.031 A 
ATOM     61  C   UNL A   1      43.246  32.112  34.324  1.00  0.00     0.131 A 
ATOM     62  C   UNL A   1      41.130  32.336  36.090  1.00  0.00     0.055 A 
ATOM     63  C   UNL A   1      43.164  33.222  35.168  1.00  0.00     0.041 A 
ATOM     64  F   UNL A   1      44.255  32.080  33.439  1.00  0.00    -0.206 F 
ATOM     65  C   UNL A   1      42.091  33.348  36.045  1.00  0.00     0.022 A 
BRANCH  62  66
ATOM     66  S   UNL A   1      39.606  32.571  37.046  1.00  0.00     0.124 S 
ATOM     67  O   UNL A   1      40.137  32.914  38.364  1.00  0.00    -0.237 OA
ATOM     68  O   UNL A   1      38.943  33.650  36.325  1.00  0.00    -0.237 OA
ATOM     69  O   UNL A   1      38.947  31.269  36.968  1.00  0.00    -0.744 OA
ENDBRANCH  62  66
ENDBRANCH  45  59
BRANCH  46  70
ATOM     70  C   UNL A   1      42.651  23.794  27.433  1.00  0.00     0.023 A 
ATOM     71  C   UNL A   1      42.113  22.515  27.648  1.00  0.00     0.031 A 
ATOM     72  C   UNL A   1      43.300  24.037  26.210  1.00  0.00     0.131 A 
ATOM     73  C   UNL A   1      42.271  21.515  26.675  1.00  0.00     0.055 A 
ATOM     74  C   UNL A   1      43.412  23.054  25.224  1.00  0.00     0.041 A 
ATOM     75  F   UNL A   1      43.825  25.245  25.949  1.00  0.00    -0.206 F 
ATOM     76  C   UNL A   1      42.905  21.780  25.460  1.00  0.00     0.022 A 
BRANCH  73  77
ATOM     77  S   UNL A   1      41.699  19.835  27.055  1.00  0.00     0.124 S 
ATOM     78  O   UNL A   1      41.092  19.435  25.790  1.00  0.00    -0.237 OA
ATOM     79  O   UNL A   1      42.946  19.165  27.409  1.00  0.00    -0.237 OA
ATOM     80  O   UNL A   1      40.766  20.036  28.161  1.00  0.00    -0.744 OA
ENDBRANCH  73  77
ENDBRANCH  46  70
BRANCH  58  81
ATOM     81  C   UNL A   1      46.509  25.307  33.039  1.00  0.00     0.023 A 
ATOM     82  C   UNL A   1      47.819  25.612  32.630  1.00  0.00     0.031 A 
ATOM     83  C   UNL A   1      46.333  24.325  34.029  1.00  0.00     0.131 A 
ATOM     84  C   UNL A   1      48.899  24.896  33.163  1.00  0.00     0.055 A 
ATOM     85  C   UNL A   1      47.418  23.659  34.602  1.00  0.00     0.041 A 
ATOM     86  F   UNL A   1      45.103  23.996  34.456  1.00  0.00    -0.206 F 
ATOM     87  C   UNL A   1      48.709  23.934  34.159  1.00  0.00     0.022 A 
BRANCH  84  88
ATOM     88  S   UNL A   1      50.550  25.170  32.466  1.00  0.00     0.124 S 
ATOM     89  O   UNL A   1      50.380  26.443  31.774  1.00  0.00    -0.237 OA
ATOM     90  O   UNL A   1      51.392  25.201  33.659  1.00  0.00    -0.237 OA
ATOM     91  O   UNL A   1      50.752  24.013  31.597  1.00  0.00    -0.744 OA
ENDBRANCH  84  88
ENDBRANCH  58  81
ENDBRANCH  32  33
ENDBRANCH  24  27
ENDBRANCH  22  23
ENDBRANCH  21  22
ENDBRANCH  20  21
ENDBRANCH   1  20
TORSDOF 19
ENDMDL
