MODEL 1
REMARK VINA RESULT:     -12.3      0.000      0.000
REMARK SMILES O=C(Cc1ccccc1[N+](=O)[O-])N[C@@H]1C=C[C@H](C(=O)NCCCCNC(=O)c2ccc(-c3c4nc(c(-c5cc(S(=O)(=O)[O-])ccc5F)c5ccc([nH]5)c(-c5cc(S(=O)(=O)[O-])ccc5F)c5nc(c(-c6cc(S(=O)(=O)[O-])ccc6F)c6ccc3[nH]6)C=C5)C=C4)cc2)C1
REMARK SMILES IDX 22 1 21 2 20 3 18 4 19 5 17 7 14 8 15 9 91 10 16 11 13 12
REMARK SMILES IDX 1 13 2 14 3 16 4 17 5 18 9 19 6 20 8 21 7 22 10 23 11 24
REMARK SMILES IDX 12 25 23 26 24 27 25 28 26 29 27 31 28 32 29 33 90 34 30 35
REMARK SMILES IDX 89 36 31 37 32 38 33 39 83 40 34 41 88 42 82 43 84 44 35 45
REMARK SMILES IDX 87 46 81 47 80 48 36 50 68 51 48 52 67 53 49 54 52 55 66 56
REMARK SMILES IDX 85 57 50 58 51 59 65 61 86 62 53 63 37 64 38 65 46 66 39 67
REMARK SMILES IDX 45 68 47 69 44 70 40 71 41 72 42 73 43 74 69 75 70 76 78 77
REMARK SMILES IDX 71 78 77 79 79 80 76 81 72 82 73 83 74 84 75 85 54 86 55 87
REMARK SMILES IDX 63 88 56 89 62 90 64 91 61 92 57 93 58 94 59 95 60 96
REMARK H PARENT 20 6 13 15 25 30 84 49 52 60
REMARK Flexibility Score: inf
ROOT
ATOM      1  C   UNL A   1      33.743  29.066  23.693  1.00  0.00     0.023 C 
ENDROOT
BRANCH   1   2
ATOM      2  C   UNL A   1      32.905  28.194  22.780  1.00  0.00     0.116 C 
BRANCH   2   3
ATOM      3  N   UNL A   1      31.869  28.913  22.096  1.00  0.00    -0.356 N 
ATOM      4  C   UNL A   1      30.561  29.063  22.424  1.00  0.00     0.227 C 
ATOM      5  O   UNL A   1      29.865  29.707  21.630  1.00  0.00    -0.274 OA
ATOM      6  H   UNL A   1      32.149  29.365  21.268  1.00  0.00     0.163 HD
BRANCH   4   7
ATOM      7  C   UNL A   1      29.902  28.413  23.656  1.00  0.00     0.103 C 
ATOM      8  C   UNL A   1      29.608  26.052  24.438  1.00  0.00     0.106 C 
ATOM      9  C   UNL A   1      28.409  26.601  23.733  1.00  0.00    -0.006 C 
ATOM     10  C   UNL A   1      30.577  27.273  24.450  1.00  0.00     0.047 C 
ATOM     11  C   UNL A   1      28.563  27.855  23.302  1.00  0.00    -0.016 C 
BRANCH   8  12
ATOM     12  N   UNL A   1      30.089  24.867  23.727  1.00  0.00    -0.350 N 
ATOM     13  O   UNL A   1      31.105  23.900  25.550  1.00  0.00    -0.275 OA
ATOM     14  C   UNL A   1      30.824  23.867  24.354  1.00  0.00     0.225 C 
ATOM     15  H   UNL A   1      29.885  24.774  22.769  1.00  0.00     0.164 HD
BRANCH  14  16
ATOM     16  C   UNL A   1      31.241  22.687  23.472  1.00  0.00     0.142 C 
BRANCH  16  17
ATOM     17  C   UNL A   1      32.582  22.079  23.857  1.00  0.00     0.039 A 
ATOM     18  C   UNL A   1      32.580  20.727  24.222  1.00  0.00     0.011 A 
ATOM     19  C   UNL A   1      33.828  22.729  23.907  1.00  0.00     0.273 A 
ATOM     20  C   UNL A   1      33.704  20.067  24.725  1.00  0.00     0.001 A 
ATOM     21  C   UNL A   1      34.967  22.078  24.439  1.00  0.00     0.086 A 
ATOM     22  C   UNL A   1      34.894  20.755  24.871  1.00  0.00     0.007 A 
BRANCH  19  23
ATOM     23  N   UNL A   1      34.044  24.051  23.308  1.00  0.00     0.063 N 
ATOM     24  O   UNL A   1      34.239  25.003  24.077  1.00  0.00    -0.258 OA
ATOM     25  O   UNL A   1      34.117  24.122  22.074  1.00  0.00    -0.258 OA
ENDBRANCH  19  23
ENDBRANCH  16  17
ENDBRANCH  14  16
ENDBRANCH   8  12
ENDBRANCH   4   7
ENDBRANCH   2   3
ENDBRANCH   1   2
BRANCH   1  26
ATOM     26  C   UNL A   1      34.113  28.431  25.024  1.00  0.00     0.023 C 
BRANCH  26  27
ATOM     27  C   UNL A   1      33.100  28.564  26.163  1.00  0.00     0.116 C 
BRANCH  27  28
ATOM     28  N   UNL A   1      32.551  29.903  26.372  1.00  0.00    -0.352 N 
ATOM     29  C   UNL A   1      33.060  30.991  27.060  1.00  0.00     0.251 C 
ATOM     30  H   UNL A   1      31.673  30.057  25.954  1.00  0.00     0.163 HD
ATOM     31  O   UNL A   1      32.381  31.999  27.197  1.00  0.00    -0.269 OA
BRANCH  29  32
ATOM     32  C   UNL A   1      34.406  30.905  27.653  1.00  0.00     0.039 A 
ATOM     33  C   UNL A   1      35.249  32.021  27.705  1.00  0.00     0.014 A 
ATOM     34  C   UNL A   1      34.808  29.687  28.189  1.00  0.00     0.014 A 
ATOM     35  C   UNL A   1      36.474  31.921  28.374  1.00  0.00     0.010 A 
ATOM     36  C   UNL A   1      35.949  29.631  28.965  1.00  0.00     0.010 A 
ATOM     37  C   UNL A   1      36.812  30.734  29.040  1.00  0.00    -0.014 A 
BRANCH  37  38
ATOM     38  C   UNL A   1      38.085  30.528  29.774  1.00  0.00     0.031 A 
ATOM     39  C   UNL A   1      39.104  29.591  29.177  1.00  0.00     0.074 A 
ATOM     40  C   UNL A   1      38.244  31.024  31.016  1.00  0.00     0.049 A 
ATOM     41  N   UNL A   1      40.133  29.014  29.738  1.00  0.00    -0.248 NA
ATOM     42  C   UNL A   1      38.880  29.193  27.776  1.00  0.00     0.031 C 
ATOM     43  C   UNL A   1      37.304  31.909  31.706  1.00  0.00     0.029 A 
ATOM     44  N   UNL A   1      39.242  30.819  31.934  1.00  0.00    -0.354 N 
ATOM     45  C   UNL A   1      40.644  28.147  28.776  1.00  0.00     0.074 A 
ATOM     46  C   UNL A   1      39.768  28.223  27.628  1.00  0.00     0.031 C 
ATOM     47  C   UNL A   1      37.776  32.178  32.934  1.00  0.00     0.029 A 
ATOM     48  C   UNL A   1      39.017  31.438  33.141  1.00  0.00     0.049 A 
ATOM     49  H   UNL A   1      40.044  30.279  31.746  1.00  0.00     0.167 HD
ATOM     50  C   UNL A   1      41.757  27.378  28.840  1.00  0.00     0.034 A 
ATOM     51  C   UNL A   1      39.720  31.390  34.290  1.00  0.00     0.034 A 
ATOM     52  C   UNL A   1      42.634  27.359  29.984  1.00  0.00     0.049 A 
ATOM     53  C   UNL A   1      40.967  30.541  34.335  1.00  0.00     0.074 A 
ATOM     54  C   UNL A   1      43.834  26.691  30.139  1.00  0.00     0.029 A 
ATOM     55  N   UNL A   1      42.404  28.047  31.169  1.00  0.00    -0.354 N 
ATOM     56  N   UNL A   1      41.468  29.757  33.406  1.00  0.00    -0.248 NA
ATOM     57  C   UNL A   1      41.746  30.576  35.578  1.00  0.00     0.031 C 
ATOM     58  C   UNL A   1      44.291  26.916  31.441  1.00  0.00     0.029 A 
ATOM     59  C   UNL A   1      43.424  27.795  32.071  1.00  0.00     0.049 A 
ATOM     60  H   UNL A   1      41.628  28.628  31.343  1.00  0.00     0.167 HD
ATOM     61  C   UNL A   1      42.642  29.235  33.943  1.00  0.00     0.074 A 
ATOM     62  C   UNL A   1      42.777  29.804  35.270  1.00  0.00     0.031 C 
ATOM     63  C   UNL A   1      43.532  28.370  33.391  1.00  0.00     0.034 A 
BRANCH  50  64
ATOM     64  C   UNL A   1      42.068  26.491  27.656  1.00  0.00     0.023 A 
ATOM     65  C   UNL A   1      41.605  25.164  27.580  1.00  0.00     0.031 A 
ATOM     66  C   UNL A   1      42.864  26.966  26.599  1.00  0.00     0.131 A 
ATOM     67  C   UNL A   1      42.010  24.339  26.521  1.00  0.00     0.055 A 
ATOM     68  C   UNL A   1      43.186  26.167  25.500  1.00  0.00     0.041 A 
ATOM     69  F   UNL A   1      43.360  28.214  26.625  1.00  0.00    -0.206 F 
ATOM     70  C   UNL A   1      42.773  24.839  25.464  1.00  0.00     0.022 A 
BRANCH  67  71
ATOM     71  S   UNL A   1      41.655  22.562  26.625  1.00  0.00     0.124 S 
ATOM     72  O   UNL A   1      40.194  22.555  26.607  1.00  0.00    -0.237 OA
ATOM     73  O   UNL A   1      42.310  22.039  25.433  1.00  0.00    -0.237 OA
ATOM     74  O   UNL A   1      42.258  22.167  27.896  1.00  0.00    -0.744 OA
ENDBRANCH  67  71
ENDBRANCH  50  64
BRANCH  51  75
ATOM     75  C   UNL A   1      39.272  32.163  35.483  1.00  0.00     0.023 A 
ATOM     76  C   UNL A   1      38.572  31.532  36.524  1.00  0.00     0.031 A 
ATOM     77  C   UNL A   1      39.517  33.542  35.597  1.00  0.00     0.131 A 
ATOM     78  C   UNL A   1      38.104  32.285  37.611  1.00  0.00     0.055 A 
ATOM     79  C   UNL A   1      39.096  34.278  36.708  1.00  0.00     0.041 A 
ATOM     80  F   UNL A   1      40.189  34.196  34.636  1.00  0.00    -0.206 F 
ATOM     81  C   UNL A   1      38.374  33.650  37.719  1.00  0.00     0.022 A 
BRANCH  78  82
ATOM     82  S   UNL A   1      37.064  31.463  38.850  1.00  0.00     0.124 S 
ATOM     83  O   UNL A   1      37.897  31.551  40.042  1.00  0.00    -0.237 OA
ATOM     84  O   UNL A   1      35.867  32.297  38.839  1.00  0.00    -0.237 OA
ATOM     85  O   UNL A   1      36.888  30.117  38.307  1.00  0.00    -0.744 OA
ENDBRANCH  78  82
ENDBRANCH  51  75
BRANCH  63  86
ATOM     86  C   UNL A   1      44.755  28.032  34.207  1.00  0.00     0.023 A 
ATOM     87  C   UNL A   1      44.787  26.923  35.070  1.00  0.00     0.031 A 
ATOM     88  C   UNL A   1      45.907  28.834  34.116  1.00  0.00     0.131 A 
ATOM     89  C   UNL A   1      45.924  26.684  35.854  1.00  0.00     0.055 A 
ATOM     90  C   UNL A   1      47.060  28.549  34.846  1.00  0.00     0.041 A 
ATOM     91  F   UNL A   1      45.930  29.906  33.308  1.00  0.00    -0.206 F 
ATOM     92  C   UNL A   1      47.069  27.476  35.732  1.00  0.00     0.022 A 
BRANCH  89  93
ATOM     93  S   UNL A   1      45.850  25.383  37.115  1.00  0.00     0.124 S 
ATOM     94  O   UNL A   1      44.874  25.927  38.054  1.00  0.00    -0.237 OA
ATOM     95  O   UNL A   1      45.414  24.224  36.342  1.00  0.00    -0.237 OA
ATOM     96  O   UNL A   1      47.221  25.313  37.616  1.00  0.00    -0.744 OA
ENDBRANCH  89  93
ENDBRANCH  63  86
ENDBRANCH  37  38
ENDBRANCH  29  32
ENDBRANCH  27  28
ENDBRANCH  26  27
ENDBRANCH   1  26
TORSDOF 18
ENDMDL
MODEL 2
REMARK VINA RESULT:     -12.3      5.053      9.629
REMARK SMILES O=C(Cc1ccccc1[N+](=O)[O-])N[C@@H]1C=C[C@H](C(=O)NCCCCNC(=O)c2ccc(-c3c4nc(c(-c5cc(S(=O)(=O)[O-])ccc5F)c5ccc([nH]5)c(-c5cc(S(=O)(=O)[O-])ccc5F)c5nc(c(-c6cc(S(=O)(=O)[O-])ccc6F)c6ccc3[nH]6)C=C5)C=C4)cc2)C1
REMARK SMILES IDX 22 1 21 2 20 3 18 4 19 5 17 7 14 8 15 9 91 10 16 11 13 12
REMARK SMILES IDX 1 13 2 14 3 16 4 17 5 18 9 19 6 20 8 21 7 22 10 23 11 24
REMARK SMILES IDX 12 25 23 26 24 27 25 28 26 29 27 31 28 32 29 33 90 34 30 35
REMARK SMILES IDX 89 36 31 37 32 38 33 39 83 40 34 41 88 42 82 43 84 44 35 45
REMARK SMILES IDX 87 46 81 47 80 48 36 50 68 51 48 52 67 53 49 54 52 55 66 56
REMARK SMILES IDX 85 57 50 58 51 59 65 61 86 62 53 63 37 64 38 65 46 66 39 67
REMARK SMILES IDX 45 68 47 69 44 70 40 71 41 72 42 73 43 74 69 75 70 76 78 77
REMARK SMILES IDX 71 78 77 79 79 80 76 81 72 82 73 83 74 84 75 85 54 86 55 87
REMARK SMILES IDX 63 88 56 89 62 90 64 91 61 92 57 93 58 94 59 95 60 96
REMARK H PARENT 20 6 13 15 25 30 84 49 52 60
REMARK Flexibility Score: inf
ROOT
ATOM      1  C   UNL A   1      34.340  24.189  24.120  1.00  0.00     0.023 C 
ENDROOT
BRANCH   1   2
ATOM      2  C   UNL A   1      33.260  24.666  23.172  1.00  0.00     0.116 C 
BRANCH   2   3
ATOM      3  N   UNL A   1      33.661  25.782  22.364  1.00  0.00    -0.356 N 
ATOM      4  C   UNL A   1      33.232  27.069  22.396  1.00  0.00     0.227 C 
ATOM      5  O   UNL A   1      33.718  27.832  21.552  1.00  0.00    -0.274 OA
ATOM      6  H   UNL A   1      34.349  25.585  21.689  1.00  0.00     0.163 HD
BRANCH   4   7
ATOM      7  C   UNL A   1      32.137  27.589  23.347  1.00  0.00     0.103 C 
ATOM      8  C   UNL A   1      30.466  26.488  24.854  1.00  0.00     0.106 C 
ATOM      9  C   UNL A   1      29.902  26.889  23.528  1.00  0.00    -0.006 C 
ATOM     10  C   UNL A   1      31.932  27.012  24.766  1.00  0.00     0.047 C 
ATOM     11  C   UNL A   1      30.790  27.465  22.715  1.00  0.00    -0.016 C 
BRANCH   8  12
ATOM     12  N   UNL A   1      30.318  25.044  25.027  1.00  0.00    -0.350 N 
ATOM     13  O   UNL A   1      31.496  24.927  27.001  1.00  0.00    -0.275 OA
ATOM     14  C   UNL A   1      30.866  24.362  26.109  1.00  0.00     0.225 C 
ATOM     15  H   UNL A   1      29.812  24.535  24.354  1.00  0.00     0.164 HD
BRANCH  14  16
ATOM     16  C   UNL A   1      30.609  22.853  26.151  1.00  0.00     0.142 C 
BRANCH  16  17
ATOM     17  C   UNL A   1      31.765  22.020  25.615  1.00  0.00     0.039 A 
ATOM     18  C   UNL A   1      31.638  21.534  24.307  1.00  0.00     0.011 A 
ATOM     19  C   UNL A   1      32.943  21.664  26.294  1.00  0.00     0.273 A 
ATOM     20  C   UNL A   1      32.551  20.649  23.728  1.00  0.00     0.001 A 
ATOM     21  C   UNL A   1      33.861  20.748  25.727  1.00  0.00     0.086 A 
ATOM     22  C   UNL A   1      33.648  20.223  24.453  1.00  0.00     0.007 A 
BRANCH  19  23
ATOM     23  N   UNL A   1      33.344  22.304  27.553  1.00  0.00     0.063 N 
ATOM     24  O   UNL A   1      34.378  22.988  27.544  1.00  0.00    -0.258 OA
ATOM     25  O   UNL A   1      32.578  22.205  28.521  1.00  0.00    -0.258 OA
ENDBRANCH  19  23
ENDBRANCH  16  17
ENDBRANCH  14  16
ENDBRANCH   8  12
ENDBRANCH   4   7
ENDBRANCH   2   3
ENDBRANCH   1   2
BRANCH   1  26
ATOM     26  C   UNL A   1      35.316  23.184  23.527  1.00  0.00     0.023 C 
BRANCH  26  27
ATOM     27  C   UNL A   1      36.711  23.119  24.152  1.00  0.00     0.116 C 
BRANCH  27  28
ATOM     28  N   UNL A   1      37.128  21.806  24.643  1.00  0.00    -0.352 N 
ATOM     29  C   UNL A   1      38.154  21.445  25.499  1.00  0.00     0.251 C 
ATOM     30  H   UNL A   1      36.588  21.053  24.309  1.00  0.00     0.163 HD
ATOM     31  O   UNL A   1      38.392  20.262  25.701  1.00  0.00    -0.269 OA
BRANCH  29  32
ATOM     32  C   UNL A   1      38.972  22.495  26.129  1.00  0.00     0.039 A 
ATOM     33  C   UNL A   1      40.068  22.174  26.939  1.00  0.00     0.014 A 
ATOM     34  C   UNL A   1      38.644  23.822  25.875  1.00  0.00     0.014 A 
ATOM     35  C   UNL A   1      40.881  23.202  27.427  1.00  0.00     0.010 A 
ATOM     36  C   UNL A   1      39.524  24.821  26.239  1.00  0.00     0.010 A 
ATOM     37  C   UNL A   1      40.633  24.530  27.048  1.00  0.00    -0.014 A 
BRANCH  37  38
ATOM     38  C   UNL A   1      41.434  25.689  27.513  1.00  0.00     0.031 A 
ATOM     39  C   UNL A   1      40.747  26.734  28.354  1.00  0.00     0.074 A 
ATOM     40  C   UNL A   1      42.682  25.886  27.047  1.00  0.00     0.049 A 
ATOM     41  N   UNL A   1      41.116  27.957  28.627  1.00  0.00    -0.248 NA
ATOM     42  C   UNL A   1      39.425  26.370  28.893  1.00  0.00     0.031 C 
ATOM     43  C   UNL A   1      43.429  24.959  26.195  1.00  0.00     0.029 A 
ATOM     44  N   UNL A   1      43.529  26.955  27.197  1.00  0.00    -0.354 N 
ATOM     45  C   UNL A   1      40.050  28.521  29.323  1.00  0.00     0.074 A 
ATOM     46  C   UNL A   1      38.998  27.531  29.362  1.00  0.00     0.031 C 
ATOM     47  C   UNL A   1      44.626  25.496  25.906  1.00  0.00     0.029 A 
ATOM     48  C   UNL A   1      44.708  26.827  26.499  1.00  0.00     0.049 A 
ATOM     49  H   UNL A   1      43.313  27.739  27.751  1.00  0.00     0.167 HD
ATOM     50  C   UNL A   1      39.970  29.746  29.895  1.00  0.00     0.034 A 
ATOM     51  C   UNL A   1      45.723  27.697  26.337  1.00  0.00     0.034 A 
ATOM     52  C   UNL A   1      41.056  30.694  29.876  1.00  0.00     0.049 A 
ATOM     53  C   UNL A   1      45.623  29.051  26.998  1.00  0.00     0.074 A 
ATOM     54  C   UNL A   1      41.132  31.930  30.490  1.00  0.00     0.029 A 
ATOM     55  N   UNL A   1      42.260  30.506  29.208  1.00  0.00    -0.354 N 
ATOM     56  N   UNL A   1      44.629  29.561  27.691  1.00  0.00    -0.248 NA
ATOM     57  C   UNL A   1      46.782  29.940  26.862  1.00  0.00     0.031 C 
ATOM     58  C   UNL A   1      42.350  32.518  30.133  1.00  0.00     0.029 A 
ATOM     59  C   UNL A   1      43.073  31.615  29.370  1.00  0.00     0.049 A 
ATOM     60  H   UNL A   1      42.500  29.701  28.692  1.00  0.00     0.167 HD
ATOM     61  C   UNL A   1      45.061  30.819  28.104  1.00  0.00     0.074 A 
ATOM     62  C   UNL A   1      46.408  30.980  27.592  1.00  0.00     0.031 C 
ATOM     63  C   UNL A   1      44.410  31.754  28.843  1.00  0.00     0.034 A 
BRANCH  50  64
ATOM     64  C   UNL A   1      38.670  30.127  30.564  1.00  0.00     0.023 A 
ATOM     65  C   UNL A   1      37.667  30.844  29.886  1.00  0.00     0.031 A 
ATOM     66  C   UNL A   1      38.437  29.794  31.911  1.00  0.00     0.131 A 
ATOM     67  C   UNL A   1      36.524  31.277  30.575  1.00  0.00     0.055 A 
ATOM     68  C   UNL A   1      37.254  30.147  32.564  1.00  0.00     0.041 A 
ATOM     69  F   UNL A   1      39.365  29.135  32.622  1.00  0.00    -0.206 F 
ATOM     70  C   UNL A   1      36.296  30.907  31.901  1.00  0.00     0.022 A 
BRANCH  67  71
ATOM     71  S   UNL A   1      35.417  32.459  29.756  1.00  0.00     0.124 S 
ATOM     72  O   UNL A   1      36.321  33.579  29.505  1.00  0.00    -0.237 OA
ATOM     73  O   UNL A   1      34.978  31.717  28.581  1.00  0.00    -0.237 OA
ATOM     74  O   UNL A   1      34.386  32.712  30.759  1.00  0.00    -0.744 OA
ENDBRANCH  67  71
ENDBRANCH  50  64
BRANCH  51  75
ATOM     75  C   UNL A   1      46.917  27.324  25.525  1.00  0.00     0.023 A 
ATOM     76  C   UNL A   1      47.057  27.782  24.205  1.00  0.00     0.031 A 
ATOM     77  C   UNL A   1      47.925  26.493  26.044  1.00  0.00     0.131 A 
ATOM     78  C   UNL A   1      48.155  27.372  23.434  1.00  0.00     0.055 A 
ATOM     79  C   UNL A   1      49.044  26.132  25.290  1.00  0.00     0.041 A 
ATOM     80  F   UNL A   1      47.846  26.033  27.303  1.00  0.00    -0.206 F 
ATOM     81  C   UNL A   1      49.157  26.563  23.972  1.00  0.00     0.022 A 
BRANCH  78  82
ATOM     82  S   UNL A   1      48.212  27.851  21.686  1.00  0.00     0.124 S 
ATOM     83  O   UNL A   1      48.347  26.558  21.028  1.00  0.00    -0.237 OA
ATOM     84  O   UNL A   1      46.931  28.528  21.517  1.00  0.00    -0.237 OA
ATOM     85  O   UNL A   1      49.387  28.718  21.609  1.00  0.00    -0.744 OA
ENDBRANCH  78  82
ENDBRANCH  51  75
BRANCH  63  86
ATOM     86  C   UNL A   1      45.172  33.011  29.183  1.00  0.00     0.023 A 
ATOM     87  C   UNL A   1      45.140  34.144  28.352  1.00  0.00     0.031 A 
ATOM     88  C   UNL A   1      45.941  33.073  30.359  1.00  0.00     0.131 A 
ATOM     89  C   UNL A   1      45.914  35.268  28.678  1.00  0.00     0.055 A 
ATOM     90  C   UNL A   1      46.650  34.220  30.713  1.00  0.00     0.041 A 
ATOM     91  F   UNL A   1      46.007  32.019  31.188  1.00  0.00    -0.206 F 
ATOM     92  C   UNL A   1      46.651  35.321  29.863  1.00  0.00     0.022 A 
BRANCH  89  93
ATOM     93  S   UNL A   1      46.025  36.621  27.476  1.00  0.00     0.124 S 
ATOM     94  O   UNL A   1      45.936  35.906  26.207  1.00  0.00    -0.237 OA
ATOM     95  O   UNL A   1      44.872  37.445  27.826  1.00  0.00    -0.237 OA
ATOM     96  O   UNL A   1      47.326  37.224  27.759  1.00  0.00    -0.744 OA
ENDBRANCH  89  93
ENDBRANCH  63  86
ENDBRANCH  37  38
ENDBRANCH  29  32
ENDBRANCH  27  28
ENDBRANCH  26  27
ENDBRANCH   1  26
TORSDOF 18
ENDMDL
MODEL 3
REMARK VINA RESULT:     -12.2      1.318      2.103
REMARK SMILES O=C(Cc1ccccc1[N+](=O)[O-])N[C@@H]1C=C[C@H](C(=O)NCCCCNC(=O)c2ccc(-c3c4nc(c(-c5cc(S(=O)(=O)[O-])ccc5F)c5ccc([nH]5)c(-c5cc(S(=O)(=O)[O-])ccc5F)c5nc(c(-c6cc(S(=O)(=O)[O-])ccc6F)c6ccc3[nH]6)C=C5)C=C4)cc2)C1
REMARK SMILES IDX 22 1 21 2 20 3 18 4 19 5 17 7 14 8 15 9 91 10 16 11 13 12
REMARK SMILES IDX 1 13 2 14 3 16 4 17 5 18 9 19 6 20 8 21 7 22 10 23 11 24
REMARK SMILES IDX 12 25 23 26 24 27 25 28 26 29 27 31 28 32 29 33 90 34 30 35
REMARK SMILES IDX 89 36 31 37 32 38 33 39 83 40 34 41 88 42 82 43 84 44 35 45
REMARK SMILES IDX 87 46 81 47 80 48 36 50 68 51 48 52 67 53 49 54 52 55 66 56
REMARK SMILES IDX 85 57 50 58 51 59 65 61 86 62 53 63 37 64 38 65 46 66 39 67
REMARK SMILES IDX 45 68 47 69 44 70 40 71 41 72 42 73 43 74 69 75 70 76 78 77
REMARK SMILES IDX 71 78 77 79 79 80 76 81 72 82 73 83 74 84 75 85 54 86 55 87
REMARK SMILES IDX 63 88 56 89 62 90 64 91 61 92 57 93 58 94 59 95 60 96
REMARK H PARENT 20 6 13 15 25 30 84 49 52 60
REMARK Flexibility Score: inf
ROOT
ATOM      1  C   UNL A   1      31.566  27.315  26.375  1.00  0.00     0.023 C 
ENDROOT
BRANCH   1   2
ATOM      2  C   UNL A   1      30.964  26.589  25.189  1.00  0.00     0.116 C 
BRANCH   2   3
ATOM      3  N   UNL A   1      30.050  27.394  24.431  1.00  0.00    -0.356 N 
ATOM      4  C   UNL A   1      30.028  27.655  23.099  1.00  0.00     0.227 C 
ATOM      5  O   UNL A   1      29.143  28.424  22.704  1.00  0.00    -0.274 OA
ATOM      6  H   UNL A   1      29.331  27.817  24.954  1.00  0.00     0.163 HD
BRANCH   4   7
ATOM      7  C   UNL A   1      31.076  27.127  22.101  1.00  0.00     0.103 C 
ATOM      8  C   UNL A   1      33.275  25.950  22.336  1.00  0.00     0.106 C 
ATOM      9  C   UNL A   1      33.406  27.425  22.128  1.00  0.00    -0.006 C 
ATOM     10  C   UNL A   1      31.733  25.736  22.250  1.00  0.00     0.047 C 
ATOM     11  C   UNL A   1      32.237  28.061  22.015  1.00  0.00    -0.016 C 
BRANCH   8  12
ATOM     12  N   UNL A   1      33.896  25.582  23.607  1.00  0.00    -0.350 N 
ATOM     13  O   UNL A   1      35.160  23.858  22.755  1.00  0.00    -0.275 OA
ATOM     14  C   UNL A   1      34.805  24.534  23.718  1.00  0.00     0.225 C 
ATOM     15  H   UNL A   1      33.664  26.093  24.415  1.00  0.00     0.164 HD
BRANCH  14  16
ATOM     16  C   UNL A   1      35.374  24.285  25.117  1.00  0.00     0.142 C 
BRANCH  16  17
ATOM     17  C   UNL A   1      34.517  23.364  25.973  1.00  0.00     0.039 A 
ATOM     18  C   UNL A   1      33.311  23.891  26.453  1.00  0.00     0.011 A 
ATOM     19  C   UNL A   1      34.808  22.043  26.356  1.00  0.00     0.273 A 
ATOM     20  C   UNL A   1      32.485  23.216  27.355  1.00  0.00     0.001 A 
ATOM     21  C   UNL A   1      33.992  21.360  27.290  1.00  0.00     0.086 A 
ATOM     22  C   UNL A   1      32.846  21.960  27.807  1.00  0.00     0.007 A 
BRANCH  19  23
ATOM     23  N   UNL A   1      35.883  21.266  25.728  1.00  0.00     0.063 N 
ATOM     24  O   UNL A   1      35.554  20.325  24.990  1.00  0.00    -0.258 OA
ATOM     25  O   UNL A   1      37.048  21.654  25.891  1.00  0.00    -0.258 OA
ENDBRANCH  19  23
ENDBRANCH  16  17
ENDBRANCH  14  16
ENDBRANCH   8  12
ENDBRANCH   4   7
ENDBRANCH   2   3
ENDBRANCH   1   2
BRANCH   1  26
ATOM     26  C   UNL A   1      33.059  27.581  26.273  1.00  0.00     0.023 C 
BRANCH  26  27
ATOM     27  C   UNL A   1      33.488  28.866  25.561  1.00  0.00     0.116 C 
BRANCH  27  28
ATOM     28  N   UNL A   1      32.840  30.094  26.019  1.00  0.00    -0.352 N 
ATOM     29  C   UNL A   1      33.249  31.041  26.943  1.00  0.00     0.251 C 
ATOM     30  H   UNL A   1      31.968  30.279  25.601  1.00  0.00     0.163 HD
ATOM     31  O   UNL A   1      32.496  31.953  27.255  1.00  0.00    -0.269 OA
BRANCH  29  32
ATOM     32  C   UNL A   1      34.576  30.914  27.568  1.00  0.00     0.039 A 
ATOM     33  C   UNL A   1      35.465  31.994  27.609  1.00  0.00     0.014 A 
ATOM     34  C   UNL A   1      34.914  29.695  28.144  1.00  0.00     0.014 A 
ATOM     35  C   UNL A   1      36.670  31.861  28.309  1.00  0.00     0.010 A 
ATOM     36  C   UNL A   1      36.034  29.612  28.948  1.00  0.00     0.010 A 
ATOM     37  C   UNL A   1      36.943  30.679  29.013  1.00  0.00    -0.014 A 
BRANCH  37  38
ATOM     38  C   UNL A   1      38.190  30.439  29.780  1.00  0.00     0.031 A 
ATOM     39  C   UNL A   1      39.190  29.461  29.220  1.00  0.00     0.074 A 
ATOM     40  C   UNL A   1      38.335  30.944  31.020  1.00  0.00     0.049 A 
ATOM     41  N   UNL A   1      40.184  28.856  29.813  1.00  0.00    -0.248 NA
ATOM     42  C   UNL A   1      38.987  29.053  27.819  1.00  0.00     0.031 C 
ATOM     43  C   UNL A   1      37.409  31.870  31.676  1.00  0.00     0.029 A 
ATOM     44  N   UNL A   1      39.303  30.717  31.965  1.00  0.00    -0.354 N 
ATOM     45  C   UNL A   1      40.689  27.961  28.874  1.00  0.00     0.074 A 
ATOM     46  C   UNL A   1      39.845  28.052  27.705  1.00  0.00     0.031 C 
ATOM     47  C   UNL A   1      37.860  32.138  32.913  1.00  0.00     0.029 A 
ATOM     48  C   UNL A   1      39.069  31.359  33.159  1.00  0.00     0.049 A 
ATOM     49  H   UNL A   1      40.090  30.148  31.804  1.00  0.00     0.167 HD
ATOM     50  C   UNL A   1      41.773  27.155  28.975  1.00  0.00     0.034 A 
ATOM     51  C   UNL A   1      39.742  31.302  34.326  1.00  0.00     0.034 A 
ATOM     52  C   UNL A   1      42.621  27.121  30.140  1.00  0.00     0.049 A 
ATOM     53  C   UNL A   1      40.957  30.411  34.412  1.00  0.00     0.074 A 
ATOM     54  C   UNL A   1      43.793  26.414  30.333  1.00  0.00     0.029 A 
ATOM     55  N   UNL A   1      42.386  27.831  31.312  1.00  0.00    -0.354 N 
ATOM     56  N   UNL A   1      41.454  29.600  33.505  1.00  0.00    -0.248 NA
ATOM     57  C   UNL A   1      41.706  30.435  35.673  1.00  0.00     0.031 C 
ATOM     58  C   UNL A   1      44.225  26.640  31.644  1.00  0.00     0.029 A 
ATOM     59  C   UNL A   1      43.374  27.556  32.241  1.00  0.00     0.049 A 
ATOM     60  H   UNL A   1      41.625  28.440  31.460  1.00  0.00     0.167 HD
ATOM     61  C   UNL A   1      42.596  29.045  34.076  1.00  0.00     0.074 A 
ATOM     62  C   UNL A   1      42.718  29.625  35.400  1.00  0.00     0.031 C 
ATOM     63  C   UNL A   1      43.470  28.143  33.558  1.00  0.00     0.034 A 
BRANCH  50  64
ATOM     64  C   UNL A   1      42.083  26.243  27.810  1.00  0.00     0.023 A 
ATOM     65  C   UNL A   1      41.596  24.924  27.749  1.00  0.00     0.031 A 
ATOM     66  C   UNL A   1      42.901  26.686  26.756  1.00  0.00     0.131 A 
ATOM     67  C   UNL A   1      41.999  24.074  26.708  1.00  0.00     0.055 A 
ATOM     68  C   UNL A   1      43.222  25.864  25.674  1.00  0.00     0.041 A 
ATOM     69  F   UNL A   1      43.420  27.924  26.768  1.00  0.00    -0.206 F 
ATOM     70  C   UNL A   1      42.784  24.543  25.654  1.00  0.00     0.022 A 
BRANCH  67  71
ATOM     71  S   UNL A   1      41.609  22.307  26.836  1.00  0.00     0.124 S 
ATOM     72  O   UNL A   1      41.953  21.834  25.498  1.00  0.00    -0.237 OA
ATOM     73  O   UNL A   1      42.487  21.867  27.914  1.00  0.00    -0.237 OA
ATOM     74  O   UNL A   1      40.181  22.293  27.147  1.00  0.00    -0.744 OA
ENDBRANCH  67  71
ENDBRANCH  50  64
BRANCH  51  75
ATOM     75  C   UNL A   1      39.291  32.104  35.499  1.00  0.00     0.023 A 
ATOM     76  C   UNL A   1      38.586  31.500  36.552  1.00  0.00     0.031 A 
ATOM     77  C   UNL A   1      39.539  33.485  35.580  1.00  0.00     0.131 A 
ATOM     78  C   UNL A   1      38.116  32.280  37.619  1.00  0.00     0.055 A 
ATOM     79  C   UNL A   1      39.116  34.249  36.671  1.00  0.00     0.041 A 
ATOM     80  F   UNL A   1      40.215  34.114  34.605  1.00  0.00    -0.206 F 
ATOM     81  C   UNL A   1      38.389  33.647  37.694  1.00  0.00     0.022 A 
BRANCH  78  82
ATOM     82  S   UNL A   1      37.070  31.491  38.873  1.00  0.00     0.124 S 
ATOM     83  O   UNL A   1      36.922  30.146  38.332  1.00  0.00    -0.237 OA
ATOM     84  O   UNL A   1      37.892  31.614  40.072  1.00  0.00    -0.237 OA
ATOM     85  O   UNL A   1      35.857  32.305  38.866  1.00  0.00    -0.744 OA
ENDBRANCH  78  82
ENDBRANCH  51  75
BRANCH  63  86
ATOM     86  C   UNL A   1      44.660  27.774  34.407  1.00  0.00     0.023 A 
ATOM     87  C   UNL A   1      44.632  26.676  35.284  1.00  0.00     0.031 A 
ATOM     88  C   UNL A   1      45.840  28.535  34.336  1.00  0.00     0.131 A 
ATOM     89  C   UNL A   1      45.742  26.408  36.099  1.00  0.00     0.055 A 
ATOM     90  C   UNL A   1      46.965  28.220  35.097  1.00  0.00     0.041 A 
ATOM     91  F   UNL A   1      45.920  29.596  33.516  1.00  0.00    -0.206 F 
ATOM     92  C   UNL A   1      46.915  27.160  35.996  1.00  0.00     0.022 A 
BRANCH  89  93
ATOM     93  S   UNL A   1      45.592  25.126  37.372  1.00  0.00     0.124 S 
ATOM     94  O   UNL A   1      44.926  24.052  36.643  1.00  0.00    -0.237 OA
ATOM     95  O   UNL A   1      46.985  24.882  37.734  1.00  0.00    -0.237 OA
ATOM     96  O   UNL A   1      44.785  25.766  38.409  1.00  0.00    -0.744 OA
ENDBRANCH  89  93
ENDBRANCH  63  86
ENDBRANCH  37  38
ENDBRANCH  29  32
ENDBRANCH  27  28
ENDBRANCH  26  27
ENDBRANCH   1  26
TORSDOF 18
ENDMDL
