MODEL 1
REMARK VINA RESULT:     -11.5      0.000      0.000
REMARK SMILES O=C(NCCCCNC(=O)c1cc(SCCn2cccn2)cs1)c1ccc(-c2c3nc(c(-c4cc(S(=O)(=O)[O-])ccc4F)c4ccc([nH]4)c(-c4cc(S(=O)(=O)[O-])ccc4F)c4nc(c(-c5cc(S(=O)(=O)[O-])ccc5F)c5ccc2[nH]5)C=C4)C=C3)cc1
REMARK SMILES IDX 6 1 5 2 4 3 3 4 1 5 2 6 24 8 25 9 86 10 26 11 85 12 27 13
REMARK SMILES IDX 28 14 29 15 79 16 30 17 84 18 78 19 80 20 31 21 83 22 77 23
REMARK SMILES IDX 76 24 32 26 64 27 44 28 63 29 45 30 48 31 62 32 81 33 46 34
REMARK SMILES IDX 47 35 61 37 82 38 49 39 33 40 34 41 42 42 35 43 41 44 43 45
REMARK SMILES IDX 40 46 36 47 37 48 38 49 39 50 65 51 66 52 74 53 67 54 73 55
REMARK SMILES IDX 75 56 72 57 68 58 69 59 70 60 71 61 50 62 51 63 59 64 52 65
REMARK SMILES IDX 58 66 60 67 57 68 53 69 54 70 55 71 56 72 7 73 8 74 9 75
REMARK SMILES IDX 10 77 11 78 12 79 23 80 13 81 22 82 14 83 15 84 16 85 17 86
REMARK SMILES IDX 18 87 21 88 19 89 20 90
REMARK H PARENT 3 7 80 25 48 36 8 76
REMARK Flexibility Score: inf
ROOT
ATOM      1  C   UNL A   1      31.771  29.926  25.974  1.00  0.00     0.023 C 
ENDROOT
BRANCH   1   2
ATOM      2  C   UNL A   1      32.701  29.829  27.194  1.00  0.00     0.023 C 
BRANCH   2   3
ATOM      3  C   UNL A   1      33.950  30.714  27.133  1.00  0.00     0.116 C 
BRANCH   3   4
ATOM      4  N   UNL A   1      34.150  31.565  28.292  1.00  0.00    -0.352 N 
ATOM      5  O   UNL A   1      35.071  32.825  29.847  1.00  0.00    -0.269 OA
ATOM      6  C   UNL A   1      35.203  31.830  29.127  1.00  0.00     0.251 C 
ATOM      7  H   UNL A   1      33.340  32.069  28.534  1.00  0.00     0.163 HD
BRANCH   6   8
ATOM      8  C   UNL A   1      36.430  30.995  29.277  1.00  0.00     0.039 A 
ATOM      9  C   UNL A   1      36.472  29.602  29.327  1.00  0.00     0.014 A 
ATOM     10  C   UNL A   1      37.641  31.706  29.419  1.00  0.00     0.014 A 
ATOM     11  C   UNL A   1      37.677  28.940  29.571  1.00  0.00     0.010 A 
ATOM     12  C   UNL A   1      38.845  31.050  29.668  1.00  0.00     0.010 A 
ATOM     13  C   UNL A   1      38.858  29.664  29.768  1.00  0.00    -0.014 A 
BRANCH  13  14
ATOM     14  C   UNL A   1      40.113  28.921  29.900  1.00  0.00     0.031 A 
ATOM     15  C   UNL A   1      40.505  28.618  31.307  1.00  0.00     0.074 A 
ATOM     16  C   UNL A   1      40.806  28.401  28.866  1.00  0.00     0.049 A 
ATOM     17  N   UNL A   1      41.559  29.007  31.946  1.00  0.00    -0.248 NA
ATOM     18  C   UNL A   1      39.539  27.888  32.144  1.00  0.00     0.031 C 
ATOM     19  C   UNL A   1      40.415  28.359  27.457  1.00  0.00     0.029 A 
ATOM     20  N   UNL A   1      41.975  27.693  28.882  1.00  0.00    -0.354 N 
ATOM     21  C   UNL A   1      41.495  28.405  33.203  1.00  0.00     0.074 A 
ATOM     22  C   UNL A   1      40.164  27.873  33.322  1.00  0.00     0.031 C 
ATOM     23  C   UNL A   1      41.205  27.478  26.801  1.00  0.00     0.029 A 
ATOM     24  C   UNL A   1      42.230  26.985  27.710  1.00  0.00     0.049 A 
ATOM     25  H   UNL A   1      42.583  27.683  29.656  1.00  0.00     0.167 HD
ATOM     26  C   UNL A   1      42.608  28.220  33.968  1.00  0.00     0.034 A 
ATOM     27  C   UNL A   1      43.163  26.012  27.516  1.00  0.00     0.034 A 
ATOM     28  C   UNL A   1      43.697  29.053  33.520  1.00  0.00     0.049 A 
ATOM     29  C   UNL A   1      44.201  26.184  28.562  1.00  0.00     0.074 A 
ATOM     30  C   UNL A   1      43.885  30.415  33.382  1.00  0.00     0.029 A 
ATOM     31  N   UNL A   1      44.710  28.468  32.795  1.00  0.00    -0.354 N 
ATOM     32  N   UNL A   1      44.997  27.215  28.622  1.00  0.00    -0.248 NA
ATOM     33  C   UNL A   1      44.051  25.448  29.809  1.00  0.00     0.031 C 
ATOM     34  C   UNL A   1      44.651  30.558  32.189  1.00  0.00     0.029 A 
ATOM     35  C   UNL A   1      44.944  29.279  31.712  1.00  0.00     0.049 A 
ATOM     36  H   UNL A   1      45.176  27.628  33.010  1.00  0.00     0.167 HD
ATOM     37  C   UNL A   1      45.092  27.516  29.972  1.00  0.00     0.074 A 
ATOM     38  C   UNL A   1      44.573  26.336  30.660  1.00  0.00     0.031 C 
ATOM     39  C   UNL A   1      45.320  28.793  30.400  1.00  0.00     0.034 A 
BRANCH  26  40
ATOM     40  C   UNL A   1      42.834  27.053  34.906  1.00  0.00     0.023 A 
ATOM     41  C   UNL A   1      43.650  26.000  34.444  1.00  0.00     0.031 A 
ATOM     42  C   UNL A   1      42.076  26.778  36.065  1.00  0.00     0.131 A 
ATOM     43  C   UNL A   1      43.601  24.729  35.045  1.00  0.00     0.055 A 
ATOM     44  C   UNL A   1      42.088  25.534  36.703  1.00  0.00     0.041 A 
ATOM     45  F   UNL A   1      41.208  27.653  36.586  1.00  0.00    -0.206 F 
ATOM     46  C   UNL A   1      42.825  24.489  36.175  1.00  0.00     0.022 A 
BRANCH  43  47
ATOM     47  S   UNL A   1      44.419  23.348  34.204  1.00  0.00     0.124 S 
ATOM     48  O   UNL A   1      44.049  22.225  35.059  1.00  0.00    -0.237 OA
ATOM     49  O   UNL A   1      43.797  23.388  32.885  1.00  0.00    -0.237 OA
ATOM     50  O   UNL A   1      45.831  23.720  34.239  1.00  0.00    -0.744 OA
ENDBRANCH  43  47
ENDBRANCH  26  40
BRANCH  27  51
ATOM     51  C   UNL A   1      43.018  24.773  26.698  1.00  0.00     0.023 A 
ATOM     52  C   UNL A   1      44.015  24.308  25.811  1.00  0.00     0.031 A 
ATOM     53  C   UNL A   1      41.954  23.883  26.971  1.00  0.00     0.131 A 
ATOM     54  C   UNL A   1      43.915  23.015  25.239  1.00  0.00     0.055 A 
ATOM     55  C   UNL A   1      41.857  22.613  26.398  1.00  0.00     0.041 A 
ATOM     56  F   UNL A   1      41.011  24.182  27.878  1.00  0.00    -0.206 F 
ATOM     57  C   UNL A   1      42.842  22.170  25.534  1.00  0.00     0.022 A 
BRANCH  54  58
ATOM     58  S   UNL A   1      45.237  22.366  24.162  1.00  0.00     0.124 S 
ATOM     59  O   UNL A   1      45.910  21.412  25.034  1.00  0.00    -0.237 OA
ATOM     60  O   UNL A   1      44.487  21.809  23.043  1.00  0.00    -0.237 OA
ATOM     61  O   UNL A   1      46.024  23.557  23.834  1.00  0.00    -0.744 OA
ENDBRANCH  54  58
ENDBRANCH  27  51
BRANCH  39  62
ATOM     62  C   UNL A   1      45.776  29.829  29.393  1.00  0.00     0.023 A 
ATOM     63  C   UNL A   1      44.937  30.456  28.445  1.00  0.00     0.031 A 
ATOM     64  C   UNL A   1      47.101  30.289  29.499  1.00  0.00     0.131 A 
ATOM     65  C   UNL A   1      45.442  31.496  27.639  1.00  0.00     0.055 A 
ATOM     66  C   UNL A   1      47.589  31.334  28.716  1.00  0.00     0.041 A 
ATOM     67  F   UNL A   1      47.938  29.753  30.404  1.00  0.00    -0.206 F 
ATOM     68  C   UNL A   1      46.762  31.937  27.778  1.00  0.00     0.022 A 
BRANCH  65  69
ATOM     69  S   UNL A   1      44.388  32.292  26.384  1.00  0.00     0.124 S 
ATOM     70  O   UNL A   1      45.318  32.606  25.306  1.00  0.00    -0.237 OA
ATOM     71  O   UNL A   1      43.400  31.256  26.096  1.00  0.00    -0.237 OA
ATOM     72  O   UNL A   1      43.852  33.462  27.084  1.00  0.00    -0.744 OA
ENDBRANCH  65  69
ENDBRANCH  39  62
ENDBRANCH  13  14
ENDBRANCH   6   8
ENDBRANCH   3   4
ENDBRANCH   2   3
ENDBRANCH   1   2
BRANCH   1  73
ATOM     73  C   UNL A   1      32.254  29.255  24.679  1.00  0.00     0.116 C 
BRANCH  73  74
ATOM     74  N   UNL A   1      31.309  29.357  23.577  1.00  0.00    -0.351 N 
ATOM     75  C   UNL A   1      30.660  28.400  22.818  1.00  0.00     0.261 C 
ATOM     76  H   UNL A   1      31.093  30.283  23.322  1.00  0.00     0.163 HD
ATOM     77  O   UNL A   1      29.894  28.829  21.957  1.00  0.00    -0.268 OA
BRANCH  75  78
ATOM     78  C   UNL A   1      30.894  26.977  23.018  1.00  0.00     0.093 A 
ATOM     79  C   UNL A   1      30.425  26.088  23.973  1.00  0.00     0.040 A 
ATOM     80  S   UNL A   1      31.867  26.156  21.857  1.00  0.00    -0.137 S 
ATOM     81  C   UNL A   1      31.075  24.816  23.896  1.00  0.00     0.019 A 
ATOM     82  C   UNL A   1      31.849  24.705  22.762  1.00  0.00     0.080 A 
BRANCH  81  83
ATOM     83  S   UNL A   1      30.986  23.532  25.105  1.00  0.00    -0.123 SA
BRANCH  83  84
ATOM     84  C   UNL A   1      32.393  22.440  24.679  1.00  0.00     0.098 C 
BRANCH  84  85
ATOM     85  C   UNL A   1      32.629  21.154  25.494  1.00  0.00     0.155 C 
BRANCH  85  86
ATOM     86  N   UNL A   1      32.483  19.861  24.861  1.00  0.00    -0.272 N 
ATOM     87  C   UNL A   1      32.449  19.612  23.515  1.00  0.00     0.108 A 
ATOM     88  N   UNL A   1      32.417  18.741  25.579  1.00  0.00    -0.182 NA
ATOM     89  C   UNL A   1      32.447  18.241  23.376  1.00  0.00     0.042 A 
ATOM     90  C   UNL A   1      32.447  17.753  24.689  1.00  0.00     0.135 A 
ENDBRANCH  85  86
ENDBRANCH  84  85
ENDBRANCH  83  84
ENDBRANCH  81  83
ENDBRANCH  75  78
ENDBRANCH  73  74
ENDBRANCH   1  73
TORSDOF 18
ENDMDL
MODEL 2
REMARK VINA RESULT:     -11.3      3.461      9.721
REMARK SMILES O=C(NCCCCNC(=O)c1cc(SCCn2cccn2)cs1)c1ccc(-c2c3nc(c(-c4cc(S(=O)(=O)[O-])ccc4F)c4ccc([nH]4)c(-c4cc(S(=O)(=O)[O-])ccc4F)c4nc(c(-c5cc(S(=O)(=O)[O-])ccc5F)c5ccc2[nH]5)C=C4)C=C3)cc1
REMARK SMILES IDX 6 1 5 2 4 3 3 4 1 5 2 6 24 8 25 9 86 10 26 11 85 12 27 13
REMARK SMILES IDX 28 14 29 15 79 16 30 17 84 18 78 19 80 20 31 21 83 22 77 23
REMARK SMILES IDX 76 24 32 26 64 27 44 28 63 29 45 30 48 31 62 32 81 33 46 34
REMARK SMILES IDX 47 35 61 37 82 38 49 39 33 40 34 41 42 42 35 43 41 44 43 45
REMARK SMILES IDX 40 46 36 47 37 48 38 49 39 50 65 51 66 52 74 53 67 54 73 55
REMARK SMILES IDX 75 56 72 57 68 58 69 59 70 60 71 61 50 62 51 63 59 64 52 65
REMARK SMILES IDX 58 66 60 67 57 68 53 69 54 70 55 71 56 72 7 73 8 74 9 75
REMARK SMILES IDX 10 77 11 78 12 79 23 80 13 81 22 82 14 83 15 84 16 85 17 86
REMARK SMILES IDX 18 87 21 88 19 89 20 90
REMARK H PARENT 3 7 80 25 48 36 8 76
REMARK Flexibility Score: inf
ROOT
ATOM      1  C   UNL A   1      36.833  23.703  26.009  1.00  0.00     0.023 C 
ENDROOT
BRANCH   1   2
ATOM      2  C   UNL A   1      37.815  22.713  25.362  1.00  0.00     0.023 C 
BRANCH   2   3
ATOM      3  C   UNL A   1      38.742  21.982  26.338  1.00  0.00     0.116 C 
BRANCH   3   4
ATOM      4  N   UNL A   1      40.148  22.010  25.980  1.00  0.00    -0.352 N 
ATOM      5  O   UNL A   1      42.326  22.348  26.011  1.00  0.00    -0.269 OA
ATOM      6  C   UNL A   1      41.216  22.803  26.308  1.00  0.00     0.251 C 
ATOM      7  H   UNL A   1      40.392  21.290  25.354  1.00  0.00     0.163 HD
BRANCH   6   8
ATOM      8  C   UNL A   1      41.138  24.162  26.917  1.00  0.00     0.039 A 
ATOM      9  C   UNL A   1      40.425  25.248  26.408  1.00  0.00     0.014 A 
ATOM     10  C   UNL A   1      41.895  24.352  28.093  1.00  0.00     0.014 A 
ATOM     11  C   UNL A   1      40.514  26.500  27.020  1.00  0.00     0.010 A 
ATOM     12  C   UNL A   1      41.990  25.600  28.704  1.00  0.00     0.010 A 
ATOM     13  C   UNL A   1      41.316  26.683  28.151  1.00  0.00    -0.014 A 
BRANCH  13  14
ATOM     14  C   UNL A   1      41.280  27.982  28.825  1.00  0.00     0.031 A 
ATOM     15  C   UNL A   1      42.293  28.960  28.334  1.00  0.00     0.074 A 
ATOM     16  C   UNL A   1      40.333  28.360  29.708  1.00  0.00     0.049 A 
ATOM     17  N   UNL A   1      43.263  29.507  28.990  1.00  0.00    -0.248 NA
ATOM     18  C   UNL A   1      42.299  29.276  26.896  1.00  0.00     0.031 C 
ATOM     19  C   UNL A   1      39.118  27.635  30.081  1.00  0.00     0.029 A 
ATOM     20  N   UNL A   1      40.205  29.541  30.383  1.00  0.00    -0.354 N 
ATOM     21  C   UNL A   1      43.880  30.393  28.107  1.00  0.00     0.074 A 
ATOM     22  C   UNL A   1      43.354  30.084  26.803  1.00  0.00     0.031 C 
ATOM     23  C   UNL A   1      38.278  28.477  30.728  1.00  0.00     0.029 A 
ATOM     24  C   UNL A   1      38.939  29.759  30.920  1.00  0.00     0.049 A 
ATOM     25  H   UNL A   1      40.945  30.184  30.479  1.00  0.00     0.167 HD
ATOM     26  C   UNL A   1      44.628  31.443  28.547  1.00  0.00     0.034 A 
ATOM     27  C   UNL A   1      38.440  30.924  31.420  1.00  0.00     0.034 A 
ATOM     28  C   UNL A   1      45.015  31.269  29.926  1.00  0.00     0.049 A 
ATOM     29  C   UNL A   1      39.598  31.776  31.786  1.00  0.00     0.074 A 
ATOM     30  C   UNL A   1      45.742  30.319  30.618  1.00  0.00     0.029 A 
ATOM     31  N   UNL A   1      44.345  31.990  30.888  1.00  0.00    -0.354 N 
ATOM     32  N   UNL A   1      40.428  31.486  32.749  1.00  0.00    -0.248 NA
ATOM     33  C   UNL A   1      40.109  32.709  30.792  1.00  0.00     0.031 C 
ATOM     34  C   UNL A   1      45.072  30.189  31.870  1.00  0.00     0.029 A 
ATOM     35  C   UNL A   1      44.025  31.113  31.894  1.00  0.00     0.049 A 
ATOM     36  H   UNL A   1      44.134  32.952  30.859  1.00  0.00     0.167 HD
ATOM     37  C   UNL A   1      41.679  31.831  32.260  1.00  0.00     0.074 A 
ATOM     38  C   UNL A   1      41.409  32.671  31.094  1.00  0.00     0.031 C 
ATOM     39  C   UNL A   1      42.807  31.182  32.674  1.00  0.00     0.034 A 
BRANCH  26  40
ATOM     40  C   UNL A   1      44.736  32.786  27.856  1.00  0.00     0.023 A 
ATOM     41  C   UNL A   1      43.973  33.849  28.382  1.00  0.00     0.031 A 
ATOM     42  C   UNL A   1      45.282  33.001  26.571  1.00  0.00     0.131 A 
ATOM     43  C   UNL A   1      43.690  34.989  27.609  1.00  0.00     0.055 A 
ATOM     44  C   UNL A   1      45.059  34.170  25.837  1.00  0.00     0.041 A 
ATOM     45  F   UNL A   1      45.974  32.064  25.913  1.00  0.00    -0.206 F 
ATOM     46  C   UNL A   1      44.230  35.158  26.338  1.00  0.00     0.022 A 
BRANCH  43  47
ATOM     47  S   UNL A   1      42.444  36.154  28.221  1.00  0.00     0.124 S 
ATOM     48  O   UNL A   1      41.490  35.253  28.859  1.00  0.00    -0.237 OA
ATOM     49  O   UNL A   1      43.233  36.996  29.114  1.00  0.00    -0.237 OA
ATOM     50  O   UNL A   1      41.969  36.809  27.005  1.00  0.00    -0.744 OA
ENDBRANCH  43  47
ENDBRANCH  26  40
BRANCH  27  51
ATOM     51  C   UNL A   1      37.049  31.443  31.278  1.00  0.00     0.023 A 
ATOM     52  C   UNL A   1      36.349  32.083  32.327  1.00  0.00     0.031 A 
ATOM     53  C   UNL A   1      36.466  31.524  29.993  1.00  0.00     0.131 A 
ATOM     54  C   UNL A   1      35.127  32.752  32.066  1.00  0.00     0.055 A 
ATOM     55  C   UNL A   1      35.258  32.177  29.743  1.00  0.00     0.041 A 
ATOM     56  F   UNL A   1      37.098  31.041  28.910  1.00  0.00    -0.206 F 
ATOM     57  C   UNL A   1      34.586  32.802  30.779  1.00  0.00     0.022 A 
BRANCH  54  58
ATOM     58  S   UNL A   1      34.258  33.657  33.390  1.00  0.00     0.124 S 
ATOM     59  O   UNL A   1      32.943  33.027  33.387  1.00  0.00    -0.237 OA
ATOM     60  O   UNL A   1      35.100  33.400  34.551  1.00  0.00    -0.237 OA
ATOM     61  O   UNL A   1      34.273  35.044  32.921  1.00  0.00    -0.744 OA
ENDBRANCH  54  58
ENDBRANCH  27  51
BRANCH  39  62
ATOM     62  C   UNL A   1      42.728  30.292  33.897  1.00  0.00     0.023 A 
ATOM     63  C   UNL A   1      42.549  28.891  33.864  1.00  0.00     0.031 A 
ATOM     64  C   UNL A   1      42.979  30.890  35.145  1.00  0.00     0.131 A 
ATOM     65  C   UNL A   1      42.615  28.146  35.059  1.00  0.00     0.055 A 
ATOM     66  C   UNL A   1      43.066  30.147  36.321  1.00  0.00     0.041 A 
ATOM     67  F   UNL A   1      43.188  32.215  35.236  1.00  0.00    -0.206 F 
ATOM     68  C   UNL A   1      42.877  28.771  36.282  1.00  0.00     0.022 A 
BRANCH  65  69
ATOM     69  S   UNL A   1      42.350  26.344  35.045  1.00  0.00     0.124 S 
ATOM     70  O   UNL A   1      42.826  25.918  36.356  1.00  0.00    -0.237 OA
ATOM     71  O   UNL A   1      40.911  26.237  34.821  1.00  0.00    -0.237 OA
ATOM     72  O   UNL A   1      43.173  25.888  33.922  1.00  0.00    -0.744 OA
ENDBRANCH  65  69
ENDBRANCH  39  62
ENDBRANCH  13  14
ENDBRANCH   6   8
ENDBRANCH   3   4
ENDBRANCH   2   3
ENDBRANCH   1   2
BRANCH   1  73
ATOM     73  C   UNL A   1      35.383  23.674  25.500  1.00  0.00     0.116 C 
BRANCH  73  74
ATOM     74  N   UNL A   1      34.419  23.243  26.499  1.00  0.00    -0.351 N 
ATOM     75  C   UNL A   1      33.071  23.508  26.664  1.00  0.00     0.261 C 
ATOM     76  H   UNL A   1      34.796  22.652  27.190  1.00  0.00     0.163 HD
ATOM     77  O   UNL A   1      32.531  22.959  27.623  1.00  0.00    -0.268 OA
BRANCH  75  78
ATOM     78  C   UNL A   1      32.352  24.402  25.768  1.00  0.00     0.093 A 
ATOM     79  C   UNL A   1      32.427  25.772  25.572  1.00  0.00     0.040 A 
ATOM     80  S   UNL A   1      31.232  23.697  24.665  1.00  0.00    -0.137 S 
ATOM     81  C   UNL A   1      31.387  26.256  24.717  1.00  0.00     0.019 A 
ATOM     82  C   UNL A   1      30.695  25.227  24.120  1.00  0.00     0.080 A 
BRANCH  81  83
ATOM     83  S   UNL A   1      30.955  27.951  24.468  1.00  0.00    -0.123 SA
BRANCH  83  84
ATOM     84  C   UNL A   1      30.058  27.937  22.872  1.00  0.00     0.098 C 
BRANCH  84  85
ATOM     85  C   UNL A   1      28.595  28.416  22.821  1.00  0.00     0.155 C 
BRANCH  85  86
ATOM     86  N   UNL A   1      28.296  29.783  22.447  1.00  0.00    -0.272 N 
ATOM     87  C   UNL A   1      28.013  30.817  23.297  1.00  0.00     0.108 A 
ATOM     88  N   UNL A   1      28.322  30.174  21.174  1.00  0.00    -0.182 NA
ATOM     89  C   UNL A   1      27.941  31.950  22.517  1.00  0.00     0.042 A 
ATOM     90  C   UNL A   1      28.160  31.494  21.211  1.00  0.00     0.135 A 
ENDBRANCH  85  86
ENDBRANCH  84  85
ENDBRANCH  83  84
ENDBRANCH  81  83
ENDBRANCH  75  78
ENDBRANCH  73  74
ENDBRANCH   1  73
TORSDOF 18
ENDMDL
MODEL 3
REMARK VINA RESULT:     -11.1      4.595      7.033
REMARK SMILES O=C(NCCCCNC(=O)c1cc(SCCn2cccn2)cs1)c1ccc(-c2c3nc(c(-c4cc(S(=O)(=O)[O-])ccc4F)c4ccc([nH]4)c(-c4cc(S(=O)(=O)[O-])ccc4F)c4nc(c(-c5cc(S(=O)(=O)[O-])ccc5F)c5ccc2[nH]5)C=C4)C=C3)cc1
REMARK SMILES IDX 6 1 5 2 4 3 3 4 1 5 2 6 24 8 25 9 86 10 26 11 85 12 27 13
REMARK SMILES IDX 28 14 29 15 79 16 30 17 84 18 78 19 80 20 31 21 83 22 77 23
REMARK SMILES IDX 76 24 32 26 64 27 44 28 63 29 45 30 48 31 62 32 81 33 46 34
REMARK SMILES IDX 47 35 61 37 82 38 49 39 33 40 34 41 42 42 35 43 41 44 43 45
REMARK SMILES IDX 40 46 36 47 37 48 38 49 39 50 65 51 66 52 74 53 67 54 73 55
REMARK SMILES IDX 75 56 72 57 68 58 69 59 70 60 71 61 50 62 51 63 59 64 52 65
REMARK SMILES IDX 58 66 60 67 57 68 53 69 54 70 55 71 56 72 7 73 8 74 9 75
REMARK SMILES IDX 10 77 11 78 12 79 23 80 13 81 22 82 14 83 15 84 16 85 17 86
REMARK SMILES IDX 18 87 21 88 19 89 20 90
REMARK H PARENT 3 7 80 25 48 36 8 76
REMARK Flexibility Score: inf
ROOT
ATOM      1  C   UNL A   1      33.459  35.226  29.188  1.00  0.00     0.023 C 
ENDROOT
BRANCH   1   2
ATOM      2  C   UNL A   1      34.784  34.461  29.340  1.00  0.00     0.023 C 
BRANCH   2   3
ATOM      3  C   UNL A   1      34.644  32.955  29.573  1.00  0.00     0.116 C 
BRANCH   3   4
ATOM      4  N   UNL A   1      34.464  32.165  28.369  1.00  0.00    -0.352 N 
ATOM      5  O   UNL A   1      34.484  30.518  26.905  1.00  0.00    -0.269 OA
ATOM      6  C   UNL A   1      35.098  31.083  27.816  1.00  0.00     0.251 C 
ATOM      7  H   UNL A   1      33.710  32.481  27.821  1.00  0.00     0.163 HD
BRANCH   6   8
ATOM      8  C   UNL A   1      36.460  30.594  28.174  1.00  0.00     0.039 A 
ATOM      9  C   UNL A   1      37.475  31.350  28.761  1.00  0.00     0.014 A 
ATOM     10  C   UNL A   1      36.735  29.250  27.843  1.00  0.00     0.014 A 
ATOM     11  C   UNL A   1      38.743  30.801  28.956  1.00  0.00     0.010 A 
ATOM     12  C   UNL A   1      38.001  28.698  28.030  1.00  0.00     0.010 A 
ATOM     13  C   UNL A   1      39.014  29.485  28.566  1.00  0.00    -0.014 A 
BRANCH  13  14
ATOM     14  C   UNL A   1      40.322  28.917  28.902  1.00  0.00     0.031 A 
ATOM     15  C   UNL A   1      40.590  28.810  30.365  1.00  0.00     0.074 A 
ATOM     16  C   UNL A   1      41.175  28.381  28.005  1.00  0.00     0.049 A 
ATOM     17  N   UNL A   1      41.519  29.387  31.053  1.00  0.00    -0.248 NA
ATOM     18  C   UNL A   1      39.625  28.059  31.185  1.00  0.00     0.031 C 
ATOM     19  C   UNL A   1      40.946  28.147  26.580  1.00  0.00     0.029 A 
ATOM     20  N   UNL A   1      42.406  27.824  28.214  1.00  0.00    -0.354 N 
ATOM     21  C   UNL A   1      41.387  28.915  32.359  1.00  0.00     0.074 A 
ATOM     22  C   UNL A   1      40.117  28.241  32.410  1.00  0.00     0.031 C 
ATOM     23  C   UNL A   1      41.894  27.304  26.108  1.00  0.00     0.029 A 
ATOM     24  C   UNL A   1      42.862  27.035  27.160  1.00  0.00     0.049 A 
ATOM     25  H   UNL A   1      42.924  27.968  29.038  1.00  0.00     0.167 HD
ATOM     26  C   UNL A   1      42.423  28.946  33.243  1.00  0.00     0.034 A 
ATOM     27  C   UNL A   1      43.912  26.167  27.170  1.00  0.00     0.034 A 
ATOM     28  C   UNL A   1      43.457  29.853  32.808  1.00  0.00     0.049 A 
ATOM     29  C   UNL A   1      44.805  26.570  28.284  1.00  0.00     0.074 A 
ATOM     30  C   UNL A   1      43.509  31.207  32.533  1.00  0.00     0.029 A 
ATOM     31  N   UNL A   1      44.600  29.324  32.254  1.00  0.00    -0.354 N 
ATOM     32  N   UNL A   1      45.473  27.690  28.301  1.00  0.00    -0.248 NA
ATOM     33  C   UNL A   1      44.603  25.954  29.587  1.00  0.00     0.031 C 
ATOM     34  C   UNL A   1      44.379  31.318  31.410  1.00  0.00     0.029 A 
ATOM     35  C   UNL A   1      44.860  30.040  31.113  1.00  0.00     0.049 A 
ATOM     36  H   UNL A   1      45.130  28.573  32.608  1.00  0.00     0.167 HD
ATOM     37  C   UNL A   1      45.388  28.139  29.610  1.00  0.00     0.074 A 
ATOM     38  C   UNL A   1      44.929  26.981  30.376  1.00  0.00     0.031 C 
ATOM     39  C   UNL A   1      45.427  29.471  29.908  1.00  0.00     0.034 A 
BRANCH  26  40
ATOM     40  C   UNL A   1      42.674  27.918  34.326  1.00  0.00     0.023 A 
ATOM     41  C   UNL A   1      43.485  26.812  33.995  1.00  0.00     0.031 A 
ATOM     42  C   UNL A   1      41.940  27.802  35.526  1.00  0.00     0.131 A 
ATOM     43  C   UNL A   1      43.453  25.635  34.764  1.00  0.00     0.055 A 
ATOM     44  C   UNL A   1      41.970  26.656  36.328  1.00  0.00     0.041 A 
ATOM     45  F   UNL A   1      41.079  28.738  35.942  1.00  0.00    -0.206 F 
ATOM     46  C   UNL A   1      42.701  25.550  35.932  1.00  0.00     0.022 A 
BRANCH  43  47
ATOM     47  S   UNL A   1      44.260  24.154  34.102  1.00  0.00     0.124 S 
ATOM     48  O   UNL A   1      45.630  24.333  34.573  1.00  0.00    -0.237 OA
ATOM     49  O   UNL A   1      43.494  23.086  34.736  1.00  0.00    -0.237 OA
ATOM     50  O   UNL A   1      44.074  24.284  32.660  1.00  0.00    -0.744 OA
ENDBRANCH  43  47
ENDBRANCH  26  40
BRANCH  27  51
ATOM     51  C   UNL A   1      43.993  24.843  26.490  1.00  0.00     0.023 A 
ATOM     52  C   UNL A   1      43.145  23.755  26.804  1.00  0.00     0.031 A 
ATOM     53  C   UNL A   1      44.778  24.710  25.321  1.00  0.00     0.131 A 
ATOM     54  C   UNL A   1      43.119  22.607  25.974  1.00  0.00     0.055 A 
ATOM     55  C   UNL A   1      44.753  23.573  24.511  1.00  0.00     0.041 A 
ATOM     56  F   UNL A   1      45.537  25.722  24.874  1.00  0.00    -0.206 F 
ATOM     57  C   UNL A   1      43.917  22.517  24.830  1.00  0.00     0.022 A 
BRANCH  54  58
ATOM     58  S   UNL A   1      41.967  21.234  26.317  1.00  0.00     0.124 S 
ATOM     59  O   UNL A   1      42.181  20.995  27.739  1.00  0.00    -0.237 OA
ATOM     60  O   UNL A   1      40.680  21.801  25.938  1.00  0.00    -0.237 OA
ATOM     61  O   UNL A   1      42.443  20.163  25.438  1.00  0.00    -0.744 OA
ENDBRANCH  54  58
ENDBRANCH  27  51
BRANCH  39  62
ATOM     62  C   UNL A   1      45.872  30.444  28.837  1.00  0.00     0.023 A 
ATOM     63  C   UNL A   1      45.003  31.241  28.058  1.00  0.00     0.031 A 
ATOM     64  C   UNL A   1      47.255  30.662  28.701  1.00  0.00     0.131 A 
ATOM     65  C   UNL A   1      45.533  32.203  27.175  1.00  0.00     0.055 A 
ATOM     66  C   UNL A   1      47.774  31.631  27.844  1.00  0.00     0.041 A 
ATOM     67  F   UNL A   1      48.132  29.957  29.437  1.00  0.00    -0.206 F 
ATOM     68  C   UNL A   1      46.914  32.402  27.072  1.00  0.00     0.022 A 
BRANCH  65  69
ATOM     69  S   UNL A   1      44.432  33.214  26.134  1.00  0.00     0.124 S 
ATOM     70  O   UNL A   1      45.353  34.035  25.358  1.00  0.00    -0.237 OA
ATOM     71  O   UNL A   1      43.689  32.204  25.386  1.00  0.00    -0.237 OA
ATOM     72  O   UNL A   1      43.630  33.956  27.110  1.00  0.00    -0.744 OA
ENDBRANCH  65  69
ENDBRANCH  39  62
ENDBRANCH  13  14
ENDBRANCH   6   8
ENDBRANCH   3   4
ENDBRANCH   2   3
ENDBRANCH   1   2
BRANCH   1  73
ATOM     73  C   UNL A   1      33.403  36.642  29.782  1.00  0.00     0.116 C 
BRANCH  73  74
ATOM     74  N   UNL A   1      32.544  36.755  30.951  1.00  0.00    -0.351 N 
ATOM     75  C   UNL A   1      32.664  36.270  32.241  1.00  0.00     0.261 C 
ATOM     76  H   UNL A   1      31.722  37.272  30.793  1.00  0.00     0.163 HD
ATOM     77  O   UNL A   1      31.750  36.568  33.010  1.00  0.00    -0.268 OA
BRANCH  75  78
ATOM     78  C   UNL A   1      33.790  35.442  32.646  1.00  0.00     0.093 A 
ATOM     79  C   UNL A   1      35.126  35.739  32.862  1.00  0.00     0.040 A 
ATOM     80  S   UNL A   1      33.474  33.788  33.013  1.00  0.00    -0.137 S 
ATOM     81  C   UNL A   1      35.918  34.565  33.064  1.00  0.00     0.019 A 
ATOM     82  C   UNL A   1      35.137  33.441  33.214  1.00  0.00     0.080 A 
BRANCH  81  83
ATOM     83  S   UNL A   1      37.683  34.492  33.067  1.00  0.00    -0.123 SA
BRANCH  83  84
ATOM     84  C   UNL A   1      38.048  32.860  32.323  1.00  0.00     0.098 C 
BRANCH  84  85
ATOM     85  C   UNL A   1      39.506  32.368  32.253  1.00  0.00     0.155 C 
BRANCH  85  86
ATOM     86  N   UNL A   1      40.539  33.243  31.740  1.00  0.00    -0.272 N 
ATOM     87  C   UNL A   1      41.303  34.116  32.467  1.00  0.00     0.108 A 
ATOM     88  N   UNL A   1      40.881  33.231  30.452  1.00  0.00    -0.182 NA
ATOM     89  C   UNL A   1      42.243  34.624  31.596  1.00  0.00     0.042 A 
ATOM     90  C   UNL A   1      41.945  34.024  30.366  1.00  0.00     0.135 A 
ENDBRANCH  85  86
ENDBRANCH  84  85
ENDBRANCH  83  84
ENDBRANCH  81  83
ENDBRANCH  75  78
ENDBRANCH  73  74
ENDBRANCH   1  73
TORSDOF 18
ENDMDL
