MODEL 1
REMARK VINA RESULT:     -11.8      0.000      0.000
REMARK SMILES C[C@H](CNS(=O)(=O)c1ccc(C(=O)NCCCCNC(=O)c2ccc(-c3c4nc(c(-c5cc(S(=O)(=O)[O-])ccc5F)c5ccc([nH]5)c(-c5cc(S(=O)(=O)[O-])ccc5F)c5nc(c(-c6cc(S(=O)(=O)[O-])ccc6F)c6ccc3[nH]6)C=C5)C=C4)cc2)o1)c1ccccc1
REMARK SMILES IDX 15 1 14 2 12 3 13 4 11 6 8 7 9 8 85 9 10 10 5 11 6 12 7 13
REMARK SMILES IDX 4 14 3 16 2 17 1 18 86 19 87 20 91 21 88 22 90 23 89 24
REMARK SMILES IDX 16 25 17 26 18 27 19 28 20 29 21 31 22 32 23 33 84 34 24 35
REMARK SMILES IDX 83 36 25 37 26 38 27 39 77 40 28 41 82 42 76 43 78 44 29 45
REMARK SMILES IDX 81 46 75 47 74 48 30 50 62 51 42 52 61 53 43 54 46 55 60 56
REMARK SMILES IDX 79 57 44 58 45 59 59 61 80 62 47 63 31 64 32 65 40 66 33 67
REMARK SMILES IDX 39 68 41 69 38 70 34 71 35 72 36 73 37 74 63 75 64 76 72 77
REMARK SMILES IDX 65 78 71 79 73 80 70 81 66 82 67 83 68 84 69 85 48 86 49 87
REMARK SMILES IDX 57 88 50 89 56 90 58 91 55 92 51 93 52 94 53 95 54 96
REMARK H PARENT 14 5 4 15 19 30 78 49 46 60
REMARK Flexibility Score: inf
ROOT
ATOM      1  C   UNL A   1      31.699  29.973  25.286  1.00  0.00     0.116 C 
ENDROOT
BRANCH   1   2
ATOM      2  N   UNL A   1      30.665  30.333  24.341  1.00  0.00    -0.349 N 
ATOM      3  C   UNL A   1      29.954  29.576  23.441  1.00  0.00     0.287 C 
ATOM      4  O   UNL A   1      29.084  30.177  22.806  1.00  0.00    -0.266 OA
ATOM      5  H   UNL A   1      30.428  31.289  24.344  1.00  0.00     0.163 HD
BRANCH   3   6
ATOM      6  C   UNL A   1      30.211  28.156  23.260  1.00  0.00     0.193 A 
ATOM      7  C   UNL A   1      31.335  26.464  22.311  1.00  0.00     0.234 A 
ATOM      8  C   UNL A   1      30.387  25.914  23.160  1.00  0.00     0.065 A 
ATOM      9  O   UNL A   1      31.212  27.830  22.375  1.00  0.00    -0.438 OA
ATOM     10  C   UNL A   1      29.705  26.982  23.785  1.00  0.00     0.058 A 
BRANCH   7  11
ATOM     11  S   UNL A   1      32.560  25.663  21.289  1.00  0.00     0.274 S 
ATOM     12  O   UNL A   1      33.833  26.288  21.578  1.00  0.00    -0.204 OA
ATOM     13  O   UNL A   1      31.997  25.607  19.962  1.00  0.00    -0.204 OA
BRANCH  11  14
ATOM     14  N   UNL A   1      32.644  24.064  21.831  1.00  0.00    -0.208 NA
ATOM     15  H   UNL A   1      31.884  23.926  22.499  1.00  0.00     0.141 HD
BRANCH  14  16
ATOM     16  C   UNL A   1      33.898  23.636  22.490  1.00  0.00     0.107 C 
BRANCH  16  17
ATOM     17  C   UNL A   1      33.684  23.255  23.985  1.00  0.00     0.031 C 
ATOM     18  C   UNL A   1      34.903  22.493  24.544  1.00  0.00     0.014 C 
BRANCH  17  19
ATOM     19  C   UNL A   1      33.286  24.453  24.862  1.00  0.00    -0.044 A 
ATOM     20  C   UNL A   1      32.147  24.401  25.689  1.00  0.00     0.004 A 
ATOM     21  C   UNL A   1      34.007  25.661  24.849  1.00  0.00     0.004 A 
ATOM     22  C   UNL A   1      31.796  25.468  26.521  1.00  0.00     0.000 A 
ATOM     23  C   UNL A   1      33.657  26.729  25.683  1.00  0.00     0.000 A 
ATOM     24  C   UNL A   1      32.560  26.628  26.529  1.00  0.00     0.000 A 
ENDBRANCH  17  19
ENDBRANCH  16  17
ENDBRANCH  14  16
ENDBRANCH  11  14
ENDBRANCH   7  11
ENDBRANCH   3   6
ENDBRANCH   1   2
BRANCH   1  25
ATOM     25  C   UNL A   1      31.450  30.610  26.654  1.00  0.00     0.023 C 
BRANCH  25  26
ATOM     26  C   UNL A   1      31.439  32.144  26.640  1.00  0.00     0.023 C 
BRANCH  26  27
ATOM     27  C   UNL A   1      32.733  32.810  27.103  1.00  0.00     0.116 C 
BRANCH  27  28
ATOM     28  N   UNL A   1      32.521  34.110  27.720  1.00  0.00    -0.352 N 
ATOM     29  C   UNL A   1      33.208  34.684  28.763  1.00  0.00     0.251 C 
ATOM     30  H   UNL A   1      31.790  34.649  27.341  1.00  0.00     0.163 HD
ATOM     31  O   UNL A   1      32.823  35.750  29.233  1.00  0.00    -0.269 OA
BRANCH  29  32
ATOM     32  C   UNL A   1      34.376  33.985  29.341  1.00  0.00     0.039 A 
ATOM     33  C   UNL A   1      35.656  34.403  28.973  1.00  0.00     0.014 A 
ATOM     34  C   UNL A   1      34.208  32.942  30.257  1.00  0.00     0.014 A 
ATOM     35  C   UNL A   1      36.774  33.820  29.575  1.00  0.00     0.010 A 
ATOM     36  C   UNL A   1      35.320  32.399  30.895  1.00  0.00     0.010 A 
ATOM     37  C   UNL A   1      36.612  32.838  30.565  1.00  0.00    -0.014 A 
BRANCH  37  38
ATOM     38  C   UNL A   1      37.781  32.257  31.271  1.00  0.00     0.031 A 
ATOM     39  C   UNL A   1      38.542  31.117  30.654  1.00  0.00     0.074 A 
ATOM     40  C   UNL A   1      38.106  32.704  32.500  1.00  0.00     0.049 A 
ATOM     41  N   UNL A   1      39.522  30.408  31.152  1.00  0.00    -0.248 NA
ATOM     42  C   UNL A   1      38.120  30.702  29.308  1.00  0.00     0.031 C 
ATOM     43  C   UNL A   1      37.414  33.777  33.219  1.00  0.00     0.029 A 
ATOM     44  N   UNL A   1      39.090  32.305  33.368  1.00  0.00    -0.354 N 
ATOM     45  C   UNL A   1      39.823  29.450  30.189  1.00  0.00     0.074 A 
ATOM     46  C   UNL A   1      38.885  29.641  29.103  1.00  0.00     0.031 C 
ATOM     47  C   UNL A   1      38.001  33.955  34.413  1.00  0.00     0.029 A 
ATOM     48  C   UNL A   1      39.086  32.989  34.561  1.00  0.00     0.049 A 
ATOM     49  H   UNL A   1      39.739  31.594  33.157  1.00  0.00     0.167 HD
ATOM     50  C   UNL A   1      40.802  28.511  30.204  1.00  0.00     0.034 A 
ATOM     51  C   UNL A   1      39.860  32.844  35.655  1.00  0.00     0.034 A 
ATOM     52  C   UNL A   1      41.739  28.346  31.289  1.00  0.00     0.049 A 
ATOM     53  C   UNL A   1      40.942  31.798  35.648  1.00  0.00     0.074 A 
ATOM     54  C   UNL A   1      42.804  27.466  31.385  1.00  0.00     0.029 A 
ATOM     55  N   UNL A   1      41.721  29.075  32.471  1.00  0.00    -0.354 N 
ATOM     56  N   UNL A   1      41.244  30.927  34.713  1.00  0.00    -0.248 NA
ATOM     57  C   UNL A   1      41.797  31.722  36.840  1.00  0.00     0.031 C 
ATOM     58  C   UNL A   1      43.396  27.628  32.644  1.00  0.00     0.029 A 
ATOM     59  C   UNL A   1      42.741  28.651  33.310  1.00  0.00     0.049 A 
ATOM     60  H   UNL A   1      41.077  29.790  32.683  1.00  0.00     0.167 HD
ATOM     61  C   UNL A   1      42.339  30.218  35.194  1.00  0.00     0.074 A 
ATOM     62  C   UNL A   1      42.651  30.770  36.497  1.00  0.00     0.031 C 
ATOM     63  C   UNL A   1      43.030  29.206  34.611  1.00  0.00     0.034 A 
BRANCH  50  64
ATOM     64  C   UNL A   1      40.882  27.580  29.019  1.00  0.00     0.023 A 
ATOM     65  C   UNL A   1      41.823  27.775  27.991  1.00  0.00     0.031 A 
ATOM     66  C   UNL A   1      39.980  26.510  28.890  1.00  0.00     0.131 A 
ATOM     67  C   UNL A   1      41.787  26.968  26.845  1.00  0.00     0.055 A 
ATOM     68  C   UNL A   1      40.002  25.659  27.783  1.00  0.00     0.041 A 
ATOM     69  F   UNL A   1      39.047  26.286  29.829  1.00  0.00    -0.206 F 
ATOM     70  C   UNL A   1      40.897  25.895  26.745  1.00  0.00     0.022 A 
BRANCH  67  71
ATOM     71  S   UNL A   1      42.817  27.433  25.427  1.00  0.00     0.124 S 
ATOM     72  O   UNL A   1      42.834  26.192  24.657  1.00  0.00    -0.237 OA
ATOM     73  O   UNL A   1      42.066  28.538  24.842  1.00  0.00    -0.237 OA
ATOM     74  O   UNL A   1      44.094  27.798  26.036  1.00  0.00    -0.744 OA
ENDBRANCH  67  71
ENDBRANCH  50  64
BRANCH  51  75
ATOM     75  C   UNL A   1      39.640  33.702  36.851  1.00  0.00     0.023 A 
ATOM     76  C   UNL A   1      38.995  33.199  37.991  1.00  0.00     0.031 A 
ATOM     77  C   UNL A   1      40.042  35.050  36.858  1.00  0.00     0.131 A 
ATOM     78  C   UNL A   1      38.731  34.048  39.076  1.00  0.00     0.055 A 
ATOM     79  C   UNL A   1      39.816  35.879  37.957  1.00  0.00     0.041 A 
ATOM     80  F   UNL A   1      40.673  35.575  35.795  1.00  0.00    -0.206 F 
ATOM     81  C   UNL A   1      39.145  35.382  39.071  1.00  0.00     0.022 A 
BRANCH  78  82
ATOM     82  S   UNL A   1      37.775  33.398  40.473  1.00  0.00     0.124 S 
ATOM     83  O   UNL A   1      37.657  34.574  41.328  1.00  0.00    -0.237 OA
ATOM     84  O   UNL A   1      36.548  32.954  39.820  1.00  0.00    -0.237 OA
ATOM     85  O   UNL A   1      38.622  32.328  40.997  1.00  0.00    -0.744 OA
ENDBRANCH  78  82
ENDBRANCH  51  75
BRANCH  63  86
ATOM     86  C   UNL A   1      44.216  28.668  35.368  1.00  0.00     0.023 A 
ATOM     87  C   UNL A   1      44.080  27.649  36.327  1.00  0.00     0.031 A 
ATOM     88  C   UNL A   1      45.497  29.198  35.138  1.00  0.00     0.131 A 
ATOM     89  C   UNL A   1      45.201  27.225  37.057  1.00  0.00     0.055 A 
ATOM     90  C   UNL A   1      46.618  28.737  35.831  1.00  0.00     0.041 A 
ATOM     91  F   UNL A   1      45.680  30.174  34.233  1.00  0.00    -0.206 F 
ATOM     92  C   UNL A   1      46.470  27.754  36.805  1.00  0.00     0.022 A 
BRANCH  89  93
ATOM     93  S   UNL A   1      44.966  26.026  38.397  1.00  0.00     0.124 S 
ATOM     94  O   UNL A   1      43.764  26.533  39.051  1.00  0.00    -0.237 OA
ATOM     95  O   UNL A   1      44.812  24.770  37.670  1.00  0.00    -0.237 OA
ATOM     96  O   UNL A   1      46.194  26.142  39.180  1.00  0.00    -0.744 OA
ENDBRANCH  89  93
ENDBRANCH  63  86
ENDBRANCH  37  38
ENDBRANCH  29  32
ENDBRANCH  27  28
ENDBRANCH  26  27
ENDBRANCH  25  26
ENDBRANCH   1  25
TORSDOF 19
ENDMDL
MODEL 2
REMARK VINA RESULT:     -11.6      1.249      2.862
REMARK SMILES C[C@H](CNS(=O)(=O)c1ccc(C(=O)NCCCCNC(=O)c2ccc(-c3c4nc(c(-c5cc(S(=O)(=O)[O-])ccc5F)c5ccc([nH]5)c(-c5cc(S(=O)(=O)[O-])ccc5F)c5nc(c(-c6cc(S(=O)(=O)[O-])ccc6F)c6ccc3[nH]6)C=C5)C=C4)cc2)o1)c1ccccc1
REMARK SMILES IDX 15 1 14 2 12 3 13 4 11 6 8 7 9 8 85 9 10 10 5 11 6 12 7 13
REMARK SMILES IDX 4 14 3 16 2 17 1 18 86 19 87 20 91 21 88 22 90 23 89 24
REMARK SMILES IDX 16 25 17 26 18 27 19 28 20 29 21 31 22 32 23 33 84 34 24 35
REMARK SMILES IDX 83 36 25 37 26 38 27 39 77 40 28 41 82 42 76 43 78 44 29 45
REMARK SMILES IDX 81 46 75 47 74 48 30 50 62 51 42 52 61 53 43 54 46 55 60 56
REMARK SMILES IDX 79 57 44 58 45 59 59 61 80 62 47 63 31 64 32 65 40 66 33 67
REMARK SMILES IDX 39 68 41 69 38 70 34 71 35 72 36 73 37 74 63 75 64 76 72 77
REMARK SMILES IDX 65 78 71 79 73 80 70 81 66 82 67 83 68 84 69 85 48 86 49 87
REMARK SMILES IDX 57 88 50 89 56 90 58 91 55 92 51 93 52 94 53 95 54 96
REMARK H PARENT 14 5 4 15 19 30 78 49 46 60
REMARK Flexibility Score: inf
ROOT
ATOM      1  C   UNL A   1      31.789  29.854  27.243  1.00  0.00     0.116 C 
ENDROOT
BRANCH   1   2
ATOM      2  N   UNL A   1      33.196  29.519  27.268  1.00  0.00    -0.349 N 
ATOM      3  C   UNL A   1      33.892  28.481  26.695  1.00  0.00     0.287 C 
ATOM      4  O   UNL A   1      35.115  28.504  26.855  1.00  0.00    -0.266 OA
ATOM      5  H   UNL A   1      33.753  30.145  27.786  1.00  0.00     0.163 HD
BRANCH   3   6
ATOM      6  C   UNL A   1      33.224  27.431  25.943  1.00  0.00     0.193 A 
ATOM      7  C   UNL A   1      32.697  26.422  24.013  1.00  0.00     0.234 A 
ATOM      8  C   UNL A   1      32.085  25.714  25.035  1.00  0.00     0.065 A 
ATOM      9  O   UNL A   1      33.380  27.469  24.579  1.00  0.00    -0.438 OA
ATOM     10  C   UNL A   1      32.448  26.329  26.255  1.00  0.00     0.058 A 
BRANCH   7  11
ATOM     11  S   UNL A   1      32.696  26.123  22.252  1.00  0.00     0.274 S 
ATOM     12  O   UNL A   1      32.326  24.738  22.053  1.00  0.00    -0.204 OA
ATOM     13  O   UNL A   1      33.926  26.686  21.751  1.00  0.00    -0.204 OA
BRANCH  11  14
ATOM     14  N   UNL A   1      31.452  27.077  21.619  1.00  0.00    -0.208 NA
ATOM     15  H   UNL A   1      31.768  27.433  20.716  1.00  0.00     0.141 HD
BRANCH  14  16
ATOM     16  C   UNL A   1      31.009  28.237  22.424  1.00  0.00     0.107 C 
BRANCH  16  17
ATOM     17  C   UNL A   1      29.464  28.430  22.390  1.00  0.00     0.031 C 
ATOM     18  C   UNL A   1      28.779  27.629  23.516  1.00  0.00     0.014 C 
BRANCH  17  19
ATOM     19  C   UNL A   1      29.041  29.908  22.378  1.00  0.00    -0.044 A 
ATOM     20  C   UNL A   1      28.549  30.513  21.205  1.00  0.00     0.004 A 
ATOM     21  C   UNL A   1      29.164  30.730  23.513  1.00  0.00     0.004 A 
ATOM     22  C   UNL A   1      28.123  31.845  21.190  1.00  0.00     0.000 A 
ATOM     23  C   UNL A   1      28.737  32.062  23.500  1.00  0.00     0.000 A 
ATOM     24  C   UNL A   1      28.204  32.616  22.342  1.00  0.00     0.000 A 
ENDBRANCH  17  19
ENDBRANCH  16  17
ENDBRANCH  14  16
ENDBRANCH  11  14
ENDBRANCH   7  11
ENDBRANCH   3   6
ENDBRANCH   1   2
BRANCH   1  25
ATOM     25  C   UNL A   1      31.479  30.869  26.143  1.00  0.00     0.023 C 
BRANCH  25  26
ATOM     26  C   UNL A   1      31.403  32.322  26.631  1.00  0.00     0.023 C 
BRANCH  26  27
ATOM     27  C   UNL A   1      32.702  32.886  27.203  1.00  0.00     0.116 C 
BRANCH  27  28
ATOM     28  N   UNL A   1      32.546  34.212  27.782  1.00  0.00    -0.352 N 
ATOM     29  C   UNL A   1      33.264  34.789  28.802  1.00  0.00     0.251 C 
ATOM     30  H   UNL A   1      31.833  34.767  27.393  1.00  0.00     0.163 HD
ATOM     31  O   UNL A   1      32.926  35.882  29.242  1.00  0.00    -0.269 OA
BRANCH  29  32
ATOM     32  C   UNL A   1      34.409  34.063  29.391  1.00  0.00     0.039 A 
ATOM     33  C   UNL A   1      35.702  34.422  29.003  1.00  0.00     0.014 A 
ATOM     34  C   UNL A   1      34.210  33.052  30.335  1.00  0.00     0.014 A 
ATOM     35  C   UNL A   1      36.801  33.814  29.613  1.00  0.00     0.010 A 
ATOM     36  C   UNL A   1      35.306  32.485  30.980  1.00  0.00     0.010 A 
ATOM     37  C   UNL A   1      36.611  32.865  30.630  1.00  0.00    -0.014 A 
BRANCH  37  38
ATOM     38  C   UNL A   1      37.763  32.260  31.345  1.00  0.00     0.031 A 
ATOM     39  C   UNL A   1      38.518  31.120  30.722  1.00  0.00     0.074 A 
ATOM     40  C   UNL A   1      38.076  32.686  32.584  1.00  0.00     0.049 A 
ATOM     41  N   UNL A   1      39.482  30.391  31.223  1.00  0.00    -0.248 NA
ATOM     42  C   UNL A   1      38.109  30.729  29.364  1.00  0.00     0.031 C 
ATOM     43  C   UNL A   1      37.387  33.757  33.308  1.00  0.00     0.029 A 
ATOM     44  N   UNL A   1      39.043  32.262  33.459  1.00  0.00    -0.354 N 
ATOM     45  C   UNL A   1      39.785  29.443  30.251  1.00  0.00     0.074 A 
ATOM     46  C   UNL A   1      38.865  29.661  29.154  1.00  0.00     0.031 C 
ATOM     47  C   UNL A   1      37.960  33.911  34.513  1.00  0.00     0.029 A 
ATOM     48  C   UNL A   1      39.030  32.929  34.662  1.00  0.00     0.049 A 
ATOM     49  H   UNL A   1      39.685  31.547  33.247  1.00  0.00     0.167 HD
ATOM     50  C   UNL A   1      40.752  28.492  30.266  1.00  0.00     0.034 A 
ATOM     51  C   UNL A   1      39.787  32.760  35.764  1.00  0.00     0.034 A 
ATOM     52  C   UNL A   1      41.671  28.300  31.361  1.00  0.00     0.049 A 
ATOM     53  C   UNL A   1      40.856  31.700  35.757  1.00  0.00     0.074 A 
ATOM     54  C   UNL A   1      42.724  27.406  31.459  1.00  0.00     0.029 A 
ATOM     55  N   UNL A   1      41.646  29.013  32.553  1.00  0.00    -0.354 N 
ATOM     56  N   UNL A   1      41.160  30.839  34.814  1.00  0.00    -0.248 NA
ATOM     57  C   UNL A   1      41.693  31.597  36.960  1.00  0.00     0.031 C 
ATOM     58  C   UNL A   1      43.300  27.543  32.729  1.00  0.00     0.029 A 
ATOM     59  C   UNL A   1      42.649  28.564  33.400  1.00  0.00     0.049 A 
ATOM     60  H   UNL A   1      41.008  29.732  32.766  1.00  0.00     0.167 HD
ATOM     61  C   UNL A   1      42.240  30.109  35.301  1.00  0.00     0.074 A 
ATOM     62  C   UNL A   1      42.541  30.639  36.615  1.00  0.00     0.031 C 
ATOM     63  C   UNL A   1      42.926  29.097  34.712  1.00  0.00     0.034 A 
BRANCH  50  64
ATOM     64  C   UNL A   1      40.837  27.577  29.069  1.00  0.00     0.023 A 
ATOM     65  C   UNL A   1      41.796  27.773  28.059  1.00  0.00     0.031 A 
ATOM     66  C   UNL A   1      39.922  26.522  28.911  1.00  0.00     0.131 A 
ATOM     67  C   UNL A   1      41.766  26.983  26.901  1.00  0.00     0.055 A 
ATOM     68  C   UNL A   1      39.949  25.686  27.793  1.00  0.00     0.041 A 
ATOM     69  F   UNL A   1      38.972  26.297  29.833  1.00  0.00    -0.206 F 
ATOM     70  C   UNL A   1      40.863  25.925  26.771  1.00  0.00     0.022 A 
BRANCH  67  71
ATOM     71  S   UNL A   1      42.824  27.453  25.505  1.00  0.00     0.124 S 
ATOM     72  O   UNL A   1      42.136  28.639  25.001  1.00  0.00    -0.237 OA
ATOM     73  O   UNL A   1      44.112  27.686  26.150  1.00  0.00    -0.237 OA
ATOM     74  O   UNL A   1      42.769  26.288  24.625  1.00  0.00    -0.744 OA
ENDBRANCH  67  71
ENDBRANCH  50  64
BRANCH  51  75
ATOM     75  C   UNL A   1      39.561  33.604  36.969  1.00  0.00     0.023 A 
ATOM     76  C   UNL A   1      38.974  33.067  38.126  1.00  0.00     0.031 A 
ATOM     77  C   UNL A   1      39.899  34.969  36.969  1.00  0.00     0.131 A 
ATOM     78  C   UNL A   1      38.701  33.901  39.221  1.00  0.00     0.055 A 
ATOM     79  C   UNL A   1      39.665  35.784  38.078  1.00  0.00     0.041 A 
ATOM     80  F   UNL A   1      40.473  35.526  35.891  1.00  0.00    -0.206 F 
ATOM     81  C   UNL A   1      39.051  35.253  39.208  1.00  0.00     0.022 A 
BRANCH  78  82
ATOM     82  S   UNL A   1      37.817  33.203  40.642  1.00  0.00     0.124 S 
ATOM     83  O   UNL A   1      36.462  33.077  40.119  1.00  0.00    -0.237 OA
ATOM     84  O   UNL A   1      38.539  31.953  40.863  1.00  0.00    -0.237 OA
ATOM     85  O   UNL A   1      37.994  34.213  41.683  1.00  0.00    -0.744 OA
ENDBRANCH  78  82
ENDBRANCH  51  75
BRANCH  63  86
ATOM     86  C   UNL A   1      44.096  28.534  35.478  1.00  0.00     0.023 A 
ATOM     87  C   UNL A   1      43.945  27.455  36.367  1.00  0.00     0.031 A 
ATOM     88  C   UNL A   1      45.373  29.099  35.328  1.00  0.00     0.131 A 
ATOM     89  C   UNL A   1      45.048  27.006  37.111  1.00  0.00     0.055 A 
ATOM     90  C   UNL A   1      46.477  28.615  36.032  1.00  0.00     0.041 A 
ATOM     91  F   UNL A   1      45.569  30.132  34.492  1.00  0.00    -0.206 F 
ATOM     92  C   UNL A   1      46.314  27.571  36.938  1.00  0.00     0.022 A 
BRANCH  89  93
ATOM     93  S   UNL A   1      44.788  25.723  38.366  1.00  0.00     0.124 S 
ATOM     94  O   UNL A   1      43.809  26.352  39.246  1.00  0.00    -0.237 OA
ATOM     95  O   UNL A   1      44.300  24.601  37.569  1.00  0.00    -0.237 OA
ATOM     96  O   UNL A   1      46.116  25.538  38.947  1.00  0.00    -0.744 OA
ENDBRANCH  89  93
ENDBRANCH  63  86
ENDBRANCH  37  38
ENDBRANCH  29  32
ENDBRANCH  27  28
ENDBRANCH  26  27
ENDBRANCH  25  26
ENDBRANCH   1  25
TORSDOF 19
ENDMDL
MODEL 3
REMARK VINA RESULT:     -11.6      1.914      2.617
REMARK SMILES C[C@H](CNS(=O)(=O)c1ccc(C(=O)NCCCCNC(=O)c2ccc(-c3c4nc(c(-c5cc(S(=O)(=O)[O-])ccc5F)c5ccc([nH]5)c(-c5cc(S(=O)(=O)[O-])ccc5F)c5nc(c(-c6cc(S(=O)(=O)[O-])ccc6F)c6ccc3[nH]6)C=C5)C=C4)cc2)o1)c1ccccc1
REMARK SMILES IDX 15 1 14 2 12 3 13 4 11 6 8 7 9 8 85 9 10 10 5 11 6 12 7 13
REMARK SMILES IDX 4 14 3 16 2 17 1 18 86 19 87 20 91 21 88 22 90 23 89 24
REMARK SMILES IDX 16 25 17 26 18 27 19 28 20 29 21 31 22 32 23 33 84 34 24 35
REMARK SMILES IDX 83 36 25 37 26 38 27 39 77 40 28 41 82 42 76 43 78 44 29 45
REMARK SMILES IDX 81 46 75 47 74 48 30 50 62 51 42 52 61 53 43 54 46 55 60 56
REMARK SMILES IDX 79 57 44 58 45 59 59 61 80 62 47 63 31 64 32 65 40 66 33 67
REMARK SMILES IDX 39 68 41 69 38 70 34 71 35 72 36 73 37 74 63 75 64 76 72 77
REMARK SMILES IDX 65 78 71 79 73 80 70 81 66 82 67 83 68 84 69 85 48 86 49 87
REMARK SMILES IDX 57 88 50 89 56 90 58 91 55 92 51 93 52 94 53 95 54 96
REMARK H PARENT 14 5 4 15 19 30 78 49 46 60
REMARK Flexibility Score: inf
ROOT
ATOM      1  C   UNL A   1      33.299  29.485  26.511  1.00  0.00     0.116 C 
ENDROOT
BRANCH   1   2
ATOM      2  N   UNL A   1      33.439  29.470  25.072  1.00  0.00    -0.349 N 
ATOM      3  C   UNL A   1      32.839  28.693  24.110  1.00  0.00     0.287 C 
ATOM      4  O   UNL A   1      33.131  28.967  22.942  1.00  0.00    -0.266 OA
ATOM      5  H   UNL A   1      34.076  30.134  24.719  1.00  0.00     0.163 HD
BRANCH   3   6
ATOM      6  C   UNL A   1      31.916  27.624  24.452  1.00  0.00     0.193 A 
ATOM      7  C   UNL A   1      31.474  25.609  25.329  1.00  0.00     0.234 A 
ATOM      8  C   UNL A   1      30.280  26.129  24.853  1.00  0.00     0.065 A 
ATOM      9  O   UNL A   1      32.462  26.526  25.071  1.00  0.00    -0.438 OA
ATOM     10  C   UNL A   1      30.553  27.415  24.334  1.00  0.00     0.058 A 
BRANCH   7  11
ATOM     11  S   UNL A   1      31.799  24.063  26.160  1.00  0.00     0.274 S 
ATOM     12  O   UNL A   1      30.896  23.985  27.289  1.00  0.00    -0.204 OA
ATOM     13  O   UNL A   1      33.232  23.976  26.295  1.00  0.00    -0.204 OA
BRANCH  11  14
ATOM     14  N   UNL A   1      31.356  22.847  25.071  1.00  0.00    -0.208 NA
ATOM     15  H   UNL A   1      30.350  22.704  25.164  1.00  0.00     0.141 HD
BRANCH  14  16
ATOM     16  C   UNL A   1      32.009  21.528  25.225  1.00  0.00     0.107 C 
BRANCH  16  17
ATOM     17  C   UNL A   1      32.877  21.147  23.989  1.00  0.00     0.031 C 
ATOM     18  C   UNL A   1      32.239  21.663  22.682  1.00  0.00     0.014 C 
BRANCH  17  19
ATOM     19  C   UNL A   1      34.348  21.569  24.132  1.00  0.00    -0.044 A 
ATOM     20  C   UNL A   1      35.224  20.869  24.983  1.00  0.00     0.004 A 
ATOM     21  C   UNL A   1      34.873  22.688  23.459  1.00  0.00     0.004 A 
ATOM     22  C   UNL A   1      36.574  21.218  25.092  1.00  0.00     0.000 A 
ATOM     23  C   UNL A   1      36.224  23.035  23.566  1.00  0.00     0.000 A 
ATOM     24  C   UNL A   1      37.078  22.293  24.372  1.00  0.00     0.000 A 
ENDBRANCH  17  19
ENDBRANCH  16  17
ENDBRANCH  14  16
ENDBRANCH  11  14
ENDBRANCH   7  11
ENDBRANCH   3   6
ENDBRANCH   1   2
BRANCH   1  25
ATOM     25  C   UNL A   1      31.957  30.084  26.933  1.00  0.00     0.023 C 
BRANCH  25  26
ATOM     26  C   UNL A   1      31.860  31.604  26.742  1.00  0.00     0.023 C 
BRANCH  26  27
ATOM     27  C   UNL A   1      33.028  32.409  27.310  1.00  0.00     0.116 C 
BRANCH  27  28
ATOM     28  N   UNL A   1      32.670  33.777  27.650  1.00  0.00    -0.352 N 
ATOM     29  C   UNL A   1      33.219  34.589  28.614  1.00  0.00     0.251 C 
ATOM     30  H   UNL A   1      31.939  34.172  27.122  1.00  0.00     0.163 HD
ATOM     31  O   UNL A   1      32.719  35.686  28.842  1.00  0.00    -0.269 OA
BRANCH  29  32
ATOM     32  C   UNL A   1      34.376  34.111  29.399  1.00  0.00     0.039 A 
ATOM     33  C   UNL A   1      34.143  33.308  30.517  1.00  0.00     0.014 A 
ATOM     34  C   UNL A   1      35.683  34.435  29.022  1.00  0.00     0.014 A 
ATOM     35  C   UNL A   1      35.222  32.770  31.220  1.00  0.00     0.010 A 
ATOM     36  C   UNL A   1      36.758  33.855  29.691  1.00  0.00     0.010 A 
ATOM     37  C   UNL A   1      36.537  33.012  30.792  1.00  0.00    -0.014 A 
BRANCH  37  38
ATOM     38  C   UNL A   1      37.698  32.391  31.478  1.00  0.00     0.031 A 
ATOM     39  C   UNL A   1      38.437  31.256  30.827  1.00  0.00     0.074 A 
ATOM     40  C   UNL A   1      38.034  32.799  32.718  1.00  0.00     0.049 A 
ATOM     41  N   UNL A   1      39.405  30.516  31.302  1.00  0.00    -0.248 NA
ATOM     42  C   UNL A   1      38.004  30.886  29.471  1.00  0.00     0.031 C 
ATOM     43  C   UNL A   1      37.362  33.863  33.468  1.00  0.00     0.029 A 
ATOM     44  N   UNL A   1      39.013  32.358  33.571  1.00  0.00    -0.354 N 
ATOM     45  C   UNL A   1      39.687  29.580  30.312  1.00  0.00     0.074 A 
ATOM     46  C   UNL A   1      38.750  29.818  29.234  1.00  0.00     0.031 C 
ATOM     47  C   UNL A   1      37.956  33.997  34.665  1.00  0.00     0.029 A 
ATOM     48  C   UNL A   1      39.023  33.008  34.783  1.00  0.00     0.049 A 
ATOM     49  H   UNL A   1      39.648  31.642  33.339  1.00  0.00     0.167 HD
ATOM     50  C   UNL A   1      40.650  28.624  30.298  1.00  0.00     0.034 A 
ATOM     51  C   UNL A   1      39.797  32.820  35.870  1.00  0.00     0.034 A 
ATOM     52  C   UNL A   1      41.586  28.412  31.375  1.00  0.00     0.049 A 
ATOM     53  C   UNL A   1      40.860  31.755  35.831  1.00  0.00     0.074 A 
ATOM     54  C   UNL A   1      42.635  27.512  31.444  1.00  0.00     0.029 A 
ATOM     55  N   UNL A   1      41.583  29.108  32.577  1.00  0.00    -0.354 N 
ATOM     56  N   UNL A   1      41.144  30.906  34.871  1.00  0.00    -0.248 NA
ATOM     57  C   UNL A   1      41.717  31.630  37.018  1.00  0.00     0.031 C 
ATOM     58  C   UNL A   1      43.233  27.628  32.705  1.00  0.00     0.029 A 
ATOM     59  C   UNL A   1      42.597  28.643  33.401  1.00  0.00     0.049 A 
ATOM     60  H   UNL A   1      40.953  29.828  32.811  1.00  0.00     0.167 HD
ATOM     61  C   UNL A   1      42.228  30.164  35.330  1.00  0.00     0.074 A 
ATOM     62  C   UNL A   1      42.553  30.674  36.646  1.00  0.00     0.031 C 
ATOM     63  C   UNL A   1      42.899  29.156  34.716  1.00  0.00     0.034 A 
BRANCH  50  64
ATOM     64  C   UNL A   1      40.710  27.726  29.087  1.00  0.00     0.023 A 
ATOM     65  C   UNL A   1      41.648  27.936  28.061  1.00  0.00     0.031 A 
ATOM     66  C   UNL A   1      39.792  26.673  28.934  1.00  0.00     0.131 A 
ATOM     67  C   UNL A   1      41.595  27.161  26.893  1.00  0.00     0.055 A 
ATOM     68  C   UNL A   1      39.796  25.852  27.804  1.00  0.00     0.041 A 
ATOM     69  F   UNL A   1      38.861  26.436  29.871  1.00  0.00    -0.206 F 
ATOM     70  C   UNL A   1      40.689  26.104  26.767  1.00  0.00     0.022 A 
BRANCH  67  71
ATOM     71  S   UNL A   1      42.625  27.650  25.483  1.00  0.00     0.124 S 
ATOM     72  O   UNL A   1      43.909  27.905  26.131  1.00  0.00    -0.237 OA
ATOM     73  O   UNL A   1      42.564  26.473  24.624  1.00  0.00    -0.237 OA
ATOM     74  O   UNL A   1      41.951  28.838  24.962  1.00  0.00    -0.744 OA
ENDBRANCH  67  71
ENDBRANCH  50  64
BRANCH  51  75
ATOM     75  C   UNL A   1      39.595  33.648  37.091  1.00  0.00     0.023 A 
ATOM     76  C   UNL A   1      40.405  34.765  37.347  1.00  0.00     0.031 A 
ATOM     77  C   UNL A   1      38.608  33.313  38.035  1.00  0.00     0.131 A 
ATOM     78  C   UNL A   1      40.244  35.483  38.541  1.00  0.00     0.055 A 
ATOM     79  C   UNL A   1      38.424  34.057  39.202  1.00  0.00     0.041 A 
ATOM     80  F   UNL A   1      37.801  32.260  37.830  1.00  0.00    -0.206 F 
ATOM     81  C   UNL A   1      39.254  35.143  39.466  1.00  0.00     0.022 A 
BRANCH  78  82
ATOM     82  S   UNL A   1      41.399  36.835  38.901  1.00  0.00     0.124 S 
ATOM     83  O   UNL A   1      42.192  36.269  39.987  1.00  0.00    -0.237 OA
ATOM     84  O   UNL A   1      42.084  36.996  37.622  1.00  0.00    -0.237 OA
ATOM     85  O   UNL A   1      40.521  37.941  39.278  1.00  0.00    -0.744 OA
ENDBRANCH  78  82
ENDBRANCH  51  75
BRANCH  63  86
ATOM     86  C   UNL A   1      44.078  28.577  35.455  1.00  0.00     0.023 A 
ATOM     87  C   UNL A   1      43.925  27.544  36.396  1.00  0.00     0.031 A 
ATOM     88  C   UNL A   1      45.370  29.080  35.225  1.00  0.00     0.131 A 
ATOM     89  C   UNL A   1      45.040  27.080  37.110  1.00  0.00     0.055 A 
ATOM     90  C   UNL A   1      46.484  28.580  35.901  1.00  0.00     0.041 A 
ATOM     91  F   UNL A   1      45.569  30.068  34.337  1.00  0.00    -0.206 F 
ATOM     92  C   UNL A   1      46.320  27.583  36.858  1.00  0.00     0.022 A 
BRANCH  89  93
ATOM     93  S   UNL A   1      44.785  25.862  38.430  1.00  0.00     0.124 S 
ATOM     94  O   UNL A   1      43.885  26.574  39.330  1.00  0.00    -0.237 OA
ATOM     95  O   UNL A   1      44.203  24.735  37.707  1.00  0.00    -0.237 OA
ATOM     96  O   UNL A   1      46.131  25.635  38.950  1.00  0.00    -0.744 OA
ENDBRANCH  89  93
ENDBRANCH  63  86
ENDBRANCH  37  38
ENDBRANCH  29  32
ENDBRANCH  27  28
ENDBRANCH  26  27
ENDBRANCH  25  26
ENDBRANCH   1  25
TORSDOF 19
ENDMDL
