MODEL 1
REMARK VINA RESULT:     -12.1      0.000      0.000
REMARK SMILES CC(C)=CC(=O)Nc1ccc(C(=O)NCCCCNC(=O)c2ccc(-c3c4nc(c(-c5cc(S(=O)(=O)[O-])ccc5F)c5ccc([nH]5)c(-c5cc(S(=O)(=O)[O-])ccc5F)c5nc(c(-c6cc(S(=O)(=O)[O-])ccc6F)c6ccc3[nH]6)C=C5)C=C4)cc2)cc1
REMARK SMILES IDX 17 1 16 2 15 3 14 4 12 5 13 6 11 8 8 9 9 10 86 11 10 12
REMARK SMILES IDX 85 13 7 14 5 15 6 16 4 18 1 19 2 20 3 21 18 22 19 23 20 24
REMARK SMILES IDX 21 26 22 27 23 28 84 29 24 30 83 31 25 32 26 33 27 34 77 35
REMARK SMILES IDX 28 36 82 37 76 38 78 39 29 40 81 41 75 42 74 43 30 45 62 46
REMARK SMILES IDX 42 47 61 48 43 49 46 50 60 51 79 52 44 53 45 54 59 56 80 57
REMARK SMILES IDX 47 58 31 59 32 60 40 61 33 62 39 63 41 64 38 65 34 66 35 67
REMARK SMILES IDX 36 68 37 69 63 70 64 71 72 72 65 73 71 74 73 75 70 76 66 77
REMARK SMILES IDX 67 78 68 79 69 80 48 81 49 82 57 83 50 84 56 85 58 86 55 87
REMARK SMILES IDX 51 88 52 89 53 90 54 91
REMARK H PARENT 14 7 7 17 19 25 78 44 46 55
REMARK Flexibility Score: inf
ROOT
ATOM      1  C   UNL A   1      31.759  31.698  26.871  1.00  0.00     0.023 C 
ENDROOT
BRANCH   1   2
ATOM      2  C   UNL A   1      32.009  30.203  26.664  1.00  0.00     0.023 C 
BRANCH   2   3
ATOM      3  C   UNL A   1      33.392  29.879  26.094  1.00  0.00     0.116 C 
BRANCH   3   4
ATOM      4  N   UNL A   1      33.320  29.718  24.651  1.00  0.00    -0.352 N 
ATOM      5  C   UNL A   1      32.961  28.650  23.867  1.00  0.00     0.251 C 
ATOM      6  O   UNL A   1      32.980  28.786  22.645  1.00  0.00    -0.269 OA
ATOM      7  H   UNL A   1      33.574  30.523  24.144  1.00  0.00     0.163 HD
BRANCH   5   8
ATOM      8  C   UNL A   1      32.445  27.381  24.444  1.00  0.00     0.039 A 
ATOM      9  C   UNL A   1      31.298  25.342  25.959  1.00  0.00     0.041 A 
ATOM     10  C   UNL A   1      30.480  26.163  25.185  1.00  0.00     0.027 A 
ATOM     11  C   UNL A   1      32.681  25.403  25.815  1.00  0.00     0.027 A 
ATOM     12  C   UNL A   1      31.053  27.209  24.460  1.00  0.00     0.016 A 
ATOM     13  C   UNL A   1      33.251  26.397  25.021  1.00  0.00     0.016 A 
BRANCH   9  14
ATOM     14  N   UNL A   1      30.682  24.532  26.916  1.00  0.00    -0.323 N 
ATOM     15  C   UNL A   1      30.342  23.212  26.843  1.00  0.00     0.248 C 
ATOM     16  O   UNL A   1      29.626  22.720  27.716  1.00  0.00    -0.270 OA
ATOM     17  H   UNL A   1      30.462  24.977  27.766  1.00  0.00     0.170 HD
BRANCH  15  18
ATOM     18  C   UNL A   1      30.848  22.315  25.760  1.00  0.00     0.070 C 
ATOM     19  C   UNL A   1      33.204  21.778  26.583  1.00  0.00     0.039 C 
ATOM     20  C   UNL A   1      32.034  21.680  25.644  1.00  0.00    -0.071 C 
ATOM     21  C   UNL A   1      32.267  20.712  24.511  1.00  0.00     0.039 C 
ENDBRANCH  15  18
ENDBRANCH   9  14
ENDBRANCH   5   8
ENDBRANCH   3   4
ENDBRANCH   2   3
ENDBRANCH   1   2
BRANCH   1  22
ATOM     22  C   UNL A   1      32.944  32.473  27.433  1.00  0.00     0.116 C 
BRANCH  22  23
ATOM     23  N   UNL A   1      32.622  33.860  27.726  1.00  0.00    -0.352 N 
ATOM     24  C   UNL A   1      33.178  34.698  28.667  1.00  0.00     0.251 C 
ATOM     25  H   UNL A   1      31.908  34.255  27.175  1.00  0.00     0.163 HD
ATOM     26  O   UNL A   1      32.685  35.796  28.870  1.00  0.00    -0.269 OA
BRANCH  24  27
ATOM     27  C   UNL A   1      34.348  34.235  29.448  1.00  0.00     0.039 A 
ATOM     28  C   UNL A   1      34.127  33.529  30.633  1.00  0.00     0.014 A 
ATOM     29  C   UNL A   1      35.650  34.472  29.001  1.00  0.00     0.014 A 
ATOM     30  C   UNL A   1      35.213  32.998  31.331  1.00  0.00     0.010 A 
ATOM     31  C   UNL A   1      36.725  33.879  29.657  1.00  0.00     0.010 A 
ATOM     32  C   UNL A   1      36.518  33.135  30.829  1.00  0.00    -0.014 A 
BRANCH  32  33
ATOM     33  C   UNL A   1      37.677  32.504  31.513  1.00  0.00     0.031 A 
ATOM     34  C   UNL A   1      38.407  31.361  30.861  1.00  0.00     0.074 A 
ATOM     35  C   UNL A   1      38.033  32.920  32.746  1.00  0.00     0.049 A 
ATOM     36  N   UNL A   1      39.388  30.632  31.325  1.00  0.00    -0.248 NA
ATOM     37  C   UNL A   1      37.948  30.968  29.520  1.00  0.00     0.031 C 
ATOM     38  C   UNL A   1      37.377  33.992  33.497  1.00  0.00     0.029 A 
ATOM     39  N   UNL A   1      39.027  32.487  33.588  1.00  0.00    -0.354 N 
ATOM     40  C   UNL A   1      39.659  29.689  30.341  1.00  0.00     0.074 A 
ATOM     41  C   UNL A   1      38.693  29.899  29.283  1.00  0.00     0.031 C 
ATOM     42  C   UNL A   1      38.002  34.151  34.675  1.00  0.00     0.029 A 
ATOM     43  C   UNL A   1      39.069  33.162  34.787  1.00  0.00     0.049 A 
ATOM     44  H   UNL A   1      39.650  31.762  33.356  1.00  0.00     0.167 HD
ATOM     45  C   UNL A   1      40.639  28.751  30.309  1.00  0.00     0.034 A 
ATOM     46  C   UNL A   1      39.868  32.993  35.860  1.00  0.00     0.034 A 
ATOM     47  C   UNL A   1      41.600  28.562  31.368  1.00  0.00     0.049 A 
ATOM     48  C   UNL A   1      40.928  31.921  35.816  1.00  0.00     0.074 A 
ATOM     49  C   UNL A   1      42.664  27.678  31.418  1.00  0.00     0.029 A 
ATOM     50  N   UNL A   1      41.609  29.258  32.571  1.00  0.00    -0.354 N 
ATOM     51  N   UNL A   1      41.205  31.071  34.854  1.00  0.00    -0.248 NA
ATOM     52  C   UNL A   1      41.789  31.793  36.999  1.00  0.00     0.031 C 
ATOM     53  C   UNL A   1      43.271  27.790  32.673  1.00  0.00     0.029 A 
ATOM     54  C   UNL A   1      42.639  28.801  33.380  1.00  0.00     0.049 A 
ATOM     55  H   UNL A   1      40.977  29.973  32.812  1.00  0.00     0.167 HD
ATOM     56  C   UNL A   1      42.293  30.329  35.306  1.00  0.00     0.074 A 
ATOM     57  C   UNL A   1      42.631  30.844  36.616  1.00  0.00     0.031 C 
ATOM     58  C   UNL A   1      42.957  29.316  34.692  1.00  0.00     0.034 A 
BRANCH  45  59
ATOM     59  C   UNL A   1      40.698  27.848  29.100  1.00  0.00     0.023 A 
ATOM     60  C   UNL A   1      41.654  28.033  28.085  1.00  0.00     0.031 A 
ATOM     61  C   UNL A   1      39.771  26.803  28.943  1.00  0.00     0.131 A 
ATOM     62  C   UNL A   1      41.613  27.241  26.929  1.00  0.00     0.055 A 
ATOM     63  C   UNL A   1      39.788  25.962  27.829  1.00  0.00     0.041 A 
ATOM     64  F   UNL A   1      38.820  26.588  29.866  1.00  0.00    -0.206 F 
ATOM     65  C   UNL A   1      40.704  26.189  26.804  1.00  0.00     0.022 A 
BRANCH  62  66
ATOM     66  S   UNL A   1      42.665  27.705  25.525  1.00  0.00     0.124 S 
ATOM     67  O   UNL A   1      41.957  28.869  24.998  1.00  0.00    -0.237 OA
ATOM     68  O   UNL A   1      43.946  27.971  26.166  1.00  0.00    -0.237 OA
ATOM     69  O   UNL A   1      42.630  26.522  24.666  1.00  0.00    -0.744 OA
ENDBRANCH  62  66
ENDBRANCH  45  59
BRANCH  46  70
ATOM     70  C   UNL A   1      39.697  33.845  37.073  1.00  0.00     0.023 A 
ATOM     71  C   UNL A   1      39.243  33.297  38.284  1.00  0.00     0.031 A 
ATOM     72  C   UNL A   1      39.934  35.231  37.027  1.00  0.00     0.131 A 
ATOM     73  C   UNL A   1      38.993  34.134  39.382  1.00  0.00     0.055 A 
ATOM     74  C   UNL A   1      39.737  36.051  38.139  1.00  0.00     0.041 A 
ATOM     75  F   UNL A   1      40.370  35.808  35.895  1.00  0.00    -0.206 F 
ATOM     76  C   UNL A   1      39.250  35.505  39.322  1.00  0.00     0.022 A 
BRANCH  73  77
ATOM     77  S   UNL A   1      38.235  33.415  40.866  1.00  0.00     0.124 S 
ATOM     78  O   UNL A   1      38.697  32.034  40.794  1.00  0.00    -0.237 OA
ATOM     79  O   UNL A   1      38.812  34.233  41.927  1.00  0.00    -0.237 OA
ATOM     80  O   UNL A   1      36.803  33.607  40.642  1.00  0.00    -0.744 OA
ENDBRANCH  73  77
ENDBRANCH  46  70
BRANCH  58  81
ATOM     81  C   UNL A   1      44.143  28.732  35.420  1.00  0.00     0.023 A 
ATOM     82  C   UNL A   1      44.006  27.670  36.330  1.00  0.00     0.031 A 
ATOM     83  C   UNL A   1      45.431  29.257  35.208  1.00  0.00     0.131 A 
ATOM     84  C   UNL A   1      45.125  27.205  37.037  1.00  0.00     0.055 A 
ATOM     85  C   UNL A   1      46.551  28.748  35.865  1.00  0.00     0.041 A 
ATOM     86  F   UNL A   1      45.622  30.274  34.351  1.00  0.00    -0.206 F 
ATOM     87  C   UNL A   1      46.400  27.724  36.796  1.00  0.00     0.022 A 
BRANCH  84  88
ATOM     88  S   UNL A   1      44.879  25.975  38.348  1.00  0.00     0.124 S 
ATOM     89  O   UNL A   1      44.606  24.764  37.580  1.00  0.00    -0.237 OA
ATOM     90  O   UNL A   1      46.157  26.009  39.052  1.00  0.00    -0.237 OA
ATOM     91  O   UNL A   1      43.742  26.500  39.102  1.00  0.00    -0.744 OA
ENDBRANCH  84  88
ENDBRANCH  58  81
ENDBRANCH  32  33
ENDBRANCH  24  27
ENDBRANCH  22  23
ENDBRANCH   1  22
TORSDOF 16
ENDMDL
MODEL 2
REMARK VINA RESULT:     -12.0      5.704     11.048
REMARK SMILES CC(C)=CC(=O)Nc1ccc(C(=O)NCCCCNC(=O)c2ccc(-c3c4nc(c(-c5cc(S(=O)(=O)[O-])ccc5F)c5ccc([nH]5)c(-c5cc(S(=O)(=O)[O-])ccc5F)c5nc(c(-c6cc(S(=O)(=O)[O-])ccc6F)c6ccc3[nH]6)C=C5)C=C4)cc2)cc1
REMARK SMILES IDX 17 1 16 2 15 3 14 4 12 5 13 6 11 8 8 9 9 10 86 11 10 12
REMARK SMILES IDX 85 13 7 14 5 15 6 16 4 18 1 19 2 20 3 21 18 22 19 23 20 24
REMARK SMILES IDX 21 26 22 27 23 28 84 29 24 30 83 31 25 32 26 33 27 34 77 35
REMARK SMILES IDX 28 36 82 37 76 38 78 39 29 40 81 41 75 42 74 43 30 45 62 46
REMARK SMILES IDX 42 47 61 48 43 49 46 50 60 51 79 52 44 53 45 54 59 56 80 57
REMARK SMILES IDX 47 58 31 59 32 60 40 61 33 62 39 63 41 64 38 65 34 66 35 67
REMARK SMILES IDX 36 68 37 69 63 70 64 71 72 72 65 73 71 74 73 75 70 76 66 77
REMARK SMILES IDX 67 78 68 79 69 80 48 81 49 82 57 83 50 84 56 85 58 86 55 87
REMARK SMILES IDX 51 88 52 89 53 90 54 91
REMARK H PARENT 14 7 7 17 19 25 78 44 46 55
REMARK Flexibility Score: inf
ROOT
ATOM      1  C   UNL A   1      34.865  21.851  24.848  1.00  0.00     0.023 C 
ENDROOT
BRANCH   1   2
ATOM      2  C   UNL A   1      33.857  20.894  25.485  1.00  0.00     0.023 C 
BRANCH   2   3
ATOM      3  C   UNL A   1      32.416  21.107  25.015  1.00  0.00     0.116 C 
BRANCH   3   4
ATOM      4  N   UNL A   1      31.587  21.567  26.117  1.00  0.00    -0.352 N 
ATOM      5  C   UNL A   1      31.347  22.821  26.620  1.00  0.00     0.251 C 
ATOM      6  O   UNL A   1      30.580  22.935  27.574  1.00  0.00    -0.269 OA
ATOM      7  H   UNL A   1      31.109  20.845  26.587  1.00  0.00     0.163 HD
BRANCH   5   8
ATOM      8  C   UNL A   1      31.891  24.048  25.981  1.00  0.00     0.039 A 
ATOM      9  C   UNL A   1      33.028  25.995  24.342  1.00  0.00     0.041 A 
ATOM     10  C   UNL A   1      31.714  25.589  24.114  1.00  0.00     0.027 A 
ATOM     11  C   UNL A   1      33.691  25.590  25.497  1.00  0.00     0.027 A 
ATOM     12  C   UNL A   1      31.162  24.585  24.910  1.00  0.00     0.016 A 
ATOM     13  C   UNL A   1      33.100  24.648  26.339  1.00  0.00     0.016 A 
BRANCH   9  14
ATOM     14  N   UNL A   1      33.657  26.743  23.344  1.00  0.00    -0.323 N 
ATOM     15  C   UNL A   1      33.715  28.097  23.186  1.00  0.00     0.248 C 
ATOM     16  O   UNL A   1      34.150  28.568  22.134  1.00  0.00    -0.270 OA
ATOM     17  H   UNL A   1      34.126  26.218  22.656  1.00  0.00     0.170 HD
BRANCH  15  18
ATOM     18  C   UNL A   1      33.315  29.046  24.269  1.00  0.00     0.070 C 
ATOM     19  C   UNL A   1      30.775  29.091  24.014  1.00  0.00     0.039 C 
ATOM     20  C   UNL A   1      32.087  29.456  24.653  1.00  0.00    -0.071 C 
ATOM     21  C   UNL A   1      31.925  30.329  25.873  1.00  0.00     0.039 C 
ENDBRANCH  15  18
ENDBRANCH   9  14
ENDBRANCH   5   8
ENDBRANCH   3   4
ENDBRANCH   2   3
ENDBRANCH   1   2
BRANCH   1  22
ATOM     22  C   UNL A   1      36.119  22.102  25.675  1.00  0.00     0.116 C 
BRANCH  22  23
ATOM     23  N   UNL A   1      37.091  21.026  25.566  1.00  0.00    -0.352 N 
ATOM     24  C   UNL A   1      38.453  21.065  25.766  1.00  0.00     0.251 C 
ATOM     25  H   UNL A   1      36.724  20.147  25.315  1.00  0.00     0.163 HD
ATOM     26  O   UNL A   1      39.136  20.092  25.492  1.00  0.00    -0.269 OA
BRANCH  24  27
ATOM     27  C   UNL A   1      39.074  22.309  26.276  1.00  0.00     0.039 A 
ATOM     28  C   UNL A   1      40.141  22.208  27.172  1.00  0.00     0.014 A 
ATOM     29  C   UNL A   1      38.625  23.562  25.851  1.00  0.00     0.014 A 
ATOM     30  C   UNL A   1      40.804  23.365  27.587  1.00  0.00     0.010 A 
ATOM     31  C   UNL A   1      39.334  24.706  26.206  1.00  0.00     0.010 A 
ATOM     32  C   UNL A   1      40.432  24.620  27.078  1.00  0.00    -0.014 A 
BRANCH  32  33
ATOM     33  C   UNL A   1      41.179  25.852  27.441  1.00  0.00     0.031 A 
ATOM     34  C   UNL A   1      40.519  26.915  28.278  1.00  0.00     0.074 A 
ATOM     35  C   UNL A   1      42.428  26.041  26.968  1.00  0.00     0.049 A 
ATOM     36  N   UNL A   1      40.973  28.087  28.637  1.00  0.00    -0.248 NA
ATOM     37  C   UNL A   1      39.155  26.630  28.746  1.00  0.00     0.031 C 
ATOM     38  C   UNL A   1      43.158  25.101  26.114  1.00  0.00     0.029 A 
ATOM     39  N   UNL A   1      43.301  27.087  27.128  1.00  0.00    -0.354 N 
ATOM     40  C   UNL A   1      39.951  28.684  29.364  1.00  0.00     0.074 A 
ATOM     41  C   UNL A   1      38.829  27.769  29.336  1.00  0.00     0.031 C 
ATOM     42  C   UNL A   1      44.375  25.601  25.849  1.00  0.00     0.029 A 
ATOM     43  C   UNL A   1      44.498  26.917  26.469  1.00  0.00     0.049 A 
ATOM     44  H   UNL A   1      43.091  27.886  27.663  1.00  0.00     0.167 HD
ATOM     45  C   UNL A   1      39.954  29.874  30.016  1.00  0.00     0.034 A 
ATOM     46  C   UNL A   1      45.565  27.734  26.364  1.00  0.00     0.034 A 
ATOM     47  C   UNL A   1      41.084  30.770  30.040  1.00  0.00     0.049 A 
ATOM     48  C   UNL A   1      45.532  29.066  27.069  1.00  0.00     0.074 A 
ATOM     49  C   UNL A   1      41.214  31.975  30.710  1.00  0.00     0.029 A 
ATOM     50  N   UNL A   1      42.277  30.568  29.356  1.00  0.00    -0.354 N 
ATOM     51  N   UNL A   1      44.575  29.594  27.797  1.00  0.00    -0.248 NA
ATOM     52  C   UNL A   1      46.728  29.910  26.946  1.00  0.00     0.031 C 
ATOM     53  C   UNL A   1      42.453  32.532  30.376  1.00  0.00     0.029 A 
ATOM     54  C   UNL A   1      43.133  31.640  29.562  1.00  0.00     0.049 A 
ATOM     55  H   UNL A   1      42.484  29.778  28.807  1.00  0.00     0.167 HD
ATOM     56  C   UNL A   1      45.068  30.817  28.243  1.00  0.00     0.074 A 
ATOM     57  C   UNL A   1      46.412  30.939  27.717  1.00  0.00     0.031 C 
ATOM     58  C   UNL A   1      44.468  31.754  29.020  1.00  0.00     0.034 A 
BRANCH  45  59
ATOM     59  C   UNL A   1      38.686  30.279  30.731  1.00  0.00     0.023 A 
ATOM     60  C   UNL A   1      37.648  30.957  30.068  1.00  0.00     0.031 A 
ATOM     61  C   UNL A   1      38.522  30.007  32.101  1.00  0.00     0.131 A 
ATOM     62  C   UNL A   1      36.532  31.409  30.788  1.00  0.00     0.055 A 
ATOM     63  C   UNL A   1      37.369  30.383  32.794  1.00  0.00     0.041 A 
ATOM     64  F   UNL A   1      39.485  29.381  32.795  1.00  0.00    -0.206 F 
ATOM     65  C   UNL A   1      36.372  31.103  32.141  1.00  0.00     0.022 A 
BRANCH  62  66
ATOM     66  S   UNL A   1      35.368  32.531  29.966  1.00  0.00     0.124 S 
ATOM     67  O   UNL A   1      34.352  32.711  31.000  1.00  0.00    -0.237 OA
ATOM     68  O   UNL A   1      36.200  33.693  29.678  1.00  0.00    -0.237 OA
ATOM     69  O   UNL A   1      34.929  31.771  28.796  1.00  0.00    -0.744 OA
ENDBRANCH  62  66
ENDBRANCH  45  59
BRANCH  46  70
ATOM     70  C   UNL A   1      46.752  27.329  25.555  1.00  0.00     0.023 A 
ATOM     71  C   UNL A   1      46.939  27.816  24.252  1.00  0.00     0.031 A 
ATOM     72  C   UNL A   1      47.690  26.408  26.054  1.00  0.00     0.131 A 
ATOM     73  C   UNL A   1      48.007  27.343  23.473  1.00  0.00     0.055 A 
ATOM     74  C   UNL A   1      48.783  25.983  25.296  1.00  0.00     0.041 A 
ATOM     75  F   UNL A   1      47.562  25.911  27.295  1.00  0.00    -0.206 F 
ATOM     76  C   UNL A   1      48.938  26.441  23.992  1.00  0.00     0.022 A 
BRANCH  73  77
ATOM     77  S   UNL A   1      48.107  27.856  21.736  1.00  0.00     0.124 S 
ATOM     78  O   UNL A   1      46.821  28.517  21.548  1.00  0.00    -0.237 OA
ATOM     79  O   UNL A   1      49.280  28.724  21.744  1.00  0.00    -0.237 OA
ATOM     80  O   UNL A   1      48.272  26.594  21.019  1.00  0.00    -0.744 OA
ENDBRANCH  73  77
ENDBRANCH  46  70
BRANCH  58  81
ATOM     81  C   UNL A   1      45.284  32.972  29.382  1.00  0.00     0.023 A 
ATOM     82  C   UNL A   1      45.301  34.121  28.572  1.00  0.00     0.031 A 
ATOM     83  C   UNL A   1      46.066  32.977  30.551  1.00  0.00     0.131 A 
ATOM     84  C   UNL A   1      46.128  35.202  28.910  1.00  0.00     0.055 A 
ATOM     85  C   UNL A   1      46.836  34.081  30.917  1.00  0.00     0.041 A 
ATOM     86  F   UNL A   1      46.090  31.906  31.362  1.00  0.00    -0.206 F 
ATOM     87  C   UNL A   1      46.881  35.197  30.087  1.00  0.00     0.022 A 
BRANCH  84  88
ATOM     88  S   UNL A   1      46.280  36.581  27.741  1.00  0.00     0.124 S 
ATOM     89  O   UNL A   1      46.716  37.669  28.611  1.00  0.00    -0.237 OA
ATOM     90  O   UNL A   1      47.275  36.082  26.797  1.00  0.00    -0.237 OA
ATOM     91  O   UNL A   1      44.930  36.723  27.199  1.00  0.00    -0.744 OA
ENDBRANCH  84  88
ENDBRANCH  58  81
ENDBRANCH  32  33
ENDBRANCH  24  27
ENDBRANCH  22  23
ENDBRANCH   1  22
TORSDOF 16
ENDMDL
MODEL 3
REMARK VINA RESULT:     -12.0      1.448      1.747
REMARK SMILES CC(C)=CC(=O)Nc1ccc(C(=O)NCCCCNC(=O)c2ccc(-c3c4nc(c(-c5cc(S(=O)(=O)[O-])ccc5F)c5ccc([nH]5)c(-c5cc(S(=O)(=O)[O-])ccc5F)c5nc(c(-c6cc(S(=O)(=O)[O-])ccc6F)c6ccc3[nH]6)C=C5)C=C4)cc2)cc1
REMARK SMILES IDX 17 1 16 2 15 3 14 4 12 5 13 6 11 8 8 9 9 10 86 11 10 12
REMARK SMILES IDX 85 13 7 14 5 15 6 16 4 18 1 19 2 20 3 21 18 22 19 23 20 24
REMARK SMILES IDX 21 26 22 27 23 28 84 29 24 30 83 31 25 32 26 33 27 34 77 35
REMARK SMILES IDX 28 36 82 37 76 38 78 39 29 40 81 41 75 42 74 43 30 45 62 46
REMARK SMILES IDX 42 47 61 48 43 49 46 50 60 51 79 52 44 53 45 54 59 56 80 57
REMARK SMILES IDX 47 58 31 59 32 60 40 61 33 62 39 63 41 64 38 65 34 66 35 67
REMARK SMILES IDX 36 68 37 69 63 70 64 71 72 72 65 73 71 74 73 75 70 76 66 77
REMARK SMILES IDX 67 78 68 79 69 80 48 81 49 82 57 83 50 84 56 85 58 86 55 87
REMARK SMILES IDX 51 88 52 89 53 90 54 91
REMARK H PARENT 14 7 7 17 19 25 78 44 46 55
REMARK Flexibility Score: inf
ROOT
ATOM      1  C   UNL A   1      31.390  31.940  26.742  1.00  0.00     0.023 C 
ENDROOT
BRANCH   1   2
ATOM      2  C   UNL A   1      31.472  30.696  25.856  1.00  0.00     0.023 C 
BRANCH   2   3
ATOM      3  C   UNL A   1      32.864  30.061  25.806  1.00  0.00     0.116 C 
BRANCH   3   4
ATOM      4  N   UNL A   1      33.210  29.704  24.440  1.00  0.00    -0.352 N 
ATOM      5  C   UNL A   1      33.195  28.502  23.777  1.00  0.00     0.251 C 
ATOM      6  O   UNL A   1      33.536  28.479  22.596  1.00  0.00    -0.269 OA
ATOM      7  H   UNL A   1      33.508  30.465  23.890  1.00  0.00     0.163 HD
BRANCH   5   8
ATOM      8  C   UNL A   1      32.676  27.258  24.404  1.00  0.00     0.039 A 
ATOM      9  C   UNL A   1      31.437  25.290  25.939  1.00  0.00     0.041 A 
ATOM     10  C   UNL A   1      30.701  25.965  24.967  1.00  0.00     0.027 A 
ATOM     11  C   UNL A   1      32.819  25.446  25.999  1.00  0.00     0.027 A 
ATOM     12  C   UNL A   1      31.313  26.978  24.229  1.00  0.00     0.016 A 
ATOM     13  C   UNL A   1      33.442  26.402  25.197  1.00  0.00     0.016 A 
BRANCH   9  14
ATOM     14  N   UNL A   1      30.731  24.530  26.875  1.00  0.00    -0.323 N 
ATOM     15  C   UNL A   1      30.335  23.226  26.807  1.00  0.00     0.248 C 
ATOM     16  O   UNL A   1      29.548  22.786  27.647  1.00  0.00    -0.270 OA
ATOM     17  H   UNL A   1      30.484  25.003  27.702  1.00  0.00     0.170 HD
BRANCH  15  18
ATOM     18  C   UNL A   1      30.859  22.283  25.773  1.00  0.00     0.070 C 
ATOM     19  C   UNL A   1      33.215  21.814  26.638  1.00  0.00     0.039 C 
ATOM     20  C   UNL A   1      32.053  21.657  25.696  1.00  0.00    -0.071 C 
ATOM     21  C   UNL A   1      32.305  20.638  24.613  1.00  0.00     0.039 C 
ENDBRANCH  15  18
ENDBRANCH   9  14
ENDBRANCH   5   8
ENDBRANCH   3   4
ENDBRANCH   2   3
ENDBRANCH   1   2
BRANCH   1  22
ATOM     22  C   UNL A   1      32.710  32.674  26.938  1.00  0.00     0.116 C 
BRANCH  22  23
ATOM     23  N   UNL A   1      32.548  33.958  27.599  1.00  0.00    -0.352 N 
ATOM     24  C   UNL A   1      33.258  34.484  28.656  1.00  0.00     0.251 C 
ATOM     25  H   UNL A   1      31.832  34.532  27.241  1.00  0.00     0.163 HD
ATOM     26  O   UNL A   1      32.890  35.525  29.176  1.00  0.00    -0.269 OA
BRANCH  24  27
ATOM     27  C   UNL A   1      34.438  33.754  29.171  1.00  0.00     0.039 A 
ATOM     28  C   UNL A   1      35.706  34.303  28.975  1.00  0.00     0.014 A 
ATOM     29  C   UNL A   1      34.290  32.550  29.866  1.00  0.00     0.014 A 
ATOM     30  C   UNL A   1      36.822  33.681  29.539  1.00  0.00     0.010 A 
ATOM     31  C   UNL A   1      35.393  31.973  30.490  1.00  0.00     0.010 A 
ATOM     32  C   UNL A   1      36.670  32.533  30.334  1.00  0.00    -0.014 A 
BRANCH  32  33
ATOM     33  C   UNL A   1      37.835  31.905  31.011  1.00  0.00     0.031 A 
ATOM     34  C   UNL A   1      38.651  30.862  30.297  1.00  0.00     0.074 A 
ATOM     35  C   UNL A   1      38.119  32.229  32.289  1.00  0.00     0.049 A 
ATOM     36  N   UNL A   1      39.652  30.146  30.740  1.00  0.00    -0.248 NA
ATOM     37  C   UNL A   1      38.267  30.564  28.909  1.00  0.00     0.031 C 
ATOM     38  C   UNL A   1      37.376  33.197  33.100  1.00  0.00     0.029 A 
ATOM     39  N   UNL A   1      39.101  31.777  33.134  1.00  0.00    -0.354 N 
ATOM     40  C   UNL A   1      40.013  29.308  29.692  1.00  0.00     0.074 A 
ATOM     41  C   UNL A   1      39.078  29.560  28.614  1.00  0.00     0.031 C 
ATOM     42  C   UNL A   1      37.945  33.284  34.313  1.00  0.00     0.029 A 
ATOM     43  C   UNL A   1      39.060  32.345  34.387  1.00  0.00     0.049 A 
ATOM     44  H   UNL A   1      39.772  31.107  32.869  1.00  0.00     0.167 HD
ATOM     45  C   UNL A   1      41.043  28.428  29.623  1.00  0.00     0.034 A 
ATOM     46  C   UNL A   1      39.825  32.125  35.476  1.00  0.00     0.034 A 
ATOM     47  C   UNL A   1      41.971  28.196  30.703  1.00  0.00     0.049 A 
ATOM     48  C   UNL A   1      40.942  31.117  35.387  1.00  0.00     0.074 A 
ATOM     49  C   UNL A   1      43.079  27.367  30.724  1.00  0.00     0.029 A 
ATOM     50  N   UNL A   1      41.894  28.785  31.960  1.00  0.00    -0.354 N 
ATOM     51  N   UNL A   1      41.303  30.369  34.369  1.00  0.00    -0.248 NA
ATOM     52  C   UNL A   1      41.763  30.929  36.591  1.00  0.00     0.031 C 
ATOM     53  C   UNL A   1      43.629  27.401  32.009  1.00  0.00     0.029 A 
ATOM     54  C   UNL A   1      42.915  28.312  32.771  1.00  0.00     0.049 A 
ATOM     55  H   UNL A   1      41.215  29.443  32.233  1.00  0.00     0.167 HD
ATOM     56  C   UNL A   1      42.412  29.647  34.803  1.00  0.00     0.074 A 
ATOM     57  C   UNL A   1      42.669  30.063  36.166  1.00  0.00     0.031 C 
ATOM     58  C   UNL A   1      43.153  28.727  34.135  1.00  0.00     0.034 A 
BRANCH  45  59
ATOM     59  C   UNL A   1      41.198  27.638  28.345  1.00  0.00     0.023 A 
ATOM     60  C   UNL A   1      40.824  26.285  28.263  1.00  0.00     0.031 A 
ATOM     61  C   UNL A   1      41.753  28.235  27.199  1.00  0.00     0.131 A 
ATOM     62  C   UNL A   1      41.079  25.555  27.093  1.00  0.00     0.055 A 
ATOM     63  C   UNL A   1      41.925  27.526  26.008  1.00  0.00     0.041 A 
ATOM     64  F   UNL A   1      42.150  29.517  27.220  1.00  0.00    -0.206 F 
ATOM     65  C   UNL A   1      41.603  26.173  25.955  1.00  0.00     0.022 A 
BRANCH  62  66
ATOM     66  S   UNL A   1      40.858  23.755  27.129  1.00  0.00     0.124 S 
ATOM     67  O   UNL A   1      39.402  23.637  27.144  1.00  0.00    -0.237 OA
ATOM     68  O   UNL A   1      41.522  23.331  25.903  1.00  0.00    -0.237 OA
ATOM     69  O   UNL A   1      41.521  23.354  28.370  1.00  0.00    -0.744 OA
ENDBRANCH  62  66
ENDBRANCH  45  59
BRANCH  46  70
ATOM     70  C   UNL A   1      39.560  32.858  36.748  1.00  0.00     0.023 A 
ATOM     71  C   UNL A   1      38.698  32.328  37.722  1.00  0.00     0.031 A 
ATOM     72  C   UNL A   1      40.124  34.124  36.988  1.00  0.00     0.131 A 
ATOM     73  C   UNL A   1      38.384  33.081  38.864  1.00  0.00     0.055 A 
ATOM     74  C   UNL A   1      39.853  34.844  38.152  1.00  0.00     0.041 A 
ATOM     75  F   UNL A   1      40.956  34.677  36.091  1.00  0.00    -0.206 F 
ATOM     76  C   UNL A   1      38.967  34.329  39.093  1.00  0.00     0.022 A 
BRANCH  73  77
ATOM     77  S   UNL A   1      37.127  32.442  40.006  1.00  0.00     0.124 S 
ATOM     78  O   UNL A   1      37.715  31.171  40.411  1.00  0.00    -0.237 OA
ATOM     79  O   UNL A   1      37.085  33.485  41.024  1.00  0.00    -0.237 OA
ATOM     80  O   UNL A   1      35.932  32.339  39.171  1.00  0.00    -0.744 OA
ENDBRANCH  73  77
ENDBRANCH  46  70
BRANCH  58  81
ATOM     81  C   UNL A   1      44.341  28.143  34.862  1.00  0.00     0.023 A 
ATOM     82  C   UNL A   1      44.253  26.937  35.577  1.00  0.00     0.031 A 
ATOM     83  C   UNL A   1      45.578  28.813  34.847  1.00  0.00     0.131 A 
ATOM     84  C   UNL A   1      45.362  26.467  36.296  1.00  0.00     0.055 A 
ATOM     85  C   UNL A   1      46.696  28.308  35.510  1.00  0.00     0.041 A 
ATOM     86  F   UNL A   1      45.720  29.972  34.182  1.00  0.00    -0.206 F 
ATOM     87  C   UNL A   1      46.589  27.135  36.252  1.00  0.00     0.022 A 
BRANCH  84  88
ATOM     88  S   UNL A   1      45.156  25.019  37.369  1.00  0.00     0.124 S 
ATOM     89  O   UNL A   1      46.503  24.458  37.382  1.00  0.00    -0.237 OA
ATOM     90  O   UNL A   1      44.704  25.620  38.620  1.00  0.00    -0.237 OA
ATOM     91  O   UNL A   1      44.155  24.214  36.672  1.00  0.00    -0.744 OA
ENDBRANCH  84  88
ENDBRANCH  58  81
ENDBRANCH  32  33
ENDBRANCH  24  27
ENDBRANCH  22  23
ENDBRANCH   1  22
TORSDOF 16
ENDMDL
