MODEL 1
REMARK VINA RESULT:     -12.2      0.000      0.000
REMARK SMILES O=C(NCc1ccc(C(=O)NCCCCNC(=O)c2ccc(-c3c4nc(c(-c5cc(S(=O)(=O)[O-])ccc5F)c5ccc([nH]5)c(-c5cc(S(=O)(=O)[O-])ccc5F)c5nc(c(-c6cc(S(=O)(=O)[O-])ccc6F)c6ccc3[nH]6)C=C5)C=C4)cc2)o1)Nc1ccc(F)c(Cl)c1
REMARK SMILES IDX 13 1 12 2 11 3 9 4 10 5 8 7 5 8 6 9 82 10 7 11 4 12 3 13
REMARK SMILES IDX 1 14 2 15 83 16 84 19 85 20 91 21 86 22 89 23 87 24 90 25
REMARK SMILES IDX 88 26 14 27 15 28 16 29 17 30 18 32 19 33 20 34 81 35 21 36
REMARK SMILES IDX 80 37 22 38 23 39 24 40 74 41 25 42 79 43 73 44 75 45 26 46
REMARK SMILES IDX 78 47 72 48 71 49 27 51 59 52 39 53 58 54 40 55 43 56 57 57
REMARK SMILES IDX 76 58 41 59 42 60 56 62 77 63 44 64 28 65 29 66 37 67 30 68
REMARK SMILES IDX 36 69 38 70 35 71 31 72 32 73 33 74 34 75 60 76 61 77 69 78
REMARK SMILES IDX 62 79 68 80 70 81 67 82 63 83 64 84 65 85 66 86 45 87 46 88
REMARK SMILES IDX 54 89 47 90 53 91 55 92 52 93 48 94 49 95 50 96 51 97
REMARK H PARENT 11 6 3 17 83 18 16 31 75 50 43 61
REMARK Flexibility Score: inf
ROOT
ATOM      1  C   UNL A   1      32.484  29.166  27.167  1.00  0.00     0.023 C 
ENDROOT
BRANCH   1   2
ATOM      2  C   UNL A   1      33.565  28.276  26.555  1.00  0.00     0.116 C 
BRANCH   2   3
ATOM      3  N   UNL A   1      33.911  28.717  25.223  1.00  0.00    -0.349 N 
ATOM      4  C   UNL A   1      33.274  28.562  24.013  1.00  0.00     0.286 C 
ATOM      5  O   UNL A   1      33.820  29.107  23.054  1.00  0.00    -0.266 OA
ATOM      6  H   UNL A   1      34.756  29.220  25.171  1.00  0.00     0.163 HD
BRANCH   4   7
ATOM      7  C   UNL A   1      32.032  27.813  23.883  1.00  0.00     0.191 A 
ATOM      8  C   UNL A   1      30.932  25.898  23.643  1.00  0.00     0.124 A 
ATOM      9  C   UNL A   1      29.976  26.885  23.682  1.00  0.00     0.048 A 
ATOM     10  O   UNL A   1      32.169  26.449  23.761  1.00  0.00    -0.454 OA
ATOM     11  C   UNL A   1      30.678  28.105  23.870  1.00  0.00     0.056 A 
BRANCH   8  12
ATOM     12  C   UNL A   1      30.887  24.424  23.514  1.00  0.00     0.193 C 
BRANCH  12  13
ATOM     13  N   UNL A   1      31.890  24.010  22.558  1.00  0.00    -0.331 N 
ATOM     14  O   UNL A   1      33.893  23.433  21.797  1.00  0.00    -0.248 OA
ATOM     15  C   UNL A   1      33.154  23.559  22.769  1.00  0.00     0.319 C 
ATOM     16  N   UNL A   1      33.479  23.251  24.061  1.00  0.00    -0.308 N 
ATOM     17  H   UNL A   1      31.617  24.064  21.614  1.00  0.00     0.165 HD
ATOM     18  H   UNL A   1      32.736  23.184  24.703  1.00  0.00     0.171 HD
BRANCH  16  19
ATOM     19  C   UNL A   1      34.776  23.020  24.564  1.00  0.00     0.044 A 
ATOM     20  C   UNL A   1      35.451  24.105  25.139  1.00  0.00     0.029 A 
ATOM     21  C   UNL A   1      35.419  21.780  24.478  1.00  0.00     0.049 A 
ATOM     22  C   UNL A   1      36.737  23.943  25.658  1.00  0.00     0.043 A 
ATOM     23  C   UNL A   1      36.711  21.624  24.986  1.00  0.00     0.078 A 
ATOM     24  C   UNL A   1      37.359  22.702  25.580  1.00  0.00     0.141 A 
ATOM     25  Cl  UNL A   1      37.494  20.094  24.861  1.00  0.00    -0.081 Cl
ATOM     26  F   UNL A   1      38.594  22.569  26.086  1.00  0.00    -0.205 F 
ENDBRANCH  16  19
ENDBRANCH  12  13
ENDBRANCH   8  12
ENDBRANCH   4   7
ENDBRANCH   2   3
ENDBRANCH   1   2
BRANCH   1  27
ATOM     27  C   UNL A   1      32.541  30.623  26.694  1.00  0.00     0.023 C 
BRANCH  27  28
ATOM     28  C   UNL A   1      33.406  31.552  27.545  1.00  0.00     0.116 C 
BRANCH  28  29
ATOM     29  N   UNL A   1      32.907  32.920  27.594  1.00  0.00    -0.352 N 
ATOM     30  C   UNL A   1      33.329  33.956  28.395  1.00  0.00     0.251 C 
ATOM     31  H   UNL A   1      32.172  33.130  26.974  1.00  0.00     0.163 HD
ATOM     32  O   UNL A   1      32.727  35.024  28.394  1.00  0.00    -0.269 OA
BRANCH  30  33
ATOM     33  C   UNL A   1      34.486  33.738  29.286  1.00  0.00     0.039 A 
ATOM     34  C   UNL A   1      34.312  32.980  30.446  1.00  0.00     0.014 A 
ATOM     35  C   UNL A   1      35.752  34.200  28.918  1.00  0.00     0.014 A 
ATOM     36  C   UNL A   1      35.432  32.595  31.185  1.00  0.00     0.010 A 
ATOM     37  C   UNL A   1      36.871  33.759  29.620  1.00  0.00     0.010 A 
ATOM     38  C   UNL A   1      36.723  32.929  30.742  1.00  0.00    -0.014 A 
BRANCH  38  39
ATOM     39  C   UNL A   1      37.934  32.369  31.395  1.00  0.00     0.031 A 
ATOM     40  C   UNL A   1      38.686  31.239  30.752  1.00  0.00     0.074 A 
ATOM     41  C   UNL A   1      38.297  32.822  32.613  1.00  0.00     0.049 A 
ATOM     42  N   UNL A   1      39.688  30.543  31.221  1.00  0.00    -0.248 NA
ATOM     43  C   UNL A   1      38.233  30.824  29.416  1.00  0.00     0.031 C 
ATOM     44  C   UNL A   1      37.623  33.894  33.351  1.00  0.00     0.029 A 
ATOM     45  N   UNL A   1      39.308  32.429  33.455  1.00  0.00    -0.354 N 
ATOM     46  C   UNL A   1      39.984  29.600  30.242  1.00  0.00     0.074 A 
ATOM     47  C   UNL A   1      39.016  29.782  29.180  1.00  0.00     0.031 C 
ATOM     48  C   UNL A   1      38.248  34.083  34.523  1.00  0.00     0.029 A 
ATOM     49  C   UNL A   1      39.328  33.110  34.652  1.00  0.00     0.049 A 
ATOM     50  H   UNL A   1      39.957  31.726  33.226  1.00  0.00     0.167 HD
ATOM     51  C   UNL A   1      40.982  28.682  30.227  1.00  0.00     0.034 A 
ATOM     52  C   UNL A   1      40.106  32.950  35.741  1.00  0.00     0.034 A 
ATOM     53  C   UNL A   1      41.937  28.517  31.295  1.00  0.00     0.049 A 
ATOM     54  C   UNL A   1      41.163  31.874  35.727  1.00  0.00     0.074 A 
ATOM     55  C   UNL A   1      43.025  27.664  31.353  1.00  0.00     0.029 A 
ATOM     56  N   UNL A   1      41.908  29.204  32.503  1.00  0.00    -0.354 N 
ATOM     57  N   UNL A   1      41.469  31.032  34.766  1.00  0.00    -0.248 NA
ATOM     58  C   UNL A   1      41.975  31.725  36.941  1.00  0.00     0.031 C 
ATOM     59  C   UNL A   1      43.602  27.775  32.622  1.00  0.00     0.029 A 
ATOM     60  C   UNL A   1      42.927  28.756  33.329  1.00  0.00     0.049 A 
ATOM     61  H   UNL A   1      41.259  29.906  32.737  1.00  0.00     0.167 HD
ATOM     62  C   UNL A   1      42.523  30.265  35.258  1.00  0.00     0.074 A 
ATOM     63  C   UNL A   1      42.813  30.761  36.588  1.00  0.00     0.031 C 
ATOM     64  C   UNL A   1      43.191  29.244  34.663  1.00  0.00     0.034 A 
BRANCH  51  65
ATOM     65  C   UNL A   1      41.071  27.770  29.027  1.00  0.00     0.023 A 
ATOM     66  C   UNL A   1      42.062  27.936  28.045  1.00  0.00     0.031 A 
ATOM     67  C   UNL A   1      40.145  26.726  28.857  1.00  0.00     0.131 A 
ATOM     68  C   UNL A   1      42.063  27.120  26.905  1.00  0.00     0.055 A 
ATOM     69  C   UNL A   1      40.201  25.863  27.760  1.00  0.00     0.041 A 
ATOM     70  F   UNL A   1      39.162  26.530  29.750  1.00  0.00    -0.206 F 
ATOM     71  C   UNL A   1      41.156  26.067  26.768  1.00  0.00     0.022 A 
BRANCH  68  72
ATOM     72  S   UNL A   1      43.178  27.544  25.539  1.00  0.00     0.124 S 
ATOM     73  O   UNL A   1      42.252  28.129  24.573  1.00  0.00    -0.237 OA
ATOM     74  O   UNL A   1      44.112  28.468  26.170  1.00  0.00    -0.237 OA
ATOM     75  O   UNL A   1      43.744  26.254  25.146  1.00  0.00    -0.744 OA
ENDBRANCH  68  72
ENDBRANCH  51  65
BRANCH  52  76
ATOM     76  C   UNL A   1      39.899  33.796  36.953  1.00  0.00     0.023 A 
ATOM     77  C   UNL A   1      39.231  33.292  38.080  1.00  0.00     0.031 A 
ATOM     78  C   UNL A   1      40.322  35.137  36.984  1.00  0.00     0.131 A 
ATOM     79  C   UNL A   1      38.963  34.135  39.170  1.00  0.00     0.055 A 
ATOM     80  C   UNL A   1      40.104  35.955  38.094  1.00  0.00     0.041 A 
ATOM     81  F   UNL A   1      40.965  35.671  35.934  1.00  0.00    -0.206 F 
ATOM     82  C   UNL A   1      39.408  35.459  39.191  1.00  0.00     0.022 A 
BRANCH  79  83
ATOM     83  S   UNL A   1      37.935  33.502  40.524  1.00  0.00     0.124 S 
ATOM     84  O   UNL A   1      38.784  32.453  41.075  1.00  0.00    -0.237 OA
ATOM     85  O   UNL A   1      37.762  34.690  41.353  1.00  0.00    -0.237 OA
ATOM     86  O   UNL A   1      36.728  33.036  39.845  1.00  0.00    -0.744 OA
ENDBRANCH  79  83
ENDBRANCH  52  76
BRANCH  64  87
ATOM     87  C   UNL A   1      44.313  28.609  35.445  1.00  0.00     0.023 A 
ATOM     88  C   UNL A   1      44.080  27.540  36.328  1.00  0.00     0.031 A 
ATOM     89  C   UNL A   1      45.633  29.071  35.300  1.00  0.00     0.131 A 
ATOM     90  C   UNL A   1      45.144  26.997  37.064  1.00  0.00     0.055 A 
ATOM     91  C   UNL A   1      46.696  28.487  35.988  1.00  0.00     0.041 A 
ATOM     92  F   UNL A   1      45.911  30.093  34.473  1.00  0.00    -0.206 F 
ATOM     93  C   UNL A   1      46.454  27.450  36.883  1.00  0.00     0.022 A 
BRANCH  90  94
ATOM     94  S   UNL A   1      44.784  25.734  38.315  1.00  0.00     0.124 S 
ATOM     95  O   UNL A   1      44.148  24.692  37.517  1.00  0.00    -0.237 OA
ATOM     96  O   UNL A   1      46.111  25.420  38.835  1.00  0.00    -0.237 OA
ATOM     97  O   UNL A   1      43.900  26.424  39.253  1.00  0.00    -0.744 OA
ENDBRANCH  90  94
ENDBRANCH  64  87
ENDBRANCH  38  39
ENDBRANCH  30  33
ENDBRANCH  28  29
ENDBRANCH  27  28
ENDBRANCH   1  27
TORSDOF 17
ENDMDL
MODEL 2
REMARK VINA RESULT:     -12.2      1.993      2.423
REMARK SMILES O=C(NCc1ccc(C(=O)NCCCCNC(=O)c2ccc(-c3c4nc(c(-c5cc(S(=O)(=O)[O-])ccc5F)c5ccc([nH]5)c(-c5cc(S(=O)(=O)[O-])ccc5F)c5nc(c(-c6cc(S(=O)(=O)[O-])ccc6F)c6ccc3[nH]6)C=C5)C=C4)cc2)o1)Nc1ccc(F)c(Cl)c1
REMARK SMILES IDX 13 1 12 2 11 3 9 4 10 5 8 7 5 8 6 9 82 10 7 11 4 12 3 13
REMARK SMILES IDX 1 14 2 15 83 16 84 19 85 20 91 21 86 22 89 23 87 24 90 25
REMARK SMILES IDX 88 26 14 27 15 28 16 29 17 30 18 32 19 33 20 34 81 35 21 36
REMARK SMILES IDX 80 37 22 38 23 39 24 40 74 41 25 42 79 43 73 44 75 45 26 46
REMARK SMILES IDX 78 47 72 48 71 49 27 51 59 52 39 53 58 54 40 55 43 56 57 57
REMARK SMILES IDX 76 58 41 59 42 60 56 62 77 63 44 64 28 65 29 66 37 67 30 68
REMARK SMILES IDX 36 69 38 70 35 71 31 72 32 73 33 74 34 75 60 76 61 77 69 78
REMARK SMILES IDX 62 79 68 80 70 81 67 82 63 83 64 84 65 85 66 86 45 87 46 88
REMARK SMILES IDX 54 89 47 90 53 91 55 92 52 93 48 94 49 95 50 96 51 97
REMARK H PARENT 11 6 3 17 83 18 16 31 75 50 43 61
REMARK Flexibility Score: inf
ROOT
ATOM      1  C   UNL A   1      31.880  29.421  27.302  1.00  0.00     0.023 C 
ENDROOT
BRANCH   1   2
ATOM      2  C   UNL A   1      32.482  28.028  27.123  1.00  0.00     0.116 C 
BRANCH   2   3
ATOM      3  N   UNL A   1      31.450  27.018  27.063  1.00  0.00    -0.349 N 
ATOM      4  C   UNL A   1      30.693  26.545  26.017  1.00  0.00     0.286 C 
ATOM      5  O   UNL A   1      29.917  25.631  26.297  1.00  0.00    -0.266 OA
ATOM      6  H   UNL A   1      31.255  26.590  27.928  1.00  0.00     0.163 HD
BRANCH   4   7
ATOM      7  C   UNL A   1      30.812  27.083  24.669  1.00  0.00     0.191 A 
ATOM      8  C   UNL A   1      31.259  26.832  22.508  1.00  0.00     0.124 A 
ATOM      9  C   UNL A   1      30.940  28.158  22.681  1.00  0.00     0.048 A 
ATOM     10  O   UNL A   1      31.186  26.182  23.699  1.00  0.00    -0.454 OA
ATOM     11  C   UNL A   1      30.622  28.310  24.056  1.00  0.00     0.056 A 
BRANCH   8  12
ATOM     12  C   UNL A   1      31.639  26.007  21.339  1.00  0.00     0.193 C 
BRANCH  12  13
ATOM     13  N   UNL A   1      32.939  25.424  21.584  1.00  0.00    -0.331 N 
ATOM     14  O   UNL A   1      34.440  24.019  22.417  1.00  0.00    -0.248 OA
ATOM     15  C   UNL A   1      33.261  24.231  22.145  1.00  0.00     0.319 C 
ATOM     16  N   UNL A   1      32.232  23.349  22.329  1.00  0.00    -0.308 N 
ATOM     17  H   UNL A   1      33.705  25.975  21.303  1.00  0.00     0.165 HD
ATOM     18  H   UNL A   1      31.387  23.552  21.868  1.00  0.00     0.171 HD
BRANCH  16  19
ATOM     19  C   UNL A   1      32.264  22.178  23.112  1.00  0.00     0.044 A 
ATOM     20  C   UNL A   1      32.342  22.332  24.504  1.00  0.00     0.029 A 
ATOM     21  C   UNL A   1      32.260  20.891  22.564  1.00  0.00     0.049 A 
ATOM     22  C   UNL A   1      32.375  21.212  25.338  1.00  0.00     0.043 A 
ATOM     23  C   UNL A   1      32.307  19.772  23.399  1.00  0.00     0.078 A 
ATOM     24  C   UNL A   1      32.355  19.938  24.780  1.00  0.00     0.141 A 
ATOM     25  Cl  UNL A   1      32.314  18.195  22.708  1.00  0.00    -0.081 Cl
ATOM     26  F   UNL A   1      32.386  18.877  25.600  1.00  0.00    -0.205 F 
ENDBRANCH  16  19
ENDBRANCH  12  13
ENDBRANCH   8  12
ENDBRANCH   4   7
ENDBRANCH   2   3
ENDBRANCH   1   2
BRANCH   1  27
ATOM     27  C   UNL A   1      32.667  30.531  26.595  1.00  0.00     0.023 C 
BRANCH  27  28
ATOM     28  C   UNL A   1      33.482  31.440  27.514  1.00  0.00     0.116 C 
BRANCH  28  29
ATOM     29  N   UNL A   1      32.984  32.808  27.562  1.00  0.00    -0.352 N 
ATOM     30  C   UNL A   1      33.387  33.836  28.382  1.00  0.00     0.251 C 
ATOM     31  H   UNL A   1      32.265  33.024  26.926  1.00  0.00     0.163 HD
ATOM     32  O   UNL A   1      32.787  34.906  28.375  1.00  0.00    -0.269 OA
BRANCH  30  33
ATOM     33  C   UNL A   1      34.522  33.610  29.300  1.00  0.00     0.039 A 
ATOM     34  C   UNL A   1      34.340  32.775  30.404  1.00  0.00     0.014 A 
ATOM     35  C   UNL A   1      35.780  34.143  29.007  1.00  0.00     0.014 A 
ATOM     36  C   UNL A   1      35.448  32.389  31.159  1.00  0.00     0.010 A 
ATOM     37  C   UNL A   1      36.891  33.703  29.721  1.00  0.00     0.010 A 
ATOM     38  C   UNL A   1      36.739  32.801  30.785  1.00  0.00    -0.014 A 
BRANCH  38  39
ATOM     39  C   UNL A   1      37.949  32.249  31.447  1.00  0.00     0.031 A 
ATOM     40  C   UNL A   1      38.728  31.142  30.798  1.00  0.00     0.074 A 
ATOM     41  C   UNL A   1      38.287  32.688  32.677  1.00  0.00     0.049 A 
ATOM     42  N   UNL A   1      39.735  30.453  31.270  1.00  0.00    -0.248 NA
ATOM     43  C   UNL A   1      38.302  30.740  29.449  1.00  0.00     0.031 C 
ATOM     44  C   UNL A   1      37.585  33.738  33.422  1.00  0.00     0.029 A 
ATOM     45  N   UNL A   1      39.292  32.298  33.528  1.00  0.00    -0.354 N 
ATOM     46  C   UNL A   1      40.059  29.531  30.281  1.00  0.00     0.074 A 
ATOM     47  C   UNL A   1      39.104  29.715  29.208  1.00  0.00     0.031 C 
ATOM     48  C   UNL A   1      38.191  33.918  34.606  1.00  0.00     0.029 A 
ATOM     49  C   UNL A   1      39.284  32.960  34.735  1.00  0.00     0.049 A 
ATOM     50  H   UNL A   1      39.956  31.609  33.297  1.00  0.00     0.167 HD
ATOM     51  C   UNL A   1      41.071  28.629  30.266  1.00  0.00     0.034 A 
ATOM     52  C   UNL A   1      40.049  32.795  35.833  1.00  0.00     0.034 A 
ATOM     53  C   UNL A   1      42.014  28.462  31.346  1.00  0.00     0.049 A 
ATOM     54  C   UNL A   1      41.123  31.736  35.817  1.00  0.00     0.074 A 
ATOM     55  C   UNL A   1      43.114  27.626  31.406  1.00  0.00     0.029 A 
ATOM     56  N   UNL A   1      41.956  29.130  32.563  1.00  0.00    -0.354 N 
ATOM     57  N   UNL A   1      41.456  30.913  34.849  1.00  0.00    -0.248 NA
ATOM     58  C   UNL A   1      41.919  31.580  37.041  1.00  0.00     0.031 C 
ATOM     59  C   UNL A   1      43.671  27.725  32.685  1.00  0.00     0.029 A 
ATOM     60  C   UNL A   1      42.970  28.684  33.398  1.00  0.00     0.049 A 
ATOM     61  H   UNL A   1      41.293  29.817  32.799  1.00  0.00     0.167 HD
ATOM     62  C   UNL A   1      42.515  30.156  35.343  1.00  0.00     0.074 A 
ATOM     63  C   UNL A   1      42.778  30.635  36.685  1.00  0.00     0.031 C 
ATOM     64  C   UNL A   1      43.207  29.155  34.743  1.00  0.00     0.034 A 
BRANCH  51  65
ATOM     65  C   UNL A   1      41.193  27.737  29.054  1.00  0.00     0.023 A 
ATOM     66  C   UNL A   1      42.184  27.945  28.080  1.00  0.00     0.031 A 
ATOM     67  C   UNL A   1      40.296  26.671  28.862  1.00  0.00     0.131 A 
ATOM     68  C   UNL A   1      42.214  27.146  26.928  1.00  0.00     0.055 A 
ATOM     69  C   UNL A   1      40.383  25.827  27.753  1.00  0.00     0.041 A 
ATOM     70  F   UNL A   1      39.314  26.435  29.747  1.00  0.00    -0.206 F 
ATOM     71  C   UNL A   1      41.337  26.072  26.770  1.00  0.00     0.022 A 
BRANCH  68  72
ATOM     72  S   UNL A   1      43.325  27.621  25.576  1.00  0.00     0.124 S 
ATOM     73  O   UNL A   1      44.093  26.394  25.381  1.00  0.00    -0.237 OA
ATOM     74  O   UNL A   1      42.394  27.968  24.509  1.00  0.00    -0.237 OA
ATOM     75  O   UNL A   1      44.083  28.740  26.132  1.00  0.00    -0.744 OA
ENDBRANCH  68  72
ENDBRANCH  51  65
BRANCH  52  76
ATOM     76  C   UNL A   1      39.811  33.618  37.055  1.00  0.00     0.023 A 
ATOM     77  C   UNL A   1      40.607  34.739  37.338  1.00  0.00     0.031 A 
ATOM     78  C   UNL A   1      38.815  33.267  37.985  1.00  0.00     0.131 A 
ATOM     79  C   UNL A   1      40.427  35.440  38.541  1.00  0.00     0.055 A 
ATOM     80  C   UNL A   1      38.602  34.002  39.152  1.00  0.00     0.041 A 
ATOM     81  F   UNL A   1      38.025  32.203  37.766  1.00  0.00    -0.206 F 
ATOM     82  C   UNL A   1      39.420  35.088  39.442  1.00  0.00     0.022 A 
BRANCH  79  83
ATOM     83  S   UNL A   1      41.596  36.763  38.956  1.00  0.00     0.124 S 
ATOM     84  O   UNL A   1      40.697  37.880  39.222  1.00  0.00    -0.237 OA
ATOM     85  O   UNL A   1      42.286  36.204  40.113  1.00  0.00    -0.237 OA
ATOM     86  O   UNL A   1      42.409  36.890  37.748  1.00  0.00    -0.744 OA
ENDBRANCH  79  83
ENDBRANCH  52  76
BRANCH  64  87
ATOM     87  C   UNL A   1      44.328  28.525  35.531  1.00  0.00     0.023 A 
ATOM     88  C   UNL A   1      44.126  27.363  36.296  1.00  0.00     0.031 A 
ATOM     89  C   UNL A   1      45.616  29.088  35.511  1.00  0.00     0.131 A 
ATOM     90  C   UNL A   1      45.184  26.824  37.043  1.00  0.00     0.055 A 
ATOM     91  C   UNL A   1      46.679  28.514  36.207  1.00  0.00     0.041 A 
ATOM     92  F   UNL A   1      45.864  30.200  34.801  1.00  0.00    -0.206 F 
ATOM     93  C   UNL A   1      46.465  27.381  36.986  1.00  0.00     0.022 A 
BRANCH  90  94
ATOM     94  S   UNL A   1      44.848  25.426  38.148  1.00  0.00     0.124 S 
ATOM     95  O   UNL A   1      44.494  26.102  39.391  1.00  0.00    -0.237 OA
ATOM     96  O   UNL A   1      43.759  24.739  37.461  1.00  0.00    -0.237 OA
ATOM     97  O   UNL A   1      46.117  24.699  38.176  1.00  0.00    -0.744 OA
ENDBRANCH  90  94
ENDBRANCH  64  87
ENDBRANCH  38  39
ENDBRANCH  30  33
ENDBRANCH  28  29
ENDBRANCH  27  28
ENDBRANCH   1  27
TORSDOF 17
ENDMDL
MODEL 3
REMARK VINA RESULT:     -12.1      6.008     11.036
REMARK SMILES O=C(NCc1ccc(C(=O)NCCCCNC(=O)c2ccc(-c3c4nc(c(-c5cc(S(=O)(=O)[O-])ccc5F)c5ccc([nH]5)c(-c5cc(S(=O)(=O)[O-])ccc5F)c5nc(c(-c6cc(S(=O)(=O)[O-])ccc6F)c6ccc3[nH]6)C=C5)C=C4)cc2)o1)Nc1ccc(F)c(Cl)c1
REMARK SMILES IDX 13 1 12 2 11 3 9 4 10 5 8 7 5 8 6 9 82 10 7 11 4 12 3 13
REMARK SMILES IDX 1 14 2 15 83 16 84 19 85 20 91 21 86 22 89 23 87 24 90 25
REMARK SMILES IDX 88 26 14 27 15 28 16 29 17 30 18 32 19 33 20 34 81 35 21 36
REMARK SMILES IDX 80 37 22 38 23 39 24 40 74 41 25 42 79 43 73 44 75 45 26 46
REMARK SMILES IDX 78 47 72 48 71 49 27 51 59 52 39 53 58 54 40 55 43 56 57 57
REMARK SMILES IDX 76 58 41 59 42 60 56 62 77 63 44 64 28 65 29 66 37 67 30 68
REMARK SMILES IDX 36 69 38 70 35 71 31 72 32 73 33 74 34 75 60 76 61 77 69 78
REMARK SMILES IDX 62 79 68 80 70 81 67 82 63 83 64 84 65 85 66 86 45 87 46 88
REMARK SMILES IDX 54 89 47 90 53 91 55 92 52 93 48 94 49 95 50 96 51 97
REMARK H PARENT 11 6 3 17 83 18 16 31 75 50 43 61
REMARK Flexibility Score: inf
ROOT
ATOM      1  C   UNL A   1      35.150  22.417  26.557  1.00  0.00     0.023 C 
ENDROOT
BRANCH   1   2
ATOM      2  C   UNL A   1      34.073  21.577  27.241  1.00  0.00     0.116 C 
BRANCH   2   3
ATOM      3  N   UNL A   1      33.253  20.888  26.270  1.00  0.00    -0.349 N 
ATOM      4  C   UNL A   1      32.149  21.292  25.555  1.00  0.00     0.286 C 
ATOM      5  O   UNL A   1      31.702  20.464  24.761  1.00  0.00    -0.266 OA
ATOM      6  H   UNL A   1      33.536  19.964  26.086  1.00  0.00     0.163 HD
BRANCH   4   7
ATOM      7  C   UNL A   1      31.559  22.612  25.721  1.00  0.00     0.191 A 
ATOM      8  C   UNL A   1      30.827  24.534  24.881  1.00  0.00     0.124 A 
ATOM      9  C   UNL A   1      30.649  24.619  26.242  1.00  0.00     0.048 A 
ATOM     10  O   UNL A   1      31.375  23.332  24.563  1.00  0.00    -0.454 OA
ATOM     11  C   UNL A   1      31.086  23.377  26.774  1.00  0.00     0.056 A 
BRANCH   8  12
ATOM     12  C   UNL A   1      30.546  25.442  23.746  1.00  0.00     0.193 C 
BRANCH  12  13
ATOM     13  N   UNL A   1      29.170  25.877  23.828  1.00  0.00    -0.331 N 
ATOM     14  O   UNL A   1      27.457  27.287  23.871  1.00  0.00    -0.248 OA
ATOM     15  C   UNL A   1      28.630  27.094  23.561  1.00  0.00     0.319 C 
ATOM     16  N   UNL A   1      29.444  27.995  22.931  1.00  0.00    -0.308 N 
ATOM     17  H   UNL A   1      28.530  25.190  24.122  1.00  0.00     0.165 HD
ATOM     18  H   UNL A   1      30.277  27.643  22.541  1.00  0.00     0.171 HD
BRANCH  16  19
ATOM     19  C   UNL A   1      29.207  29.376  22.785  1.00  0.00     0.044 A 
ATOM     20  C   UNL A   1      29.477  30.199  23.888  1.00  0.00     0.029 A 
ATOM     21  C   UNL A   1      28.688  29.944  21.616  1.00  0.00     0.049 A 
ATOM     22  C   UNL A   1      29.266  31.578  23.808  1.00  0.00     0.043 A 
ATOM     23  C   UNL A   1      28.465  31.321  21.544  1.00  0.00     0.078 A 
ATOM     24  C   UNL A   1      28.763  32.131  22.636  1.00  0.00     0.141 A 
ATOM     25  Cl  UNL A   1      27.813  32.002  20.103  1.00  0.00    -0.081 Cl
ATOM     26  F   UNL A   1      28.570  33.457  22.582  1.00  0.00    -0.205 F 
ENDBRANCH  16  19
ENDBRANCH  12  13
ENDBRANCH   8  12
ENDBRANCH   4   7
ENDBRANCH   2   3
ENDBRANCH   1   2
BRANCH   1  27
ATOM     27  C   UNL A   1      35.855  21.697  25.401  1.00  0.00     0.023 C 
BRANCH  27  28
ATOM     28  C   UNL A   1      37.304  22.119  25.157  1.00  0.00     0.116 C 
BRANCH  28  29
ATOM     29  N   UNL A   1      38.266  21.060  25.427  1.00  0.00    -0.352 N 
ATOM     30  C   UNL A   1      39.449  21.137  26.126  1.00  0.00     0.251 C 
ATOM     31  H   UNL A   1      38.042  20.174  25.060  1.00  0.00     0.163 HD
ATOM     32  O   UNL A   1      40.207  20.173  26.169  1.00  0.00    -0.269 OA
BRANCH  30  33
ATOM     33  C   UNL A   1      39.806  22.412  26.779  1.00  0.00     0.039 A 
ATOM     34  C   UNL A   1      40.733  22.399  27.823  1.00  0.00     0.014 A 
ATOM     35  C   UNL A   1      39.299  23.618  26.288  1.00  0.00     0.014 A 
ATOM     36  C   UNL A   1      41.232  23.609  28.307  1.00  0.00     0.010 A 
ATOM     37  C   UNL A   1      39.847  24.819  26.729  1.00  0.00     0.010 A 
ATOM     38  C   UNL A   1      40.840  24.824  27.722  1.00  0.00    -0.014 A 
BRANCH  38  39
ATOM     39  C   UNL A   1      41.499  26.106  28.082  1.00  0.00     0.031 A 
ATOM     40  C   UNL A   1      40.723  27.188  28.776  1.00  0.00     0.074 A 
ATOM     41  C   UNL A   1      42.774  26.324  27.697  1.00  0.00     0.049 A 
ATOM     42  N   UNL A   1      41.087  28.410  29.064  1.00  0.00    -0.248 NA
ATOM     43  C   UNL A   1      39.347  26.856  29.177  1.00  0.00     0.031 C 
ATOM     44  C   UNL A   1      43.618  25.358  26.987  1.00  0.00     0.029 A 
ATOM     45  N   UNL A   1      43.578  27.429  27.829  1.00  0.00    -0.354 N 
ATOM     46  C   UNL A   1      39.984  28.999  29.672  1.00  0.00     0.074 A 
ATOM     47  C   UNL A   1      38.922  28.014  29.660  1.00  0.00     0.031 C 
ATOM     48  C   UNL A   1      44.822  25.907  26.764  1.00  0.00     0.029 A 
ATOM     49  C   UNL A   1      44.821  27.280  27.256  1.00  0.00     0.049 A 
ATOM     50  H   UNL A   1      43.293  28.250  28.289  1.00  0.00     0.167 HD
ATOM     51  C   UNL A   1      39.877  30.241  30.207  1.00  0.00     0.034 A 
ATOM     52  C   UNL A   1      45.835  28.159  27.116  1.00  0.00     0.034 A 
ATOM     53  C   UNL A   1      40.947  31.208  30.210  1.00  0.00     0.049 A 
ATOM     54  C   UNL A   1      45.664  29.557  27.657  1.00  0.00     0.074 A 
ATOM     55  C   UNL A   1      40.966  32.468  30.782  1.00  0.00     0.029 A 
ATOM     56  N   UNL A   1      42.181  31.033  29.596  1.00  0.00    -0.354 N 
ATOM     57  N   UNL A   1      44.636  30.078  28.286  1.00  0.00    -0.248 NA
ATOM     58  C   UNL A   1      46.787  30.484  27.465  1.00  0.00     0.031 C 
ATOM     59  C   UNL A   1      42.175  33.085  30.444  1.00  0.00     0.029 A 
ATOM     60  C   UNL A   1      42.946  32.182  29.731  1.00  0.00     0.049 A 
ATOM     61  H   UNL A   1      42.469  30.214  29.133  1.00  0.00     0.167 HD
ATOM     62  C   UNL A   1      44.998  31.389  28.581  1.00  0.00     0.074 A 
ATOM     63  C   UNL A   1      46.346  31.571  28.082  1.00  0.00     0.031 C 
ATOM     64  C   UNL A   1      44.282  32.357  29.208  1.00  0.00     0.034 A 
BRANCH  51  65
ATOM     65  C   UNL A   1      38.547  30.628  30.808  1.00  0.00     0.023 A 
ATOM     66  C   UNL A   1      37.544  31.249  30.044  1.00  0.00     0.031 A 
ATOM     67  C   UNL A   1      38.283  30.386  32.168  1.00  0.00     0.131 A 
ATOM     68  C   UNL A   1      36.354  31.667  30.657  1.00  0.00     0.055 A 
ATOM     69  C   UNL A   1      37.063  30.731  32.753  1.00  0.00     0.041 A 
ATOM     70  F   UNL A   1      39.210  29.816  32.954  1.00  0.00    -0.206 F 
ATOM     71  C   UNL A   1      36.095  31.389  32.000  1.00  0.00     0.022 A 
BRANCH  68  72
ATOM     72  S   UNL A   1      35.211  32.705  29.706  1.00  0.00     0.124 S 
ATOM     73  O   UNL A   1      34.727  31.764  28.699  1.00  0.00    -0.237 OA
ATOM     74  O   UNL A   1      34.242  33.115  30.715  1.00  0.00    -0.237 OA
ATOM     75  O   UNL A   1      36.066  33.773  29.190  1.00  0.00    -0.744 OA
ENDBRANCH  68  72
ENDBRANCH  51  65
BRANCH  52  76
ATOM     76  C   UNL A   1      47.086  27.766  26.404  1.00  0.00     0.023 A 
ATOM     77  C   UNL A   1      47.220  27.956  25.019  1.00  0.00     0.031 A 
ATOM     78  C   UNL A   1      48.149  27.150  27.088  1.00  0.00     0.131 A 
ATOM     79  C   UNL A   1      48.367  27.492  24.356  1.00  0.00     0.055 A 
ATOM     80  C   UNL A   1      49.313  26.742  26.434  1.00  0.00     0.041 A 
ATOM     81  F   UNL A   1      48.075  26.943  28.413  1.00  0.00    -0.206 F 
ATOM     82  C   UNL A   1      49.420  26.900  25.056  1.00  0.00     0.022 A 
BRANCH  79  83
ATOM     83  S   UNL A   1      48.419  27.585  22.545  1.00  0.00     0.124 S 
ATOM     84  O   UNL A   1      49.678  28.284  22.321  1.00  0.00    -0.237 OA
ATOM     85  O   UNL A   1      48.389  26.176  22.169  1.00  0.00    -0.237 OA
ATOM     86  O   UNL A   1      47.215  28.344  22.210  1.00  0.00    -0.744 OA
ENDBRANCH  79  83
ENDBRANCH  52  76
BRANCH  64  87
ATOM     87  C   UNL A   1      44.954  33.693  29.403  1.00  0.00     0.023 A 
ATOM     88  C   UNL A   1      44.811  34.731  28.466  1.00  0.00     0.031 A 
ATOM     89  C   UNL A   1      45.739  33.934  30.544  1.00  0.00     0.131 A 
ATOM     90  C   UNL A   1      45.478  35.949  28.666  1.00  0.00     0.055 A 
ATOM     91  C   UNL A   1      46.351  35.168  30.767  1.00  0.00     0.041 A 
ATOM     92  F   UNL A   1      45.913  32.976  31.469  1.00  0.00    -0.206 F 
ATOM     93  C   UNL A   1      46.231  36.180  29.821  1.00  0.00     0.022 A 
BRANCH  90  94
ATOM     94  S   UNL A   1      45.408  37.205  27.359  1.00  0.00     0.124 S 
ATOM     95  O   UNL A   1      46.374  36.690  26.394  1.00  0.00    -0.237 OA
ATOM     96  O   UNL A   1      44.009  37.154  26.950  1.00  0.00    -0.237 OA
ATOM     97  O   UNL A   1      45.809  38.433  28.043  1.00  0.00    -0.744 OA
ENDBRANCH  90  94
ENDBRANCH  64  87
ENDBRANCH  38  39
ENDBRANCH  30  33
ENDBRANCH  28  29
ENDBRANCH  27  28
ENDBRANCH   1  27
TORSDOF 17
ENDMDL
