MODEL 1
REMARK VINA RESULT:     -10.2      0.000      0.000
REMARK SMILES COC(=O)[C@H]1CC[C@]2(C)[C@H]3CC=C4[C@@H]5CC(C)(C)CC[C@@]5(C(=O)NCCCCNC(=O)c5ccc(-c6c7nc(c(-c8cc(S(=O)(=O)[O-])ccc8F)c8ccc([nH]8)c(-c8cc(S(=O)(=O)[O-])ccc8F)c8nc(c(-c9cc(S(=O)(=O)[O-])ccc9F)c9ccc6[nH]9)C=C8)C=C7)cc5)CC[C@@]4(C)[C@@]3(C)CC[C@H]2C1(C)C
REMARK SMILES IDX 27 1 26 2 25 3 24 4 22 5 23 6 21 8 5 9 6 10 104 11 7 12
REMARK SMILES IDX 103 13 105 14 106 15 8 16 102 17 9 18 10 19 101 20 11 21
REMARK SMILES IDX 99 22 12 23 97 24 100 25 13 26 96 27 98 28 14 29 95 30 15 31
REMARK SMILES IDX 16 32 20 33 17 34 18 35 19 36 3 37 4 38 2 39 1 40 28 41
REMARK SMILES IDX 29 42 30 43 31 45 32 46 33 47 94 48 34 49 93 50 35 51 36 52
REMARK SMILES IDX 37 53 87 54 38 55 92 56 86 57 88 58 39 59 91 60 85 61 84 62
REMARK SMILES IDX 40 64 72 65 52 66 71 67 53 68 56 69 70 70 89 71 54 72 55 73
REMARK SMILES IDX 69 75 90 76 57 77 41 78 42 79 50 80 43 81 49 82 51 83 48 84
REMARK SMILES IDX 44 85 45 86 46 87 47 88 73 89 74 90 82 91 75 92 81 93 83 94
REMARK SMILES IDX 80 95 76 96 77 97 78 98 79 99 58 100 59 101 67 102 60 103
REMARK SMILES IDX 66 104 68 105 65 106 61 107 62 108 63 109 64 110
REMARK H PARENT 24 7 29 44 88 63 56 74
REMARK Flexibility Score: inf
ROOT
ATOM      1  C   UNL A   1      44.881  28.522  36.576  1.00  0.00     0.023 C 
ENDROOT
BRANCH   1   2
ATOM      2  C   UNL A   1      43.782  29.588  36.810  1.00  0.00     0.023 C 
BRANCH   2   3
ATOM      3  C   UNL A   1      42.597  29.460  35.854  1.00  0.00     0.116 C 
BRANCH   3   4
ATOM      4  N   UNL A   1      41.258  29.711  36.319  1.00  0.00    -0.356 N 
ATOM      5  C   UNL A   1      40.214  30.340  35.684  1.00  0.00     0.226 C 
ATOM      6  O   UNL A   1      39.102  30.079  36.167  1.00  0.00    -0.274 OA
ATOM      7  H   UNL A   1      41.060  29.386  37.227  1.00  0.00     0.163 HD
BRANCH   5   8
ATOM      8  C   UNL A   1      40.344  31.413  34.525  1.00  0.00     0.056 C 
ATOM      9  C   UNL A   1      42.851  29.065  27.088  1.00  0.00     0.105 C 
ATOM     10  C   UNL A   1      41.534  28.263  26.691  1.00  0.00     0.016 C 
ATOM     11  C   UNL A   1      42.800  29.933  28.421  1.00  0.00    -0.019 C 
ATOM     12  C   UNL A   1      40.246  28.330  27.585  1.00  0.00     0.008 C 
ATOM     13  C   UNL A   1      41.288  30.077  28.812  1.00  0.00     0.002 C 
ATOM     14  C   UNL A   1      43.680  29.385  29.586  1.00  0.00     0.012 C 
ATOM     15  C   UNL A   1      43.405  31.332  28.108  1.00  0.00     0.012 C 
ATOM     16  C   UNL A   1      40.581  28.699  29.060  1.00  0.00    -0.026 C 
ATOM     17  C   UNL A   1      40.912  31.204  29.749  1.00  0.00     0.005 C 
ATOM     18  C   UNL A   1      41.483  27.487  29.473  1.00  0.00     0.012 C 
ATOM     19  C   UNL A   1      39.271  28.723  30.046  1.00  0.00     0.006 C 
ATOM     20  C   UNL A   1      39.420  31.368  29.926  1.00  0.00     0.008 C 
ATOM     21  C   UNL A   1      39.505  27.808  31.321  1.00  0.00     0.032 C 
ATOM     22  C   UNL A   1      38.635  30.171  30.531  1.00  0.00    -0.020 C 
ATOM     23  C   UNL A   1      40.317  28.570  32.327  1.00  0.00    -0.027 C 
ATOM     24  C   UNL A   1      38.523  30.248  32.185  1.00  0.00    -0.006 C 
ATOM     25  C   UNL A   1      37.208  30.313  29.925  1.00  0.00     0.012 C 
ATOM     26  C   UNL A   1      39.923  29.813  32.642  1.00  0.00    -0.064 C 
ATOM     27  C   UNL A   1      38.167  31.618  32.875  1.00  0.00     0.013 C 
ATOM     28  C   UNL A   1      37.356  29.311  32.693  1.00  0.00     0.017 C 
ATOM     29  C   UNL A   1      40.831  30.918  33.171  1.00  0.00     0.031 C 
ATOM     30  C   UNL A   1      38.893  32.015  34.209  1.00  0.00     0.018 C 
ATOM     31  C   UNL A   1      42.350  30.801  32.970  1.00  0.00     0.015 C 
ATOM     32  C   UNL A   1      43.156  32.044  33.388  1.00  0.00    -0.035 C 
ATOM     33  C   UNL A   1      41.216  32.604  35.038  1.00  0.00     0.018 C 
ATOM     34  C   UNL A   1      44.650  31.665  33.444  1.00  0.00     0.011 C 
ATOM     35  C   UNL A   1      43.011  33.134  32.303  1.00  0.00     0.011 C 
ATOM     36  C   UNL A   1      42.723  32.574  34.768  1.00  0.00     0.007 C 
BRANCH   9  37
ATOM     37  C   UNL A   1      44.099  28.159  27.031  1.00  0.00     0.309 C 
ATOM     38  O   UNL A   1      44.384  27.297  27.848  1.00  0.00    -0.252 OA
BRANCH  37  39
ATOM     39  O   UNL A   1      44.883  28.493  25.964  1.00  0.00    -0.469 OA
ATOM     40  C   UNL A   1      45.772  29.593  26.189  1.00  0.00     0.282 C 
ENDBRANCH  37  39
ENDBRANCH   9  37
ENDBRANCH   5   8
ENDBRANCH   3   4
ENDBRANCH   2   3
ENDBRANCH   1   2
BRANCH   1  41
ATOM     41  C   UNL A   1      44.882  27.252  37.442  1.00  0.00     0.116 C 
BRANCH  41  42
ATOM     42  N   UNL A   1      43.591  26.599  37.603  1.00  0.00    -0.352 N 
ATOM     43  C   UNL A   1      42.869  25.813  36.734  1.00  0.00     0.251 C 
ATOM     44  H   UNL A   1      43.164  26.743  38.478  1.00  0.00     0.163 HD
ATOM     45  O   UNL A   1      41.797  25.332  37.096  1.00  0.00    -0.269 OA
BRANCH  43  46
ATOM     46  C   UNL A   1      43.331  25.609  35.346  1.00  0.00     0.039 A 
ATOM     47  C   UNL A   1      42.824  26.455  34.355  1.00  0.00     0.014 A 
ATOM     48  C   UNL A   1      44.284  24.641  35.022  1.00  0.00     0.014 A 
ATOM     49  C   UNL A   1      43.379  26.431  33.074  1.00  0.00     0.010 A 
ATOM     50  C   UNL A   1      44.879  24.658  33.760  1.00  0.00     0.010 A 
ATOM     51  C   UNL A   1      44.466  25.588  32.792  1.00  0.00    -0.014 A 
BRANCH  51  52
ATOM     52  C   UNL A   1      45.264  25.761  31.547  1.00  0.00     0.031 A 
ATOM     53  C   UNL A   1      46.180  26.937  31.371  1.00  0.00     0.074 A 
ATOM     54  C   UNL A   1      45.070  24.896  30.530  1.00  0.00     0.049 A 
ATOM     55  N   UNL A   1      46.855  27.306  30.313  1.00  0.00    -0.248 NA
ATOM     56  C   UNL A   1      46.339  27.825  32.530  1.00  0.00     0.031 C 
ATOM     57  C   UNL A   1      44.171  23.738  30.566  1.00  0.00     0.029 A 
ATOM     58  N   UNL A   1      45.595  24.863  29.261  1.00  0.00    -0.354 N 
ATOM     59  C   UNL A   1      47.510  28.479  30.669  1.00  0.00     0.074 A 
ATOM     60  C   UNL A   1      47.115  28.778  32.031  1.00  0.00     0.031 C 
ATOM     61  C   UNL A   1      44.212  23.109  29.382  1.00  0.00     0.029 A 
ATOM     62  C   UNL A   1      45.094  23.844  28.483  1.00  0.00     0.049 A 
ATOM     63  H   UNL A   1      46.265  25.508  28.939  1.00  0.00     0.167 HD
ATOM     64  C   UNL A   1      48.369  29.226  29.930  1.00  0.00     0.034 A 
ATOM     65  C   UNL A   1      45.294  23.547  27.184  1.00  0.00     0.034 A 
ATOM     66  C   UNL A   1      48.752  28.910  28.574  1.00  0.00     0.049 A 
ATOM     67  C   UNL A   1      46.217  24.417  26.373  1.00  0.00     0.074 A 
ATOM     68  C   UNL A   1      49.677  29.551  27.768  1.00  0.00     0.029 A 
ATOM     69  N   UNL A   1      48.215  27.878  27.815  1.00  0.00    -0.354 N 
ATOM     70  N   UNL A   1      46.883  25.485  26.747  1.00  0.00    -0.248 NA
ATOM     71  C   UNL A   1      46.414  24.044  24.966  1.00  0.00     0.031 C 
ATOM     72  C   UNL A   1      49.648  28.954  26.503  1.00  0.00     0.029 A 
ATOM     73  C   UNL A   1      48.755  27.895  26.537  1.00  0.00     0.049 A 
ATOM     74  H   UNL A   1      47.550  27.228  28.137  1.00  0.00     0.167 HD
ATOM     75  C   UNL A   1      47.589  25.903  25.623  1.00  0.00     0.074 A 
ATOM     76  C   UNL A   1      47.283  24.961  24.565  1.00  0.00     0.031 C 
ATOM     77  C   UNL A   1      48.418  26.967  25.481  1.00  0.00     0.034 A 
BRANCH  64  78
ATOM     78  C   UNL A   1      48.924  30.478  30.568  1.00  0.00     0.023 A 
ATOM     79  C   UNL A   1      48.243  31.705  30.501  1.00  0.00     0.031 A 
ATOM     80  C   UNL A   1      50.162  30.447  31.235  1.00  0.00     0.131 A 
ATOM     81  C   UNL A   1      48.838  32.866  31.021  1.00  0.00     0.055 A 
ATOM     82  C   UNL A   1      50.713  31.590  31.818  1.00  0.00     0.041 A 
ATOM     83  F   UNL A   1      50.865  29.307  31.318  1.00  0.00    -0.206 F 
ATOM     84  C   UNL A   1      50.057  32.812  31.699  1.00  0.00     0.022 A 
BRANCH  81  85
ATOM     85  S   UNL A   1      48.060  34.466  30.673  1.00  0.00     0.124 S 
ATOM     86  O   UNL A   1      47.948  34.431  29.216  1.00  0.00    -0.237 OA
ATOM     87  O   UNL A   1      46.806  34.375  31.412  1.00  0.00    -0.237 OA
ATOM     88  O   UNL A   1      49.022  35.436  31.193  1.00  0.00    -0.744 OA
ENDBRANCH  81  85
ENDBRANCH  64  78
BRANCH  65  89
ATOM     89  C   UNL A   1      44.576  22.402  26.555  1.00  0.00     0.023 A 
ATOM     90  C   UNL A   1      45.268  21.260  26.126  1.00  0.00     0.031 A 
ATOM     91  C   UNL A   1      43.185  22.448  26.350  1.00  0.00     0.131 A 
ATOM     92  C   UNL A   1      44.574  20.224  25.480  1.00  0.00     0.055 A 
ATOM     93  C   UNL A   1      42.492  21.395  25.751  1.00  0.00     0.041 A 
ATOM     94  F   UNL A   1      42.475  23.515  26.750  1.00  0.00    -0.206 F 
ATOM     95  C   UNL A   1      43.190  20.279  25.302  1.00  0.00     0.022 A 
BRANCH  92  96
ATOM     96  S   UNL A   1      45.521  18.828  24.815  1.00  0.00     0.124 S 
ATOM     97  O   UNL A   1      45.136  17.749  25.717  1.00  0.00    -0.237 OA
ATOM     98  O   UNL A   1      45.009  18.738  23.452  1.00  0.00    -0.237 OA
ATOM     99  O   UNL A   1      46.909  19.273  24.929  1.00  0.00    -0.744 OA
ENDBRANCH  92  96
ENDBRANCH  65  89
BRANCH  77 100
ATOM    100  C   UNL A   1      49.063  27.154  24.131  1.00  0.00     0.023 A 
ATOM    101  C   UNL A   1      50.417  26.847  23.915  1.00  0.00     0.031 A 
ATOM    102  C   UNL A   1      48.314  27.650  23.049  1.00  0.00     0.131 A 
ATOM    103  C   UNL A   1      50.993  27.079  22.657  1.00  0.00     0.055 A 
ATOM    104  C   UNL A   1      48.879  27.829  21.786  1.00  0.00     0.041 A 
ATOM    105  F   UNL A   1      47.018  27.963  23.203  1.00  0.00    -0.206 F 
ATOM    106  C   UNL A   1      50.229  27.551  21.587  1.00  0.00     0.022 A 
BRANCH 103 107
ATOM    107  S   UNL A   1      52.777  26.817  22.451  1.00  0.00     0.124 S 
ATOM    108  O   UNL A   1      53.063  25.842  23.498  1.00  0.00    -0.237 OA
ATOM    109  O   UNL A   1      52.865  26.322  21.080  1.00  0.00    -0.237 OA
ATOM    110  O   UNL A   1      53.346  28.145  22.666  1.00  0.00    -0.744 OA
ENDBRANCH 103 107
ENDBRANCH  77 100
ENDBRANCH  51  52
ENDBRANCH  43  46
ENDBRANCH  41  42
ENDBRANCH   1  41
TORSDOF 16
ENDMDL
MODEL 2
REMARK VINA RESULT:     -10.0      1.364      7.191
REMARK SMILES COC(=O)[C@H]1CC[C@]2(C)[C@H]3CC=C4[C@@H]5CC(C)(C)CC[C@@]5(C(=O)NCCCCNC(=O)c5ccc(-c6c7nc(c(-c8cc(S(=O)(=O)[O-])ccc8F)c8ccc([nH]8)c(-c8cc(S(=O)(=O)[O-])ccc8F)c8nc(c(-c9cc(S(=O)(=O)[O-])ccc9F)c9ccc6[nH]9)C=C8)C=C7)cc5)CC[C@@]4(C)[C@@]3(C)CC[C@H]2C1(C)C
REMARK SMILES IDX 27 1 26 2 25 3 24 4 22 5 23 6 21 8 5 9 6 10 104 11 7 12
REMARK SMILES IDX 103 13 105 14 106 15 8 16 102 17 9 18 10 19 101 20 11 21
REMARK SMILES IDX 99 22 12 23 97 24 100 25 13 26 96 27 98 28 14 29 95 30 15 31
REMARK SMILES IDX 16 32 20 33 17 34 18 35 19 36 3 37 4 38 2 39 1 40 28 41
REMARK SMILES IDX 29 42 30 43 31 45 32 46 33 47 94 48 34 49 93 50 35 51 36 52
REMARK SMILES IDX 37 53 87 54 38 55 92 56 86 57 88 58 39 59 91 60 85 61 84 62
REMARK SMILES IDX 40 64 72 65 52 66 71 67 53 68 56 69 70 70 89 71 54 72 55 73
REMARK SMILES IDX 69 75 90 76 57 77 41 78 42 79 50 80 43 81 49 82 51 83 48 84
REMARK SMILES IDX 44 85 45 86 46 87 47 88 73 89 74 90 82 91 75 92 81 93 83 94
REMARK SMILES IDX 80 95 76 96 77 97 78 98 79 99 58 100 59 101 67 102 60 103
REMARK SMILES IDX 66 104 68 105 65 106 61 107 62 108 63 109 64 110
REMARK H PARENT 24 7 29 44 88 63 56 74
REMARK Flexibility Score: inf
ROOT
ATOM      1  C   UNL A   1      45.050  27.712  36.777  1.00  0.00     0.023 C 
ENDROOT
BRANCH   1   2
ATOM      2  C   UNL A   1      44.107  28.905  37.065  1.00  0.00     0.023 C 
BRANCH   2   3
ATOM      3  C   UNL A   1      43.000  29.070  36.025  1.00  0.00     0.116 C 
BRANCH   3   4
ATOM      4  N   UNL A   1      41.651  29.356  36.440  1.00  0.00    -0.356 N 
ATOM      5  C   UNL A   1      40.664  30.057  35.788  1.00  0.00     0.226 C 
ATOM      6  O   UNL A   1      39.521  29.821  36.205  1.00  0.00    -0.274 OA
ATOM      7  H   UNL A   1      41.397  28.997  37.321  1.00  0.00     0.163 HD
BRANCH   5   8
ATOM      8  C   UNL A   1      40.894  31.176  34.689  1.00  0.00     0.056 C 
ATOM      9  C   UNL A   1      42.742  29.000  27.010  1.00  0.00     0.105 C 
ATOM     10  C   UNL A   1      41.312  28.410  26.633  1.00  0.00     0.016 C 
ATOM     11  C   UNL A   1      42.866  29.778  28.393  1.00  0.00    -0.019 C 
ATOM     12  C   UNL A   1      40.083  28.592  27.593  1.00  0.00     0.008 C 
ATOM     13  C   UNL A   1      41.406  30.099  28.867  1.00  0.00     0.002 C 
ATOM     14  C   UNL A   1      43.710  29.042  29.478  1.00  0.00     0.012 C 
ATOM     15  C   UNL A   1      43.645  31.100  28.133  1.00  0.00     0.012 C 
ATOM     16  C   UNL A   1      40.527  28.816  29.068  1.00  0.00    -0.026 C 
ATOM     17  C   UNL A   1      41.229  31.203  29.886  1.00  0.00     0.005 C 
ATOM     18  C   UNL A   1      41.270  27.469  29.364  1.00  0.00     0.012 C 
ATOM     19  C   UNL A   1      39.275  28.952  30.118  1.00  0.00     0.006 C 
ATOM     20  C   UNL A   1      39.781  31.555  30.147  1.00  0.00     0.008 C 
ATOM     21  C   UNL A   1      39.433  27.933  31.324  1.00  0.00     0.032 C 
ATOM     22  C   UNL A   1      38.865  30.439  30.719  1.00  0.00    -0.020 C 
ATOM     23  C   UNL A   1      40.384  28.511  32.331  1.00  0.00    -0.027 C 
ATOM     24  C   UNL A   1      38.833  30.422  32.378  1.00  0.00    -0.006 C 
ATOM     25  C   UNL A   1      37.447  30.811  30.194  1.00  0.00     0.012 C 
ATOM     26  C   UNL A   1      40.178  29.773  32.738  1.00  0.00    -0.064 C 
ATOM     27  C   UNL A   1      38.699  31.779  33.164  1.00  0.00     0.013 C 
ATOM     28  C   UNL A   1      37.571  29.619  32.888  1.00  0.00     0.017 C 
ATOM     29  C   UNL A   1      41.251  30.708  33.285  1.00  0.00     0.031 C 
ATOM     30  C   UNL A   1      39.528  31.988  34.481  1.00  0.00     0.018 C 
ATOM     31  C   UNL A   1      42.730  30.401  33.002  1.00  0.00     0.015 C 
ATOM     32  C   UNL A   1      43.716  31.494  33.452  1.00  0.00    -0.035 C 
ATOM     33  C   UNL A   1      41.941  32.202  35.227  1.00  0.00     0.018 C 
ATOM     34  C   UNL A   1      45.145  30.914  33.411  1.00  0.00     0.011 C 
ATOM     35  C   UNL A   1      43.677  32.662  32.441  1.00  0.00     0.011 C 
ATOM     36  C   UNL A   1      43.417  31.986  34.880  1.00  0.00     0.007 C 
BRANCH   9  37
ATOM     37  C   UNL A   1      43.849  27.939  26.838  1.00  0.00     0.309 C 
ATOM     38  O   UNL A   1      43.758  26.763  27.156  1.00  0.00    -0.252 OA
BRANCH  37  39
ATOM     39  O   UNL A   1      44.982  28.509  26.331  1.00  0.00    -0.469 OA
ATOM     40  C   UNL A   1      45.551  27.825  25.208  1.00  0.00     0.282 C 
ENDBRANCH  37  39
ENDBRANCH   9  37
ENDBRANCH   5   8
ENDBRANCH   3   4
ENDBRANCH   2   3
ENDBRANCH   1   2
BRANCH   1  41
ATOM     41  C   UNL A   1      44.900  26.426  37.608  1.00  0.00     0.116 C 
BRANCH  41  42
ATOM     42  N   UNL A   1      43.560  25.861  37.654  1.00  0.00    -0.352 N 
ATOM     43  C   UNL A   1      42.806  25.258  36.672  1.00  0.00     0.251 C 
ATOM     44  H   UNL A   1      43.119  25.918  38.533  1.00  0.00     0.163 HD
ATOM     45  O   UNL A   1      41.690  24.818  36.945  1.00  0.00    -0.269 OA
BRANCH  43  46
ATOM     46  C   UNL A   1      43.291  25.208  35.278  1.00  0.00     0.039 A 
ATOM     47  C   UNL A   1      42.844  26.193  34.392  1.00  0.00     0.014 A 
ATOM     48  C   UNL A   1      44.209  24.246  34.852  1.00  0.00     0.014 A 
ATOM     49  C   UNL A   1      43.428  26.304  33.129  1.00  0.00     0.010 A 
ATOM     50  C   UNL A   1      44.834  24.394  33.613  1.00  0.00     0.010 A 
ATOM     51  C   UNL A   1      44.484  25.455  32.763  1.00  0.00    -0.014 A 
BRANCH  51  52
ATOM     52  C   UNL A   1      45.318  25.746  31.564  1.00  0.00     0.031 A 
ATOM     53  C   UNL A   1      45.137  24.977  30.289  1.00  0.00     0.074 A 
ATOM     54  C   UNL A   1      46.318  26.646  31.677  1.00  0.00     0.049 A 
ATOM     55  N   UNL A   1      45.851  25.017  29.193  1.00  0.00    -0.248 NA
ATOM     56  C   UNL A   1      44.021  24.023  30.250  1.00  0.00     0.031 C 
ATOM     57  C   UNL A   1      46.621  27.425  32.881  1.00  0.00     0.029 A 
ATOM     58  N   UNL A   1      47.279  27.043  30.779  1.00  0.00    -0.354 N 
ATOM     59  C   UNL A   1      45.283  24.083  28.334  1.00  0.00     0.074 A 
ATOM     60  C   UNL A   1      44.189  23.466  29.058  1.00  0.00     0.031 C 
ATOM     61  C   UNL A   1      47.685  28.206  32.646  1.00  0.00     0.029 A 
ATOM     62  C   UNL A   1      48.176  27.949  31.297  1.00  0.00     0.049 A 
ATOM     63  H   UNL A   1      47.321  26.711  29.854  1.00  0.00     0.167 HD
ATOM     64  C   UNL A   1      45.635  23.781  27.059  1.00  0.00     0.034 A 
ATOM     65  C   UNL A   1      49.289  28.491  30.763  1.00  0.00     0.034 A 
ATOM     66  C   UNL A   1      46.728  24.410  26.355  1.00  0.00     0.049 A 
ATOM     67  C   UNL A   1      49.685  28.107  29.362  1.00  0.00     0.074 A 
ATOM     68  C   UNL A   1      47.116  24.239  25.036  1.00  0.00     0.029 A 
ATOM     69  N   UNL A   1      47.622  25.313  26.915  1.00  0.00    -0.354 N 
ATOM     70  N   UNL A   1      49.095  27.272  28.539  1.00  0.00    -0.248 NA
ATOM     71  C   UNL A   1      50.896  28.736  28.819  1.00  0.00     0.031 C 
ATOM     72  C   UNL A   1      48.282  24.981  24.820  1.00  0.00     0.029 A 
ATOM     73  C   UNL A   1      48.586  25.671  25.983  1.00  0.00     0.049 A 
ATOM     74  H   UNL A   1      47.578  25.651  27.838  1.00  0.00     0.167 HD
ATOM     75  C   UNL A   1      49.856  27.286  27.375  1.00  0.00     0.074 A 
ATOM     76  C   UNL A   1      50.937  28.227  27.596  1.00  0.00     0.031 C 
ATOM     77  C   UNL A   1      49.676  26.587  26.226  1.00  0.00     0.034 A 
BRANCH  64  78
ATOM     78  C   UNL A   1      44.848  22.698  26.360  1.00  0.00     0.023 A 
ATOM     79  C   UNL A   1      45.412  21.443  26.073  1.00  0.00     0.031 A 
ATOM     80  C   UNL A   1      43.521  22.932  25.956  1.00  0.00     0.131 A 
ATOM     81  C   UNL A   1      44.681  20.499  25.336  1.00  0.00     0.055 A 
ATOM     82  C   UNL A   1      42.772  21.960  25.290  1.00  0.00     0.041 A 
ATOM     83  F   UNL A   1      42.934  24.116  26.189  1.00  0.00    -0.206 F 
ATOM     84  C   UNL A   1      43.358  20.740  24.962  1.00  0.00     0.022 A 
BRANCH  81  85
ATOM     85  S   UNL A   1      45.535  19.010  24.751  1.00  0.00     0.124 S 
ATOM     86  O   UNL A   1      45.055  18.914  23.374  1.00  0.00    -0.237 OA
ATOM     87  O   UNL A   1      46.940  19.367  24.914  1.00  0.00    -0.237 OA
ATOM     88  O   UNL A   1      45.049  17.962  25.647  1.00  0.00    -0.744 OA
ENDBRANCH  81  85
ENDBRANCH  64  78
BRANCH  65  89
ATOM     89  C   UNL A   1      50.133  29.420  31.567  1.00  0.00     0.023 A 
ATOM     90  C   UNL A   1      49.894  30.802  31.565  1.00  0.00     0.031 A 
ATOM     91  C   UNL A   1      51.211  28.936  32.331  1.00  0.00     0.131 A 
ATOM     92  C   UNL A   1      50.744  31.659  32.282  1.00  0.00     0.055 A 
ATOM     93  C   UNL A   1      52.025  29.787  33.081  1.00  0.00     0.041 A 
ATOM     94  F   UNL A   1      51.477  27.621  32.373  1.00  0.00    -0.206 F 
ATOM     95  C   UNL A   1      51.799  31.160  33.050  1.00  0.00     0.022 A 
BRANCH  92  96
ATOM     96  S   UNL A   1      50.490  33.449  32.144  1.00  0.00     0.124 S 
ATOM     97  O   UNL A   1      49.252  33.517  31.376  1.00  0.00    -0.237 OA
ATOM     98  O   UNL A   1      50.401  33.851  33.543  1.00  0.00    -0.237 OA
ATOM     99  O   UNL A   1      51.687  33.909  31.441  1.00  0.00    -0.744 OA
ENDBRANCH  92  96
ENDBRANCH  65  89
BRANCH  77 100
ATOM    100  C   UNL A   1      50.668  26.833  25.117  1.00  0.00     0.023 A 
ATOM    101  C   UNL A   1      50.417  27.770  24.101  1.00  0.00     0.031 A 
ATOM    102  C   UNL A   1      51.876  26.114  25.073  1.00  0.00     0.131 A 
ATOM    103  C   UNL A   1      51.342  27.936  23.059  1.00  0.00     0.055 A 
ATOM    104  C   UNL A   1      52.817  26.321  24.064  1.00  0.00     0.041 A 
ATOM    105  F   UNL A   1      52.163  25.204  26.016  1.00  0.00    -0.206 F 
ATOM    106  C   UNL A   1      52.548  27.230  23.043  1.00  0.00     0.022 A 
BRANCH 103 107
ATOM    107  S   UNL A   1      50.921  29.042  21.684  1.00  0.00     0.124 S 
ATOM    108  O   UNL A   1      51.788  28.546  20.621  1.00  0.00    -0.237 OA
ATOM    109  O   UNL A   1      49.493  28.795  21.509  1.00  0.00    -0.237 OA
ATOM    110  O   UNL A   1      51.261  30.369  22.194  1.00  0.00    -0.744 OA
ENDBRANCH 103 107
ENDBRANCH  77 100
ENDBRANCH  51  52
ENDBRANCH  43  46
ENDBRANCH  41  42
ENDBRANCH   1  41
TORSDOF 16
ENDMDL
MODEL 3
REMARK VINA RESULT:      -9.9      4.997     13.249
REMARK SMILES COC(=O)[C@H]1CC[C@]2(C)[C@H]3CC=C4[C@@H]5CC(C)(C)CC[C@@]5(C(=O)NCCCCNC(=O)c5ccc(-c6c7nc(c(-c8cc(S(=O)(=O)[O-])ccc8F)c8ccc([nH]8)c(-c8cc(S(=O)(=O)[O-])ccc8F)c8nc(c(-c9cc(S(=O)(=O)[O-])ccc9F)c9ccc6[nH]9)C=C8)C=C7)cc5)CC[C@@]4(C)[C@@]3(C)CC[C@H]2C1(C)C
REMARK SMILES IDX 27 1 26 2 25 3 24 4 22 5 23 6 21 8 5 9 6 10 104 11 7 12
REMARK SMILES IDX 103 13 105 14 106 15 8 16 102 17 9 18 10 19 101 20 11 21
REMARK SMILES IDX 99 22 12 23 97 24 100 25 13 26 96 27 98 28 14 29 95 30 15 31
REMARK SMILES IDX 16 32 20 33 17 34 18 35 19 36 3 37 4 38 2 39 1 40 28 41
REMARK SMILES IDX 29 42 30 43 31 45 32 46 33 47 94 48 34 49 93 50 35 51 36 52
REMARK SMILES IDX 37 53 87 54 38 55 92 56 86 57 88 58 39 59 91 60 85 61 84 62
REMARK SMILES IDX 40 64 72 65 52 66 71 67 53 68 56 69 70 70 89 71 54 72 55 73
REMARK SMILES IDX 69 75 90 76 57 77 41 78 42 79 50 80 43 81 49 82 51 83 48 84
REMARK SMILES IDX 44 85 45 86 46 87 47 88 73 89 74 90 82 91 75 92 81 93 83 94
REMARK SMILES IDX 80 95 76 96 77 97 78 98 79 99 58 100 59 101 67 102 60 103
REMARK SMILES IDX 66 104 68 105 65 106 61 107 62 108 63 109 64 110
REMARK H PARENT 24 7 29 44 88 63 56 74
REMARK Flexibility Score: inf
ROOT
ATOM      1  C   UNL A   1      46.644  32.474  26.468  1.00  0.00     0.023 C 
ENDROOT
BRANCH   1   2
ATOM      2  C   UNL A   1      46.971  32.001  27.905  1.00  0.00     0.023 C 
BRANCH   2   3
ATOM      3  C   UNL A   1      48.119  30.994  27.967  1.00  0.00     0.116 C 
BRANCH   3   4
ATOM      4  N   UNL A   1      48.252  29.980  26.953  1.00  0.00    -0.356 N 
ATOM      5  C   UNL A   1      47.687  28.729  26.888  1.00  0.00     0.226 C 
ATOM      6  O   UNL A   1      47.676  28.242  25.748  1.00  0.00    -0.274 OA
ATOM      7  H   UNL A   1      48.833  30.217  26.195  1.00  0.00     0.163 HD
BRANCH   5   8
ATOM      8  C   UNL A   1      47.196  27.867  28.124  1.00  0.00     0.056 C 
ATOM      9  C   UNL A   1      39.655  29.006  31.118  1.00  0.00     0.105 C 
ATOM     10  C   UNL A   1      38.868  28.362  29.892  1.00  0.00     0.016 C 
ATOM     11  C   UNL A   1      41.238  28.843  31.131  1.00  0.00    -0.019 C 
ATOM     12  C   UNL A   1      39.631  27.603  28.750  1.00  0.00     0.008 C 
ATOM     13  C   UNL A   1      41.589  27.724  30.090  1.00  0.00     0.002 C 
ATOM     14  C   UNL A   1      42.029  30.165  30.893  1.00  0.00     0.012 C 
ATOM     15  C   UNL A   1      41.663  28.393  32.559  1.00  0.00     0.012 C 
ATOM     16  C   UNL A   1      41.113  28.064  28.635  1.00  0.00    -0.026 C 
ATOM     17  C   UNL A   1      42.937  27.049  30.215  1.00  0.00     0.005 C 
ATOM     18  C   UNL A   1      40.927  29.576  28.270  1.00  0.00     0.012 C 
ATOM     19  C   UNL A   1      41.935  27.341  27.415  1.00  0.00     0.006 C 
ATOM     20  C   UNL A   1      43.111  25.872  29.283  1.00  0.00     0.008 C 
ATOM     21  C   UNL A   1      42.619  28.420  26.473  1.00  0.00     0.032 C 
ATOM     22  C   UNL A   1      43.031  26.150  27.756  1.00  0.00    -0.020 C 
ATOM     23  C   UNL A   1      43.900  28.879  27.108  1.00  0.00    -0.027 C 
ATOM     24  C   UNL A   1      44.512  26.496  27.090  1.00  0.00    -0.006 C 
ATOM     25  C   UNL A   1      42.512  24.810  27.157  1.00  0.00     0.012 C 
ATOM     26  C   UNL A   1      44.759  27.943  27.539  1.00  0.00    -0.064 C 
ATOM     27  C   UNL A   1      45.761  25.622  27.483  1.00  0.00     0.013 C 
ATOM     28  C   UNL A   1      44.457  26.305  25.522  1.00  0.00     0.017 C 
ATOM     29  C   UNL A   1      45.791  28.138  28.645  1.00  0.00     0.031 C 
ATOM     30  C   UNL A   1      47.150  26.323  27.696  1.00  0.00     0.018 C 
ATOM     31  C   UNL A   1      45.620  29.300  29.635  1.00  0.00     0.015 C 
ATOM     32  C   UNL A   1      46.618  29.304  30.807  1.00  0.00    -0.035 C 
ATOM     33  C   UNL A   1      48.253  27.979  29.267  1.00  0.00     0.018 C 
ATOM     34  C   UNL A   1      46.544  30.675  31.510  1.00  0.00     0.011 C 
ATOM     35  C   UNL A   1      46.187  28.244  31.846  1.00  0.00     0.011 C 
ATOM     36  C   UNL A   1      48.063  29.062  30.333  1.00  0.00     0.007 C 
BRANCH   9  37
ATOM     37  C   UNL A   1      39.219  30.466  31.360  1.00  0.00     0.309 C 
ATOM     38  O   UNL A   1      38.903  31.264  30.490  1.00  0.00    -0.252 OA
BRANCH  37  39
ATOM     39  O   UNL A   1      39.290  30.771  32.690  1.00  0.00    -0.469 OA
ATOM     40  C   UNL A   1      38.180  30.316  33.472  1.00  0.00     0.282 C 
ENDBRANCH  37  39
ENDBRANCH   9  37
ENDBRANCH   5   8
ENDBRANCH   3   4
ENDBRANCH   2   3
ENDBRANCH   1   2
BRANCH   1  41
ATOM     41  C   UNL A   1      46.396  33.971  26.216  1.00  0.00     0.116 C 
BRANCH  41  42
ATOM     42  N   UNL A   1      45.112  34.303  25.615  1.00  0.00    -0.352 N 
ATOM     43  C   UNL A   1      43.885  34.537  26.192  1.00  0.00     0.251 C 
ATOM     44  H   UNL A   1      45.124  34.372  24.633  1.00  0.00     0.163 HD
ATOM     45  O   UNL A   1      42.926  34.836  25.484  1.00  0.00    -0.269 OA
BRANCH  43  46
ATOM     46  C   UNL A   1      43.692  34.354  27.645  1.00  0.00     0.039 A 
ATOM     47  C   UNL A   1      43.685  35.493  28.456  1.00  0.00     0.014 A 
ATOM     48  C   UNL A   1      43.468  33.094  28.205  1.00  0.00     0.014 A 
ATOM     49  C   UNL A   1      43.308  35.388  29.796  1.00  0.00     0.010 A 
ATOM     50  C   UNL A   1      43.034  32.997  29.527  1.00  0.00     0.010 A 
ATOM     51  C   UNL A   1      42.901  34.150  30.319  1.00  0.00    -0.014 A 
BRANCH  51  52
ATOM     52  C   UNL A   1      42.211  34.066  31.635  1.00  0.00     0.031 A 
ATOM     53  C   UNL A   1      42.959  33.692  32.880  1.00  0.00     0.074 A 
ATOM     54  C   UNL A   1      40.871  34.229  31.672  1.00  0.00     0.049 A 
ATOM     55  N   UNL A   1      42.497  33.458  34.081  1.00  0.00    -0.248 NA
ATOM     56  C   UNL A   1      44.414  33.540  32.752  1.00  0.00     0.031 C 
ATOM     57  C   UNL A   1      40.027  34.552  30.518  1.00  0.00     0.029 A 
ATOM     58  N   UNL A   1      39.979  34.125  32.711  1.00  0.00    -0.354 N 
ATOM     59  C   UNL A   1      43.600  33.115  34.854  1.00  0.00     0.074 A 
ATOM     60  C   UNL A   1      44.748  33.135  33.969  1.00  0.00     0.031 C 
ATOM     61  C   UNL A   1      38.748  34.625  30.912  1.00  0.00     0.029 A 
ATOM     62  C   UNL A   1      38.668  34.302  32.332  1.00  0.00     0.049 A 
ATOM     63  H   UNL A   1      40.252  33.942  33.639  1.00  0.00     0.167 HD
ATOM     64  C   UNL A   1      43.649  32.825  36.179  1.00  0.00     0.034 A 
ATOM     65  C   UNL A   1      37.524  34.188  33.036  1.00  0.00     0.034 A 
ATOM     66  C   UNL A   1      42.493  32.813  37.044  1.00  0.00     0.049 A 
ATOM     67  C   UNL A   1      37.600  33.821  34.494  1.00  0.00     0.074 A 
ATOM     68  C   UNL A   1      42.444  32.616  38.414  1.00  0.00     0.029 A 
ATOM     69  N   UNL A   1      41.181  32.984  36.623  1.00  0.00    -0.354 N 
ATOM     70  N   UNL A   1      38.661  33.567  35.225  1.00  0.00    -0.248 NA
ATOM     71  C   UNL A   1      36.328  33.723  35.221  1.00  0.00     0.031 C 
ATOM     72  C   UNL A   1      41.101  32.596  38.808  1.00  0.00     0.029 A 
ATOM     73  C   UNL A   1      40.313  32.850  37.698  1.00  0.00     0.049 A 
ATOM     74  H   UNL A   1      40.906  33.174  35.697  1.00  0.00     0.167 HD
ATOM     75  C   UNL A   1      38.183  33.293  36.503  1.00  0.00     0.074 A 
ATOM     76  C   UNL A   1      36.741  33.431  36.446  1.00  0.00     0.031 C 
ATOM     77  C   UNL A   1      38.874  32.960  37.621  1.00  0.00     0.034 A 
BRANCH  64  78
ATOM     78  C   UNL A   1      44.995  32.463  36.760  1.00  0.00     0.023 A 
ATOM     79  C   UNL A   1      45.363  31.128  36.997  1.00  0.00     0.031 A 
ATOM     80  C   UNL A   1      45.916  33.471  37.103  1.00  0.00     0.131 A 
ATOM     81  C   UNL A   1      46.583  30.839  37.629  1.00  0.00     0.055 A 
ATOM     82  C   UNL A   1      47.160  33.172  37.661  1.00  0.00     0.041 A 
ATOM     83  F   UNL A   1      45.614  34.764  36.915  1.00  0.00    -0.206 F 
ATOM     84  C   UNL A   1      47.493  31.849  37.942  1.00  0.00     0.022 A 
BRANCH  81  85
ATOM     85  S   UNL A   1      46.896  29.134  38.163  1.00  0.00     0.124 S 
ATOM     86  O   UNL A   1      45.589  28.741  38.684  1.00  0.00    -0.237 OA
ATOM     87  O   UNL A   1      47.310  28.486  36.923  1.00  0.00    -0.237 OA
ATOM     88  O   UNL A   1      47.944  29.278  39.172  1.00  0.00    -0.744 OA
ENDBRANCH  81  85
ENDBRANCH  64  78
BRANCH  65  89
ATOM     89  C   UNL A   1      36.207  34.377  32.365  1.00  0.00     0.023 A 
ATOM     90  C   UNL A   1      35.483  35.570  32.514  1.00  0.00     0.031 A 
ATOM     91  C   UNL A   1      35.641  33.354  31.583  1.00  0.00     0.131 A 
ATOM     92  C   UNL A   1      34.217  35.697  31.922  1.00  0.00     0.055 A 
ATOM     93  C   UNL A   1      34.402  33.503  30.956  1.00  0.00     0.041 A 
ATOM     94  F   UNL A   1      36.296  32.197  31.402  1.00  0.00    -0.206 F 
ATOM     95  C   UNL A   1      33.677  34.677  31.134  1.00  0.00     0.022 A 
BRANCH  92  96
ATOM     96  S   UNL A   1      33.250  37.196  32.252  1.00  0.00     0.124 S 
ATOM     97  O   UNL A   1      32.033  36.643  32.837  1.00  0.00    -0.237 OA
ATOM     98  O   UNL A   1      34.125  37.926  33.161  1.00  0.00    -0.237 OA
ATOM     99  O   UNL A   1      33.089  37.796  30.928  1.00  0.00    -0.744 OA
ENDBRANCH  92  96
ENDBRANCH  65  89
BRANCH  77 100
ATOM    100  C   UNL A   1      38.071  32.740  38.878  1.00  0.00     0.023 A 
ATOM    101  C   UNL A   1      38.095  33.664  39.937  1.00  0.00     0.031 A 
ATOM    102  C   UNL A   1      37.276  31.588  39.021  1.00  0.00     0.131 A 
ATOM    103  C   UNL A   1      37.372  33.401  41.110  1.00  0.00     0.055 A 
ATOM    104  C   UNL A   1      36.518  31.357  40.168  1.00  0.00     0.041 A 
ATOM    105  F   UNL A   1      37.222  30.672  38.041  1.00  0.00    -0.206 F 
ATOM    106  C   UNL A   1      36.570  32.262  41.226  1.00  0.00     0.022 A 
BRANCH 103 107
ATOM    107  S   UNL A   1      37.543  34.536  42.516  1.00  0.00     0.124 S 
ATOM    108  O   UNL A   1      38.552  33.863  43.326  1.00  0.00    -0.237 OA
ATOM    109  O   UNL A   1      37.966  35.774  41.869  1.00  0.00    -0.237 OA
ATOM    110  O   UNL A   1      36.202  34.568  43.096  1.00  0.00    -0.744 OA
ENDBRANCH 103 107
ENDBRANCH  77 100
ENDBRANCH  51  52
ENDBRANCH  43  46
ENDBRANCH  41  42
ENDBRANCH   1  41
TORSDOF 16
ENDMDL
