MODEL 1
REMARK VINA RESULT:     -11.3      0.000      0.000
REMARK SMILES C[C@@H](O)[C@@H](NC(=O)CSc1ccncc1)C(=O)NCCCCNC(=O)c1ccc(-c2c3nc(c(-c4cc(S(=O)(=O)[O-])ccc4F)c4ccc([nH]4)c(-c4cc(S(=O)(=O)[O-])ccc4F)c4nc(c(-c5cc(S(=O)(=O)[O-])ccc5F)c5ccc2[nH]5)C=C4)C=C3)cc1
REMARK SMILES IDX 20 1 19 2 18 3 16 4 17 5 4 7 2 8 1 9 3 10 5 12 6 13 7 15
REMARK SMILES IDX 8 16 9 17 10 18 11 19 15 20 12 21 14 22 13 23 21 24 22 25
REMARK SMILES IDX 23 26 24 27 25 29 26 30 27 31 88 32 28 33 87 34 29 35 30 36
REMARK SMILES IDX 31 37 81 38 32 39 86 40 80 41 82 42 33 43 85 44 79 45 78 46
REMARK SMILES IDX 34 48 66 49 46 50 65 51 47 52 50 53 64 54 83 55 48 56 49 57
REMARK SMILES IDX 63 59 84 60 51 61 35 62 36 63 44 64 37 65 43 66 45 67 42 68
REMARK SMILES IDX 38 69 39 70 40 71 41 72 67 73 68 74 76 75 69 76 75 77 77 78
REMARK SMILES IDX 74 79 70 80 71 81 72 82 73 83 52 84 53 85 61 86 54 87 60 88
REMARK SMILES IDX 62 89 59 90 55 91 56 92 57 93 58 94
REMARK H PARENT 18 6 3 11 5 14 23 28 82 47 50 58
REMARK Flexibility Score: inf
ROOT
ATOM      1  C   UNL A   1      30.742  30.804  25.178  1.00  0.00     0.023 C 
ENDROOT
BRANCH   1   2
ATOM      2  C   UNL A   1      31.732  29.696  25.510  1.00  0.00     0.116 C 
BRANCH   2   3
ATOM      3  N   UNL A   1      32.753  29.545  24.493  1.00  0.00    -0.354 N 
ATOM      4  C   UNL A   1      32.960  28.514  23.622  1.00  0.00     0.245 C 
ATOM      5  O   UNL A   1      33.748  28.704  22.691  1.00  0.00    -0.273 OA
ATOM      6  H   UNL A   1      33.388  30.293  24.420  1.00  0.00     0.163 HD
BRANCH   4   7
ATOM      7  C   UNL A   1      32.267  27.145  23.797  1.00  0.00     0.200 C 
BRANCH   7   8
ATOM      8  C   UNL A   1      33.256  26.203  24.557  1.00  0.00     0.143 C 
ATOM      9  C   UNL A   1      34.075  25.291  23.645  1.00  0.00     0.041 C 
BRANCH   8  10
ATOM     10  O   UNL A   1      34.199  26.978  25.301  1.00  0.00    -0.391 OA
ATOM     11  H   UNL A   1      33.782  27.296  26.118  1.00  0.00     0.211 HD
ENDBRANCH   8  10
ENDBRANCH   7   8
BRANCH   7  12
ATOM     12  N   UNL A   1      30.929  27.161  24.423  1.00  0.00    -0.341 N 
ATOM     13  C   UNL A   1      29.709  27.105  23.807  1.00  0.00     0.231 C 
ATOM     14  H   UNL A   1      30.914  27.220  25.406  1.00  0.00     0.164 HD
ATOM     15  O   UNL A   1      28.892  26.318  24.291  1.00  0.00    -0.274 OA
BRANCH  13  16
ATOM     16  C   UNL A   1      29.353  28.083  22.704  1.00  0.00     0.174 C 
BRANCH  16  17
ATOM     17  S   UNL A   1      27.665  28.789  22.931  1.00  0.00    -0.116 SA
BRANCH  17  18
ATOM     18  C   UNL A   1      27.782  30.489  22.375  1.00  0.00     0.011 A 
ATOM     19  C   UNL A   1      27.923  30.854  21.037  1.00  0.00     0.035 A 
ATOM     20  C   UNL A   1      27.878  31.495  23.340  1.00  0.00     0.035 A 
ATOM     21  C   UNL A   1      28.092  32.191  20.715  1.00  0.00     0.112 A 
ATOM     22  C   UNL A   1      28.080  32.803  22.924  1.00  0.00     0.112 A 
ATOM     23  N   UNL A   1      28.160  33.172  21.628  1.00  0.00    -0.265 NA
ENDBRANCH  17  18
ENDBRANCH  16  17
ENDBRANCH  13  16
ENDBRANCH   7  12
ENDBRANCH   4   7
ENDBRANCH   2   3
ENDBRANCH   1   2
BRANCH   1  24
ATOM     24  C   UNL A   1      30.879  32.063  26.037  1.00  0.00     0.023 C 
BRANCH  24  25
ATOM     25  C   UNL A   1      32.185  32.193  26.825  1.00  0.00     0.116 C 
BRANCH  25  26
ATOM     26  N   UNL A   1      32.480  33.551  27.248  1.00  0.00    -0.352 N 
ATOM     27  C   UNL A   1      33.565  34.033  27.948  1.00  0.00     0.251 C 
ATOM     28  H   UNL A   1      31.806  34.226  26.999  1.00  0.00     0.163 HD
ATOM     29  O   UNL A   1      33.582  35.191  28.336  1.00  0.00    -0.269 OA
BRANCH  27  30
ATOM     30  C   UNL A   1      34.701  33.140  28.261  1.00  0.00     0.039 A 
ATOM     31  C   UNL A   1      35.989  33.677  28.186  1.00  0.00     0.014 A 
ATOM     32  C   UNL A   1      34.511  31.812  28.656  1.00  0.00     0.014 A 
ATOM     33  C   UNL A   1      37.074  32.929  28.638  1.00  0.00     0.010 A 
ATOM     34  C   UNL A   1      35.587  31.084  29.158  1.00  0.00     0.010 A 
ATOM     35  C   UNL A   1      36.865  31.658  29.198  1.00  0.00    -0.014 A 
BRANCH  35  36
ATOM     36  C   UNL A   1      37.943  31.002  29.974  1.00  0.00     0.031 A 
ATOM     37  C   UNL A   1      38.206  31.366  31.401  1.00  0.00     0.074 A 
ATOM     38  C   UNL A   1      38.730  30.116  29.331  1.00  0.00     0.049 A 
ATOM     39  N   UNL A   1      39.123  30.904  32.210  1.00  0.00    -0.248 NA
ATOM     40  C   UNL A   1      37.340  32.395  31.989  1.00  0.00     0.031 C 
ATOM     41  C   UNL A   1      38.588  29.732  27.923  1.00  0.00     0.029 A 
ATOM     42  N   UNL A   1      39.806  29.386  29.763  1.00  0.00    -0.354 N 
ATOM     43  C   UNL A   1      38.943  31.576  33.412  1.00  0.00     0.074 A 
ATOM     44  C   UNL A   1      37.860  32.518  33.203  1.00  0.00     0.031 C 
ATOM     45  C   UNL A   1      39.528  28.826  27.615  1.00  0.00     0.029 A 
ATOM     46  C   UNL A   1      40.365  28.596  28.786  1.00  0.00     0.049 A 
ATOM     47  H   UNL A   1      40.148  29.425  30.686  1.00  0.00     0.167 HD
ATOM     48  C   UNL A   1      39.609  31.405  34.580  1.00  0.00     0.034 A 
ATOM     49  C   UNL A   1      41.440  27.787  28.824  1.00  0.00     0.034 A 
ATOM     50  C   UNL A   1      40.697  30.472  34.753  1.00  0.00     0.049 A 
ATOM     51  C   UNL A   1      42.195  27.656  30.118  1.00  0.00     0.074 A 
ATOM     52  C   UNL A   1      41.398  30.165  35.906  1.00  0.00     0.029 A 
ATOM     53  N   UNL A   1      41.261  29.709  33.736  1.00  0.00    -0.354 N 
ATOM     54  N   UNL A   1      41.961  28.239  31.271  1.00  0.00    -0.248 NA
ATOM     55  C   UNL A   1      43.355  26.757  30.118  1.00  0.00     0.031 C 
ATOM     56  C   UNL A   1      42.427  29.276  35.574  1.00  0.00     0.029 A 
ATOM     57  C   UNL A   1      42.330  28.972  34.225  1.00  0.00     0.049 A 
ATOM     58  H   UNL A   1      40.947  29.695  32.803  1.00  0.00     0.167 HD
ATOM     59  C   UNL A   1      42.940  27.767  32.138  1.00  0.00     0.074 A 
ATOM     60  C   UNL A   1      43.751  26.835  31.381  1.00  0.00     0.031 C 
ATOM     61  C   UNL A   1      43.149  28.075  33.444  1.00  0.00     0.034 A 
BRANCH  48  62
ATOM     62  C   UNL A   1      39.195  32.269  35.747  1.00  0.00     0.023 A 
ATOM     63  C   UNL A   1      39.637  33.598  35.871  1.00  0.00     0.031 A 
ATOM     64  C   UNL A   1      38.369  31.754  36.760  1.00  0.00     0.131 A 
ATOM     65  C   UNL A   1      39.310  34.342  37.015  1.00  0.00     0.055 A 
ATOM     66  C   UNL A   1      37.985  32.523  37.860  1.00  0.00     0.041 A 
ATOM     67  F   UNL A   1      37.931  30.485  36.706  1.00  0.00    -0.206 F 
ATOM     68  C   UNL A   1      38.468  33.821  38.000  1.00  0.00     0.022 A 
BRANCH  65  69
ATOM     69  S   UNL A   1      40.111  35.951  37.261  1.00  0.00     0.124 S 
ATOM     70  O   UNL A   1      39.733  36.659  36.041  1.00  0.00    -0.237 OA
ATOM     71  O   UNL A   1      39.492  36.425  38.493  1.00  0.00    -0.237 OA
ATOM     72  O   UNL A   1      41.529  35.616  37.364  1.00  0.00    -0.744 OA
ENDBRANCH  65  69
ENDBRANCH  48  62
BRANCH  49  73
ATOM     73  C   UNL A   1      41.877  27.060  27.600  1.00  0.00     0.023 A 
ATOM     74  C   UNL A   1      41.698  25.674  27.479  1.00  0.00     0.031 A 
ATOM     75  C   UNL A   1      42.498  27.742  26.537  1.00  0.00     0.131 A 
ATOM     76  C   UNL A   1      42.168  25.007  26.337  1.00  0.00     0.055 A 
ATOM     77  C   UNL A   1      42.922  27.081  25.384  1.00  0.00     0.041 A 
ATOM     78  F   UNL A   1      42.683  29.071  26.600  1.00  0.00    -0.206 F 
ATOM     79  C   UNL A   1      42.767  25.702  25.284  1.00  0.00     0.022 A 
BRANCH  76  80
ATOM     80  S   UNL A   1      42.043  23.198  26.276  1.00  0.00     0.124 S 
ATOM     81  O   UNL A   1      42.641  22.902  24.979  1.00  0.00    -0.237 OA
ATOM     82  O   UNL A   1      42.818  22.802  27.446  1.00  0.00    -0.237 OA
ATOM     83  O   UNL A   1      40.605  22.954  26.372  1.00  0.00    -0.744 OA
ENDBRANCH  76  80
ENDBRANCH  49  73
BRANCH  61  84
ATOM     84  C   UNL A   1      44.305  27.384  34.120  1.00  0.00     0.023 A 
ATOM     85  C   UNL A   1      44.140  26.144  34.764  1.00  0.00     0.031 A 
ATOM     86  C   UNL A   1      45.578  27.979  34.143  1.00  0.00     0.131 A 
ATOM     87  C   UNL A   1      45.217  25.564  35.448  1.00  0.00     0.055 A 
ATOM     88  C   UNL A   1      46.661  27.369  34.777  1.00  0.00     0.041 A 
ATOM     89  F   UNL A   1      45.788  29.164  33.547  1.00  0.00    -0.206 F 
ATOM     90  C   UNL A   1      46.481  26.161  35.445  1.00  0.00     0.022 A 
BRANCH  87  91
ATOM     91  S   UNL A   1      44.927  24.056  36.412  1.00  0.00     0.124 S 
ATOM     92  O   UNL A   1      46.215  23.377  36.306  1.00  0.00    -0.237 OA
ATOM     93  O   UNL A   1      44.592  24.585  37.730  1.00  0.00    -0.237 OA
ATOM     94  O   UNL A   1      43.823  23.406  35.708  1.00  0.00    -0.744 OA
ENDBRANCH  87  91
ENDBRANCH  61  84
ENDBRANCH  35  36
ENDBRANCH  27  30
ENDBRANCH  25  26
ENDBRANCH  24  25
ENDBRANCH   1  24
TORSDOF 20
ENDMDL
MODEL 2
REMARK VINA RESULT:     -11.2      1.510      3.498
REMARK SMILES C[C@@H](O)[C@@H](NC(=O)CSc1ccncc1)C(=O)NCCCCNC(=O)c1ccc(-c2c3nc(c(-c4cc(S(=O)(=O)[O-])ccc4F)c4ccc([nH]4)c(-c4cc(S(=O)(=O)[O-])ccc4F)c4nc(c(-c5cc(S(=O)(=O)[O-])ccc5F)c5ccc2[nH]5)C=C4)C=C3)cc1
REMARK SMILES IDX 20 1 19 2 18 3 16 4 17 5 4 7 2 8 1 9 3 10 5 12 6 13 7 15
REMARK SMILES IDX 8 16 9 17 10 18 11 19 15 20 12 21 14 22 13 23 21 24 22 25
REMARK SMILES IDX 23 26 24 27 25 29 26 30 27 31 88 32 28 33 87 34 29 35 30 36
REMARK SMILES IDX 31 37 81 38 32 39 86 40 80 41 82 42 33 43 85 44 79 45 78 46
REMARK SMILES IDX 34 48 66 49 46 50 65 51 47 52 50 53 64 54 83 55 48 56 49 57
REMARK SMILES IDX 63 59 84 60 51 61 35 62 36 63 44 64 37 65 43 66 45 67 42 68
REMARK SMILES IDX 38 69 39 70 40 71 41 72 67 73 68 74 76 75 69 76 75 77 77 78
REMARK SMILES IDX 74 79 70 80 71 81 72 82 73 83 52 84 53 85 61 86 54 87 60 88
REMARK SMILES IDX 62 89 59 90 55 91 56 92 57 93 58 94
REMARK H PARENT 18 6 3 11 5 14 23 28 82 47 50 58
REMARK Flexibility Score: inf
ROOT
ATOM      1  C   UNL A   1      30.955  31.025  25.336  1.00  0.00     0.023 C 
ENDROOT
BRANCH   1   2
ATOM      2  C   UNL A   1      32.026  30.031  25.765  1.00  0.00     0.116 C 
BRANCH   2   3
ATOM      3  N   UNL A   1      32.938  29.703  24.687  1.00  0.00    -0.354 N 
ATOM      4  C   UNL A   1      32.730  28.926  23.585  1.00  0.00     0.245 C 
ATOM      5  O   UNL A   1      33.574  28.975  22.686  1.00  0.00    -0.273 OA
ATOM      6  H   UNL A   1      33.836  30.098  24.762  1.00  0.00     0.163 HD
BRANCH   4   7
ATOM      7  C   UNL A   1      31.508  27.991  23.463  1.00  0.00     0.200 C 
BRANCH   7   8
ATOM      8  C   UNL A   1      30.586  28.555  22.334  1.00  0.00     0.143 C 
ATOM      9  C   UNL A   1      29.140  28.790  22.768  1.00  0.00     0.041 C 
BRANCH   8  10
ATOM     10  O   UNL A   1      31.079  29.818  21.882  1.00  0.00    -0.391 OA
ATOM     11  H   UNL A   1      31.471  29.715  21.000  1.00  0.00     0.211 HD
ENDBRANCH   8  10
ENDBRANCH   7   8
BRANCH   7  12
ATOM     12  N   UNL A   1      31.796  26.554  23.273  1.00  0.00    -0.341 N 
ATOM     13  C   UNL A   1      31.335  25.497  24.009  1.00  0.00     0.231 C 
ATOM     14  H   UNL A   1      32.394  26.330  22.524  1.00  0.00     0.164 HD
ATOM     15  O   UNL A   1      30.909  24.533  23.369  1.00  0.00    -0.274 OA
BRANCH  13  16
ATOM     16  C   UNL A   1      31.505  25.471  25.516  1.00  0.00     0.174 C 
BRANCH  16  17
ATOM     17  S   UNL A   1      31.735  23.755  26.151  1.00  0.00    -0.116 SA
BRANCH  17  18
ATOM     18  C   UNL A   1      33.499  23.449  26.065  1.00  0.00     0.011 A 
ATOM     19  C   UNL A   1      34.430  24.408  25.668  1.00  0.00     0.035 A 
ATOM     20  C   UNL A   1      33.954  22.145  26.270  1.00  0.00     0.035 A 
ATOM     21  C   UNL A   1      35.763  24.050  25.551  1.00  0.00     0.112 A 
ATOM     22  C   UNL A   1      35.304  21.872  26.097  1.00  0.00     0.112 A 
ATOM     23  N   UNL A   1      36.220  22.808  25.770  1.00  0.00    -0.265 NA
ENDBRANCH  17  18
ENDBRANCH  16  17
ENDBRANCH  13  16
ENDBRANCH   7  12
ENDBRANCH   4   7
ENDBRANCH   2   3
ENDBRANCH   1   2
BRANCH   1  24
ATOM     24  C   UNL A   1      30.981  32.357  26.091  1.00  0.00     0.023 C 
BRANCH  24  25
ATOM     25  C   UNL A   1      32.036  32.478  27.193  1.00  0.00     0.116 C 
BRANCH  25  26
ATOM     26  N   UNL A   1      32.440  33.846  27.468  1.00  0.00    -0.352 N 
ATOM     27  C   UNL A   1      33.598  34.315  28.049  1.00  0.00     0.251 C 
ATOM     28  H   UNL A   1      31.793  34.539  27.200  1.00  0.00     0.163 HD
ATOM     29  O   UNL A   1      33.711  35.500  28.325  1.00  0.00    -0.269 OA
BRANCH  27  30
ATOM     30  C   UNL A   1      34.698  33.381  28.371  1.00  0.00     0.039 A 
ATOM     31  C   UNL A   1      36.008  33.831  28.186  1.00  0.00     0.014 A 
ATOM     32  C   UNL A   1      34.456  32.101  28.879  1.00  0.00     0.014 A 
ATOM     33  C   UNL A   1      37.073  33.054  28.637  1.00  0.00     0.010 A 
ATOM     34  C   UNL A   1      35.515  31.349  29.380  1.00  0.00     0.010 A 
ATOM     35  C   UNL A   1      36.824  31.845  29.306  1.00  0.00    -0.014 A 
BRANCH  35  36
ATOM     36  C   UNL A   1      37.905  31.185  30.074  1.00  0.00     0.031 A 
ATOM     37  C   UNL A   1      38.198  31.566  31.491  1.00  0.00     0.074 A 
ATOM     38  C   UNL A   1      38.670  30.279  29.431  1.00  0.00     0.049 A 
ATOM     39  N   UNL A   1      39.122  31.102  32.291  1.00  0.00    -0.248 NA
ATOM     40  C   UNL A   1      37.356  32.616  32.079  1.00  0.00     0.031 C 
ATOM     41  C   UNL A   1      38.499  29.877  28.031  1.00  0.00     0.029 A 
ATOM     42  N   UNL A   1      39.743  29.541  29.856  1.00  0.00    -0.354 N 
ATOM     43  C   UNL A   1      38.971  31.795  33.486  1.00  0.00     0.074 A 
ATOM     44  C   UNL A   1      37.898  32.749  33.282  1.00  0.00     0.031 C 
ATOM     45  C   UNL A   1      39.420  28.954  27.721  1.00  0.00     0.029 A 
ATOM     46  C   UNL A   1      40.273  28.728  28.882  1.00  0.00     0.049 A 
ATOM     47  H   UNL A   1      40.100  29.587  30.773  1.00  0.00     0.167 HD
ATOM     48  C   UNL A   1      39.655  31.631  34.645  1.00  0.00     0.034 A 
ATOM     49  C   UNL A   1      41.338  27.904  28.914  1.00  0.00     0.034 A 
ATOM     50  C   UNL A   1      40.732  30.685  34.814  1.00  0.00     0.049 A 
ATOM     51  C   UNL A   1      42.113  27.781  30.196  1.00  0.00     0.074 A 
ATOM     52  C   UNL A   1      41.448  30.385  35.960  1.00  0.00     0.029 A 
ATOM     53  N   UNL A   1      41.269  29.900  33.799  1.00  0.00    -0.354 N 
ATOM     54  N   UNL A   1      41.906  28.385  31.345  1.00  0.00    -0.248 NA
ATOM     55  C   UNL A   1      43.260  26.866  30.190  1.00  0.00     0.031 C 
ATOM     56  C   UNL A   1      42.459  29.477  35.624  1.00  0.00     0.029 A 
ATOM     57  C   UNL A   1      42.335  29.155  34.281  1.00  0.00     0.049 A 
ATOM     58  H   UNL A   1      40.938  29.876  32.872  1.00  0.00     0.167 HD
ATOM     59  C   UNL A   1      42.893  27.912  32.202  1.00  0.00     0.074 A 
ATOM     60  C   UNL A   1      43.678  26.957  31.445  1.00  0.00     0.031 C 
ATOM     61  C   UNL A   1      43.128  28.236  33.499  1.00  0.00     0.034 A 
BRANCH  48  62
ATOM     62  C   UNL A   1      39.272  32.517  35.806  1.00  0.00     0.023 A 
ATOM     63  C   UNL A   1      39.709  33.852  35.888  1.00  0.00     0.031 A 
ATOM     64  C   UNL A   1      38.482  32.019  36.856  1.00  0.00     0.131 A 
ATOM     65  C   UNL A   1      39.414  34.618  37.026  1.00  0.00     0.055 A 
ATOM     66  C   UNL A   1      38.129  32.810  37.951  1.00  0.00     0.041 A 
ATOM     67  F   UNL A   1      38.052  30.747  36.843  1.00  0.00    -0.206 F 
ATOM     68  C   UNL A   1      38.607  34.114  38.048  1.00  0.00     0.022 A 
BRANCH  65  69
ATOM     69  S   UNL A   1      40.211  36.236  37.211  1.00  0.00     0.124 S 
ATOM     70  O   UNL A   1      40.022  36.813  35.883  1.00  0.00    -0.237 OA
ATOM     71  O   UNL A   1      39.440  36.845  38.289  1.00  0.00    -0.237 OA
ATOM     72  O   UNL A   1      41.594  35.901  37.546  1.00  0.00    -0.744 OA
ENDBRANCH  65  69
ENDBRANCH  48  62
BRANCH  49  73
ATOM     73  C   UNL A   1      41.744  27.154  27.693  1.00  0.00     0.023 A 
ATOM     74  C   UNL A   1      41.564  25.766  27.604  1.00  0.00     0.031 A 
ATOM     75  C   UNL A   1      42.336  27.816  26.601  1.00  0.00     0.131 A 
ATOM     76  C   UNL A   1      42.006  25.077  26.464  1.00  0.00     0.055 A 
ATOM     77  C   UNL A   1      42.730  27.133  25.451  1.00  0.00     0.041 A 
ATOM     78  F   UNL A   1      42.520  29.146  26.633  1.00  0.00    -0.206 F 
ATOM     79  C   UNL A   1      42.576  25.751  25.382  1.00  0.00     0.022 A 
BRANCH  76  80
ATOM     80  S   UNL A   1      41.883  23.267  26.442  1.00  0.00     0.124 S 
ATOM     81  O   UNL A   1      42.542  22.908  27.692  1.00  0.00    -0.237 OA
ATOM     82  O   UNL A   1      40.439  23.063  26.397  1.00  0.00    -0.237 OA
ATOM     83  O   UNL A   1      42.601  22.892  25.225  1.00  0.00    -0.744 OA
ENDBRANCH  76  80
ENDBRANCH  49  73
BRANCH  61  84
ATOM     84  C   UNL A   1      44.285  27.537  34.167  1.00  0.00     0.023 A 
ATOM     85  C   UNL A   1      44.091  26.386  34.950  1.00  0.00     0.031 A 
ATOM     86  C   UNL A   1      45.592  28.040  34.038  1.00  0.00     0.131 A 
ATOM     87  C   UNL A   1      45.178  25.805  35.619  1.00  0.00     0.055 A 
ATOM     88  C   UNL A   1      46.679  27.424  34.659  1.00  0.00     0.041 A 
ATOM     89  F   UNL A   1      45.832  29.139  33.304  1.00  0.00    -0.206 F 
ATOM     90  C   UNL A   1      46.474  26.307  35.465  1.00  0.00     0.022 A 
BRANCH  87  91
ATOM     91  S   UNL A   1      44.867  24.429  36.757  1.00  0.00     0.124 S 
ATOM     92  O   UNL A   1      43.649  24.866  37.433  1.00  0.00    -0.237 OA
ATOM     93  O   UNL A   1      44.720  23.297  35.849  1.00  0.00    -0.237 OA
ATOM     94  O   UNL A   1      46.064  24.398  37.595  1.00  0.00    -0.744 OA
ENDBRANCH  87  91
ENDBRANCH  61  84
ENDBRANCH  35  36
ENDBRANCH  27  30
ENDBRANCH  25  26
ENDBRANCH  24  25
ENDBRANCH   1  24
TORSDOF 20
ENDMDL
MODEL 3
REMARK VINA RESULT:     -10.8      5.840      9.203
REMARK SMILES C[C@@H](O)[C@@H](NC(=O)CSc1ccncc1)C(=O)NCCCCNC(=O)c1ccc(-c2c3nc(c(-c4cc(S(=O)(=O)[O-])ccc4F)c4ccc([nH]4)c(-c4cc(S(=O)(=O)[O-])ccc4F)c4nc(c(-c5cc(S(=O)(=O)[O-])ccc5F)c5ccc2[nH]5)C=C4)C=C3)cc1
REMARK SMILES IDX 20 1 19 2 18 3 16 4 17 5 4 7 2 8 1 9 3 10 5 12 6 13 7 15
REMARK SMILES IDX 8 16 9 17 10 18 11 19 15 20 12 21 14 22 13 23 21 24 22 25
REMARK SMILES IDX 23 26 24 27 25 29 26 30 27 31 88 32 28 33 87 34 29 35 30 36
REMARK SMILES IDX 31 37 81 38 32 39 86 40 80 41 82 42 33 43 85 44 79 45 78 46
REMARK SMILES IDX 34 48 66 49 46 50 65 51 47 52 50 53 64 54 83 55 48 56 49 57
REMARK SMILES IDX 63 59 84 60 51 61 35 62 36 63 44 64 37 65 43 66 45 67 42 68
REMARK SMILES IDX 38 69 39 70 40 71 41 72 67 73 68 74 76 75 69 76 75 77 77 78
REMARK SMILES IDX 74 79 70 80 71 81 72 82 73 83 52 84 53 85 61 86 54 87 60 88
REMARK SMILES IDX 62 89 59 90 55 91 56 92 57 93 58 94
REMARK H PARENT 18 6 3 11 5 14 23 28 82 47 50 58
REMARK Flexibility Score: inf
ROOT
ATOM      1  C   UNL A   1      36.886  22.653  24.334  1.00  0.00     0.023 C 
ENDROOT
BRANCH   1   2
ATOM      2  C   UNL A   1      35.699  23.214  25.105  1.00  0.00     0.116 C 
BRANCH   2   3
ATOM      3  N   UNL A   1      35.296  22.353  26.199  1.00  0.00    -0.354 N 
ATOM      4  C   UNL A   1      34.048  21.919  26.542  1.00  0.00     0.245 C 
ATOM      5  O   UNL A   1      33.970  21.009  27.372  1.00  0.00    -0.273 OA
ATOM      6  H   UNL A   1      36.027  22.038  26.778  1.00  0.00     0.163 HD
BRANCH   4   7
ATOM      7  C   UNL A   1      32.771  22.550  25.948  1.00  0.00     0.200 C 
BRANCH   7   8
ATOM      8  C   UNL A   1      32.125  21.505  24.982  1.00  0.00     0.143 C 
ATOM      9  C   UNL A   1      32.953  21.216  23.731  1.00  0.00     0.041 C 
BRANCH   8  10
ATOM     10  O   UNL A   1      31.961  20.253  25.653  1.00  0.00    -0.391 OA
ATOM     11  H   UNL A   1      32.753  19.708  25.519  1.00  0.00     0.211 HD
ENDBRANCH   8  10
ENDBRANCH   7   8
BRANCH   7  12
ATOM     12  N   UNL A   1      31.791  23.085  26.916  1.00  0.00    -0.341 N 
ATOM     13  C   UNL A   1      30.991  24.187  26.785  1.00  0.00     0.231 C 
ATOM     14  H   UNL A   1      31.704  22.587  27.761  1.00  0.00     0.164 HD
ATOM     15  O   UNL A   1      29.807  24.039  27.099  1.00  0.00    -0.274 OA
BRANCH  13  16
ATOM     16  C   UNL A   1      31.583  25.537  26.434  1.00  0.00     0.174 C 
BRANCH  16  17
ATOM     17  S   UNL A   1      30.693  26.333  25.030  1.00  0.00    -0.116 SA
BRANCH  17  18
ATOM     18  C   UNL A   1      31.751  26.100  23.602  1.00  0.00     0.011 A 
ATOM     19  C   UNL A   1      32.083  24.849  23.085  1.00  0.00     0.035 A 
ATOM     20  C   UNL A   1      32.388  27.220  23.062  1.00  0.00     0.035 A 
ATOM     21  C   UNL A   1      32.977  24.769  22.030  1.00  0.00     0.112 A 
ATOM     22  C   UNL A   1      33.295  27.038  22.028  1.00  0.00     0.112 A 
ATOM     23  N   UNL A   1      33.579  25.836  21.483  1.00  0.00    -0.265 NA
ENDBRANCH  17  18
ENDBRANCH  16  17
ENDBRANCH  13  16
ENDBRANCH   7  12
ENDBRANCH   4   7
ENDBRANCH   2   3
ENDBRANCH   1   2
BRANCH   1  24
ATOM     24  C   UNL A   1      37.454  21.346  24.895  1.00  0.00     0.023 C 
BRANCH  24  25
ATOM     25  C   UNL A   1      38.744  21.475  25.708  1.00  0.00     0.116 C 
BRANCH  25  26
ATOM     26  N   UNL A   1      39.491  20.235  25.819  1.00  0.00    -0.352 N 
ATOM     27  C   UNL A   1      40.822  20.040  26.119  1.00  0.00     0.251 C 
ATOM     28  H   UNL A   1      38.972  19.414  25.657  1.00  0.00     0.163 HD
ATOM     29  O   UNL A   1      41.315  18.926  26.037  1.00  0.00    -0.269 OA
BRANCH  27  30
ATOM     30  C   UNL A   1      41.670  21.187  26.511  1.00  0.00     0.039 A 
ATOM     31  C   UNL A   1      42.207  21.977  25.492  1.00  0.00     0.014 A 
ATOM     32  C   UNL A   1      41.908  21.506  27.852  1.00  0.00     0.014 A 
ATOM     33  C   UNL A   1      42.864  23.163  25.814  1.00  0.00     0.010 A 
ATOM     34  C   UNL A   1      42.516  22.717  28.172  1.00  0.00     0.010 A 
ATOM     35  C   UNL A   1      42.952  23.574  27.153  1.00  0.00    -0.014 A 
BRANCH  35  36
ATOM     36  C   UNL A   1      43.342  24.965  27.479  1.00  0.00     0.031 A 
ATOM     37  C   UNL A   1      42.357  25.937  28.047  1.00  0.00     0.074 A 
ATOM     38  C   UNL A   1      44.598  25.353  27.177  1.00  0.00     0.049 A 
ATOM     39  N   UNL A   1      42.533  27.193  28.364  1.00  0.00    -0.248 NA
ATOM     40  C   UNL A   1      40.994  25.439  28.271  1.00  0.00     0.031 C 
ATOM     41  C   UNL A   1      45.620  24.494  26.570  1.00  0.00     0.029 A 
ATOM     42  N   UNL A   1      45.230  26.559  27.326  1.00  0.00    -0.354 N 
ATOM     43  C   UNL A   1      41.305  27.640  28.836  1.00  0.00     0.074 A 
ATOM     44  C   UNL A   1      40.381  26.530  28.712  1.00  0.00     0.031 C 
ATOM     45  C   UNL A   1      46.753  25.195  26.417  1.00  0.00     0.029 A 
ATOM     46  C   UNL A   1      46.528  26.561  26.873  1.00  0.00     0.049 A 
ATOM     47  H   UNL A   1      44.795  27.350  27.720  1.00  0.00     0.167 HD
ATOM     48  C   UNL A   1      40.992  28.858  29.342  1.00  0.00     0.034 A 
ATOM     49  C   UNL A   1      47.434  27.557  26.816  1.00  0.00     0.034 A 
ATOM     50  C   UNL A   1      41.929  29.953  29.437  1.00  0.00     0.049 A 
ATOM     51  C   UNL A   1      47.043  28.913  27.334  1.00  0.00     0.074 A 
ATOM     52  C   UNL A   1      41.742  31.205  29.995  1.00  0.00     0.029 A 
ATOM     53  N   UNL A   1      43.227  29.934  28.939  1.00  0.00    -0.354 N 
ATOM     54  N   UNL A   1      45.900  29.299  27.854  1.00  0.00    -0.248 NA
ATOM     55  C   UNL A   1      48.062  29.966  27.262  1.00  0.00     0.031 C 
ATOM     56  C   UNL A   1      42.896  31.966  29.770  1.00  0.00     0.029 A 
ATOM     57  C   UNL A   1      43.833  31.167  29.132  1.00  0.00     0.049 A 
ATOM     58  H   UNL A   1      43.655  29.157  28.511  1.00  0.00     0.167 HD
ATOM     59  C   UNL A   1      46.068  30.640  28.182  1.00  0.00     0.074 A 
ATOM     60  C   UNL A   1      47.429  30.987  27.822  1.00  0.00     0.031 C 
ATOM     61  C   UNL A   1      45.179  31.505  28.732  1.00  0.00     0.034 A 
BRANCH  48  62
ATOM     62  C   UNL A   1      39.570  29.073  29.802  1.00  0.00     0.023 A 
ATOM     63  C   UNL A   1      38.640  29.776  29.014  1.00  0.00     0.031 A 
ATOM     64  C   UNL A   1      39.141  28.591  31.050  1.00  0.00     0.131 A 
ATOM     65  C   UNL A   1      37.355  30.038  29.511  1.00  0.00     0.055 A 
ATOM     66  C   UNL A   1      37.837  28.790  31.508  1.00  0.00     0.041 A 
ATOM     67  F   UNL A   1      39.988  27.929  31.854  1.00  0.00    -0.206 F 
ATOM     68  C   UNL A   1      36.940  29.531  30.744  1.00  0.00     0.022 A 
BRANCH  65  69
ATOM     69  S   UNL A   1      36.280  31.166  28.584  1.00  0.00     0.124 S 
ATOM     70  O   UNL A   1      35.181  31.368  29.525  1.00  0.00    -0.237 OA
ATOM     71  O   UNL A   1      37.149  32.316  28.358  1.00  0.00    -0.237 OA
ATOM     72  O   UNL A   1      35.933  30.402  27.387  1.00  0.00    -0.744 OA
ENDBRANCH  65  69
ENDBRANCH  48  62
BRANCH  49  73
ATOM     73  C   UNL A   1      48.781  27.314  26.229  1.00  0.00     0.023 A 
ATOM     74  C   UNL A   1      49.027  27.537  24.866  1.00  0.00     0.031 A 
ATOM     75  C   UNL A   1      49.840  26.837  27.023  1.00  0.00     0.131 A 
ATOM     76  C   UNL A   1      50.291  27.247  24.329  1.00  0.00     0.055 A 
ATOM     77  C   UNL A   1      51.107  26.594  26.494  1.00  0.00     0.041 A 
ATOM     78  F   UNL A   1      49.658  26.617  28.336  1.00  0.00    -0.206 F 
ATOM     79  C   UNL A   1      51.335  26.790  25.135  1.00  0.00     0.022 A 
BRANCH  76  80
ATOM     80  S   UNL A   1      50.532  27.417  22.540  1.00  0.00     0.124 S 
ATOM     81  O   UNL A   1      50.460  28.863  22.365  1.00  0.00    -0.237 OA
ATOM     82  O   UNL A   1      51.847  26.812  22.353  1.00  0.00    -0.237 OA
ATOM     83  O   UNL A   1      49.416  26.662  21.973  1.00  0.00    -0.744 OA
ENDBRANCH  76  80
ENDBRANCH  49  73
BRANCH  61  84
ATOM     84  C   UNL A   1      45.671  32.909  28.975  1.00  0.00     0.023 A 
ATOM     85  C   UNL A   1      45.523  33.914  28.003  1.00  0.00     0.031 A 
ATOM     86  C   UNL A   1      46.313  33.240  30.180  1.00  0.00     0.131 A 
ATOM     87  C   UNL A   1      46.059  35.189  28.230  1.00  0.00     0.055 A 
ATOM     88  C   UNL A   1      46.794  34.528  30.425  1.00  0.00     0.041 A 
ATOM     89  F   UNL A   1      46.483  32.317  31.140  1.00  0.00    -0.206 F 
ATOM     90  C   UNL A   1      46.679  35.507  29.442  1.00  0.00     0.022 A 
BRANCH  87  91
ATOM     91  S   UNL A   1      46.006  36.409  26.890  1.00  0.00     0.124 S 
ATOM     92  O   UNL A   1      44.657  36.949  27.026  1.00  0.00    -0.237 OA
ATOM     93  O   UNL A   1      47.093  37.314  27.245  1.00  0.00    -0.237 OA
ATOM     94  O   UNL A   1      46.235  35.609  25.688  1.00  0.00    -0.744 OA
ENDBRANCH  87  91
ENDBRANCH  61  84
ENDBRANCH  35  36
ENDBRANCH  27  30
ENDBRANCH  25  26
ENDBRANCH  24  25
ENDBRANCH   1  24
TORSDOF 20
ENDMDL
