MODEL 1
REMARK VINA RESULT:     -11.5      0.000      0.000
REMARK SMILES Cc1ccc(/C=C/C(=O)N2CCC[C@@H](C(=O)NCCCCNC(=O)c3ccc(-c4c5nc(c(-c6cc(S(=O)(=O)[O-])ccc6F)c6ccc([nH]6)c(-c6cc(S(=O)(=O)[O-])ccc6F)c6nc(c(-c7cc(S(=O)(=O)[O-])ccc7F)c7ccc4[nH]7)C=C6)C=C5)cc3)C2)s1
REMARK SMILES IDX 19 1 18 2 17 3 15 4 16 5 14 7 10 8 11 9 88 10 12 11 13 12
REMARK SMILES IDX 8 13 9 14 7 15 6 16 5 17 1 18 2 19 3 20 89 21 4 22 20 23
REMARK SMILES IDX 21 24 22 25 23 26 24 28 25 29 26 30 87 31 27 32 86 33 28 34
REMARK SMILES IDX 29 35 30 36 80 37 31 38 85 39 79 40 81 41 32 42 84 43 78 44
REMARK SMILES IDX 77 45 33 47 65 48 45 49 64 50 46 51 49 52 63 53 82 54 47 55
REMARK SMILES IDX 48 56 62 58 83 59 50 60 34 61 35 62 43 63 36 64 42 65 44 66
REMARK SMILES IDX 41 67 37 68 38 69 39 70 40 71 66 72 67 73 75 74 68 75 74 76
REMARK SMILES IDX 76 77 73 78 69 79 70 80 71 81 72 82 51 83 52 84 60 85 53 86
REMARK SMILES IDX 59 87 61 88 58 89 54 90 55 91 56 92 57 93
REMARK H PARENT 17 6 22 27 81 46 49 57
REMARK Flexibility Score: inf
ROOT
ATOM      1  C   UNL A   1      32.165  28.096  27.280  1.00  0.00     0.023 C 
ENDROOT
BRANCH   1   2
ATOM      2  C   UNL A   1      31.239  27.562  26.192  1.00  0.00     0.116 C 
BRANCH   2   3
ATOM      3  N   UNL A   1      30.658  26.280  26.558  1.00  0.00    -0.356 N 
ATOM      4  C   UNL A   1      30.972  25.014  26.167  1.00  0.00     0.224 C 
ATOM      5  O   UNL A   1      30.301  24.085  26.621  1.00  0.00    -0.275 OA
ATOM      6  H   UNL A   1      29.911  26.338  27.197  1.00  0.00     0.163 HD
BRANCH   4   7
ATOM      7  C   UNL A   1      32.117  24.738  25.205  1.00  0.00     0.098 C 
ATOM      8  N   UNL A   1      33.566  22.866  24.383  1.00  0.00    -0.338 N 
ATOM      9  C   UNL A   1      33.020  23.021  23.040  1.00  0.00     0.120 C 
ATOM     10  C   UNL A   1      32.737  23.359  25.483  1.00  0.00     0.133 C 
ATOM     11  C   UNL A   1      32.706  24.477  22.745  1.00  0.00     0.022 C 
ATOM     12  C   UNL A   1      31.707  25.028  23.752  1.00  0.00     0.017 C 
BRANCH   8  13
ATOM     13  C   UNL A   1      34.793  22.245  24.518  1.00  0.00     0.246 C 
ATOM     14  O   UNL A   1      35.862  22.835  24.368  1.00  0.00    -0.270 OA
BRANCH  13  15
ATOM     15  C   UNL A   1      34.852  20.788  24.807  1.00  0.00     0.073 C 
ATOM     16  C   UNL A   1      33.783  19.994  24.639  1.00  0.00     0.024 C 
BRANCH  16  17
ATOM     17  C   UNL A   1      33.830  18.567  24.660  1.00  0.00     0.027 A 
ATOM     18  C   UNL A   1      32.829  14.848  25.509  1.00  0.00     0.056 C 
ATOM     19  C   UNL A   1      33.431  16.143  25.087  1.00  0.00     0.002 A 
ATOM     20  C   UNL A   1      34.689  16.380  24.583  1.00  0.00     0.016 A 
ATOM     21  S   UNL A   1      32.526  17.587  25.217  1.00  0.00    -0.141 S 
ATOM     22  C   UNL A   1      34.916  17.767  24.340  1.00  0.00     0.020 A 
ENDBRANCH  16  17
ENDBRANCH  13  15
ENDBRANCH   8  13
ENDBRANCH   4   7
ENDBRANCH   2   3
ENDBRANCH   1   2
BRANCH   1  23
ATOM     23  C   UNL A   1      33.646  28.103  26.902  1.00  0.00     0.023 C 
BRANCH  23  24
ATOM     24  C   UNL A   1      34.088  29.290  26.053  1.00  0.00     0.116 C 
BRANCH  24  25
ATOM     25  N   UNL A   1      33.727  30.568  26.644  1.00  0.00    -0.352 N 
ATOM     26  C   UNL A   1      34.317  31.243  27.684  1.00  0.00     0.251 C 
ATOM     27  H   UNL A   1      32.947  31.014  26.241  1.00  0.00     0.163 HD
ATOM     28  O   UNL A   1      33.758  32.233  28.152  1.00  0.00    -0.269 OA
BRANCH  26  29
ATOM     29  C   UNL A   1      35.594  30.761  28.253  1.00  0.00     0.039 A 
ATOM     30  C   UNL A   1      35.562  29.765  29.230  1.00  0.00     0.014 A 
ATOM     31  C   UNL A   1      36.818  31.283  27.826  1.00  0.00     0.014 A 
ATOM     32  C   UNL A   1      36.760  29.261  29.742  1.00  0.00     0.010 A 
ATOM     33  C   UNL A   1      38.010  30.715  28.267  1.00  0.00     0.010 A 
ATOM     34  C   UNL A   1      37.995  29.709  29.243  1.00  0.00    -0.014 A 
BRANCH  34  35
ATOM     35  C   UNL A   1      39.271  29.148  29.763  1.00  0.00     0.031 A 
ATOM     36  C   UNL A   1      39.907  29.731  30.998  1.00  0.00     0.074 A 
ATOM     37  C   UNL A   1      39.864  28.127  29.113  1.00  0.00     0.049 A 
ATOM     38  N   UNL A   1      41.008  29.374  31.608  1.00  0.00    -0.248 NA
ATOM     39  C   UNL A   1      39.232  30.886  31.609  1.00  0.00     0.031 C 
ATOM     40  C   UNL A   1      39.370  27.512  27.879  1.00  0.00     0.029 A 
ATOM     41  N   UNL A   1      41.005  27.420  29.400  1.00  0.00    -0.354 N 
ATOM     42  C   UNL A   1      41.158  30.260  32.671  1.00  0.00     0.074 A 
ATOM     43  C   UNL A   1      40.079  31.218  32.571  1.00  0.00     0.031 C 
ATOM     44  C   UNL A   1      40.177  26.492  27.541  1.00  0.00     0.029 A 
ATOM     45  C   UNL A   1      41.269  26.408  28.505  1.00  0.00     0.049 A 
ATOM     46  H   UNL A   1      41.580  27.618  30.173  1.00  0.00     0.167 HD
ATOM     47  C   UNL A   1      42.090  30.257  33.656  1.00  0.00     0.034 A 
ATOM     48  C   UNL A   1      42.275  25.513  28.468  1.00  0.00     0.034 A 
ATOM     49  C   UNL A   1      43.158  29.290  33.743  1.00  0.00     0.049 A 
ATOM     50  C   UNL A   1      43.312  25.542  29.564  1.00  0.00     0.074 A 
ATOM     51  C   UNL A   1      44.132  29.167  34.719  1.00  0.00     0.029 A 
ATOM     52  N   UNL A   1      43.401  28.285  32.814  1.00  0.00    -0.354 N 
ATOM     53  N   UNL A   1      43.404  26.350  30.595  1.00  0.00    -0.248 NA
ATOM     54  C   UNL A   1      44.367  24.524  29.499  1.00  0.00     0.031 C 
ATOM     55  C   UNL A   1      45.006  28.141  34.341  1.00  0.00     0.029 A 
ATOM     56  C   UNL A   1      44.526  27.560  33.178  1.00  0.00     0.049 A 
ATOM     57  H   UNL A   1      42.854  28.113  32.015  1.00  0.00     0.167 HD
ATOM     58  C   UNL A   1      44.510  25.912  31.321  1.00  0.00     0.074 A 
ATOM     59  C   UNL A   1      45.030  24.754  30.621  1.00  0.00     0.031 C 
ATOM     60  C   UNL A   1      45.046  26.417  32.463  1.00  0.00     0.034 A 
BRANCH  47  61
ATOM     61  C   UNL A   1      42.002  31.349  34.699  1.00  0.00     0.023 A 
ATOM     62  C   UNL A   1      42.727  32.547  34.578  1.00  0.00     0.031 A 
ATOM     63  C   UNL A   1      41.205  31.179  35.845  1.00  0.00     0.131 A 
ATOM     64  C   UNL A   1      42.708  33.489  35.619  1.00  0.00     0.055 A 
ATOM     65  C   UNL A   1      41.117  32.160  36.835  1.00  0.00     0.041 A 
ATOM     66  F   UNL A   1      40.506  30.048  36.031  1.00  0.00    -0.206 F 
ATOM     67  C   UNL A   1      41.885  33.317  36.734  1.00  0.00     0.022 A 
BRANCH  64  68
ATOM     68  S   UNL A   1      43.893  34.862  35.567  1.00  0.00     0.124 S 
ATOM     69  O   UNL A   1      43.306  35.717  34.538  1.00  0.00    -0.237 OA
ATOM     70  O   UNL A   1      43.842  35.375  36.930  1.00  0.00    -0.237 OA
ATOM     71  O   UNL A   1      45.148  34.218  35.187  1.00  0.00    -0.744 OA
ENDBRANCH  64  68
ENDBRANCH  47  61
BRANCH  48  72
ATOM     72  C   UNL A   1      42.363  24.513  27.363  1.00  0.00     0.023 A 
ATOM     73  C   UNL A   1      41.591  23.340  27.381  1.00  0.00     0.031 A 
ATOM     74  C   UNL A   1      43.261  24.691  26.296  1.00  0.00     0.131 A 
ATOM     75  C   UNL A   1      41.772  22.366  26.387  1.00  0.00     0.055 A 
ATOM     76  C   UNL A   1      43.394  23.747  25.276  1.00  0.00     0.041 A 
ATOM     77  F   UNL A   1      44.021  25.796  26.224  1.00  0.00    -0.206 F 
ATOM     78  C   UNL A   1      42.658  22.568  25.327  1.00  0.00     0.022 A 
BRANCH  75  79
ATOM     79  S   UNL A   1      40.906  20.780  26.554  1.00  0.00     0.124 S 
ATOM     80  O   UNL A   1      41.773  19.887  25.795  1.00  0.00    -0.237 OA
ATOM     81  O   UNL A   1      40.898  20.592  28.001  1.00  0.00    -0.237 OA
ATOM     82  O   UNL A   1      39.599  21.042  25.955  1.00  0.00    -0.744 OA
ENDBRANCH  75  79
ENDBRANCH  48  72
BRANCH  60  83
ATOM     83  C   UNL A   1      46.234  25.682  33.044  1.00  0.00     0.023 A 
ATOM     84  C   UNL A   1      47.551  25.973  32.649  1.00  0.00     0.031 A 
ATOM     85  C   UNL A   1      46.039  24.642  33.971  1.00  0.00     0.131 A 
ATOM     86  C   UNL A   1      48.611  25.177  33.110  1.00  0.00     0.055 A 
ATOM     87  C   UNL A   1      47.107  23.908  34.489  1.00  0.00     0.041 A 
ATOM     88  F   UNL A   1      44.803  24.315  34.385  1.00  0.00    -0.206 F 
ATOM     89  C   UNL A   1      48.400  24.160  34.043  1.00  0.00     0.022 A 
BRANCH  86  90
ATOM     90  S   UNL A   1      50.249  25.395  32.359  1.00  0.00     0.124 S 
ATOM     91  O   UNL A   1      50.005  26.480  31.414  1.00  0.00    -0.237 OA
ATOM     92  O   UNL A   1      51.078  25.728  33.513  1.00  0.00    -0.237 OA
ATOM     93  O   UNL A   1      50.523  24.094  31.752  1.00  0.00    -0.744 OA
ENDBRANCH  86  90
ENDBRANCH  60  83
ENDBRANCH  34  35
ENDBRANCH  26  29
ENDBRANCH  24  25
ENDBRANCH  23  24
ENDBRANCH   1  23
TORSDOF 17
ENDMDL
MODEL 2
REMARK VINA RESULT:     -11.4      3.845      8.534
REMARK SMILES Cc1ccc(/C=C/C(=O)N2CCC[C@@H](C(=O)NCCCCNC(=O)c3ccc(-c4c5nc(c(-c6cc(S(=O)(=O)[O-])ccc6F)c6ccc([nH]6)c(-c6cc(S(=O)(=O)[O-])ccc6F)c6nc(c(-c7cc(S(=O)(=O)[O-])ccc7F)c7ccc4[nH]7)C=C6)C=C5)cc3)C2)s1
REMARK SMILES IDX 19 1 18 2 17 3 15 4 16 5 14 7 10 8 11 9 88 10 12 11 13 12
REMARK SMILES IDX 8 13 9 14 7 15 6 16 5 17 1 18 2 19 3 20 89 21 4 22 20 23
REMARK SMILES IDX 21 24 22 25 23 26 24 28 25 29 26 30 87 31 27 32 86 33 28 34
REMARK SMILES IDX 29 35 30 36 80 37 31 38 85 39 79 40 81 41 32 42 84 43 78 44
REMARK SMILES IDX 77 45 33 47 65 48 45 49 64 50 46 51 49 52 63 53 82 54 47 55
REMARK SMILES IDX 48 56 62 58 83 59 50 60 34 61 35 62 43 63 36 64 42 65 44 66
REMARK SMILES IDX 41 67 37 68 38 69 39 70 40 71 66 72 67 73 75 74 68 75 74 76
REMARK SMILES IDX 76 77 73 78 69 79 70 80 71 81 72 82 51 83 52 84 60 85 53 86
REMARK SMILES IDX 59 87 61 88 58 89 54 90 55 91 56 92 57 93
REMARK H PARENT 17 6 22 27 81 46 49 57
REMARK Flexibility Score: inf
ROOT
ATOM      1  C   UNL A   1      31.300  31.066  26.130  1.00  0.00     0.023 C 
ENDROOT
BRANCH   1   2
ATOM      2  C   UNL A   1      32.366  30.178  26.764  1.00  0.00     0.116 C 
BRANCH   2   3
ATOM      3  N   UNL A   1      31.807  28.927  27.251  1.00  0.00    -0.356 N 
ATOM      4  C   UNL A   1      31.527  27.762  26.603  1.00  0.00     0.224 C 
ATOM      5  O   UNL A   1      31.032  26.842  27.257  1.00  0.00    -0.275 OA
ATOM      6  H   UNL A   1      31.595  28.922  28.212  1.00  0.00     0.163 HD
BRANCH   4   7
ATOM      7  C   UNL A   1      31.816  27.585  25.121  1.00  0.00     0.098 C 
ATOM      8  N   UNL A   1      32.263  25.800  23.419  1.00  0.00    -0.338 N 
ATOM      9  C   UNL A   1      31.033  26.148  22.718  1.00  0.00     0.120 C 
ATOM     10  C   UNL A   1      32.329  26.165  24.835  1.00  0.00     0.133 C 
ATOM     11  C   UNL A   1      30.758  27.638  22.809  1.00  0.00     0.022 C 
ATOM     12  C   UNL A   1      30.640  28.077  24.262  1.00  0.00     0.017 C 
BRANCH   8  13
ATOM     13  C   UNL A   1      33.247  25.133  22.715  1.00  0.00     0.246 C 
ATOM     14  O   UNL A   1      34.045  25.706  21.974  1.00  0.00    -0.270 OA
BRANCH  13  15
ATOM     15  C   UNL A   1      33.334  23.652  22.798  1.00  0.00     0.073 C 
ATOM     16  C   UNL A   1      32.717  22.964  23.772  1.00  0.00     0.024 C 
BRANCH  16  17
ATOM     17  C   UNL A   1      32.554  21.545  23.776  1.00  0.00     0.027 A 
ATOM     18  C   UNL A   1      32.895  17.789  24.928  1.00  0.00     0.056 C 
ATOM     19  C   UNL A   1      32.656  19.104  24.270  1.00  0.00     0.002 A 
ATOM     20  C   UNL A   1      32.213  19.356  22.992  1.00  0.00     0.016 A 
ATOM     21  S   UNL A   1      32.954  20.551  25.126  1.00  0.00    -0.141 S 
ATOM     22  C   UNL A   1      32.156  20.752  22.711  1.00  0.00     0.020 A 
ENDBRANCH  16  17
ENDBRANCH  13  15
ENDBRANCH   8  13
ENDBRANCH   4   7
ENDBRANCH   2   3
ENDBRANCH   1   2
BRANCH   1  23
ATOM     23  C   UNL A   1      31.397  32.543  26.514  1.00  0.00     0.023 C 
BRANCH  23  24
ATOM     24  C   UNL A   1      32.663  32.929  27.269  1.00  0.00     0.116 C 
BRANCH  24  25
ATOM     25  N   UNL A   1      32.629  34.297  27.759  1.00  0.00    -0.352 N 
ATOM     26  C   UNL A   1      33.331  34.869  28.792  1.00  0.00     0.251 C 
ATOM     27  H   UNL A   1      32.013  34.901  27.284  1.00  0.00     0.163 HD
ATOM     28  O   UNL A   1      33.035  36.002  29.165  1.00  0.00    -0.269 OA
BRANCH  26  29
ATOM     29  C   UNL A   1      34.408  34.112  29.465  1.00  0.00     0.039 A 
ATOM     30  C   UNL A   1      35.735  34.389  29.132  1.00  0.00     0.014 A 
ATOM     31  C   UNL A   1      34.116  33.136  30.423  1.00  0.00     0.014 A 
ATOM     32  C   UNL A   1      36.767  33.721  29.794  1.00  0.00     0.010 A 
ATOM     33  C   UNL A   1      35.146  32.541  31.147  1.00  0.00     0.010 A 
ATOM     34  C   UNL A   1      36.483  32.814  30.829  1.00  0.00    -0.014 A 
BRANCH  34  35
ATOM     35  C   UNL A   1      37.583  32.127  31.558  1.00  0.00     0.031 A 
ATOM     36  C   UNL A   1      38.343  31.004  30.902  1.00  0.00     0.074 A 
ATOM     37  C   UNL A   1      37.884  32.504  32.817  1.00  0.00     0.049 A 
ATOM     38  N   UNL A   1      39.336  30.292  31.370  1.00  0.00    -0.248 NA
ATOM     39  C   UNL A   1      37.907  30.610  29.553  1.00  0.00     0.031 C 
ATOM     40  C   UNL A   1      37.187  33.544  33.577  1.00  0.00     0.029 A 
ATOM     41  N   UNL A   1      38.859  32.064  33.678  1.00  0.00    -0.354 N 
ATOM     42  C   UNL A   1      39.642  29.368  30.377  1.00  0.00     0.074 A 
ATOM     43  C   UNL A   1      38.676  29.557  29.317  1.00  0.00     0.031 C 
ATOM     44  C   UNL A   1      37.784  33.693  34.771  1.00  0.00     0.029 A 
ATOM     45  C   UNL A   1      38.875  32.731  34.882  1.00  0.00     0.049 A 
ATOM     46  H   UNL A   1      39.486  31.340  33.456  1.00  0.00     0.167 HD
ATOM     47  C   UNL A   1      40.654  28.465  30.337  1.00  0.00     0.034 A 
ATOM     48  C   UNL A   1      39.680  32.584  35.953  1.00  0.00     0.034 A 
ATOM     49  C   UNL A   1      41.612  28.291  31.402  1.00  0.00     0.049 A 
ATOM     50  C   UNL A   1      40.786  31.559  35.894  1.00  0.00     0.074 A 
ATOM     51  C   UNL A   1      42.700  27.438  31.451  1.00  0.00     0.029 A 
ATOM     52  N   UNL A   1      41.593  28.976  32.611  1.00  0.00    -0.354 N 
ATOM     53  N   UNL A   1      41.098  30.734  34.921  1.00  0.00    -0.248 NA
ATOM     54  C   UNL A   1      41.658  31.464  37.070  1.00  0.00     0.031 C 
ATOM     55  C   UNL A   1      43.291  27.551  32.715  1.00  0.00     0.029 A 
ATOM     56  C   UNL A   1      42.631  28.542  33.423  1.00  0.00     0.049 A 
ATOM     57  H   UNL A   1      40.938  29.670  32.855  1.00  0.00     0.167 HD
ATOM     58  C   UNL A   1      42.228  30.045  35.358  1.00  0.00     0.074 A 
ATOM     59  C   UNL A   1      42.552  30.574  36.668  1.00  0.00     0.031 C 
ATOM     60  C   UNL A   1      42.935  29.066  34.735  1.00  0.00     0.034 A 
BRANCH  47  61
ATOM     61  C   UNL A   1      40.751  27.584  29.111  1.00  0.00     0.023 A 
ATOM     62  C   UNL A   1      41.692  27.831  28.095  1.00  0.00     0.031 A 
ATOM     63  C   UNL A   1      39.874  26.499  28.940  1.00  0.00     0.131 A 
ATOM     64  C   UNL A   1      41.678  27.062  26.922  1.00  0.00     0.055 A 
ATOM     65  C   UNL A   1      39.926  25.679  27.811  1.00  0.00     0.041 A 
ATOM     66  F   UNL A   1      38.937  26.224  29.862  1.00  0.00    -0.206 F 
ATOM     67  C   UNL A   1      40.821  25.969  26.785  1.00  0.00     0.022 A 
BRANCH  64  68
ATOM     68  S   UNL A   1      42.687  27.608  25.516  1.00  0.00     0.124 S 
ATOM     69  O   UNL A   1      41.895  28.723  25.002  1.00  0.00    -0.237 OA
ATOM     70  O   UNL A   1      43.950  27.961  26.151  1.00  0.00    -0.237 OA
ATOM     71  O   UNL A   1      42.730  26.433  24.648  1.00  0.00    -0.744 OA
ENDBRANCH  64  68
ENDBRANCH  47  61
BRANCH  48  72
ATOM     72  C   UNL A   1      39.481  33.420  37.174  1.00  0.00     0.023 A 
ATOM     73  C   UNL A   1      38.801  32.918  38.296  1.00  0.00     0.031 A 
ATOM     74  C   UNL A   1      39.924  34.754  37.217  1.00  0.00     0.131 A 
ATOM     75  C   UNL A   1      38.533  33.760  39.387  1.00  0.00     0.055 A 
ATOM     76  C   UNL A   1      39.709  35.569  38.330  1.00  0.00     0.041 A 
ATOM     77  F   UNL A   1      40.584  35.285  36.175  1.00  0.00    -0.206 F 
ATOM     78  C   UNL A   1      38.995  35.077  39.418  1.00  0.00     0.022 A 
BRANCH  75  79
ATOM     79  S   UNL A   1      37.481  33.137  40.728  1.00  0.00     0.124 S 
ATOM     80  O   UNL A   1      38.431  32.356  41.511  1.00  0.00    -0.237 OA
ATOM     81  O   UNL A   1      37.007  34.374  41.339  1.00  0.00    -0.237 OA
ATOM     82  O   UNL A   1      36.461  32.361  40.026  1.00  0.00    -0.744 OA
ENDBRANCH  75  79
ENDBRANCH  48  72
BRANCH  60  83
ATOM     83  C   UNL A   1      44.158  28.543  35.455  1.00  0.00     0.023 A 
ATOM     84  C   UNL A   1      44.082  27.476  36.368  1.00  0.00     0.031 A 
ATOM     85  C   UNL A   1      45.411  29.152  35.258  1.00  0.00     0.131 A 
ATOM     86  C   UNL A   1      45.213  27.112  37.113  1.00  0.00     0.055 A 
ATOM     87  C   UNL A   1      46.551  28.730  35.943  1.00  0.00     0.041 A 
ATOM     88  F   UNL A   1      45.546  30.177  34.401  1.00  0.00    -0.206 F 
ATOM     89  C   UNL A   1      46.452  27.717  36.892  1.00  0.00     0.022 A 
BRANCH  86  90
ATOM     90  S   UNL A   1      45.008  25.936  38.480  1.00  0.00     0.124 S 
ATOM     91  O   UNL A   1      44.209  26.708  39.426  1.00  0.00    -0.237 OA
ATOM     92  O   UNL A   1      44.327  24.820  37.831  1.00  0.00    -0.237 OA
ATOM     93  O   UNL A   1      46.380  25.663  38.905  1.00  0.00    -0.744 OA
ENDBRANCH  86  90
ENDBRANCH  60  83
ENDBRANCH  34  35
ENDBRANCH  26  29
ENDBRANCH  24  25
ENDBRANCH  23  24
ENDBRANCH   1  23
TORSDOF 17
ENDMDL
MODEL 3
REMARK VINA RESULT:     -11.3      1.340      1.718
REMARK SMILES Cc1ccc(/C=C/C(=O)N2CCC[C@@H](C(=O)NCCCCNC(=O)c3ccc(-c4c5nc(c(-c6cc(S(=O)(=O)[O-])ccc6F)c6ccc([nH]6)c(-c6cc(S(=O)(=O)[O-])ccc6F)c6nc(c(-c7cc(S(=O)(=O)[O-])ccc7F)c7ccc4[nH]7)C=C6)C=C5)cc3)C2)s1
REMARK SMILES IDX 19 1 18 2 17 3 15 4 16 5 14 7 10 8 11 9 88 10 12 11 13 12
REMARK SMILES IDX 8 13 9 14 7 15 6 16 5 17 1 18 2 19 3 20 89 21 4 22 20 23
REMARK SMILES IDX 21 24 22 25 23 26 24 28 25 29 26 30 87 31 27 32 86 33 28 34
REMARK SMILES IDX 29 35 30 36 80 37 31 38 85 39 79 40 81 41 32 42 84 43 78 44
REMARK SMILES IDX 77 45 33 47 65 48 45 49 64 50 46 51 49 52 63 53 82 54 47 55
REMARK SMILES IDX 48 56 62 58 83 59 50 60 34 61 35 62 43 63 36 64 42 65 44 66
REMARK SMILES IDX 41 67 37 68 38 69 39 70 40 71 66 72 67 73 75 74 68 75 74 76
REMARK SMILES IDX 76 77 73 78 69 79 70 80 71 81 72 82 51 83 52 84 60 85 53 86
REMARK SMILES IDX 59 87 61 88 58 89 54 90 55 91 56 92 57 93
REMARK H PARENT 17 6 22 27 81 46 49 57
REMARK Flexibility Score: inf
ROOT
ATOM      1  C   UNL A   1      31.821  28.345  26.854  1.00  0.00     0.023 C 
ENDROOT
BRANCH   1   2
ATOM      2  C   UNL A   1      31.078  27.581  25.762  1.00  0.00     0.116 C 
BRANCH   2   3
ATOM      3  N   UNL A   1      30.545  26.321  26.252  1.00  0.00    -0.356 N 
ATOM      4  C   UNL A   1      31.036  25.053  26.174  1.00  0.00     0.224 C 
ATOM      5  O   UNL A   1      30.366  24.142  26.664  1.00  0.00    -0.275 OA
ATOM      6  H   UNL A   1      29.682  26.396  26.720  1.00  0.00     0.163 HD
BRANCH   4   7
ATOM      7  C   UNL A   1      32.371  24.756  25.508  1.00  0.00     0.098 C 
ATOM      8  N   UNL A   1      33.762  22.835  24.698  1.00  0.00    -0.338 N 
ATOM      9  C   UNL A   1      33.656  23.324  23.329  1.00  0.00     0.120 C 
ATOM     10  C   UNL A   1      32.712  23.261  25.624  1.00  0.00     0.133 C 
ATOM     11  C   UNL A   1      33.618  24.841  23.294  1.00  0.00     0.022 C 
ATOM     12  C   UNL A   1      32.441  25.370  24.101  1.00  0.00     0.017 C 
BRANCH   8  13
ATOM     13  C   UNL A   1      34.813  21.993  25.008  1.00  0.00     0.246 C 
ATOM     14  O   UNL A   1      35.981  22.373  25.070  1.00  0.00    -0.270 OA
BRANCH  13  15
ATOM     15  C   UNL A   1      34.553  20.546  25.230  1.00  0.00     0.073 C 
ATOM     16  C   UNL A   1      33.723  19.850  24.438  1.00  0.00     0.024 C 
BRANCH  16  17
ATOM     17  C   UNL A   1      33.615  18.426  24.438  1.00  0.00     0.027 A 
ATOM     18  C   UNL A   1      32.801  14.781  25.706  1.00  0.00     0.056 C 
ATOM     19  C   UNL A   1      33.233  16.033  25.024  1.00  0.00     0.002 A 
ATOM     20  C   UNL A   1      34.059  16.174  23.932  1.00  0.00     0.016 A 
ATOM     21  S   UNL A   1      32.697  17.548  25.603  1.00  0.00    -0.141 S 
ATOM     22  C   UNL A   1      34.277  17.543  23.599  1.00  0.00     0.020 A 
ENDBRANCH  16  17
ENDBRANCH  13  15
ENDBRANCH   8  13
ENDBRANCH   4   7
ENDBRANCH   2   3
ENDBRANCH   1   2
BRANCH   1  23
ATOM     23  C   UNL A   1      33.344  28.308  26.726  1.00  0.00     0.023 C 
BRANCH  23  24
ATOM     24  C   UNL A   1      33.963  29.525  26.050  1.00  0.00     0.116 C 
BRANCH  24  25
ATOM     25  N   UNL A   1      33.716  30.758  26.778  1.00  0.00    -0.352 N 
ATOM     26  C   UNL A   1      34.402  31.294  27.840  1.00  0.00     0.251 C 
ATOM     27  H   UNL A   1      32.945  31.285  26.466  1.00  0.00     0.163 HD
ATOM     28  O   UNL A   1      33.932  32.264  28.431  1.00  0.00    -0.269 OA
BRANCH  26  29
ATOM     29  C   UNL A   1      35.675  30.687  28.284  1.00  0.00     0.039 A 
ATOM     30  C   UNL A   1      36.873  31.182  27.768  1.00  0.00     0.014 A 
ATOM     31  C   UNL A   1      35.691  29.635  29.205  1.00  0.00     0.014 A 
ATOM     32  C   UNL A   1      38.087  30.656  28.214  1.00  0.00     0.010 A 
ATOM     33  C   UNL A   1      36.902  29.177  29.718  1.00  0.00     0.010 A 
ATOM     34  C   UNL A   1      38.114  29.670  29.216  1.00  0.00    -0.014 A 
BRANCH  34  35
ATOM     35  C   UNL A   1      39.407  29.133  29.716  1.00  0.00     0.031 A 
ATOM     36  C   UNL A   1      40.053  29.729  30.940  1.00  0.00     0.074 A 
ATOM     37  C   UNL A   1      40.007  28.120  29.060  1.00  0.00     0.049 A 
ATOM     38  N   UNL A   1      41.170  29.392  31.533  1.00  0.00    -0.248 NA
ATOM     39  C   UNL A   1      39.369  30.874  31.558  1.00  0.00     0.031 C 
ATOM     40  C   UNL A   1      39.503  27.493  27.835  1.00  0.00     0.029 A 
ATOM     41  N   UNL A   1      41.163  27.432  29.331  1.00  0.00    -0.354 N 
ATOM     42  C   UNL A   1      41.322  30.283  32.591  1.00  0.00     0.074 A 
ATOM     43  C   UNL A   1      40.226  31.223  32.506  1.00  0.00     0.031 C 
ATOM     44  C   UNL A   1      40.321  26.486  27.487  1.00  0.00     0.029 A 
ATOM     45  C   UNL A   1      41.430  26.422  28.434  1.00  0.00     0.049 A 
ATOM     46  H   UNL A   1      41.748  27.642  30.094  1.00  0.00     0.167 HD
ATOM     47  C   UNL A   1      42.270  30.298  33.561  1.00  0.00     0.034 A 
ATOM     48  C   UNL A   1      42.450  25.544  28.383  1.00  0.00     0.034 A 
ATOM     49  C   UNL A   1      43.355  29.350  33.634  1.00  0.00     0.049 A 
ATOM     50  C   UNL A   1      43.504  25.593  29.462  1.00  0.00     0.074 A 
ATOM     51  C   UNL A   1      44.346  29.245  34.594  1.00  0.00     0.029 A 
ATOM     52  N   UNL A   1      43.600  28.347  32.703  1.00  0.00    -0.354 N 
ATOM     53  N   UNL A   1      43.599  26.405  30.490  1.00  0.00    -0.248 NA
ATOM     54  C   UNL A   1      44.574  24.592  29.383  1.00  0.00     0.031 C 
ATOM     55  C   UNL A   1      45.231  28.233  34.205  1.00  0.00     0.029 A 
ATOM     56  C   UNL A   1      44.742  27.640  33.051  1.00  0.00     0.049 A 
ATOM     57  H   UNL A   1      43.043  28.163  31.913  1.00  0.00     0.167 HD
ATOM     58  C   UNL A   1      44.723  25.987  31.199  1.00  0.00     0.074 A 
ATOM     59  C   UNL A   1      45.251  24.837  30.494  1.00  0.00     0.031 C 
ATOM     60  C   UNL A   1      45.270  26.504  32.331  1.00  0.00     0.034 A 
BRANCH  47  61
ATOM     61  C   UNL A   1      42.180  31.392  34.603  1.00  0.00     0.023 A 
ATOM     62  C   UNL A   1      41.200  31.375  35.611  1.00  0.00     0.031 A 
ATOM     63  C   UNL A   1      43.069  32.481  34.572  1.00  0.00     0.131 A 
ATOM     64  C   UNL A   1      41.077  32.462  36.489  1.00  0.00     0.055 A 
ATOM     65  C   UNL A   1      43.000  33.516  35.507  1.00  0.00     0.041 A 
ATOM     66  F   UNL A   1      44.012  32.568  33.621  1.00  0.00    -0.206 F 
ATOM     67  C   UNL A   1      41.989  33.520  36.463  1.00  0.00     0.022 A 
BRANCH  64  68
ATOM     68  S   UNL A   1      39.615  32.549  37.561  1.00  0.00     0.124 S 
ATOM     69  O   UNL A   1      40.211  32.380  38.884  1.00  0.00    -0.237 OA
ATOM     70  O   UNL A   1      39.084  33.874  37.264  1.00  0.00    -0.237 OA
ATOM     71  O   UNL A   1      38.793  31.429  37.110  1.00  0.00    -0.744 OA
ENDBRANCH  64  68
ENDBRANCH  47  61
BRANCH  48  72
ATOM     72  C   UNL A   1      42.537  24.541  27.279  1.00  0.00     0.023 A 
ATOM     73  C   UNL A   1      41.853  23.318  27.354  1.00  0.00     0.031 A 
ATOM     74  C   UNL A   1      43.349  24.773  26.155  1.00  0.00     0.131 A 
ATOM     75  C   UNL A   1      42.038  22.349  26.354  1.00  0.00     0.055 A 
ATOM     76  C   UNL A   1      43.482  23.831  25.133  1.00  0.00     0.041 A 
ATOM     77  F   UNL A   1      44.023  25.928  26.029  1.00  0.00    -0.206 F 
ATOM     78  C   UNL A   1      42.836  22.603  25.237  1.00  0.00     0.022 A 
BRANCH  75  79
ATOM     79  S   UNL A   1      41.298  20.709  26.585  1.00  0.00     0.124 S 
ATOM     80  O   UNL A   1      41.645  20.420  27.972  1.00  0.00    -0.237 OA
ATOM     81  O   UNL A   1      39.889  20.972  26.317  1.00  0.00    -0.237 OA
ATOM     82  O   UNL A   1      41.977  19.886  25.586  1.00  0.00    -0.744 OA
ENDBRANCH  75  79
ENDBRANCH  48  72
BRANCH  60  83
ATOM     83  C   UNL A   1      46.478  25.790  32.894  1.00  0.00     0.023 A 
ATOM     84  C   UNL A   1      47.774  26.024  32.401  1.00  0.00     0.031 A 
ATOM     85  C   UNL A   1      46.323  24.828  33.908  1.00  0.00     0.131 A 
ATOM     86  C   UNL A   1      48.847  25.243  32.857  1.00  0.00     0.055 A 
ATOM     87  C   UNL A   1      47.409  24.113  34.416  1.00  0.00     0.041 A 
ATOM     88  F   UNL A   1      45.110  24.558  34.418  1.00  0.00    -0.206 F 
ATOM     89  C   UNL A   1      48.677  24.304  33.876  1.00  0.00     0.022 A 
BRANCH  86  90
ATOM     90  S   UNL A   1      50.439  25.371  31.996  1.00  0.00     0.124 S 
ATOM     91  O   UNL A   1      50.729  23.974  31.689  1.00  0.00    -0.237 OA
ATOM     92  O   UNL A   1      50.109  26.220  30.856  1.00  0.00    -0.237 OA
ATOM     93  O   UNL A   1      51.318  25.983  32.992  1.00  0.00    -0.744 OA
ENDBRANCH  86  90
ENDBRANCH  60  83
ENDBRANCH  34  35
ENDBRANCH  26  29
ENDBRANCH  24  25
ENDBRANCH  23  24
ENDBRANCH   1  23
TORSDOF 17
ENDMDL
