MODEL 1
REMARK VINA RESULT:     -12.6      0.000      0.000
REMARK SMILES CCOC(=O)c1c(NC(=O)[C@@H]2[C@@H](C(=O)NCCCCNC(=O)c3ccc(-c4c5nc(c(-c6cc(S(=O)(=O)[O-])ccc6F)c6ccc([nH]6)c(-c6cc(S(=O)(=O)[O-])ccc6F)c6nc(c(-c7cc(S(=O)(=O)[O-])ccc7F)c7ccc4[nH]7)C=C6)C=C5)cc3)[C@@H]3C=C[C@H]2CC3)sc2c1CCC2
REMARK SMILES IDX 16 1 15 2 13 3 14 4 12 6 11 7 89 8 86 9 88 10 90 11 87 12
REMARK SMILES IDX 91 13 9 14 8 15 10 17 7 18 6 19 94 20 92 21 93 22 95 23
REMARK SMILES IDX 97 24 96 25 4 26 5 27 3 28 2 29 1 30 17 31 18 32 19 33 20 34
REMARK SMILES IDX 21 35 22 37 23 38 24 39 85 40 25 41 84 42 26 43 27 44 28 45
REMARK SMILES IDX 78 46 29 47 83 48 77 49 79 50 30 51 82 52 76 53 75 54 31 56
REMARK SMILES IDX 63 57 43 58 62 59 44 60 47 61 61 62 80 63 45 64 46 65 60 67
REMARK SMILES IDX 81 68 48 69 32 70 33 71 41 72 34 73 40 74 42 75 39 76 35 77
REMARK SMILES IDX 36 78 37 79 38 80 64 81 65 82 73 83 66 84 72 85 74 86 71 87
REMARK SMILES IDX 67 88 68 89 69 90 70 91 49 92 50 93 58 94 51 95 57 96 59 97
REMARK SMILES IDX 56 98 52 99 53 100 54 101 55 102
REMARK H PARENT 15 5 8 16 20 36 79 55 47 66
REMARK Flexibility Score: inf
ROOT
ATOM      1  C   UNL A   1      33.689  28.932  27.120  1.00  0.00     0.116 C 
ENDROOT
BRANCH   1   2
ATOM      2  N   UNL A   1      34.021  28.356  25.831  1.00  0.00    -0.356 N 
ATOM      3  C   UNL A   1      33.400  27.562  24.937  1.00  0.00     0.224 C 
ATOM      4  O   UNL A   1      34.031  27.405  23.879  1.00  0.00    -0.275 OA
ATOM      5  H   UNL A   1      34.924  28.610  25.535  1.00  0.00     0.163 HD
BRANCH   3   6
ATOM      6  C   UNL A   1      32.071  26.798  25.087  1.00  0.00     0.098 C 
ATOM      7  C   UNL A   1      31.926  25.296  24.784  1.00  0.00     0.099 C 
ATOM      8  C   UNL A   1      30.765  25.032  23.772  1.00  0.00     0.025 C 
ATOM      9  C   UNL A   1      31.012  27.578  24.224  1.00  0.00     0.025 C 
ATOM     10  C   UNL A   1      29.496  25.694  24.223  1.00  0.00    -0.027 C 
ATOM     11  C   UNL A   1      31.049  25.797  22.437  1.00  0.00     0.009 C 
ATOM     12  C   UNL A   1      29.618  27.019  24.422  1.00  0.00    -0.027 C 
ATOM     13  C   UNL A   1      31.292  27.307  22.731  1.00  0.00     0.009 C 
BRANCH   7  14
ATOM     14  C   UNL A   1      32.058  24.349  26.007  1.00  0.00     0.229 C 
ATOM     15  N   UNL A   1      33.017  23.444  26.343  1.00  0.00    -0.317 N 
ATOM     16  H   UNL A   1      32.812  22.959  27.175  1.00  0.00     0.170 HD
ATOM     17  O   UNL A   1      31.171  24.469  26.875  1.00  0.00    -0.274 OA
BRANCH  15  18
ATOM     18  C   UNL A   1      34.210  23.057  25.777  1.00  0.00     0.110 A 
ATOM     19  C   UNL A   1      34.533  21.856  25.130  1.00  0.00     0.098 A 
ATOM     20  C   UNL A   1      35.952  21.717  25.199  1.00  0.00    -0.017 A 
ATOM     21  S   UNL A   1      35.461  24.176  25.468  1.00  0.00    -0.122 S 
ATOM     22  C   UNL A   1      36.548  22.910  25.507  1.00  0.00     0.011 A 
ATOM     23  C   UNL A   1      36.992  20.676  25.003  1.00  0.00     0.038 C 
ATOM     24  C   UNL A   1      38.006  22.858  25.724  1.00  0.00     0.047 C 
ATOM     25  C   UNL A   1      38.236  21.317  25.709  1.00  0.00     0.010 C 
BRANCH  19  26
ATOM     26  C   UNL A   1      33.536  20.944  24.599  1.00  0.00     0.341 C 
ATOM     27  O   UNL A   1      32.523  21.355  24.037  1.00  0.00    -0.246 OA
BRANCH  26  28
ATOM     28  O   UNL A   1      33.879  19.631  24.704  1.00  0.00    -0.462 OA
BRANCH  28  29
ATOM     29  C   UNL A   1      32.818  18.677  24.519  1.00  0.00     0.230 C 
ATOM     30  C   UNL A   1      32.609  17.720  25.683  1.00  0.00     0.049 C 
ENDBRANCH  28  29
ENDBRANCH  26  28
ENDBRANCH  19  26
ENDBRANCH  15  18
ENDBRANCH   7  14
ENDBRANCH   3   6
ENDBRANCH   1   2
BRANCH   1  31
ATOM     31  C   UNL A   1      32.515  29.907  27.066  1.00  0.00     0.023 C 
BRANCH  31  32
ATOM     32  C   UNL A   1      32.828  31.400  27.193  1.00  0.00     0.023 C 
BRANCH  32  33
ATOM     33  C   UNL A   1      34.249  31.726  27.634  1.00  0.00     0.116 C 
BRANCH  33  34
ATOM     34  N   UNL A   1      34.299  32.362  28.948  1.00  0.00    -0.352 N 
ATOM     35  C   UNL A   1      35.096  32.021  30.024  1.00  0.00     0.251 C 
ATOM     36  H   UNL A   1      33.694  33.126  29.084  1.00  0.00     0.163 HD
ATOM     37  O   UNL A   1      34.774  32.338  31.164  1.00  0.00    -0.269 OA
BRANCH  35  38
ATOM     38  C   UNL A   1      36.341  31.276  29.765  1.00  0.00     0.039 A 
ATOM     39  C   UNL A   1      37.576  31.917  29.713  1.00  0.00     0.014 A 
ATOM     40  C   UNL A   1      36.248  29.891  29.628  1.00  0.00     0.014 A 
ATOM     41  C   UNL A   1      38.728  31.136  29.624  1.00  0.00     0.010 A 
ATOM     42  C   UNL A   1      37.384  29.116  29.662  1.00  0.00     0.010 A 
ATOM     43  C   UNL A   1      38.629  29.732  29.635  1.00  0.00    -0.014 A 
BRANCH  43  44
ATOM     44  C   UNL A   1      39.830  28.910  29.773  1.00  0.00     0.031 A 
ATOM     45  C   UNL A   1      40.197  28.605  31.182  1.00  0.00     0.074 A 
ATOM     46  C   UNL A   1      40.466  28.297  28.751  1.00  0.00     0.049 A 
ATOM     47  N   UNL A   1      41.147  29.139  31.873  1.00  0.00    -0.248 NA
ATOM     48  C   UNL A   1      39.305  27.745  31.974  1.00  0.00     0.031 C 
ATOM     49  C   UNL A   1      40.073  28.229  27.341  1.00  0.00     0.029 A 
ATOM     50  N   UNL A   1      41.583  27.517  28.787  1.00  0.00    -0.354 N 
ATOM     51  C   UNL A   1      41.141  28.491  33.105  1.00  0.00     0.074 A 
ATOM     52  C   UNL A   1      39.869  27.826  33.182  1.00  0.00     0.031 C 
ATOM     53  C   UNL A   1      40.810  27.288  26.708  1.00  0.00     0.029 A 
ATOM     54  C   UNL A   1      41.840  26.812  27.614  1.00  0.00     0.049 A 
ATOM     55  H   UNL A   1      42.163  27.458  29.580  1.00  0.00     0.167 HD
ATOM     56  C   UNL A   1      42.289  28.366  33.832  1.00  0.00     0.034 A 
ATOM     57  C   UNL A   1      42.828  25.901  27.397  1.00  0.00     0.034 A 
ATOM     58  C   UNL A   1      43.316  29.248  33.313  1.00  0.00     0.049 A 
ATOM     59  C   UNL A   1      43.896  26.197  28.384  1.00  0.00     0.074 A 
ATOM     60  C   UNL A   1      43.414  30.613  33.119  1.00  0.00     0.029 A 
ATOM     61  N   UNL A   1      44.298  28.695  32.519  1.00  0.00    -0.354 N 
ATOM     62  N   UNL A   1      44.583  27.307  28.379  1.00  0.00    -0.248 NA
ATOM     63  C   UNL A   1      43.865  25.497  29.658  1.00  0.00     0.031 C 
ATOM     64  C   UNL A   1      44.067  30.756  31.857  1.00  0.00     0.029 A 
ATOM     65  C   UNL A   1      44.421  29.484  31.401  1.00  0.00     0.049 A 
ATOM     66  H   UNL A   1      44.817  27.882  32.717  1.00  0.00     0.167 HD
ATOM     67  C   UNL A   1      44.682  27.673  29.712  1.00  0.00     0.074 A 
ATOM     68  C   UNL A   1      44.313  26.470  30.458  1.00  0.00     0.031 C 
ATOM     69  C   UNL A   1      44.779  28.985  30.084  1.00  0.00     0.034 A 
BRANCH  56  70
ATOM     70  C   UNL A   1      42.634  27.204  34.745  1.00  0.00     0.023 A 
ATOM     71  C   UNL A   1      43.490  26.216  34.220  1.00  0.00     0.031 A 
ATOM     72  C   UNL A   1      41.976  26.860  35.948  1.00  0.00     0.131 A 
ATOM     73  C   UNL A   1      43.555  24.932  34.787  1.00  0.00     0.055 A 
ATOM     74  C   UNL A   1      42.097  25.601  36.548  1.00  0.00     0.041 A 
ATOM     75  F   UNL A   1      41.120  27.675  36.570  1.00  0.00    -0.206 F 
ATOM     76  C   UNL A   1      42.858  24.615  35.947  1.00  0.00     0.022 A 
BRANCH  73  77
ATOM     77  S   UNL A   1      44.417  23.632  33.866  1.00  0.00     0.124 S 
ATOM     78  O   UNL A   1      43.757  23.712  32.568  1.00  0.00    -0.237 OA
ATOM     79  O   UNL A   1      45.800  24.096  33.917  1.00  0.00    -0.237 OA
ATOM     80  O   UNL A   1      44.136  22.426  34.639  1.00  0.00    -0.744 OA
ENDBRANCH  73  77
ENDBRANCH  56  70
BRANCH  57  81
ATOM     81  C   UNL A   1      42.746  24.628  26.626  1.00  0.00     0.023 A 
ATOM     82  C   UNL A   1      43.801  24.138  25.823  1.00  0.00     0.031 A 
ATOM     83  C   UNL A   1      41.685  23.730  26.886  1.00  0.00     0.131 A 
ATOM     84  C   UNL A   1      43.769  22.810  25.329  1.00  0.00     0.055 A 
ATOM     85  C   UNL A   1      41.660  22.422  26.400  1.00  0.00     0.041 A 
ATOM     86  F   UNL A   1      40.675  24.070  27.703  1.00  0.00    -0.206 F 
ATOM     87  C   UNL A   1      42.709  21.952  25.627  1.00  0.00     0.022 A 
BRANCH  84  88
ATOM     88  S   UNL A   1      45.162  22.139  24.359  1.00  0.00     0.124 S 
ATOM     89  O   UNL A   1      44.526  21.068  23.601  1.00  0.00    -0.237 OA
ATOM     90  O   UNL A   1      45.603  23.301  23.595  1.00  0.00    -0.237 OA
ATOM     91  O   UNL A   1      46.107  21.688  25.382  1.00  0.00    -0.744 OA
ENDBRANCH  84  88
ENDBRANCH  57  81
BRANCH  69  92
ATOM     92  C   UNL A   1      45.093  30.022  29.020  1.00  0.00     0.023 A 
ATOM     93  C   UNL A   1      46.389  30.459  28.656  1.00  0.00     0.031 A 
ATOM     94  C   UNL A   1      44.010  30.500  28.260  1.00  0.00     0.131 A 
ATOM     95  C   UNL A   1      46.555  31.347  27.572  1.00  0.00     0.055 A 
ATOM     96  C   UNL A   1      44.181  31.357  27.175  1.00  0.00     0.041 A 
ATOM     97  F   UNL A   1      42.756  30.108  28.541  1.00  0.00    -0.206 F 
ATOM     98  C   UNL A   1      45.455  31.788  26.830  1.00  0.00     0.022 A 
BRANCH  95  99
ATOM     99  S   UNL A   1      48.207  31.968  27.112  1.00  0.00     0.124 S 
ATOM    100  O   UNL A   1      48.627  32.727  28.285  1.00  0.00    -0.237 OA
ATOM    101  O   UNL A   1      48.946  30.737  26.848  1.00  0.00    -0.237 OA
ATOM    102  O   UNL A   1      47.945  32.783  25.925  1.00  0.00    -0.744 OA
ENDBRANCH  95  99
ENDBRANCH  69  92
ENDBRANCH  43  44
ENDBRANCH  35  38
ENDBRANCH  33  34
ENDBRANCH  32  33
ENDBRANCH  31  32
ENDBRANCH   1  31
TORSDOF 19
ENDMDL
MODEL 2
REMARK VINA RESULT:     -12.6      1.634      2.703
REMARK SMILES CCOC(=O)c1c(NC(=O)[C@@H]2[C@@H](C(=O)NCCCCNC(=O)c3ccc(-c4c5nc(c(-c6cc(S(=O)(=O)[O-])ccc6F)c6ccc([nH]6)c(-c6cc(S(=O)(=O)[O-])ccc6F)c6nc(c(-c7cc(S(=O)(=O)[O-])ccc7F)c7ccc4[nH]7)C=C6)C=C5)cc3)[C@@H]3C=C[C@H]2CC3)sc2c1CCC2
REMARK SMILES IDX 16 1 15 2 13 3 14 4 12 6 11 7 89 8 86 9 88 10 90 11 87 12
REMARK SMILES IDX 91 13 9 14 8 15 10 17 7 18 6 19 94 20 92 21 93 22 95 23
REMARK SMILES IDX 97 24 96 25 4 26 5 27 3 28 2 29 1 30 17 31 18 32 19 33 20 34
REMARK SMILES IDX 21 35 22 37 23 38 24 39 85 40 25 41 84 42 26 43 27 44 28 45
REMARK SMILES IDX 78 46 29 47 83 48 77 49 79 50 30 51 82 52 76 53 75 54 31 56
REMARK SMILES IDX 63 57 43 58 62 59 44 60 47 61 61 62 80 63 45 64 46 65 60 67
REMARK SMILES IDX 81 68 48 69 32 70 33 71 41 72 34 73 40 74 42 75 39 76 35 77
REMARK SMILES IDX 36 78 37 79 38 80 64 81 65 82 73 83 66 84 72 85 74 86 71 87
REMARK SMILES IDX 67 88 68 89 69 90 70 91 49 92 50 93 58 94 51 95 57 96 59 97
REMARK SMILES IDX 56 98 52 99 53 100 54 101 55 102
REMARK H PARENT 15 5 8 16 20 36 79 55 47 66
REMARK Flexibility Score: inf
ROOT
ATOM      1  C   UNL A   1      32.234  27.504  25.965  1.00  0.00     0.116 C 
ENDROOT
BRANCH   1   2
ATOM      2  N   UNL A   1      31.205  26.529  26.271  1.00  0.00    -0.356 N 
ATOM      3  C   UNL A   1      31.054  25.199  26.115  1.00  0.00     0.224 C 
ATOM      4  O   UNL A   1      30.026  24.743  26.642  1.00  0.00    -0.275 OA
ATOM      5  H   UNL A   1      30.423  26.941  26.702  1.00  0.00     0.163 HD
BRANCH   3   6
ATOM      6  C   UNL A   1      31.942  24.215  25.331  1.00  0.00     0.098 C 
ATOM      7  C   UNL A   1      33.240  24.636  24.619  1.00  0.00     0.099 C 
ATOM      8  C   UNL A   1      33.228  24.203  23.118  1.00  0.00     0.025 C 
ATOM      9  C   UNL A   1      31.006  23.518  24.276  1.00  0.00     0.025 C 
ATOM     10  C   UNL A   1      32.896  22.745  22.980  1.00  0.00    -0.027 C 
ATOM     11  C   UNL A   1      32.009  24.862  22.391  1.00  0.00     0.009 C 
ATOM     12  C   UNL A   1      31.728  22.401  23.550  1.00  0.00    -0.027 C 
ATOM     13  C   UNL A   1      30.692  24.526  23.150  1.00  0.00     0.009 C 
BRANCH   7  14
ATOM     14  C   UNL A   1      34.548  24.429  25.428  1.00  0.00     0.229 C 
ATOM     15  N   UNL A   1      35.134  23.301  25.915  1.00  0.00    -0.317 N 
ATOM     16  H   UNL A   1      35.955  23.485  26.425  1.00  0.00     0.170 HD
ATOM     17  O   UNL A   1      35.225  25.457  25.624  1.00  0.00    -0.274 OA
BRANCH  15  18
ATOM     18  C   UNL A   1      34.832  21.960  25.850  1.00  0.00     0.110 A 
ATOM     19  C   UNL A   1      35.592  20.908  25.322  1.00  0.00     0.098 A 
ATOM     20  C   UNL A   1      34.680  19.854  25.009  1.00  0.00    -0.017 A 
ATOM     21  S   UNL A   1      33.550  21.284  26.751  1.00  0.00    -0.122 S 
ATOM     22  C   UNL A   1      33.482  20.038  25.644  1.00  0.00     0.011 A 
ATOM     23  C   UNL A   1      34.644  18.592  24.228  1.00  0.00     0.038 C 
ATOM     24  C   UNL A   1      32.422  19.073  25.296  1.00  0.00     0.047 C 
ATOM     25  C   UNL A   1      33.104  18.321  24.115  1.00  0.00     0.010 C 
BRANCH  19  26
ATOM     26  C   UNL A   1      37.022  20.997  25.089  1.00  0.00     0.341 C 
ATOM     27  O   UNL A   1      37.697  19.998  24.847  1.00  0.00    -0.246 OA
BRANCH  26  28
ATOM     28  O   UNL A   1      37.501  22.271  25.075  1.00  0.00    -0.462 OA
BRANCH  28  29
ATOM     29  C   UNL A   1      38.581  22.557  25.983  1.00  0.00     0.230 C 
ATOM     30  C   UNL A   1      38.621  23.988  26.496  1.00  0.00     0.049 C 
ENDBRANCH  28  29
ENDBRANCH  26  28
ENDBRANCH  19  26
ENDBRANCH  15  18
ENDBRANCH   7  14
ENDBRANCH   3   6
ENDBRANCH   1   2
BRANCH   1  31
ATOM     31  C   UNL A   1      32.790  28.208  27.201  1.00  0.00     0.023 C 
BRANCH  31  32
ATOM     32  C   UNL A   1      33.053  29.713  27.099  1.00  0.00     0.023 C 
BRANCH  32  33
ATOM     33  C   UNL A   1      34.505  30.129  27.290  1.00  0.00     0.116 C 
BRANCH  33  34
ATOM     34  N   UNL A   1      34.639  31.439  27.922  1.00  0.00    -0.352 N 
ATOM     35  C   UNL A   1      35.619  31.860  28.800  1.00  0.00     0.251 C 
ATOM     36  H   UNL A   1      33.948  32.103  27.695  1.00  0.00     0.163 HD
ATOM     37  O   UNL A   1      35.413  32.798  29.561  1.00  0.00    -0.269 OA
BRANCH  35  38
ATOM     38  C   UNL A   1      36.916  31.159  28.790  1.00  0.00     0.039 A 
ATOM     39  C   UNL A   1      38.068  31.751  29.301  1.00  0.00     0.014 A 
ATOM     40  C   UNL A   1      36.940  29.854  28.298  1.00  0.00     0.014 A 
ATOM     41  C   UNL A   1      39.222  30.976  29.408  1.00  0.00     0.010 A 
ATOM     42  C   UNL A   1      38.040  29.056  28.512  1.00  0.00     0.010 A 
ATOM     43  C   UNL A   1      39.194  29.617  29.044  1.00  0.00    -0.014 A 
BRANCH  43  44
ATOM     44  C   UNL A   1      40.323  28.745  29.363  1.00  0.00     0.031 A 
ATOM     45  C   UNL A   1      40.564  28.575  30.821  1.00  0.00     0.074 A 
ATOM     46  C   UNL A   1      40.990  27.987  28.465  1.00  0.00     0.049 A 
ATOM     47  N   UNL A   1      41.495  29.123  31.526  1.00  0.00    -0.248 NA
ATOM     48  C   UNL A   1      39.561  27.860  31.625  1.00  0.00     0.031 C 
ATOM     49  C   UNL A   1      40.697  27.789  27.043  1.00  0.00     0.029 A 
ATOM     50  N   UNL A   1      42.046  27.151  28.672  1.00  0.00    -0.354 N 
ATOM     51  C   UNL A   1      41.356  28.615  32.815  1.00  0.00     0.074 A 
ATOM     52  C   UNL A   1      40.039  28.040  32.859  1.00  0.00     0.031 C 
ATOM     53  C   UNL A   1      41.414  26.742  26.572  1.00  0.00     0.029 A 
ATOM     54  C   UNL A   1      42.340  26.308  27.603  1.00  0.00     0.049 A 
ATOM     55  H   UNL A   1      42.561  27.144  29.510  1.00  0.00     0.167 HD
ATOM     56  C   UNL A   1      42.436  28.502  33.641  1.00  0.00     0.034 A 
ATOM     57  C   UNL A   1      43.277  25.322  27.562  1.00  0.00     0.034 A 
ATOM     58  C   UNL A   1      43.556  29.260  33.117  1.00  0.00     0.049 A 
ATOM     59  C   UNL A   1      44.288  25.660  28.595  1.00  0.00     0.074 A 
ATOM     60  C   UNL A   1      43.759  30.588  32.789  1.00  0.00     0.029 A 
ATOM     61  N   UNL A   1      44.553  28.566  32.465  1.00  0.00    -0.354 N 
ATOM     62  N   UNL A   1      45.046  26.720  28.529  1.00  0.00    -0.248 NA
ATOM     63  C   UNL A   1      44.116  25.106  29.929  1.00  0.00     0.031 C 
ATOM     64  C   UNL A   1      44.511  30.553  31.576  1.00  0.00     0.029 A 
ATOM     65  C   UNL A   1      44.811  29.220  31.285  1.00  0.00     0.049 A 
ATOM     66  H   UNL A   1      45.001  27.750  32.788  1.00  0.00     0.167 HD
ATOM     67  C   UNL A   1      45.072  27.223  29.821  1.00  0.00     0.074 A 
ATOM     68  C   UNL A   1      44.569  26.132  30.656  1.00  0.00     0.031 C 
ATOM     69  C   UNL A   1      45.230  28.559  30.060  1.00  0.00     0.034 A 
BRANCH  56  70
ATOM     70  C   UNL A   1      42.634  27.429  34.695  1.00  0.00     0.023 A 
ATOM     71  C   UNL A   1      43.451  26.336  34.343  1.00  0.00     0.031 A 
ATOM     72  C   UNL A   1      41.872  27.262  35.873  1.00  0.00     0.131 A 
ATOM     73  C   UNL A   1      43.385  25.121  35.046  1.00  0.00     0.055 A 
ATOM     74  C   UNL A   1      41.861  26.072  36.610  1.00  0.00     0.041 A 
ATOM     75  F   UNL A   1      41.035  28.193  36.339  1.00  0.00    -0.206 F 
ATOM     76  C   UNL A   1      42.589  24.979  36.177  1.00  0.00     0.022 A 
BRANCH  73  77
ATOM     77  S   UNL A   1      44.214  23.676  34.335  1.00  0.00     0.124 S 
ATOM     78  O   UNL A   1      43.833  22.632  35.281  1.00  0.00    -0.237 OA
ATOM     79  O   UNL A   1      43.604  23.602  33.012  1.00  0.00    -0.237 OA
ATOM     80  O   UNL A   1      45.624  24.052  34.351  1.00  0.00    -0.744 OA
ENDBRANCH  73  77
ENDBRANCH  56  70
BRANCH  57  81
ATOM     81  C   UNL A   1      43.166  23.979  26.924  1.00  0.00     0.023 A 
ATOM     82  C   UNL A   1      44.120  23.473  26.012  1.00  0.00     0.031 A 
ATOM     83  C   UNL A   1      42.219  23.055  27.421  1.00  0.00     0.131 A 
ATOM     84  C   UNL A   1      44.104  22.105  25.643  1.00  0.00     0.055 A 
ATOM     85  C   UNL A   1      42.208  21.707  27.056  1.00  0.00     0.041 A 
ATOM     86  F   UNL A   1      41.321  23.416  28.352  1.00  0.00    -0.206 F 
ATOM     87  C   UNL A   1      43.159  21.223  26.174  1.00  0.00     0.022 A 
BRANCH  84  88
ATOM     88  S   UNL A   1      45.377  21.420  24.529  1.00  0.00     0.124 S 
ATOM     89  O   UNL A   1      44.592  20.564  23.647  1.00  0.00    -0.237 OA
ATOM     90  O   UNL A   1      45.950  22.620  23.930  1.00  0.00    -0.237 OA
ATOM     91  O   UNL A   1      46.276  20.704  25.436  1.00  0.00    -0.744 OA
ENDBRANCH  84  88
ENDBRANCH  57  81
BRANCH  69  92
ATOM     92  C   UNL A   1      45.691  29.453  28.923  1.00  0.00     0.023 A 
ATOM     93  C   UNL A   1      44.889  30.402  28.246  1.00  0.00     0.031 A 
ATOM     94  C   UNL A   1      47.059  29.409  28.595  1.00  0.00     0.131 A 
ATOM     95  C   UNL A   1      45.467  31.253  27.280  1.00  0.00     0.055 A 
ATOM     96  C   UNL A   1      47.630  30.268  27.659  1.00  0.00     0.041 A 
ATOM     97  F   UNL A   1      47.879  28.544  29.214  1.00  0.00    -0.206 F 
ATOM     98  C   UNL A   1      46.834  31.190  26.992  1.00  0.00     0.022 A 
BRANCH  95  99
ATOM     99  S   UNL A   1      44.448  32.450  26.354  1.00  0.00     0.124 S 
ATOM    100  O   UNL A   1      45.394  33.061  25.427  1.00  0.00    -0.237 OA
ATOM    101  O   UNL A   1      43.424  31.599  25.756  1.00  0.00    -0.237 OA
ATOM    102  O   UNL A   1      43.952  33.351  27.397  1.00  0.00    -0.744 OA
ENDBRANCH  95  99
ENDBRANCH  69  92
ENDBRANCH  43  44
ENDBRANCH  35  38
ENDBRANCH  33  34
ENDBRANCH  32  33
ENDBRANCH  31  32
ENDBRANCH   1  31
TORSDOF 19
ENDMDL
MODEL 3
REMARK VINA RESULT:     -12.5      3.085      7.192
REMARK SMILES CCOC(=O)c1c(NC(=O)[C@@H]2[C@@H](C(=O)NCCCCNC(=O)c3ccc(-c4c5nc(c(-c6cc(S(=O)(=O)[O-])ccc6F)c6ccc([nH]6)c(-c6cc(S(=O)(=O)[O-])ccc6F)c6nc(c(-c7cc(S(=O)(=O)[O-])ccc7F)c7ccc4[nH]7)C=C6)C=C5)cc3)[C@@H]3C=C[C@H]2CC3)sc2c1CCC2
REMARK SMILES IDX 16 1 15 2 13 3 14 4 12 6 11 7 89 8 86 9 88 10 90 11 87 12
REMARK SMILES IDX 91 13 9 14 8 15 10 17 7 18 6 19 94 20 92 21 93 22 95 23
REMARK SMILES IDX 97 24 96 25 4 26 5 27 3 28 2 29 1 30 17 31 18 32 19 33 20 34
REMARK SMILES IDX 21 35 22 37 23 38 24 39 85 40 25 41 84 42 26 43 27 44 28 45
REMARK SMILES IDX 78 46 29 47 83 48 77 49 79 50 30 51 82 52 76 53 75 54 31 56
REMARK SMILES IDX 63 57 43 58 62 59 44 60 47 61 61 62 80 63 45 64 46 65 60 67
REMARK SMILES IDX 81 68 48 69 32 70 33 71 41 72 34 73 40 74 42 75 39 76 35 77
REMARK SMILES IDX 36 78 37 79 38 80 64 81 65 82 73 83 66 84 72 85 74 86 71 87
REMARK SMILES IDX 67 88 68 89 69 90 70 91 49 92 50 93 58 94 51 95 57 96 59 97
REMARK SMILES IDX 56 98 52 99 53 100 54 101 55 102
REMARK H PARENT 15 5 8 16 20 36 79 55 47 66
REMARK Flexibility Score: inf
ROOT
ATOM      1  C   UNL A   1      33.045  29.491  24.808  1.00  0.00     0.116 C 
ENDROOT
BRANCH   1   2
ATOM      2  N   UNL A   1      32.613  28.788  23.615  1.00  0.00    -0.356 N 
ATOM      3  C   UNL A   1      31.439  28.580  22.986  1.00  0.00     0.224 C 
ATOM      4  O   UNL A   1      31.549  27.994  21.896  1.00  0.00    -0.275 OA
ATOM      5  H   UNL A   1      33.364  28.356  23.149  1.00  0.00     0.163 HD
BRANCH   3   6
ATOM      6  C   UNL A   1      30.016  28.914  23.468  1.00  0.00     0.098 C 
ATOM      7  C   UNL A   1      28.759  28.199  22.939  1.00  0.00     0.099 C 
ATOM      8  C   UNL A   1      27.703  29.223  22.413  1.00  0.00     0.025 C 
ATOM      9  C   UNL A   1      29.828  30.461  23.252  1.00  0.00     0.025 C 
ATOM     10  C   UNL A   1      27.423  30.284  23.438  1.00  0.00    -0.027 C 
ATOM     11  C   UNL A   1      28.329  30.075  21.259  1.00  0.00     0.009 C 
ATOM     12  C   UNL A   1      28.520  30.947  23.845  1.00  0.00    -0.027 C 
ATOM     13  C   UNL A   1      29.654  30.735  21.743  1.00  0.00     0.009 C 
BRANCH   7  14
ATOM     14  C   UNL A   1      28.256  27.007  23.797  1.00  0.00     0.229 C 
ATOM     15  N   UNL A   1      28.886  25.880  24.226  1.00  0.00    -0.317 N 
ATOM     16  H   UNL A   1      28.293  25.279  24.734  1.00  0.00     0.170 HD
ATOM     17  O   UNL A   1      27.091  27.112  24.228  1.00  0.00    -0.274 OA
BRANCH  15  18
ATOM     18  C   UNL A   1      30.167  25.395  24.107  1.00  0.00     0.110 A 
ATOM     19  C   UNL A   1      31.189  25.353  25.067  1.00  0.00     0.098 A 
ATOM     20  C   UNL A   1      32.424  25.269  24.354  1.00  0.00    -0.017 A 
ATOM     21  S   UNL A   1      30.638  24.414  22.793  1.00  0.00    -0.122 S 
ATOM     22  C   UNL A   1      32.216  24.886  23.057  1.00  0.00     0.011 A 
ATOM     23  C   UNL A   1      33.878  25.438  24.599  1.00  0.00     0.038 C 
ATOM     24  C   UNL A   1      33.413  24.884  22.194  1.00  0.00     0.047 C 
ATOM     25  C   UNL A   1      34.443  25.565  23.143  1.00  0.00     0.010 C 
BRANCH  19  26
ATOM     26  C   UNL A   1      30.947  25.470  26.493  1.00  0.00     0.341 C 
ATOM     27  O   UNL A   1      30.331  26.423  26.965  1.00  0.00    -0.246 OA
BRANCH  26  28
ATOM     28  O   UNL A   1      31.379  24.399  27.215  1.00  0.00    -0.462 OA
BRANCH  28  29
ATOM     29  C   UNL A   1      30.778  23.131  26.898  1.00  0.00     0.230 C 
ATOM     30  C   UNL A   1      31.694  22.152  26.181  1.00  0.00     0.049 C 
ENDBRANCH  28  29
ENDBRANCH  26  28
ENDBRANCH  19  26
ENDBRANCH  15  18
ENDBRANCH   7  14
ENDBRANCH   3   6
ENDBRANCH   1   2
BRANCH   1  31
ATOM     31  C   UNL A   1      32.682  28.768  26.103  1.00  0.00     0.023 C 
BRANCH  31  32
ATOM     32  C   UNL A   1      33.828  28.180  26.931  1.00  0.00     0.023 C 
BRANCH  32  33
ATOM     33  C   UNL A   1      35.110  29.001  26.933  1.00  0.00     0.116 C 
BRANCH  33  34
ATOM     34  N   UNL A   1      35.273  29.789  28.152  1.00  0.00    -0.352 N 
ATOM     35  C   UNL A   1      36.293  29.711  29.081  1.00  0.00     0.251 C 
ATOM     36  H   UNL A   1      34.574  30.458  28.332  1.00  0.00     0.163 HD
ATOM     37  O   UNL A   1      36.122  30.107  30.229  1.00  0.00    -0.269 OA
BRANCH  35  38
ATOM     38  C   UNL A   1      37.587  29.148  28.655  1.00  0.00     0.039 A 
ATOM     39  C   UNL A   1      38.282  29.665  27.565  1.00  0.00     0.014 A 
ATOM     40  C   UNL A   1      38.122  28.111  29.418  1.00  0.00     0.014 A 
ATOM     41  C   UNL A   1      39.571  29.195  27.314  1.00  0.00     0.010 A 
ATOM     42  C   UNL A   1      39.433  27.732  29.245  1.00  0.00     0.010 A 
ATOM     43  C   UNL A   1      40.157  28.252  28.179  1.00  0.00    -0.014 A 
BRANCH  43  44
ATOM     44  C   UNL A   1      41.577  27.926  28.061  1.00  0.00     0.031 A 
ATOM     45  C   UNL A   1      41.849  26.653  27.342  1.00  0.00     0.074 A 
ATOM     46  C   UNL A   1      42.589  28.762  28.383  1.00  0.00     0.049 A 
ATOM     47  N   UNL A   1      42.194  25.523  27.860  1.00  0.00    -0.248 NA
ATOM     48  C   UNL A   1      41.533  26.571  25.908  1.00  0.00     0.031 C 
ATOM     49  C   UNL A   1      42.515  30.161  28.812  1.00  0.00     0.029 A 
ATOM     50  N   UNL A   1      43.932  28.544  28.306  1.00  0.00    -0.354 N 
ATOM     51  C   UNL A   1      42.397  24.653  26.792  1.00  0.00     0.074 A 
ATOM     52  C   UNL A   1      41.763  25.278  25.664  1.00  0.00     0.031 C 
ATOM     53  C   UNL A   1      43.745  30.721  28.753  1.00  0.00     0.029 A 
ATOM     54  C   UNL A   1      44.717  29.685  28.452  1.00  0.00     0.049 A 
ATOM     55  H   UNL A   1      44.317  27.650  28.160  1.00  0.00     0.167 HD
ATOM     56  C   UNL A   1      43.282  23.619  26.893  1.00  0.00     0.034 A 
ATOM     57  C   UNL A   1      46.070  29.777  28.336  1.00  0.00     0.034 A 
ATOM     58  C   UNL A   1      43.654  23.405  28.279  1.00  0.00     0.049 A 
ATOM     59  C   UNL A   1      46.607  28.418  28.593  1.00  0.00     0.074 A 
ATOM     60  C   UNL A   1      42.956  23.115  29.436  1.00  0.00     0.029 A 
ATOM     61  N   UNL A   1      44.873  23.892  28.700  1.00  0.00    -0.354 N 
ATOM     62  N   UNL A   1      46.502  27.816  29.747  1.00  0.00    -0.248 NA
ATOM     63  C   UNL A   1      46.814  27.536  27.455  1.00  0.00     0.031 C 
ATOM     64  C   UNL A   1      43.571  23.919  30.443  1.00  0.00     0.029 A 
ATOM     65  C   UNL A   1      44.665  24.573  29.874  1.00  0.00     0.049 A 
ATOM     66  H   UNL A   1      45.737  23.772  28.242  1.00  0.00     0.167 HD
ATOM     67  C   UNL A   1      46.177  26.504  29.438  1.00  0.00     0.074 A 
ATOM     68  C   UNL A   1      46.485  26.367  28.014  1.00  0.00     0.031 C 
ATOM     69  C   UNL A   1      45.430  25.738  30.289  1.00  0.00     0.034 A 
BRANCH  56  70
ATOM     70  C   UNL A   1      44.110  23.051  25.757  1.00  0.00     0.023 A 
ATOM     71  C   UNL A   1      44.090  21.651  25.593  1.00  0.00     0.031 A 
ATOM     72  C   UNL A   1      45.111  23.732  25.029  1.00  0.00     0.131 A 
ATOM     73  C   UNL A   1      45.096  20.987  24.872  1.00  0.00     0.055 A 
ATOM     74  C   UNL A   1      46.072  23.071  24.255  1.00  0.00     0.041 A 
ATOM     75  F   UNL A   1      45.279  25.056  25.082  1.00  0.00    -0.206 F 
ATOM     76  C   UNL A   1      46.093  21.689  24.204  1.00  0.00     0.022 A 
BRANCH  73  77
ATOM     77  S   UNL A   1      45.182  19.182  24.987  1.00  0.00     0.124 S 
ATOM     78  O   UNL A   1      44.025  18.891  25.827  1.00  0.00    -0.237 OA
ATOM     79  O   UNL A   1      45.078  18.788  23.586  1.00  0.00    -0.237 OA
ATOM     80  O   UNL A   1      46.483  18.944  25.606  1.00  0.00    -0.744 OA
ENDBRANCH  73  77
ENDBRANCH  56  70
BRANCH  57  81
ATOM     81  C   UNL A   1      46.863  30.873  27.710  1.00  0.00     0.023 A 
ATOM     82  C   UNL A   1      46.277  31.941  26.992  1.00  0.00     0.031 A 
ATOM     83  C   UNL A   1      48.229  31.014  28.044  1.00  0.00     0.131 A 
ATOM     84  C   UNL A   1      47.046  33.080  26.649  1.00  0.00     0.055 A 
ATOM     85  C   UNL A   1      48.982  32.141  27.705  1.00  0.00     0.041 A 
ATOM     86  F   UNL A   1      48.858  30.094  28.793  1.00  0.00    -0.206 F 
ATOM     87  C   UNL A   1      48.390  33.185  27.015  1.00  0.00     0.022 A 
BRANCH  84  88
ATOM     88  S   UNL A   1      46.283  34.500  25.792  1.00  0.00     0.124 S 
ATOM     89  O   UNL A   1      47.369  34.969  24.939  1.00  0.00    -0.237 OA
ATOM     90  O   UNL A   1      45.145  33.887  25.117  1.00  0.00    -0.237 OA
ATOM     91  O   UNL A   1      45.927  35.408  26.884  1.00  0.00    -0.744 OA
ENDBRANCH  84  88
ENDBRANCH  57  81
BRANCH  69  92
ATOM     92  C   UNL A   1      45.221  26.223  31.712  1.00  0.00     0.023 A 
ATOM     93  C   UNL A   1      44.095  26.940  32.180  1.00  0.00     0.031 A 
ATOM     94  C   UNL A   1      46.178  25.826  32.665  1.00  0.00     0.131 A 
ATOM     95  C   UNL A   1      43.967  27.236  33.553  1.00  0.00     0.055 A 
ATOM     96  C   UNL A   1      46.035  26.099  34.023  1.00  0.00     0.041 A 
ATOM     97  F   UNL A   1      47.262  25.125  32.290  1.00  0.00    -0.206 F 
ATOM     98  C   UNL A   1      44.931  26.810  34.473  1.00  0.00     0.022 A 
BRANCH  95  99
ATOM     99  S   UNL A   1      42.552  28.203  34.178  1.00  0.00     0.124 S 
ATOM    100  O   UNL A   1      42.893  28.449  35.574  1.00  0.00    -0.237 OA
ATOM    101  O   UNL A   1      42.557  29.372  33.302  1.00  0.00    -0.237 OA
ATOM    102  O   UNL A   1      41.413  27.304  33.981  1.00  0.00    -0.744 OA
ENDBRANCH  95  99
ENDBRANCH  69  92
ENDBRANCH  43  44
ENDBRANCH  35  38
ENDBRANCH  33  34
ENDBRANCH  32  33
ENDBRANCH  31  32
ENDBRANCH   1  31
TORSDOF 19
ENDMDL
