MODEL 1
REMARK VINA RESULT:     -12.7      0.000      0.000
REMARK SMILES O=C(NCCCCNC(=O)c1ccc(-c2c3nc(c(-c4cc(S(=O)(=O)[O-])ccc4F)c4ccc([nH]4)c(-c4cc(S(=O)(=O)[O-])ccc4F)c4nc(c(-c5cc(S(=O)(=O)[O-])ccc5F)c5ccc2[nH]5)C=C4)C=C3)cc1)C1=Cc2cc(Cl)cc(-c3ccc(CO)cc3)c2O[C@@H]1C(F)(F)F
REMARK SMILES IDX 5 1 4 2 3 3 1 4 2 5 74 7 75 8 92 9 76 10 91 11 77 12 90 13
REMARK SMILES IDX 78 14 81 15 79 16 80 17 93 18 94 19 95 20 96 21 82 22 83 23
REMARK SMILES IDX 89 24 84 25 88 26 85 27 86 28 87 29 6 31 7 32 8 33 9 34
REMARK SMILES IDX 10 36 11 37 12 38 73 39 13 40 72 41 14 42 15 43 16 44 66 45
REMARK SMILES IDX 17 46 71 47 65 48 67 49 18 50 70 51 64 52 63 53 19 55 51 56
REMARK SMILES IDX 31 57 50 58 32 59 35 60 49 61 68 62 33 63 34 64 48 66 69 67
REMARK SMILES IDX 36 68 20 69 21 70 29 71 22 72 28 73 30 74 27 75 23 76 24 77
REMARK SMILES IDX 25 78 26 79 52 80 53 81 61 82 54 83 60 84 62 85 59 86 55 87
REMARK SMILES IDX 56 88 57 89 58 90 37 91 38 92 46 93 39 94 45 95 47 96 44 97
REMARK SMILES IDX 40 98 41 99 42 100 43 101
REMARK H PARENT 3 6 87 30 8 35 67 54 35 65
REMARK Flexibility Score: inf
ROOT
ATOM      1  C   UNL A   1      35.334  21.742  24.212  1.00  0.00     0.023 C 
ENDROOT
BRANCH   1   2
ATOM      2  C   UNL A   1      34.061  22.591  24.141  1.00  0.00     0.116 C 
BRANCH   2   3
ATOM      3  N   UNL A   1      34.146  23.697  23.184  1.00  0.00    -0.352 N 
ATOM      4  O   UNL A   1      34.080  25.847  22.466  1.00  0.00    -0.270 OA
ATOM      5  C   UNL A   1      33.732  25.005  23.286  1.00  0.00     0.251 C 
ATOM      6  H   UNL A   1      34.570  23.466  22.325  1.00  0.00     0.163 HD
BRANCH   5   7
ATOM      7  C   UNL A   1      32.969  25.405  24.483  1.00  0.00     0.067 C 
ATOM      8  C   UNL A   1      33.571  25.929  25.560  1.00  0.00     0.025 C 
ATOM      9  C   UNL A   1      31.486  25.508  24.339  1.00  0.00     0.314 C 
ATOM     10  C   UNL A   1      32.961  27.230  25.925  1.00  0.00     0.019 A 
ATOM     11  O   UNL A   1      31.075  26.890  24.395  1.00  0.00    -0.475 OA
ATOM     12  C   UNL A   1      33.769  28.119  26.643  1.00  0.00     0.032 A 
ATOM     13  C   UNL A   1      31.851  27.723  25.178  1.00  0.00     0.135 A 
ATOM     14  C   UNL A   1      33.514  29.482  26.574  1.00  0.00     0.042 A 
ATOM     15  C   UNL A   1      31.639  29.113  25.041  1.00  0.00     0.026 A 
ATOM     16  Cl  UNL A   1      34.593  30.585  27.336  1.00  0.00    -0.084 Cl
ATOM     17  C   UNL A   1      32.474  29.974  25.785  1.00  0.00     0.033 A 
BRANCH   9  18
ATOM     18  C   UNL A   1      30.766  24.632  25.386  1.00  0.00     0.429 C 
ATOM     19  F   UNL A   1      29.601  25.193  25.789  1.00  0.00    -0.167 F 
ATOM     20  F   UNL A   1      30.457  23.409  24.887  1.00  0.00    -0.167 F 
ATOM     21  F   UNL A   1      31.508  24.422  26.500  1.00  0.00    -0.167 F 
ENDBRANCH   9  18
BRANCH  15  22
ATOM     22  C   UNL A   1      30.749  29.710  24.013  1.00  0.00    -0.015 A 
ATOM     23  C   UNL A   1      29.910  30.784  24.368  1.00  0.00     0.009 A 
ATOM     24  C   UNL A   1      30.687  29.264  22.687  1.00  0.00     0.009 A 
ATOM     25  C   UNL A   1      29.012  31.349  23.462  1.00  0.00     0.007 A 
ATOM     26  C   UNL A   1      29.791  29.841  21.768  1.00  0.00     0.007 A 
ATOM     27  C   UNL A   1      28.924  30.871  22.155  1.00  0.00    -0.023 A 
BRANCH  27  28
ATOM     28  C   UNL A   1      27.954  31.494  21.185  1.00  0.00     0.191 C 
BRANCH  28  29
ATOM     29  O   UNL A   1      27.761  32.873  21.470  1.00  0.00    -0.392 OA
ATOM     30  H   UNL A   1      27.384  33.314  20.693  1.00  0.00     0.211 HD
ENDBRANCH  28  29
ENDBRANCH  27  28
ENDBRANCH  15  22
ENDBRANCH   5   7
ENDBRANCH   2   3
ENDBRANCH   1   2
BRANCH   1  31
ATOM     31  C   UNL A   1      36.639  22.533  24.339  1.00  0.00     0.023 C 
BRANCH  31  32
ATOM     32  C   UNL A   1      37.180  22.739  25.753  1.00  0.00     0.116 C 
BRANCH  32  33
ATOM     33  N   UNL A   1      38.417  22.032  26.048  1.00  0.00    -0.352 N 
ATOM     34  C   UNL A   1      39.575  22.540  26.601  1.00  0.00     0.251 C 
ATOM     35  H   UNL A   1      38.429  21.073  25.826  1.00  0.00     0.163 HD
ATOM     36  O   UNL A   1      40.542  21.800  26.774  1.00  0.00    -0.269 OA
BRANCH  34  37
ATOM     37  C   UNL A   1      39.662  23.978  26.948  1.00  0.00     0.039 A 
ATOM     38  C   UNL A   1      39.324  24.381  28.243  1.00  0.00     0.014 A 
ATOM     39  C   UNL A   1      40.129  24.916  26.024  1.00  0.00     0.014 A 
ATOM     40  C   UNL A   1      39.565  25.700  28.642  1.00  0.00     0.010 A 
ATOM     41  C   UNL A   1      40.407  26.216  26.430  1.00  0.00     0.010 A 
ATOM     42  C   UNL A   1      40.160  26.607  27.753  1.00  0.00    -0.014 A 
BRANCH  42  43
ATOM     43  C   UNL A   1      40.645  27.932  28.205  1.00  0.00     0.031 A 
ATOM     44  C   UNL A   1      42.112  28.209  28.331  1.00  0.00     0.074 A 
ATOM     45  C   UNL A   1      39.734  28.835  28.618  1.00  0.00     0.049 A 
ATOM     46  N   UNL A   1      42.713  29.294  28.746  1.00  0.00    -0.248 NA
ATOM     47  C   UNL A   1      43.020  27.112  27.972  1.00  0.00     0.031 C 
ATOM     48  C   UNL A   1      38.283  28.632  28.607  1.00  0.00     0.029 A 
ATOM     49  N   UNL A   1      39.889  30.091  29.145  1.00  0.00    -0.354 N 
ATOM     50  C   UNL A   1      44.074  29.018  28.688  1.00  0.00     0.074 A 
ATOM     51  C   UNL A   1      44.201  27.639  28.262  1.00  0.00     0.031 C 
ATOM     52  C   UNL A   1      37.681  29.731  29.088  1.00  0.00     0.029 A 
ATOM     53  C   UNL A   1      38.700  30.703  29.470  1.00  0.00     0.049 A 
ATOM     54  H   UNL A   1      40.766  30.515  29.279  1.00  0.00     0.167 HD
ATOM     55  C   UNL A   1      45.116  29.848  28.948  1.00  0.00     0.034 A 
ATOM     56  C   UNL A   1      38.460  31.911  30.013  1.00  0.00     0.034 A 
ATOM     57  C   UNL A   1      44.955  31.209  29.405  1.00  0.00     0.049 A 
ATOM     58  C   UNL A   1      39.632  32.804  30.326  1.00  0.00     0.074 A 
ATOM     59  C   UNL A   1      45.929  32.163  29.643  1.00  0.00     0.029 A 
ATOM     60  N   UNL A   1      43.737  31.804  29.719  1.00  0.00    -0.354 N 
ATOM     61  N   UNL A   1      40.915  32.569  30.169  1.00  0.00    -0.248 NA
ATOM     62  C   UNL A   1      39.323  34.131  30.868  1.00  0.00     0.031 C 
ATOM     63  C   UNL A   1      45.309  33.303  30.170  1.00  0.00     0.029 A 
ATOM     64  C   UNL A   1      43.938  33.095  30.187  1.00  0.00     0.049 A 
ATOM     65  H   UNL A   1      42.858  31.370  29.625  1.00  0.00     0.167 HD
ATOM     66  C   UNL A   1      41.564  33.736  30.560  1.00  0.00     0.074 A 
ATOM     67  C   UNL A   1      40.529  34.673  30.947  1.00  0.00     0.031 C 
ATOM     68  C   UNL A   1      42.894  34.011  30.588  1.00  0.00     0.034 A 
BRANCH  55  69
ATOM     69  C   UNL A   1      46.508  29.286  28.769  1.00  0.00     0.023 A 
ATOM     70  C   UNL A   1      47.063  29.084  27.492  1.00  0.00     0.031 A 
ATOM     71  C   UNL A   1      47.280  28.912  29.883  1.00  0.00     0.131 A 
ATOM     72  C   UNL A   1      48.307  28.448  27.356  1.00  0.00     0.055 A 
ATOM     73  C   UNL A   1      48.555  28.356  29.744  1.00  0.00     0.041 A 
ATOM     74  F   UNL A   1      46.802  29.060  31.129  1.00  0.00    -0.206 F 
ATOM     75  C   UNL A   1      49.067  28.104  28.474  1.00  0.00     0.022 A 
BRANCH  72  76
ATOM     76  S   UNL A   1      48.844  27.938  25.699  1.00  0.00     0.124 S 
ATOM     77  O   UNL A   1      50.077  28.704  25.537  1.00  0.00    -0.237 OA
ATOM     78  O   UNL A   1      49.001  26.497  25.849  1.00  0.00    -0.237 OA
ATOM     79  O   UNL A   1      47.741  28.360  24.837  1.00  0.00    -0.744 OA
ENDBRANCH  72  76
ENDBRANCH  55  69
BRANCH  56  80
ATOM     80  C   UNL A   1      37.063  32.360  30.267  1.00  0.00     0.023 A 
ATOM     81  C   UNL A   1      36.333  33.024  29.270  1.00  0.00     0.031 A 
ATOM     82  C   UNL A   1      36.443  32.152  31.513  1.00  0.00     0.131 A 
ATOM     83  C   UNL A   1      35.040  33.497  29.546  1.00  0.00     0.055 A 
ATOM     84  C   UNL A   1      35.139  32.581  31.766  1.00  0.00     0.041 A 
ATOM     85  F   UNL A   1      37.094  31.512  32.497  1.00  0.00    -0.206 F 
ATOM     86  C   UNL A   1      34.434  33.269  30.783  1.00  0.00     0.022 A 
BRANCH  83  87
ATOM     87  S   UNL A   1      34.190  34.478  28.280  1.00  0.00     0.124 S 
ATOM     88  O   UNL A   1      35.183  34.513  27.213  1.00  0.00    -0.237 OA
ATOM     89  O   UNL A   1      32.999  33.675  28.025  1.00  0.00    -0.237 OA
ATOM     90  O   UNL A   1      33.945  35.755  28.949  1.00  0.00    -0.744 OA
ENDBRANCH  83  87
ENDBRANCH  56  80
BRANCH  68  91
ATOM     91  C   UNL A   1      43.288  35.403  31.016  1.00  0.00     0.023 A 
ATOM     92  C   UNL A   1      43.480  36.440  30.085  1.00  0.00     0.031 A 
ATOM     93  C   UNL A   1      43.506  35.690  32.376  1.00  0.00     0.131 A 
ATOM     94  C   UNL A   1      43.941  37.693  30.517  1.00  0.00     0.055 A 
ATOM     95  C   UNL A   1      43.899  36.957  32.807  1.00  0.00     0.041 A 
ATOM     96  F   UNL A   1      43.342  34.738  33.309  1.00  0.00    -0.206 F 
ATOM     97  C   UNL A   1      44.134  37.963  31.875  1.00  0.00     0.022 A 
BRANCH  94  98
ATOM     98  S   UNL A   1      44.386  38.933  29.272  1.00  0.00     0.124 S 
ATOM     99  O   UNL A   1      43.528  38.560  28.151  1.00  0.00    -0.237 OA
ATOM    100  O   UNL A   1      44.050  40.185  29.943  1.00  0.00    -0.237 OA
ATOM    101  O   UNL A   1      45.815  38.708  29.060  1.00  0.00    -0.744 OA
ENDBRANCH  94  98
ENDBRANCH  68  91
ENDBRANCH  42  43
ENDBRANCH  34  37
ENDBRANCH  32  33
ENDBRANCH  31  32
ENDBRANCH   1  31
TORSDOF 18
ENDMDL
MODEL 2
REMARK VINA RESULT:     -12.6      2.911      7.898
REMARK SMILES O=C(NCCCCNC(=O)c1ccc(-c2c3nc(c(-c4cc(S(=O)(=O)[O-])ccc4F)c4ccc([nH]4)c(-c4cc(S(=O)(=O)[O-])ccc4F)c4nc(c(-c5cc(S(=O)(=O)[O-])ccc5F)c5ccc2[nH]5)C=C4)C=C3)cc1)C1=Cc2cc(Cl)cc(-c3ccc(CO)cc3)c2O[C@@H]1C(F)(F)F
REMARK SMILES IDX 5 1 4 2 3 3 1 4 2 5 74 7 75 8 92 9 76 10 91 11 77 12 90 13
REMARK SMILES IDX 78 14 81 15 79 16 80 17 93 18 94 19 95 20 96 21 82 22 83 23
REMARK SMILES IDX 89 24 84 25 88 26 85 27 86 28 87 29 6 31 7 32 8 33 9 34
REMARK SMILES IDX 10 36 11 37 12 38 73 39 13 40 72 41 14 42 15 43 16 44 66 45
REMARK SMILES IDX 17 46 71 47 65 48 67 49 18 50 70 51 64 52 63 53 19 55 51 56
REMARK SMILES IDX 31 57 50 58 32 59 35 60 49 61 68 62 33 63 34 64 48 66 69 67
REMARK SMILES IDX 36 68 20 69 21 70 29 71 22 72 28 73 30 74 27 75 23 76 24 77
REMARK SMILES IDX 25 78 26 79 52 80 53 81 61 82 54 83 60 84 62 85 59 86 55 87
REMARK SMILES IDX 56 88 57 89 58 90 37 91 38 92 46 93 39 94 45 95 47 96 44 97
REMARK SMILES IDX 40 98 41 99 42 100 43 101
REMARK H PARENT 3 6 87 30 8 35 67 54 35 65
REMARK Flexibility Score: inf
ROOT
ATOM      1  C   UNL A   1      34.985  20.260  25.065  1.00  0.00     0.023 C 
ENDROOT
BRANCH   1   2
ATOM      2  C   UNL A   1      33.464  20.433  25.024  1.00  0.00     0.116 C 
BRANCH   2   3
ATOM      3  N   UNL A   1      32.934  21.230  26.133  1.00  0.00    -0.352 N 
ATOM      4  O   UNL A   1      31.798  22.916  27.137  1.00  0.00    -0.270 OA
ATOM      5  C   UNL A   1      32.387  22.493  26.149  1.00  0.00     0.251 C 
ATOM      6  H   UNL A   1      32.976  20.789  27.013  1.00  0.00     0.163 HD
BRANCH   5   7
ATOM      7  C   UNL A   1      32.406  23.278  24.901  1.00  0.00     0.067 C 
ATOM      8  C   UNL A   1      31.297  23.481  24.179  1.00  0.00     0.025 C 
ATOM      9  C   UNL A   1      33.624  24.104  24.638  1.00  0.00     0.314 C 
ATOM     10  C   UNL A   1      31.073  24.928  23.946  1.00  0.00     0.019 A 
ATOM     11  O   UNL A   1      33.310  25.507  24.768  1.00  0.00    -0.475 OA
ATOM     12  C   UNL A   1      29.756  25.325  23.696  1.00  0.00     0.032 A 
ATOM     13  C   UNL A   1      32.021  25.875  24.436  1.00  0.00     0.135 A 
ATOM     14  C   UNL A   1      29.368  26.628  23.983  1.00  0.00     0.042 A 
ATOM     15  C   UNL A   1      31.610  27.175  24.805  1.00  0.00     0.026 A 
ATOM     16  Cl  UNL A   1      27.715  27.075  23.815  1.00  0.00    -0.084 Cl
ATOM     17  C   UNL A   1      30.274  27.536  24.533  1.00  0.00     0.033 A 
BRANCH   9  18
ATOM     18  C   UNL A   1      34.241  23.759  23.267  1.00  0.00     0.429 C 
ATOM     19  F   UNL A   1      33.793  22.568  22.804  1.00  0.00    -0.167 F 
ATOM     20  F   UNL A   1      33.923  24.685  22.328  1.00  0.00    -0.167 F 
ATOM     21  F   UNL A   1      35.594  23.685  23.299  1.00  0.00    -0.167 F 
ENDBRANCH   9  18
BRANCH  15  22
ATOM     22  C   UNL A   1      32.429  28.088  25.643  1.00  0.00    -0.015 A 
ATOM     23  C   UNL A   1      31.784  29.017  26.483  1.00  0.00     0.009 A 
ATOM     24  C   UNL A   1      33.829  28.086  25.652  1.00  0.00     0.009 A 
ATOM     25  C   UNL A   1      32.498  29.937  27.251  1.00  0.00     0.007 A 
ATOM     26  C   UNL A   1      34.551  29.006  26.434  1.00  0.00     0.007 A 
ATOM     27  C   UNL A   1      33.892  29.959  27.220  1.00  0.00    -0.023 A 
BRANCH  27  28
ATOM     28  C   UNL A   1      34.651  30.955  28.058  1.00  0.00     0.191 C 
BRANCH  28  29
ATOM     29  O   UNL A   1      35.494  31.766  27.251  1.00  0.00    -0.392 OA
ATOM     30  H   UNL A   1      36.314  31.958  27.732  1.00  0.00     0.211 HD
ENDBRANCH  28  29
ENDBRANCH  27  28
ENDBRANCH  15  22
ENDBRANCH   5   7
ENDBRANCH   2   3
ENDBRANCH   1   2
BRANCH   1  31
ATOM     31  C   UNL A   1      35.753  21.398  25.745  1.00  0.00     0.023 C 
BRANCH  31  32
ATOM     32  C   UNL A   1      37.124  21.742  25.164  1.00  0.00     0.116 C 
BRANCH  32  33
ATOM     33  N   UNL A   1      38.150  20.731  25.369  1.00  0.00    -0.352 N 
ATOM     34  C   UNL A   1      39.353  20.864  26.033  1.00  0.00     0.251 C 
ATOM     35  H   UNL A   1      37.964  19.843  24.988  1.00  0.00     0.163 HD
ATOM     36  O   UNL A   1      40.118  19.904  26.106  1.00  0.00    -0.269 OA
BRANCH  34  37
ATOM     37  C   UNL A   1      39.735  22.170  26.621  1.00  0.00     0.039 A 
ATOM     38  C   UNL A   1      40.706  22.200  27.626  1.00  0.00     0.014 A 
ATOM     39  C   UNL A   1      39.185  23.363  26.146  1.00  0.00     0.014 A 
ATOM     40  C   UNL A   1      41.206  23.428  28.069  1.00  0.00     0.010 A 
ATOM     41  C   UNL A   1      39.708  24.584  26.556  1.00  0.00     0.010 A 
ATOM     42  C   UNL A   1      40.748  24.623  27.494  1.00  0.00    -0.014 A 
BRANCH  42  43
ATOM     43  C   UNL A   1      41.414  25.919  27.764  1.00  0.00     0.031 A 
ATOM     44  C   UNL A   1      40.697  27.011  28.498  1.00  0.00     0.074 A 
ATOM     45  C   UNL A   1      42.629  26.135  27.224  1.00  0.00     0.049 A 
ATOM     46  N   UNL A   1      41.108  28.218  28.788  1.00  0.00    -0.248 NA
ATOM     47  C   UNL A   1      39.326  26.716  28.937  1.00  0.00     0.031 C 
ATOM     48  C   UNL A   1      43.380  25.161  26.426  1.00  0.00     0.029 A 
ATOM     49  N   UNL A   1      43.438  27.241  27.243  1.00  0.00    -0.354 N 
ATOM     50  C   UNL A   1      40.052  28.827  29.456  1.00  0.00     0.074 A 
ATOM     51  C   UNL A   1      38.961  27.875  29.464  1.00  0.00     0.031 C 
ATOM     52  C   UNL A   1      44.546  25.708  26.047  1.00  0.00     0.029 A 
ATOM     53  C   UNL A   1      44.613  27.076  26.546  1.00  0.00     0.049 A 
ATOM     54  H   UNL A   1      43.202  28.074  27.710  1.00  0.00     0.167 HD
ATOM     55  C   UNL A   1      40.011  30.059  30.024  1.00  0.00     0.034 A 
ATOM     56  C   UNL A   1      45.630  27.934  26.336  1.00  0.00     0.034 A 
ATOM     57  C   UNL A   1      41.107  30.999  29.967  1.00  0.00     0.049 A 
ATOM     58  C   UNL A   1      45.550  29.308  26.946  1.00  0.00     0.074 A 
ATOM     59  C   UNL A   1      41.207  32.249  30.554  1.00  0.00     0.029 A 
ATOM     60  N   UNL A   1      42.288  30.802  29.259  1.00  0.00    -0.354 N 
ATOM     61  N   UNL A   1      44.586  29.838  27.665  1.00  0.00    -0.248 NA
ATOM     62  C   UNL A   1      46.702  30.191  26.735  1.00  0.00     0.031 C 
ATOM     63  C   UNL A   1      42.410  32.835  30.141  1.00  0.00     0.029 A 
ATOM     64  C   UNL A   1      43.103  31.921  29.361  1.00  0.00     0.049 A 
ATOM     65  H   UNL A   1      42.514  29.986  28.757  1.00  0.00     0.167 HD
ATOM     66  C   UNL A   1      45.034  31.106  28.023  1.00  0.00     0.074 A 
ATOM     67  C   UNL A   1      46.357  31.252  27.450  1.00  0.00     0.031 C 
ATOM     68  C   UNL A   1      44.413  32.059  28.765  1.00  0.00     0.034 A 
BRANCH  55  69
ATOM     69  C   UNL A   1      38.730  30.456  30.722  1.00  0.00     0.023 A 
ATOM     70  C   UNL A   1      37.925  31.505  30.243  1.00  0.00     0.031 A 
ATOM     71  C   UNL A   1      38.323  29.805  31.900  1.00  0.00     0.131 A 
ATOM     72  C   UNL A   1      36.808  31.930  30.980  1.00  0.00     0.055 A 
ATOM     73  C   UNL A   1      37.163  30.177  32.585  1.00  0.00     0.041 A 
ATOM     74  F   UNL A   1      39.056  28.808  32.421  1.00  0.00    -0.206 F 
ATOM     75  C   UNL A   1      36.408  31.257  32.135  1.00  0.00     0.022 A 
BRANCH  72  76
ATOM     76  S   UNL A   1      35.979  33.468  30.489  1.00  0.00     0.124 S 
ATOM     77  O   UNL A   1      36.380  34.377  31.560  1.00  0.00    -0.237 OA
ATOM     78  O   UNL A   1      36.556  33.731  29.177  1.00  0.00    -0.237 OA
ATOM     79  O   UNL A   1      34.562  33.107  30.487  1.00  0.00    -0.744 OA
ENDBRANCH  72  76
ENDBRANCH  55  69
BRANCH  56  80
ATOM     80  C   UNL A   1      46.818  27.514  25.541  1.00  0.00     0.023 A 
ATOM     81  C   UNL A   1      46.952  27.897  24.198  1.00  0.00     0.031 A 
ATOM     82  C   UNL A   1      47.827  26.710  26.103  1.00  0.00     0.131 A 
ATOM     83  C   UNL A   1      48.046  27.442  23.446  1.00  0.00     0.055 A 
ATOM     84  C   UNL A   1      48.937  26.300  25.364  1.00  0.00     0.041 A 
ATOM     85  F   UNL A   1      47.752  26.326  27.387  1.00  0.00    -0.206 F 
ATOM     86  C   UNL A   1      49.045  26.656  24.023  1.00  0.00     0.022 A 
BRANCH  83  87
ATOM     87  S   UNL A   1      48.103  27.837  21.677  1.00  0.00     0.124 S 
ATOM     88  O   UNL A   1      48.356  26.527  21.087  1.00  0.00    -0.237 OA
ATOM     89  O   UNL A   1      46.776  28.398  21.450  1.00  0.00    -0.237 OA
ATOM     90  O   UNL A   1      49.206  28.791  21.579  1.00  0.00    -0.744 OA
ENDBRANCH  83  87
ENDBRANCH  56  80
BRANCH  68  91
ATOM     91  C   UNL A   1      45.190  33.326  29.027  1.00  0.00     0.023 A 
ATOM     92  C   UNL A   1      45.123  34.430  28.159  1.00  0.00     0.031 A 
ATOM     93  C   UNL A   1      46.037  33.417  30.146  1.00  0.00     0.131 A 
ATOM     94  C   UNL A   1      45.937  35.550  28.387  1.00  0.00     0.055 A 
ATOM     95  C   UNL A   1      46.794  34.560  30.405  1.00  0.00     0.041 A 
ATOM     96  F   UNL A   1      46.144  32.391  31.006  1.00  0.00    -0.206 F 
ATOM     97  C   UNL A   1      46.758  35.629  29.515  1.00  0.00     0.022 A 
BRANCH  94  98
ATOM     98  S   UNL A   1      45.988  36.859  27.133  1.00  0.00     0.124 S 
ATOM     99  O   UNL A   1      44.584  37.253  27.048  1.00  0.00    -0.237 OA
ATOM    100  O   UNL A   1      46.889  37.836  27.737  1.00  0.00    -0.237 OA
ATOM    101  O   UNL A   1      46.513  36.180  25.950  1.00  0.00    -0.744 OA
ENDBRANCH  94  98
ENDBRANCH  68  91
ENDBRANCH  42  43
ENDBRANCH  34  37
ENDBRANCH  32  33
ENDBRANCH  31  32
ENDBRANCH   1  31
TORSDOF 18
ENDMDL
MODEL 3
REMARK VINA RESULT:     -12.6      2.144      7.444
REMARK SMILES O=C(NCCCCNC(=O)c1ccc(-c2c3nc(c(-c4cc(S(=O)(=O)[O-])ccc4F)c4ccc([nH]4)c(-c4cc(S(=O)(=O)[O-])ccc4F)c4nc(c(-c5cc(S(=O)(=O)[O-])ccc5F)c5ccc2[nH]5)C=C4)C=C3)cc1)C1=Cc2cc(Cl)cc(-c3ccc(CO)cc3)c2O[C@@H]1C(F)(F)F
REMARK SMILES IDX 5 1 4 2 3 3 1 4 2 5 74 7 75 8 92 9 76 10 91 11 77 12 90 13
REMARK SMILES IDX 78 14 81 15 79 16 80 17 93 18 94 19 95 20 96 21 82 22 83 23
REMARK SMILES IDX 89 24 84 25 88 26 85 27 86 28 87 29 6 31 7 32 8 33 9 34
REMARK SMILES IDX 10 36 11 37 12 38 73 39 13 40 72 41 14 42 15 43 16 44 66 45
REMARK SMILES IDX 17 46 71 47 65 48 67 49 18 50 70 51 64 52 63 53 19 55 51 56
REMARK SMILES IDX 31 57 50 58 32 59 35 60 49 61 68 62 33 63 34 64 48 66 69 67
REMARK SMILES IDX 36 68 20 69 21 70 29 71 22 72 28 73 30 74 27 75 23 76 24 77
REMARK SMILES IDX 25 78 26 79 52 80 53 81 61 82 54 83 60 84 62 85 59 86 55 87
REMARK SMILES IDX 56 88 57 89 58 90 37 91 38 92 46 93 39 94 45 95 47 96 44 97
REMARK SMILES IDX 40 98 41 99 42 100 43 101
REMARK H PARENT 3 6 87 30 8 35 67 54 35 65
REMARK Flexibility Score: inf
ROOT
ATOM      1  C   UNL A   1      34.408  21.218  24.619  1.00  0.00     0.023 C 
ENDROOT
BRANCH   1   2
ATOM      2  C   UNL A   1      33.258  22.007  23.988  1.00  0.00     0.116 C 
BRANCH   2   3
ATOM      3  N   UNL A   1      33.702  23.133  23.162  1.00  0.00    -0.352 N 
ATOM      4  O   UNL A   1      34.318  25.264  22.695  1.00  0.00    -0.270 OA
ATOM      5  C   UNL A   1      33.709  24.485  23.418  1.00  0.00     0.251 C 
ATOM      6  H   UNL A   1      34.055  22.880  22.277  1.00  0.00     0.163 HD
BRANCH   5   7
ATOM      7  C   UNL A   1      33.077  24.963  24.662  1.00  0.00     0.067 C 
ATOM      8  C   UNL A   1      33.797  25.501  25.656  1.00  0.00     0.025 C 
ATOM      9  C   UNL A   1      31.592  25.126  24.649  1.00  0.00     0.314 C 
ATOM     10  C   UNL A   1      33.277  26.841  26.020  1.00  0.00     0.019 A 
ATOM     11  O   UNL A   1      31.245  26.526  24.684  1.00  0.00    -0.475 OA
ATOM     12  C   UNL A   1      34.183  27.720  26.623  1.00  0.00     0.032 A 
ATOM     13  C   UNL A   1      32.123  27.354  25.358  1.00  0.00     0.135 A 
ATOM     14  C   UNL A   1      33.978  29.090  26.521  1.00  0.00     0.042 A 
ATOM     15  C   UNL A   1      31.956  28.745  25.182  1.00  0.00     0.026 A 
ATOM     16  Cl  UNL A   1      35.168  30.171  27.133  1.00  0.00    -0.084 Cl
ATOM     17  C   UNL A   1      32.890  29.596  25.809  1.00  0.00     0.033 A 
BRANCH   9  18
ATOM     18  C   UNL A   1      30.938  24.324  25.793  1.00  0.00     0.429 C 
ATOM     19  F   UNL A   1      31.856  23.903  26.696  1.00  0.00    -0.167 F 
ATOM     20  F   UNL A   1      30.036  25.072  26.477  1.00  0.00    -0.167 F 
ATOM     21  F   UNL A   1      30.280  23.221  25.358  1.00  0.00    -0.167 F 
ENDBRANCH   9  18
BRANCH  15  22
ATOM     22  C   UNL A   1      30.999  29.341  24.215  1.00  0.00    -0.015 A 
ATOM     23  C   UNL A   1      31.081  28.982  22.855  1.00  0.00     0.009 A 
ATOM     24  C   UNL A   1      30.002  30.255  24.574  1.00  0.00     0.009 A 
ATOM     25  C   UNL A   1      30.247  29.550  21.891  1.00  0.00     0.007 A 
ATOM     26  C   UNL A   1      29.152  30.820  23.605  1.00  0.00     0.007 A 
ATOM     27  C   UNL A   1      29.286  30.494  22.249  1.00  0.00    -0.023 A 
BRANCH  27  28
ATOM     28  C   UNL A   1      28.388  31.095  21.200  1.00  0.00     0.191 C 
BRANCH  28  29
ATOM     29  O   UNL A   1      27.654  30.088  20.517  1.00  0.00    -0.392 OA
ATOM     30  H   UNL A   1      26.946  29.758  21.091  1.00  0.00     0.211 HD
ENDBRANCH  28  29
ENDBRANCH  27  28
ENDBRANCH  15  22
ENDBRANCH   5   7
ENDBRANCH   2   3
ENDBRANCH   1   2
BRANCH   1  31
ATOM     31  C   UNL A   1      35.808  21.781  24.356  1.00  0.00     0.023 C 
BRANCH  31  32
ATOM     32  C   UNL A   1      36.763  21.828  25.548  1.00  0.00     0.116 C 
BRANCH  32  33
ATOM     33  N   UNL A   1      37.851  20.863  25.502  1.00  0.00    -0.352 N 
ATOM     34  C   UNL A   1      39.146  21.020  25.952  1.00  0.00     0.251 C 
ATOM     35  H   UNL A   1      37.637  19.990  25.101  1.00  0.00     0.163 HD
ATOM     36  O   UNL A   1      39.951  20.099  25.826  1.00  0.00    -0.269 OA
BRANCH  34  37
ATOM     37  C   UNL A   1      39.571  22.308  26.551  1.00  0.00     0.039 A 
ATOM     38  C   UNL A   1      40.588  22.303  27.511  1.00  0.00     0.014 A 
ATOM     39  C   UNL A   1      39.016  23.518  26.129  1.00  0.00     0.014 A 
ATOM     40  C   UNL A   1      41.123  23.515  27.958  1.00  0.00     0.010 A 
ATOM     41  C   UNL A   1      39.573  24.722  26.541  1.00  0.00     0.010 A 
ATOM     42  C   UNL A   1      40.655  24.728  27.431  1.00  0.00    -0.014 A 
BRANCH  42  43
ATOM     43  C   UNL A   1      41.349  26.009  27.699  1.00  0.00     0.031 A 
ATOM     44  C   UNL A   1      40.658  27.116  28.436  1.00  0.00     0.074 A 
ATOM     45  C   UNL A   1      42.567  26.199  27.154  1.00  0.00     0.049 A 
ATOM     46  N   UNL A   1      41.097  28.313  28.725  1.00  0.00    -0.248 NA
ATOM     47  C   UNL A   1      39.284  26.850  28.880  1.00  0.00     0.031 C 
ATOM     48  C   UNL A   1      43.294  25.210  26.353  1.00  0.00     0.029 A 
ATOM     49  N   UNL A   1      43.400  27.288  27.170  1.00  0.00    -0.354 N 
ATOM     50  C   UNL A   1      40.056  28.945  29.397  1.00  0.00     0.074 A 
ATOM     51  C   UNL A   1      38.945  28.016  29.409  1.00  0.00     0.031 C 
ATOM     52  C   UNL A   1      44.470  25.732  25.970  1.00  0.00     0.029 A 
ATOM     53  C   UNL A   1      44.568  27.098  26.469  1.00  0.00     0.049 A 
ATOM     54  H   UNL A   1      43.183  28.125  27.638  1.00  0.00     0.167 HD
ATOM     55  C   UNL A   1      40.043  30.177  29.965  1.00  0.00     0.034 A 
ATOM     56  C   UNL A   1      45.602  27.934  26.255  1.00  0.00     0.034 A 
ATOM     57  C   UNL A   1      41.159  31.094  29.905  1.00  0.00     0.049 A 
ATOM     58  C   UNL A   1      45.553  29.310  26.866  1.00  0.00     0.074 A 
ATOM     59  C   UNL A   1      41.288  32.341  30.491  1.00  0.00     0.029 A 
ATOM     60  N   UNL A   1      42.333  30.872  29.192  1.00  0.00    -0.354 N 
ATOM     61  N   UNL A   1      44.604  29.859  27.589  1.00  0.00    -0.248 NA
ATOM     62  C   UNL A   1      46.723  30.168  26.651  1.00  0.00     0.031 C 
ATOM     63  C   UNL A   1      42.501  32.901  30.073  1.00  0.00     0.029 A 
ATOM     64  C   UNL A   1      43.172  31.974  29.291  1.00  0.00     0.049 A 
ATOM     65  H   UNL A   1      42.540  30.052  28.688  1.00  0.00     0.167 HD
ATOM     66  C   UNL A   1      45.080  31.118  27.946  1.00  0.00     0.074 A 
ATOM     67  C   UNL A   1      46.404  31.236  27.367  1.00  0.00     0.031 C 
ATOM     68  C   UNL A   1      44.482  32.083  28.691  1.00  0.00     0.034 A 
BRANCH  55  69
ATOM     69  C   UNL A   1      38.774  30.601  30.668  1.00  0.00     0.023 A 
ATOM     70  C   UNL A   1      37.782  31.351  30.010  1.00  0.00     0.031 A 
ATOM     71  C   UNL A   1      38.563  30.285  32.022  1.00  0.00     0.131 A 
ATOM     72  C   UNL A   1      36.673  31.833  30.722  1.00  0.00     0.055 A 
ATOM     73  C   UNL A   1      37.415  30.697  32.705  1.00  0.00     0.041 A 
ATOM     74  F   UNL A   1      39.479  29.589  32.714  1.00  0.00    -0.206 F 
ATOM     75  C   UNL A   1      36.471  31.491  32.060  1.00  0.00     0.022 A 
BRANCH  72  76
ATOM     76  S   UNL A   1      35.582  33.038  29.916  1.00  0.00     0.124 S 
ATOM     77  O   UNL A   1      36.229  33.204  28.617  1.00  0.00    -0.237 OA
ATOM     78  O   UNL A   1      34.300  32.345  29.908  1.00  0.00    -0.237 OA
ATOM     79  O   UNL A   1      35.655  34.206  30.793  1.00  0.00    -0.744 OA
ENDBRANCH  72  76
ENDBRANCH  55  69
BRANCH  56  80
ATOM     80  C   UNL A   1      46.778  27.490  25.456  1.00  0.00     0.023 A 
ATOM     81  C   UNL A   1      46.937  27.905  24.125  1.00  0.00     0.031 A 
ATOM     82  C   UNL A   1      47.749  26.630  26.000  1.00  0.00     0.131 A 
ATOM     83  C   UNL A   1      48.016  27.427  23.367  1.00  0.00     0.055 A 
ATOM     84  C   UNL A   1      48.848  26.196  25.256  1.00  0.00     0.041 A 
ATOM     85  F   UNL A   1      47.650  26.212  27.272  1.00  0.00    -0.206 F 
ATOM     86  C   UNL A   1      48.979  26.586  23.927  1.00  0.00     0.022 A 
BRANCH  83  87
ATOM     87  S   UNL A   1      48.102  27.870  21.610  1.00  0.00     0.124 S 
ATOM     88  O   UNL A   1      48.291  26.567  20.984  1.00  0.00    -0.237 OA
ATOM     89  O   UNL A   1      46.806  28.505  21.395  1.00  0.00    -0.237 OA
ATOM     90  O   UNL A   1      49.252  28.770  21.543  1.00  0.00    -0.744 OA
ENDBRANCH  83  87
ENDBRANCH  56  80
BRANCH  68  91
ATOM     91  C   UNL A   1      45.287  33.333  28.950  1.00  0.00     0.023 A 
ATOM     92  C   UNL A   1      45.270  34.424  28.062  1.00  0.00     0.031 A 
ATOM     93  C   UNL A   1      46.111  33.421  30.087  1.00  0.00     0.131 A 
ATOM     94  C   UNL A   1      46.108  35.526  28.291  1.00  0.00     0.055 A 
ATOM     95  C   UNL A   1      46.892  34.548  30.344  1.00  0.00     0.041 A 
ATOM     96  F   UNL A   1      46.170  32.407  30.966  1.00  0.00    -0.206 F 
ATOM     97  C   UNL A   1      46.905  35.602  29.436  1.00  0.00     0.022 A 
BRANCH  94  98
ATOM     98  S   UNL A   1      46.223  36.812  27.018  1.00  0.00     0.124 S 
ATOM     99  O   UNL A   1      44.849  37.301  26.956  1.00  0.00    -0.237 OA
ATOM    100  O   UNL A   1      47.202  37.731  27.589  1.00  0.00    -0.237 OA
ATOM    101  O   UNL A   1      46.675  36.083  25.834  1.00  0.00    -0.744 OA
ENDBRANCH  94  98
ENDBRANCH  68  91
ENDBRANCH  42  43
ENDBRANCH  34  37
ENDBRANCH  32  33
ENDBRANCH  31  32
ENDBRANCH   1  31
TORSDOF 18
ENDMDL
