MODEL 1
REMARK VINA RESULT:     -12.9      0.000      0.000
REMARK SMILES Cc1ccc(C(c2ccccc2)(c2ccccc2)n2cnc(C[C@H]([NH3+])C(=O)NCCCCNC(=O)c3ccc(-c4c5nc(c(-c6cc(S(=O)(=O)[O-])ccc6F)c6ccc([nH]6)c(-c6cc(S(=O)(=O)[O-])ccc6F)c6nc(c(-c7cc(S(=O)(=O)[O-])ccc7F)c7ccc4[nH]7)C=C6)C=C5)cc3)c2)cc1
REMARK SMILES IDX 30 1 29 2 28 3 26 4 27 5 24 7 23 8 22 9 19 10 20 11 99 12
REMARK SMILES IDX 21 13 6 14 5 15 1 16 2 17 3 18 101 19 4 20 100 21 7 22 8 23
REMARK SMILES IDX 12 24 9 25 11 26 10 27 13 28 14 29 18 30 15 31 17 32 16 33
REMARK SMILES IDX 25 34 31 38 32 39 33 40 34 41 35 43 36 44 37 45 98 46 38 47
REMARK SMILES IDX 97 48 39 49 40 50 41 51 91 52 42 53 96 54 90 55 92 56 43 57
REMARK SMILES IDX 95 58 89 59 88 60 44 62 76 63 56 64 75 65 57 66 60 67 74 68
REMARK SMILES IDX 93 69 58 70 59 71 73 73 94 74 61 75 45 76 46 77 54 78 47 79
REMARK SMILES IDX 53 80 55 81 52 82 48 83 49 84 50 85 51 86 77 87 78 88 86 89
REMARK SMILES IDX 79 90 85 91 87 92 84 93 80 94 81 95 82 96 83 97 62 98 63 99
REMARK SMILES IDX 71 100 64 101 70 102 72 103 69 104 65 105 66 106 67 107
REMARK SMILES IDX 68 108
REMARK H PARENT 28 6 25 35 25 36 25 37 33 42 92 61 60 72
REMARK Flexibility Score: inf
ROOT
ATOM      1  C   UNL A   1      32.203  30.062  26.179  1.00  0.00     0.023 C 
ENDROOT
BRANCH   1   2
ATOM      2  C   UNL A   1      31.783  29.212  24.974  1.00  0.00     0.116 C 
BRANCH   2   3
ATOM      3  N   UNL A   1      32.783  29.236  23.912  1.00  0.00    -0.351 N 
ATOM      4  C   UNL A   1      32.926  28.500  22.771  1.00  0.00     0.278 C 
ATOM      5  O   UNL A   1      33.996  28.620  22.160  1.00  0.00    -0.268 OA
ATOM      6  H   UNL A   1      33.487  29.911  24.043  1.00  0.00     0.163 HD
BRANCH   4   7
ATOM      7  C   UNL A   1      31.845  27.506  22.299  1.00  0.00     0.276 C 
BRANCH   7   8
ATOM      8  C   UNL A   1      32.358  26.474  21.279  1.00  0.00     0.133 C 
BRANCH   8   9
ATOM      9  C   UNL A   1      32.709  25.155  21.873  1.00  0.00     0.065 A 
ATOM     10  N   UNL A   1      33.075  23.488  23.259  1.00  0.00    -0.319 N 
ATOM     11  C   UNL A   1      33.423  23.143  21.972  1.00  0.00     0.201 A 
ATOM     12  C   UNL A   1      32.536  24.751  23.178  1.00  0.00     0.112 A 
ATOM     13  N   UNL A   1      33.242  24.137  21.132  1.00  0.00    -0.241 NA
BRANCH  10  14
ATOM     14  C   UNL A   1      33.311  22.660  24.490  1.00  0.00     0.121 C 
BRANCH  14  15
ATOM     15  C   UNL A   1      33.227  21.125  24.120  1.00  0.00    -0.013 A 
ATOM     16  C   UNL A   1      33.178  16.889  23.129  1.00  0.00     0.044 C 
ATOM     17  C   UNL A   1      33.182  18.342  23.507  1.00  0.00    -0.051 A 
ATOM     18  C   UNL A   1      32.321  19.232  22.861  1.00  0.00     0.004 A 
ATOM     19  C   UNL A   1      34.043  18.832  24.488  1.00  0.00     0.004 A 
ATOM     20  C   UNL A   1      32.339  20.600  23.163  1.00  0.00     0.007 A 
ATOM     21  C   UNL A   1      34.054  20.194  24.799  1.00  0.00     0.007 A 
ENDBRANCH  14  15
BRANCH  14  22
ATOM     22  C   UNL A   1      34.765  23.050  25.025  1.00  0.00    -0.013 A 
ATOM     23  C   UNL A   1      35.867  23.158  24.141  1.00  0.00     0.007 A 
ATOM     24  C   UNL A   1      35.073  23.199  26.394  1.00  0.00     0.007 A 
ATOM     25  C   UNL A   1      37.154  23.493  24.581  1.00  0.00     0.000 A 
ATOM     26  C   UNL A   1      36.362  23.523  26.841  1.00  0.00     0.000 A 
ATOM     27  C   UNL A   1      37.398  23.689  25.933  1.00  0.00     0.000 A 
ENDBRANCH  14  22
BRANCH  14  28
ATOM     28  C   UNL A   1      32.154  23.023  25.535  1.00  0.00    -0.013 A 
ATOM     29  C   UNL A   1      31.100  22.115  25.802  1.00  0.00     0.007 A 
ATOM     30  C   UNL A   1      32.001  24.315  26.085  1.00  0.00     0.007 A 
ATOM     31  C   UNL A   1      29.989  22.465  26.579  1.00  0.00     0.000 A 
ATOM     32  C   UNL A   1      30.875  24.676  26.838  1.00  0.00     0.000 A 
ATOM     33  C   UNL A   1      29.870  23.750  27.087  1.00  0.00     0.000 A 
ENDBRANCH  14  28
ENDBRANCH  10  14
ENDBRANCH   8   9
ENDBRANCH   7   8
BRANCH   7  34
ATOM     34  N   UNL A   1      30.645  28.256  21.826  1.00  0.00    -0.347 N 
ATOM     35  H   UNL A   1      30.327  28.886  22.563  1.00  0.00     0.345 HD
ATOM     36  H   UNL A   1      29.901  27.598  21.596  1.00  0.00     0.345 HD
ATOM     37  H   UNL A   1      30.888  28.799  20.997  1.00  0.00     0.345 HD
ENDBRANCH   7  34
ENDBRANCH   4   7
ENDBRANCH   2   3
ENDBRANCH   1   2
BRANCH   1  38
ATOM     38  C   UNL A   1      33.701  30.067  26.490  1.00  0.00     0.023 C 
BRANCH  38  39
ATOM     39  C   UNL A   1      34.031  30.048  27.975  1.00  0.00     0.116 C 
BRANCH  39  40
ATOM     40  N   UNL A   1      34.856  31.148  28.447  1.00  0.00    -0.352 N 
ATOM     41  C   UNL A   1      36.149  31.120  28.946  1.00  0.00     0.251 C 
ATOM     42  H   UNL A   1      34.437  32.038  28.408  1.00  0.00     0.163 HD
ATOM     43  O   UNL A   1      36.644  32.117  29.452  1.00  0.00    -0.269 OA
BRANCH  41  44
ATOM     44  C   UNL A   1      36.983  29.904  28.752  1.00  0.00     0.039 A 
ATOM     45  C   UNL A   1      37.156  29.052  29.852  1.00  0.00     0.014 A 
ATOM     46  C   UNL A   1      37.753  29.720  27.608  1.00  0.00     0.014 A 
ATOM     47  C   UNL A   1      38.255  28.194  29.894  1.00  0.00     0.010 A 
ATOM     48  C   UNL A   1      38.903  28.964  27.693  1.00  0.00     0.010 A 
ATOM     49  C   UNL A   1      39.184  28.244  28.857  1.00  0.00    -0.014 A 
BRANCH  49  50
ATOM     50  C   UNL A   1      40.527  27.687  28.949  1.00  0.00     0.031 A 
ATOM     51  C   UNL A   1      40.811  26.310  28.509  1.00  0.00     0.074 A 
ATOM     52  C   UNL A   1      41.550  28.470  29.355  1.00  0.00     0.049 A 
ATOM     53  N   UNL A   1      41.767  25.587  28.988  1.00  0.00    -0.248 NA
ATOM     54  C   UNL A   1      40.020  25.622  27.495  1.00  0.00     0.031 C 
ATOM     55  C   UNL A   1      42.979  28.181  29.265  1.00  0.00     0.029 A 
ATOM     56  N   UNL A   1      41.475  29.603  30.160  1.00  0.00    -0.354 N 
ATOM     57  C   UNL A   1      41.923  24.510  28.149  1.00  0.00     0.074 A 
ATOM     58  C   UNL A   1      40.763  24.531  27.287  1.00  0.00     0.031 C 
ATOM     59  C   UNL A   1      43.627  28.913  30.183  1.00  0.00     0.029 A 
ATOM     60  C   UNL A   1      42.624  29.599  30.974  1.00  0.00     0.049 A 
ATOM     61  H   UNL A   1      40.758  30.277  30.161  1.00  0.00     0.167 HD
ATOM     62  C   UNL A   1      43.091  23.810  28.159  1.00  0.00     0.034 A 
ATOM     63  C   UNL A   1      42.517  29.557  32.333  1.00  0.00     0.034 A 
ATOM     64  C   UNL A   1      44.047  24.350  29.125  1.00  0.00     0.049 A 
ATOM     65  C   UNL A   1      43.169  28.340  32.952  1.00  0.00     0.074 A 
ATOM     66  C   UNL A   1      45.181  25.136  28.994  1.00  0.00     0.029 A 
ATOM     67  N   UNL A   1      43.742  24.330  30.481  1.00  0.00    -0.354 N 
ATOM     68  N   UNL A   1      43.557  27.292  32.278  1.00  0.00    -0.248 NA
ATOM     69  C   UNL A   1      43.427  28.200  34.379  1.00  0.00     0.031 C 
ATOM     70  C   UNL A   1      45.551  25.599  30.284  1.00  0.00     0.029 A 
ATOM     71  C   UNL A   1      44.654  25.079  31.200  1.00  0.00     0.049 A 
ATOM     72  H   UNL A   1      42.981  23.848  30.875  1.00  0.00     0.167 HD
ATOM     73  C   UNL A   1      44.096  26.353  33.127  1.00  0.00     0.074 A 
ATOM     74  C   UNL A   1      43.996  26.981  34.434  1.00  0.00     0.031 C 
ATOM     75  C   UNL A   1      44.565  25.154  32.655  1.00  0.00     0.034 A 
BRANCH  62  76
ATOM     76  C   UNL A   1      43.469  22.836  27.068  1.00  0.00     0.023 A 
ATOM     77  C   UNL A   1      42.894  21.549  27.054  1.00  0.00     0.031 A 
ATOM     78  C   UNL A   1      44.397  23.097  26.043  1.00  0.00     0.131 A 
ATOM     79  C   UNL A   1      43.320  20.564  26.147  1.00  0.00     0.055 A 
ATOM     80  C   UNL A   1      44.868  22.101  25.175  1.00  0.00     0.041 A 
ATOM     81  F   UNL A   1      44.856  24.337  25.814  1.00  0.00    -0.206 F 
ATOM     82  C   UNL A   1      44.339  20.819  25.235  1.00  0.00     0.022 A 
BRANCH  79  83
ATOM     83  S   UNL A   1      42.506  18.943  26.171  1.00  0.00     0.124 S 
ATOM     84  O   UNL A   1      41.184  19.250  25.633  1.00  0.00    -0.237 OA
ATOM     85  O   UNL A   1      43.380  18.148  25.316  1.00  0.00    -0.237 OA
ATOM     86  O   UNL A   1      42.526  18.575  27.586  1.00  0.00    -0.744 OA
ENDBRANCH  79  83
ENDBRANCH  62  76
BRANCH  63  87
ATOM     87  C   UNL A   1      41.314  30.288  32.832  1.00  0.00     0.023 A 
ATOM     88  C   UNL A   1      41.372  31.700  32.771  1.00  0.00     0.031 A 
ATOM     89  C   UNL A   1      40.052  29.687  32.909  1.00  0.00     0.131 A 
ATOM     90  C   UNL A   1      40.202  32.449  32.581  1.00  0.00     0.055 A 
ATOM     91  C   UNL A   1      38.880  30.451  32.811  1.00  0.00     0.041 A 
ATOM     92  F   UNL A   1      39.931  28.352  32.939  1.00  0.00    -0.206 F 
ATOM     93  C   UNL A   1      38.952  31.830  32.593  1.00  0.00     0.022 A 
BRANCH  90  94
ATOM     94  S   UNL A   1      40.367  34.171  32.011  1.00  0.00     0.124 S 
ATOM     95  O   UNL A   1      40.690  33.995  30.599  1.00  0.00    -0.237 OA
ATOM     96  O   UNL A   1      39.051  34.739  32.297  1.00  0.00    -0.237 OA
ATOM     97  O   UNL A   1      41.440  34.712  32.841  1.00  0.00    -0.744 OA
ENDBRANCH  90  94
ENDBRANCH  63  87
BRANCH  75  98
ATOM     98  C   UNL A   1      45.062  23.955  33.459  1.00  0.00     0.023 A 
ATOM     99  C   UNL A   1      46.399  23.735  33.813  1.00  0.00     0.031 A 
ATOM    100  C   UNL A   1      44.154  22.967  33.934  1.00  0.00     0.131 A 
ATOM    101  C   UNL A   1      46.793  22.600  34.554  1.00  0.00     0.055 A 
ATOM    102  C   UNL A   1      44.538  21.864  34.705  1.00  0.00     0.041 A 
ATOM    103  F   UNL A   1      42.837  23.025  33.683  1.00  0.00    -0.206 F 
ATOM    104  C   UNL A   1      45.869  21.670  35.016  1.00  0.00     0.022 A 
BRANCH 101 105
ATOM    105  S   UNL A   1      48.560  22.353  34.867  1.00  0.00     0.124 S 
ATOM    106  O   UNL A   1      49.157  23.466  34.135  1.00  0.00    -0.237 OA
ATOM    107  O   UNL A   1      48.634  22.442  36.323  1.00  0.00    -0.237 OA
ATOM    108  O   UNL A   1      48.830  21.028  34.312  1.00  0.00    -0.744 OA
ENDBRANCH 101 105
ENDBRANCH  75  98
ENDBRANCH  49  50
ENDBRANCH  41  44
ENDBRANCH  39  40
ENDBRANCH  38  39
ENDBRANCH   1  38
TORSDOF 21
ENDMDL
MODEL 2
REMARK VINA RESULT:     -12.7      4.031      9.993
REMARK SMILES Cc1ccc(C(c2ccccc2)(c2ccccc2)n2cnc(C[C@H]([NH3+])C(=O)NCCCCNC(=O)c3ccc(-c4c5nc(c(-c6cc(S(=O)(=O)[O-])ccc6F)c6ccc([nH]6)c(-c6cc(S(=O)(=O)[O-])ccc6F)c6nc(c(-c7cc(S(=O)(=O)[O-])ccc7F)c7ccc4[nH]7)C=C6)C=C5)cc3)c2)cc1
REMARK SMILES IDX 30 1 29 2 28 3 26 4 27 5 24 7 23 8 22 9 19 10 20 11 99 12
REMARK SMILES IDX 21 13 6 14 5 15 1 16 2 17 3 18 101 19 4 20 100 21 7 22 8 23
REMARK SMILES IDX 12 24 9 25 11 26 10 27 13 28 14 29 18 30 15 31 17 32 16 33
REMARK SMILES IDX 25 34 31 38 32 39 33 40 34 41 35 43 36 44 37 45 98 46 38 47
REMARK SMILES IDX 97 48 39 49 40 50 41 51 91 52 42 53 96 54 90 55 92 56 43 57
REMARK SMILES IDX 95 58 89 59 88 60 44 62 76 63 56 64 75 65 57 66 60 67 74 68
REMARK SMILES IDX 93 69 58 70 59 71 73 73 94 74 61 75 45 76 46 77 54 78 47 79
REMARK SMILES IDX 53 80 55 81 52 82 48 83 49 84 50 85 51 86 77 87 78 88 86 89
REMARK SMILES IDX 79 90 85 91 87 92 84 93 80 94 81 95 82 96 83 97 62 98 63 99
REMARK SMILES IDX 71 100 64 101 70 102 72 103 69 104 65 105 66 106 67 107
REMARK SMILES IDX 68 108
REMARK H PARENT 28 6 25 35 25 36 25 37 33 42 92 61 60 72
REMARK Flexibility Score: inf
ROOT
ATOM      1  C   UNL A   1      36.067  20.994  25.383  1.00  0.00     0.023 C 
ENDROOT
BRANCH   1   2
ATOM      2  C   UNL A   1      35.494  22.370  25.748  1.00  0.00     0.116 C 
BRANCH   2   3
ATOM      3  N   UNL A   1      34.648  22.313  26.934  1.00  0.00    -0.351 N 
ATOM      4  C   UNL A   1      33.296  22.193  27.091  1.00  0.00     0.278 C 
ATOM      5  O   UNL A   1      32.848  22.373  28.231  1.00  0.00    -0.268 OA
ATOM      6  H   UNL A   1      35.144  22.372  27.782  1.00  0.00     0.163 HD
BRANCH   4   7
ATOM      7  C   UNL A   1      32.356  21.924  25.898  1.00  0.00     0.276 C 
BRANCH   7   8
ATOM      8  C   UNL A   1      30.895  22.332  26.159  1.00  0.00     0.133 C 
BRANCH   8   9
ATOM      9  C   UNL A   1      30.622  23.781  25.951  1.00  0.00     0.065 A 
ATOM     10  N   UNL A   1      30.574  25.834  25.168  1.00  0.00    -0.319 N 
ATOM     11  C   UNL A   1      29.873  25.742  26.350  1.00  0.00     0.201 A 
ATOM     12  C   UNL A   1      30.980  24.555  24.871  1.00  0.00     0.112 A 
ATOM     13  N   UNL A   1      29.916  24.529  26.852  1.00  0.00    -0.241 NA
BRANCH  10  14
ATOM     14  C   UNL A   1      30.875  27.099  24.417  1.00  0.00     0.121 C 
BRANCH  14  15
ATOM     15  C   UNL A   1      31.696  28.084  25.343  1.00  0.00    -0.013 A 
ATOM     16  C   UNL A   1      33.954  30.915  27.754  1.00  0.00     0.044 C 
ATOM     17  C   UNL A   1      33.142  29.949  26.941  1.00  0.00    -0.051 A 
ATOM     18  C   UNL A   1      33.373  28.576  27.057  1.00  0.00     0.004 A 
ATOM     19  C   UNL A   1      32.163  30.394  26.054  1.00  0.00     0.004 A 
ATOM     20  C   UNL A   1      32.660  27.657  26.275  1.00  0.00     0.007 A 
ATOM     21  C   UNL A   1      31.443  29.478  25.282  1.00  0.00     0.007 A 
ENDBRANCH  14  15
BRANCH  14  22
ATOM     22  C   UNL A   1      31.721  26.671  23.130  1.00  0.00    -0.013 A 
ATOM     23  C   UNL A   1      33.095  26.995  23.016  1.00  0.00     0.007 A 
ATOM     24  C   UNL A   1      31.149  26.058  21.996  1.00  0.00     0.007 A 
ATOM     25  C   UNL A   1      33.862  26.638  21.899  1.00  0.00     0.000 A 
ATOM     26  C   UNL A   1      31.909  25.709  20.871  1.00  0.00     0.000 A 
ATOM     27  C   UNL A   1      33.270  25.981  20.831  1.00  0.00     0.000 A 
ENDBRANCH  14  22
BRANCH  14  28
ATOM     28  C   UNL A   1      29.473  27.769  24.034  1.00  0.00    -0.013 A 
ATOM     29  C   UNL A   1      28.272  27.017  24.062  1.00  0.00     0.007 A 
ATOM     30  C   UNL A   1      29.373  29.057  23.462  1.00  0.00     0.007 A 
ATOM     31  C   UNL A   1      27.060  27.524  23.576  1.00  0.00     0.000 A 
ATOM     32  C   UNL A   1      28.167  29.553  22.948  1.00  0.00     0.000 A 
ATOM     33  C   UNL A   1      27.010  28.788  23.007  1.00  0.00     0.000 A 
ENDBRANCH  14  28
ENDBRANCH  10  14
ENDBRANCH   8   9
ENDBRANCH   7   8
BRANCH   7  34
ATOM     34  N   UNL A   1      32.503  20.508  25.452  1.00  0.00    -0.347 N 
ATOM     35  H   UNL A   1      32.860  19.945  26.225  1.00  0.00     0.345 HD
ATOM     36  H   UNL A   1      33.154  20.464  24.669  1.00  0.00     0.345 HD
ATOM     37  H   UNL A   1      31.594  20.147  25.161  1.00  0.00     0.345 HD
ENDBRANCH   7  34
ENDBRANCH   4   7
ENDBRANCH   2   3
ENDBRANCH   1   2
BRANCH   1  38
ATOM     38  C   UNL A   1      37.573  20.958  25.119  1.00  0.00     0.023 C 
BRANCH  38  39
ATOM     39  C   UNL A   1      38.297  22.253  25.456  1.00  0.00     0.116 C 
BRANCH  39  40
ATOM     40  N   UNL A   1      39.655  22.100  25.952  1.00  0.00    -0.352 N 
ATOM     41  C   UNL A   1      40.525  23.066  26.434  1.00  0.00     0.251 C 
ATOM     42  H   UNL A   1      40.007  21.181  25.943  1.00  0.00     0.163 HD
ATOM     43  O   UNL A   1      41.694  22.794  26.663  1.00  0.00    -0.269 OA
BRANCH  41  44
ATOM     44  C   UNL A   1      39.999  24.411  26.792  1.00  0.00     0.039 A 
ATOM     45  C   UNL A   1      40.665  25.529  26.271  1.00  0.00     0.014 A 
ATOM     46  C   UNL A   1      39.035  24.580  27.782  1.00  0.00     0.014 A 
ATOM     47  C   UNL A   1      40.545  26.763  26.908  1.00  0.00     0.010 A 
ATOM     48  C   UNL A   1      39.004  25.765  28.486  1.00  0.00     0.010 A 
ATOM     49  C   UNL A   1      39.800  26.841  28.084  1.00  0.00    -0.014 A 
BRANCH  49  50
ATOM     50  C   UNL A   1      39.891  27.948  29.026  1.00  0.00     0.031 A 
ATOM     51  C   UNL A   1      38.980  29.103  28.931  1.00  0.00     0.074 A 
ATOM     52  C   UNL A   1      40.757  27.879  30.060  1.00  0.00     0.049 A 
ATOM     53  N   UNL A   1      39.280  30.288  29.346  1.00  0.00    -0.248 NA
ATOM     54  C   UNL A   1      37.651  29.019  28.338  1.00  0.00     0.031 C 
ATOM     55  C   UNL A   1      40.811  28.748  31.233  1.00  0.00     0.029 A 
ATOM     56  N   UNL A   1      41.931  27.133  30.127  1.00  0.00    -0.354 N 
ATOM     57  C   UNL A   1      38.114  31.014  29.381  1.00  0.00     0.074 A 
ATOM     58  C   UNL A   1      37.147  30.211  28.667  1.00  0.00     0.031 C 
ATOM     59  C   UNL A   1      42.047  28.702  31.749  1.00  0.00     0.029 A 
ATOM     60  C   UNL A   1      42.860  27.902  30.853  1.00  0.00     0.049 A 
ATOM     61  H   UNL A   1      42.082  26.240  29.741  1.00  0.00     0.167 HD
ATOM     62  C   UNL A   1      38.042  32.139  30.147  1.00  0.00     0.034 A 
ATOM     63  C   UNL A   1      44.038  28.291  30.287  1.00  0.00     0.034 A 
ATOM     64  C   UNL A   1      39.296  32.408  30.847  1.00  0.00     0.049 A 
ATOM     65  C   UNL A   1      44.206  29.793  30.214  1.00  0.00     0.074 A 
ATOM     66  C   UNL A   1      39.704  32.227  32.160  1.00  0.00     0.029 A 
ATOM     67  N   UNL A   1      40.447  32.687  30.118  1.00  0.00    -0.354 N 
ATOM     68  N   UNL A   1      43.240  30.649  30.406  1.00  0.00    -0.248 NA
ATOM     69  C   UNL A   1      45.470  30.450  29.909  1.00  0.00     0.031 C 
ATOM     70  C   UNL A   1      41.113  32.390  32.213  1.00  0.00     0.029 A 
ATOM     71  C   UNL A   1      41.559  32.688  30.938  1.00  0.00     0.049 A 
ATOM     72  H   UNL A   1      40.465  32.860  29.150  1.00  0.00     0.167 HD
ATOM     73  C   UNL A   1      43.708  31.934  30.256  1.00  0.00     0.074 A 
ATOM     74  C   UNL A   1      45.117  31.749  29.953  1.00  0.00     0.031 C 
ATOM     75  C   UNL A   1      42.875  33.015  30.397  1.00  0.00     0.034 A 
BRANCH  62  76
ATOM     76  C   UNL A   1      36.732  32.805  30.497  1.00  0.00     0.023 A 
ATOM     77  C   UNL A   1      35.999  33.467  29.492  1.00  0.00     0.031 A 
ATOM     78  C   UNL A   1      36.172  32.849  31.787  1.00  0.00     0.131 A 
ATOM     79  C   UNL A   1      34.851  34.221  29.796  1.00  0.00     0.055 A 
ATOM     80  C   UNL A   1      35.063  33.647  32.105  1.00  0.00     0.041 A 
ATOM     81  F   UNL A   1      36.651  32.090  32.784  1.00  0.00    -0.206 F 
ATOM     82  C   UNL A   1      34.405  34.353  31.108  1.00  0.00     0.022 A 
BRANCH  79  83
ATOM     83  S   UNL A   1      33.944  35.016  28.442  1.00  0.00     0.124 S 
ATOM     84  O   UNL A   1      34.744  34.654  27.276  1.00  0.00    -0.237 OA
ATOM     85  O   UNL A   1      32.631  34.387  28.541  1.00  0.00    -0.237 OA
ATOM     86  O   UNL A   1      33.977  36.434  28.798  1.00  0.00    -0.744 OA
ENDBRANCH  79  83
ENDBRANCH  62  76
BRANCH  63  87
ATOM     87  C   UNL A   1      44.572  27.276  29.331  1.00  0.00     0.023 A 
ATOM     88  C   UNL A   1      44.353  27.535  27.957  1.00  0.00     0.031 A 
ATOM     89  C   UNL A   1      45.606  26.395  29.674  1.00  0.00     0.131 A 
ATOM     90  C   UNL A   1      45.272  27.092  26.997  1.00  0.00     0.055 A 
ATOM     91  C   UNL A   1      46.470  25.879  28.697  1.00  0.00     0.041 A 
ATOM     92  F   UNL A   1      45.882  26.133  30.959  1.00  0.00    -0.206 F 
ATOM     93  C   UNL A   1      46.339  26.269  27.360  1.00  0.00     0.022 A 
BRANCH  90  94
ATOM     94  S   UNL A   1      45.229  27.860  25.346  1.00  0.00     0.124 S 
ATOM     95  O   UNL A   1      45.761  29.191  25.615  1.00  0.00    -0.237 OA
ATOM     96  O   UNL A   1      46.086  26.981  24.552  1.00  0.00    -0.237 OA
ATOM     97  O   UNL A   1      43.818  27.808  24.974  1.00  0.00    -0.744 OA
ENDBRANCH  90  94
ENDBRANCH  63  87
BRANCH  75  98
ATOM     98  C   UNL A   1      43.188  34.486  30.133  1.00  0.00     0.023 A 
ATOM     99  C   UNL A   1      42.948  35.143  28.919  1.00  0.00     0.031 A 
ATOM    100  C   UNL A   1      43.741  35.310  31.153  1.00  0.00     0.131 A 
ATOM    101  C   UNL A   1      43.267  36.505  28.738  1.00  0.00     0.055 A 
ATOM    102  C   UNL A   1      44.019  36.672  30.987  1.00  0.00     0.041 A 
ATOM    103  F   UNL A   1      44.035  34.839  32.373  1.00  0.00    -0.206 F 
ATOM    104  C   UNL A   1      43.787  37.280  29.768  1.00  0.00     0.022 A 
BRANCH 101 105
ATOM    105  S   UNL A   1      43.016  37.233  27.097  1.00  0.00     0.124 S 
ATOM    106  O   UNL A   1      42.680  36.061  26.294  1.00  0.00    -0.237 OA
ATOM    107  O   UNL A   1      41.923  38.171  27.337  1.00  0.00    -0.237 OA
ATOM    108  O   UNL A   1      44.306  37.848  26.789  1.00  0.00    -0.744 OA
ENDBRANCH 101 105
ENDBRANCH  75  98
ENDBRANCH  49  50
ENDBRANCH  41  44
ENDBRANCH  39  40
ENDBRANCH  38  39
ENDBRANCH   1  38
TORSDOF 21
ENDMDL
MODEL 3
REMARK VINA RESULT:     -12.6      3.980     10.496
REMARK SMILES Cc1ccc(C(c2ccccc2)(c2ccccc2)n2cnc(C[C@H]([NH3+])C(=O)NCCCCNC(=O)c3ccc(-c4c5nc(c(-c6cc(S(=O)(=O)[O-])ccc6F)c6ccc([nH]6)c(-c6cc(S(=O)(=O)[O-])ccc6F)c6nc(c(-c7cc(S(=O)(=O)[O-])ccc7F)c7ccc4[nH]7)C=C6)C=C5)cc3)c2)cc1
REMARK SMILES IDX 30 1 29 2 28 3 26 4 27 5 24 7 23 8 22 9 19 10 20 11 99 12
REMARK SMILES IDX 21 13 6 14 5 15 1 16 2 17 3 18 101 19 4 20 100 21 7 22 8 23
REMARK SMILES IDX 12 24 9 25 11 26 10 27 13 28 14 29 18 30 15 31 17 32 16 33
REMARK SMILES IDX 25 34 31 38 32 39 33 40 34 41 35 43 36 44 37 45 98 46 38 47
REMARK SMILES IDX 97 48 39 49 40 50 41 51 91 52 42 53 96 54 90 55 92 56 43 57
REMARK SMILES IDX 95 58 89 59 88 60 44 62 76 63 56 64 75 65 57 66 60 67 74 68
REMARK SMILES IDX 93 69 58 70 59 71 73 73 94 74 61 75 45 76 46 77 54 78 47 79
REMARK SMILES IDX 53 80 55 81 52 82 48 83 49 84 50 85 51 86 77 87 78 88 86 89
REMARK SMILES IDX 79 90 85 91 87 92 84 93 80 94 81 95 82 96 83 97 62 98 63 99
REMARK SMILES IDX 71 100 64 101 70 102 72 103 69 104 65 105 66 106 67 107
REMARK SMILES IDX 68 108
REMARK H PARENT 28 6 25 35 25 36 25 37 33 42 92 61 60 72
REMARK Flexibility Score: inf
ROOT
ATOM      1  C   UNL A   1      36.397  21.422  25.692  1.00  0.00     0.023 C 
ENDROOT
BRANCH   1   2
ATOM      2  C   UNL A   1      35.541  22.675  25.921  1.00  0.00     0.116 C 
BRANCH   2   3
ATOM      3  N   UNL A   1      34.667  22.535  27.080  1.00  0.00    -0.351 N 
ATOM      4  C   UNL A   1      33.321  22.334  27.194  1.00  0.00     0.278 C 
ATOM      5  O   UNL A   1      32.833  22.454  28.325  1.00  0.00    -0.268 OA
ATOM      6  H   UNL A   1      35.136  22.597  27.943  1.00  0.00     0.163 HD
BRANCH   4   7
ATOM      7  C   UNL A   1      32.431  22.047  25.967  1.00  0.00     0.276 C 
BRANCH   7   8
ATOM      8  C   UNL A   1      30.954  22.425  26.174  1.00  0.00     0.133 C 
BRANCH   8   9
ATOM      9  C   UNL A   1      30.649  23.857  25.903  1.00  0.00     0.065 A 
ATOM     10  N   UNL A   1      30.549  25.870  25.026  1.00  0.00    -0.319 N 
ATOM     11  C   UNL A   1      29.867  25.820  26.221  1.00  0.00     0.201 A 
ATOM     12  C   UNL A   1      30.977  24.586  24.783  1.00  0.00     0.112 A 
ATOM     13  N   UNL A   1      29.941  24.633  26.779  1.00  0.00    -0.241 NA
BRANCH  10  14
ATOM     14  C   UNL A   1      30.815  27.104  24.212  1.00  0.00     0.121 C 
BRANCH  14  15
ATOM     15  C   UNL A   1      31.547  28.182  25.108  1.00  0.00    -0.013 A 
ATOM     16  C   UNL A   1      33.576  31.022  27.706  1.00  0.00     0.044 C 
ATOM     17  C   UNL A   1      32.910  30.036  26.791  1.00  0.00    -0.051 A 
ATOM     18  C   UNL A   1      31.902  30.463  25.923  1.00  0.00     0.004 A 
ATOM     19  C   UNL A   1      33.267  28.688  26.796  1.00  0.00     0.004 A 
ATOM     20  C   UNL A   1      31.233  29.554  25.091  1.00  0.00     0.007 A 
ATOM     21  C   UNL A   1      32.609  27.782  25.959  1.00  0.00     0.007 A 
ENDBRANCH  14  15
BRANCH  14  22
ATOM     22  C   UNL A   1      31.731  26.649  22.985  1.00  0.00    -0.013 A 
ATOM     23  C   UNL A   1      33.092  27.032  22.905  1.00  0.00     0.007 A 
ATOM     24  C   UNL A   1      31.235  25.946  21.866  1.00  0.00     0.007 A 
ATOM     25  C   UNL A   1      33.919  26.653  21.839  1.00  0.00     0.000 A 
ATOM     26  C   UNL A   1      32.056  25.574  20.792  1.00  0.00     0.000 A 
ATOM     27  C   UNL A   1      33.402  25.910  20.788  1.00  0.00     0.000 A 
ENDBRANCH  14  22
BRANCH  14  28
ATOM     28  C   UNL A   1      29.396  27.676  23.740  1.00  0.00    -0.013 A 
ATOM     29  C   UNL A   1      29.275  28.985  23.213  1.00  0.00     0.007 A 
ATOM     30  C   UNL A   1      28.180  27.009  24.004  1.00  0.00     0.007 A 
ATOM     31  C   UNL A   1      28.032  29.573  22.948  1.00  0.00     0.000 A 
ATOM     32  C   UNL A   1      26.935  27.608  23.767  1.00  0.00     0.000 A 
ATOM     33  C   UNL A   1      26.861  28.889  23.236  1.00  0.00     0.000 A 
ENDBRANCH  14  28
ENDBRANCH  10  14
ENDBRANCH   8   9
ENDBRANCH   7   8
BRANCH   7  34
ATOM     34  N   UNL A   1      32.623  20.635  25.527  1.00  0.00    -0.347 N 
ATOM     35  H   UNL A   1      31.914  20.396  24.833  1.00  0.00     0.345 HD
ATOM     36  H   UNL A   1      32.536  20.013  26.331  1.00  0.00     0.345 HD
ATOM     37  H   UNL A   1      33.551  20.530  25.115  1.00  0.00     0.345 HD
ENDBRANCH   7  34
ENDBRANCH   4   7
ENDBRANCH   2   3
ENDBRANCH   1   2
BRANCH   1  38
ATOM     38  C   UNL A   1      37.881  21.681  25.419  1.00  0.00     0.023 C 
BRANCH  38  39
ATOM     39  C   UNL A   1      38.416  22.960  26.046  1.00  0.00     0.116 C 
BRANCH  39  40
ATOM     40  N   UNL A   1      39.811  22.921  26.452  1.00  0.00    -0.352 N 
ATOM     41  C   UNL A   1      40.652  23.968  26.796  1.00  0.00     0.251 C 
ATOM     42  H   UNL A   1      40.217  22.024  26.486  1.00  0.00     0.163 HD
ATOM     43  O   UNL A   1      41.849  23.780  26.959  1.00  0.00    -0.269 OA
BRANCH  41  44
ATOM     44  C   UNL A   1      40.072  25.306  27.091  1.00  0.00     0.039 A 
ATOM     45  C   UNL A   1      40.577  26.404  26.380  1.00  0.00     0.014 A 
ATOM     46  C   UNL A   1      39.231  25.515  28.180  1.00  0.00     0.014 A 
ATOM     47  C   UNL A   1      40.442  27.688  26.907  1.00  0.00     0.010 A 
ATOM     48  C   UNL A   1      39.197  26.763  28.765  1.00  0.00     0.010 A 
ATOM     49  C   UNL A   1      39.848  27.840  28.159  1.00  0.00    -0.014 A 
BRANCH  49  50
ATOM     50  C   UNL A   1      39.970  29.044  28.970  1.00  0.00     0.031 A 
ATOM     51  C   UNL A   1      38.915  30.073  28.966  1.00  0.00     0.074 A 
ATOM     52  C   UNL A   1      41.019  29.183  29.810  1.00  0.00     0.049 A 
ATOM     53  N   UNL A   1      39.130  31.321  29.214  1.00  0.00    -0.248 NA
ATOM     54  C   UNL A   1      37.520  29.777  28.662  1.00  0.00     0.031 C 
ATOM     55  C   UNL A   1      41.179  30.171  30.874  1.00  0.00     0.029 A 
ATOM     56  N   UNL A   1      42.271  28.584  29.701  1.00  0.00    -0.354 N 
ATOM     57  C   UNL A   1      37.907  31.911  29.424  1.00  0.00     0.074 A 
ATOM     58  C   UNL A   1      36.936  30.934  28.987  1.00  0.00     0.031 C 
ATOM     59  C   UNL A   1      42.487  30.319  31.133  1.00  0.00     0.029 A 
ATOM     60  C   UNL A   1      43.212  29.525  30.160  1.00  0.00     0.049 A 
ATOM     61  H   UNL A   1      42.461  27.678  29.367  1.00  0.00     0.167 HD
ATOM     62  C   UNL A   1      37.835  33.095  30.094  1.00  0.00     0.034 A 
ATOM     63  C   UNL A   1      44.200  29.982  29.339  1.00  0.00     0.034 A 
ATOM     64  C   UNL A   1      39.153  33.576  30.503  1.00  0.00     0.049 A 
ATOM     65  C   UNL A   1      44.153  31.477  29.111  1.00  0.00     0.074 A 
ATOM     66  C   UNL A   1      39.823  33.583  31.717  1.00  0.00     0.029 A 
ATOM     67  N   UNL A   1      40.098  33.904  29.537  1.00  0.00    -0.354 N 
ATOM     68  N   UNL A   1      43.138  32.235  29.423  1.00  0.00    -0.248 NA
ATOM     69  C   UNL A   1      45.239  32.236  28.505  1.00  0.00     0.031 C 
ATOM     70  C   UNL A   1      41.182  33.907  31.472  1.00  0.00     0.029 A 
ATOM     71  C   UNL A   1      41.336  34.116  30.114  1.00  0.00     0.049 A 
ATOM     72  H   UNL A   1      39.910  33.974  28.575  1.00  0.00     0.167 HD
ATOM     73  C   UNL A   1      43.396  33.541  29.077  1.00  0.00     0.074 A 
ATOM     74  C   UNL A   1      44.734  33.484  28.513  1.00  0.00     0.031 C 
ATOM     75  C   UNL A   1      42.471  34.531  29.295  1.00  0.00     0.034 A 
BRANCH  62  76
ATOM     76  C   UNL A   1      36.540  33.644  30.645  1.00  0.00     0.023 A 
ATOM     77  C   UNL A   1      35.598  34.218  29.767  1.00  0.00     0.031 A 
ATOM     78  C   UNL A   1      36.188  33.659  32.007  1.00  0.00     0.131 A 
ATOM     79  C   UNL A   1      34.447  34.867  30.246  1.00  0.00     0.055 A 
ATOM     80  C   UNL A   1      35.072  34.357  32.494  1.00  0.00     0.041 A 
ATOM     81  F   UNL A   1      36.886  32.964  32.918  1.00  0.00    -0.206 F 
ATOM     82  C   UNL A   1      34.202  34.981  31.611  1.00  0.00     0.022 A 
BRANCH  79  83
ATOM     83  S   UNL A   1      33.268  35.550  29.050  1.00  0.00     0.124 S 
ATOM     84  O   UNL A   1      32.363  36.312  29.905  1.00  0.00    -0.237 OA
ATOM     85  O   UNL A   1      34.135  36.330  28.174  1.00  0.00    -0.237 OA
ATOM     86  O   UNL A   1      32.681  34.360  28.435  1.00  0.00    -0.744 OA
ENDBRANCH  79  83
ENDBRANCH  62  76
BRANCH  63  87
ATOM     87  C   UNL A   1      44.672  28.938  28.381  1.00  0.00     0.023 A 
ATOM     88  C   UNL A   1      45.424  27.876  28.934  1.00  0.00     0.031 A 
ATOM     89  C   UNL A   1      44.055  28.726  27.141  1.00  0.00     0.131 A 
ATOM     90  C   UNL A   1      45.374  26.597  28.362  1.00  0.00     0.055 A 
ATOM     91  C   UNL A   1      44.084  27.466  26.525  1.00  0.00     0.041 A 
ATOM     92  F   UNL A   1      43.303  29.683  26.579  1.00  0.00    -0.206 F 
ATOM     93  C   UNL A   1      44.699  26.383  27.160  1.00  0.00     0.022 A 
BRANCH  90  94
ATOM     94  S   UNL A   1      45.928  25.183  29.366  1.00  0.00     0.124 S 
ATOM     95  O   UNL A   1      47.349  25.468  29.536  1.00  0.00    -0.237 OA
ATOM     96  O   UNL A   1      45.108  25.294  30.572  1.00  0.00    -0.237 OA
ATOM     97  O   UNL A   1      45.612  24.022  28.539  1.00  0.00    -0.744 OA
ENDBRANCH  90  94
ENDBRANCH  63  87
BRANCH  75  98
ATOM     98  C   UNL A   1      42.533  35.991  28.853  1.00  0.00     0.023 A 
ATOM     99  C   UNL A   1      43.110  37.023  29.603  1.00  0.00     0.031 A 
ATOM    100  C   UNL A   1      42.008  36.396  27.594  1.00  0.00     0.131 A 
ATOM    101  C   UNL A   1      43.129  38.356  29.139  1.00  0.00     0.055 A 
ATOM    102  C   UNL A   1      42.064  37.710  27.114  1.00  0.00     0.041 A 
ATOM    103  F   UNL A   1      41.419  35.534  26.752  1.00  0.00    -0.206 F 
ATOM    104  C   UNL A   1      42.623  38.705  27.892  1.00  0.00     0.022 A 
BRANCH 101 105
ATOM    105  S   UNL A   1      43.803  39.634  30.232  1.00  0.00     0.124 S 
ATOM    106  O   UNL A   1      42.716  40.607  30.268  1.00  0.00    -0.237 OA
ATOM    107  O   UNL A   1      44.032  38.895  31.471  1.00  0.00    -0.237 OA
ATOM    108  O   UNL A   1      45.013  40.079  29.541  1.00  0.00    -0.744 OA
ENDBRANCH 101 105
ENDBRANCH  75  98
ENDBRANCH  49  50
ENDBRANCH  41  44
ENDBRANCH  39  40
ENDBRANCH  38  39
ENDBRANCH   1  38
TORSDOF 21
ENDMDL
