MODEL 1
REMARK VINA RESULT:     -13.9      0.000      0.000
REMARK SMILES Cc1cccc(OC2(C(=O)NCCCCNC(=O)c3ccc(-c4c5nc(c(-c6cc(S(=O)(=O)[O-])ccc6F)c6ccc([nH]6)c(-c6cc(S(=O)(=O)[O-])ccc6F)c6nc(c(-c7cc(S(=O)(=O)[O-])ccc7F)c7ccc4[nH]7)C=C6)C=C5)cc3)CCN(C(=O)c3cnc[nH]c3=O)CC2)c1
REMARK SMILES IDX 14 1 13 2 12 3 11 4 9 5 10 6 8 8 82 9 95 10 83 11 94 12
REMARK SMILES IDX 84 13 85 14 86 15 7 16 6 17 1 18 2 19 3 20 96 21 4 22 5 23
REMARK SMILES IDX 87 24 88 25 92 26 89 27 91 28 93 29 90 30 15 32 16 33 17 34
REMARK SMILES IDX 18 36 19 37 20 38 81 39 21 40 80 41 22 42 23 43 24 44 74 45
REMARK SMILES IDX 25 46 79 47 73 48 75 49 26 50 78 51 72 52 71 53 27 55 59 56
REMARK SMILES IDX 39 57 58 58 40 59 43 60 57 61 76 62 41 63 42 64 56 66 77 67
REMARK SMILES IDX 44 68 28 69 29 70 37 71 30 72 36 73 38 74 35 75 31 76 32 77
REMARK SMILES IDX 33 78 34 79 60 80 61 81 69 82 62 83 68 84 70 85 67 86 63 87
REMARK SMILES IDX 64 88 65 89 66 90 45 91 46 92 54 93 47 94 53 95 55 96 52 97
REMARK SMILES IDX 48 98 49 99 50 100 51 101
REMARK H PARENT 11 7 91 31 16 35 75 54 43 65
REMARK Flexibility Score: inf
ROOT
ATOM      1  C   UNL A   1      33.310  31.175  27.535  1.00  0.00     0.023 C 
ENDROOT
BRANCH   1   2
ATOM      2  C   UNL A   1      32.826  29.917  26.838  1.00  0.00     0.023 C 
BRANCH   2   3
ATOM      3  C   UNL A   1      33.894  28.843  26.532  1.00  0.00     0.116 C 
BRANCH   3   4
ATOM      4  N   UNL A   1      34.351  28.754  25.140  1.00  0.00    -0.353 N 
ATOM      5  C   UNL A   1      33.877  28.103  24.030  1.00  0.00     0.264 C 
ATOM      6  O   UNL A   1      34.331  28.507  22.950  1.00  0.00    -0.270 OA
ATOM      7  H   UNL A   1      35.171  29.271  24.966  1.00  0.00     0.163 HD
BRANCH   5   8
ATOM      8  C   UNL A   1      32.850  26.919  24.068  1.00  0.00     0.190 C 
ATOM      9  C   UNL A   1      32.718  26.284  22.694  1.00  0.00     0.080 C 
ATOM     10  C   UNL A   1      33.330  25.814  25.054  1.00  0.00     0.080 C 
ATOM     11  C   UNL A   1      31.812  25.083  22.646  1.00  0.00     0.124 C 
ATOM     12  C   UNL A   1      32.469  24.535  24.939  1.00  0.00     0.124 C 
ATOM     13  N   UNL A   1      32.370  24.099  23.544  1.00  0.00    -0.338 N 
ATOM     14  C   UNL A   1      32.941  22.966  22.984  1.00  0.00     0.261 C 
ATOM     15  O   UNL A   1      33.148  22.832  21.780  1.00  0.00    -0.269 OA
BRANCH   8  16
ATOM     16  O   UNL A   1      31.638  27.406  24.691  1.00  0.00    -0.477 OA
BRANCH  16  17
ATOM     17  C   UNL A   1      30.531  27.977  24.151  1.00  0.00     0.121 A 
ATOM     18  C   UNL A   1      29.259  30.786  21.925  1.00  0.00     0.044 C 
ATOM     19  C   UNL A   1      29.271  29.539  22.762  1.00  0.00    -0.047 A 
ATOM     20  C   UNL A   1      28.166  28.687  22.784  1.00  0.00     0.003 A 
ATOM     21  C   UNL A   1      30.423  29.194  23.490  1.00  0.00     0.049 A 
ATOM     22  C   UNL A   1      28.226  27.500  23.509  1.00  0.00     0.004 A 
ATOM     23  C   UNL A   1      29.406  27.146  24.171  1.00  0.00     0.046 A 
ENDBRANCH  16  17
ENDBRANCH   8  16
BRANCH  14  24
ATOM     24  C   UNL A   1      33.106  21.819  23.880  1.00  0.00     0.123 A 
ATOM     25  C   UNL A   1      32.089  21.012  24.211  1.00  0.00     0.132 A 
ATOM     26  C   UNL A   1      34.413  21.575  24.510  1.00  0.00     0.263 A 
ATOM     27  N   UNL A   1      32.201  19.931  25.062  1.00  0.00    -0.246 NA
ATOM     28  N   UNL A   1      34.442  20.535  25.393  1.00  0.00    -0.312 N 
ATOM     29  O   UNL A   1      35.424  22.228  24.271  1.00  0.00    -0.269 OA
ATOM     30  C   UNL A   1      33.349  19.755  25.622  1.00  0.00     0.199 A 
ATOM     31  H   UNL A   1      35.277  20.343  25.879  1.00  0.00     0.171 HD
ENDBRANCH  14  24
ENDBRANCH   5   8
ENDBRANCH   3   4
ENDBRANCH   2   3
ENDBRANCH   1   2
BRANCH   1  32
ATOM     32  C   UNL A   1      34.821  31.265  27.586  1.00  0.00     0.116 C 
BRANCH  32  33
ATOM     33  N   UNL A   1      35.370  31.873  28.796  1.00  0.00    -0.352 N 
ATOM     34  C   UNL A   1      36.272  31.309  29.692  1.00  0.00     0.251 C 
ATOM     35  H   UNL A   1      35.066  32.787  29.000  1.00  0.00     0.163 HD
ATOM     36  O   UNL A   1      36.615  31.862  30.718  1.00  0.00    -0.269 OA
BRANCH  34  37
ATOM     37  C   UNL A   1      36.913  30.033  29.283  1.00  0.00     0.039 A 
ATOM     38  C   UNL A   1      37.176  29.109  30.298  1.00  0.00     0.014 A 
ATOM     39  C   UNL A   1      37.567  29.960  28.058  1.00  0.00     0.014 A 
ATOM     40  C   UNL A   1      38.287  28.281  30.181  1.00  0.00     0.010 A 
ATOM     41  C   UNL A   1      38.745  29.241  28.003  1.00  0.00     0.010 A 
ATOM     42  C   UNL A   1      39.138  28.449  29.089  1.00  0.00    -0.014 A 
BRANCH  42  43
ATOM     43  C   UNL A   1      40.507  27.937  29.066  1.00  0.00     0.031 A 
ATOM     44  C   UNL A   1      40.773  26.558  28.606  1.00  0.00     0.074 A 
ATOM     45  C   UNL A   1      41.543  28.713  29.453  1.00  0.00     0.049 A 
ATOM     46  N   UNL A   1      41.789  25.851  28.970  1.00  0.00    -0.248 NA
ATOM     47  C   UNL A   1      39.862  25.840  27.725  1.00  0.00     0.031 C 
ATOM     48  C   UNL A   1      42.968  28.443  29.277  1.00  0.00     0.029 A 
ATOM     49  N   UNL A   1      41.505  29.803  30.319  1.00  0.00    -0.354 N 
ATOM     50  C   UNL A   1      41.820  24.723  28.182  1.00  0.00     0.074 A 
ATOM     51  C   UNL A   1      40.568  24.737  27.464  1.00  0.00     0.031 C 
ATOM     52  C   UNL A   1      43.661  29.150  30.183  1.00  0.00     0.029 A 
ATOM     53  C   UNL A   1      42.701  29.798  31.057  1.00  0.00     0.049 A 
ATOM     54  H   UNL A   1      40.774  30.457  30.399  1.00  0.00     0.167 HD
ATOM     55  C   UNL A   1      42.956  23.972  28.124  1.00  0.00     0.034 A 
ATOM     56  C   UNL A   1      42.692  29.715  32.419  1.00  0.00     0.034 A 
ATOM     57  C   UNL A   1      43.981  24.473  29.038  1.00  0.00     0.049 A 
ATOM     58  C   UNL A   1      43.402  28.496  32.956  1.00  0.00     0.074 A 
ATOM     59  C   UNL A   1      45.103  25.264  28.850  1.00  0.00     0.029 A 
ATOM     60  N   UNL A   1      43.773  24.407  30.411  1.00  0.00    -0.354 N 
ATOM     61  N   UNL A   1      43.728  27.460  32.233  1.00  0.00    -0.248 NA
ATOM     62  C   UNL A   1      43.779  28.339  34.357  1.00  0.00     0.031 C 
ATOM     63  C   UNL A   1      45.533  25.725  30.121  1.00  0.00     0.029 A 
ATOM     64  C   UNL A   1      44.695  25.187  31.084  1.00  0.00     0.049 A 
ATOM     65  H   UNL A   1      43.066  23.876  30.845  1.00  0.00     0.167 HD
ATOM     66  C   UNL A   1      44.303  26.503  33.032  1.00  0.00     0.074 A 
ATOM     67  C   UNL A   1      44.346  27.121  34.347  1.00  0.00     0.031 C 
ATOM     68  C   UNL A   1      44.674  25.281  32.539  1.00  0.00     0.034 A 
BRANCH  55  69
ATOM     69  C   UNL A   1      43.242  22.984  27.012  1.00  0.00     0.023 A 
ATOM     70  C   UNL A   1      42.692  21.687  27.083  1.00  0.00     0.031 A 
ATOM     71  C   UNL A   1      44.078  23.221  25.904  1.00  0.00     0.131 A 
ATOM     72  C   UNL A   1      43.064  20.678  26.174  1.00  0.00     0.055 A 
ATOM     73  C   UNL A   1      44.505  22.203  25.041  1.00  0.00     0.041 A 
ATOM     74  F   UNL A   1      44.469  24.457  25.570  1.00  0.00    -0.206 F 
ATOM     75  C   UNL A   1      44.010  20.916  25.184  1.00  0.00     0.022 A 
BRANCH  72  76
ATOM     76  S   UNL A   1      42.281  19.047  26.297  1.00  0.00     0.124 S 
ATOM     77  O   UNL A   1      42.360  18.771  27.726  1.00  0.00    -0.237 OA
ATOM     78  O   UNL A   1      40.949  19.304  25.759  1.00  0.00    -0.237 OA
ATOM     79  O   UNL A   1      43.129  18.201  25.457  1.00  0.00    -0.744 OA
ENDBRANCH  72  76
ENDBRANCH  55  69
BRANCH  56  80
ATOM     80  C   UNL A   1      41.510  30.376  33.038  1.00  0.00     0.023 A 
ATOM     81  C   UNL A   1      41.540  31.787  33.099  1.00  0.00     0.031 A 
ATOM     82  C   UNL A   1      40.270  29.737  33.155  1.00  0.00     0.131 A 
ATOM     83  C   UNL A   1      40.347  32.516  33.067  1.00  0.00     0.055 A 
ATOM     84  C   UNL A   1      39.079  30.473  33.210  1.00  0.00     0.041 A 
ATOM     85  F   UNL A   1      40.179  28.401  33.075  1.00  0.00    -0.206 F 
ATOM     86  C   UNL A   1      39.111  31.866  33.112  1.00  0.00     0.022 A 
BRANCH  83  87
ATOM     87  S   UNL A   1      40.416  34.286  32.656  1.00  0.00     0.124 S 
ATOM     88  O   UNL A   1      41.300  34.293  31.499  1.00  0.00    -0.237 OA
ATOM     89  O   UNL A   1      39.016  34.621  32.387  1.00  0.00    -0.237 OA
ATOM     90  O   UNL A   1      40.947  34.881  33.880  1.00  0.00    -0.744 OA
ENDBRANCH  83  87
ENDBRANCH  56  80
BRANCH  68  91
ATOM     91  C   UNL A   1      45.129  24.091  33.362  1.00  0.00     0.023 A 
ATOM     92  C   UNL A   1      46.416  23.970  33.910  1.00  0.00     0.031 A 
ATOM     93  C   UNL A   1      44.232  23.044  33.690  1.00  0.00     0.131 A 
ATOM     94  C   UNL A   1      46.796  22.832  34.645  1.00  0.00     0.055 A 
ATOM     95  C   UNL A   1      44.586  21.954  34.491  1.00  0.00     0.041 A 
ATOM     96  F   UNL A   1      42.964  23.037  33.252  1.00  0.00    -0.206 F 
ATOM     97  C   UNL A   1      45.883  21.832  34.960  1.00  0.00     0.022 A 
BRANCH  94  98
ATOM     98  S   UNL A   1      48.537  22.662  35.121  1.00  0.00     0.124 S 
ATOM     99  O   UNL A   1      48.462  22.765  36.576  1.00  0.00    -0.237 OA
ATOM    100  O   UNL A   1      48.877  21.343  34.597  1.00  0.00    -0.237 OA
ATOM    101  O   UNL A   1      49.191  23.785  34.452  1.00  0.00    -0.744 OA
ENDBRANCH  94  98
ENDBRANCH  68  91
ENDBRANCH  42  43
ENDBRANCH  34  37
ENDBRANCH  32  33
ENDBRANCH   1  32
TORSDOF 17
ENDMDL
MODEL 2
REMARK VINA RESULT:     -13.9      3.940     10.637
REMARK SMILES Cc1cccc(OC2(C(=O)NCCCCNC(=O)c3ccc(-c4c5nc(c(-c6cc(S(=O)(=O)[O-])ccc6F)c6ccc([nH]6)c(-c6cc(S(=O)(=O)[O-])ccc6F)c6nc(c(-c7cc(S(=O)(=O)[O-])ccc7F)c7ccc4[nH]7)C=C6)C=C5)cc3)CCN(C(=O)c3cnc[nH]c3=O)CC2)c1
REMARK SMILES IDX 14 1 13 2 12 3 11 4 9 5 10 6 8 8 82 9 95 10 83 11 94 12
REMARK SMILES IDX 84 13 85 14 86 15 7 16 6 17 1 18 2 19 3 20 96 21 4 22 5 23
REMARK SMILES IDX 87 24 88 25 92 26 89 27 91 28 93 29 90 30 15 32 16 33 17 34
REMARK SMILES IDX 18 36 19 37 20 38 81 39 21 40 80 41 22 42 23 43 24 44 74 45
REMARK SMILES IDX 25 46 79 47 73 48 75 49 26 50 78 51 72 52 71 53 27 55 59 56
REMARK SMILES IDX 39 57 58 58 40 59 43 60 57 61 76 62 41 63 42 64 56 66 77 67
REMARK SMILES IDX 44 68 28 69 29 70 37 71 30 72 36 73 38 74 35 75 31 76 32 77
REMARK SMILES IDX 33 78 34 79 60 80 61 81 69 82 62 83 68 84 70 85 67 86 63 87
REMARK SMILES IDX 64 88 65 89 66 90 45 91 46 92 54 93 47 94 53 95 55 96 52 97
REMARK SMILES IDX 48 98 49 99 50 100 51 101
REMARK H PARENT 11 7 91 31 16 35 75 54 43 65
REMARK Flexibility Score: inf
ROOT
ATOM      1  C   UNL A   1      39.037  21.399  25.897  1.00  0.00     0.023 C 
ENDROOT
BRANCH   1   2
ATOM      2  C   UNL A   1      37.756  21.418  25.083  1.00  0.00     0.023 C 
BRANCH   2   3
ATOM      3  C   UNL A   1      36.702  22.477  25.479  1.00  0.00     0.116 C 
BRANCH   3   4
ATOM      4  N   UNL A   1      35.818  22.131  26.600  1.00  0.00    -0.353 N 
ATOM      5  C   UNL A   1      34.461  21.977  26.719  1.00  0.00     0.264 C 
ATOM      6  O   UNL A   1      34.088  21.371  27.734  1.00  0.00    -0.270 OA
ATOM      7  H   UNL A   1      36.302  21.977  27.443  1.00  0.00     0.163 HD
BRANCH   5   8
ATOM      8  C   UNL A   1      33.413  22.523  25.688  1.00  0.00     0.190 C 
ATOM      9  C   UNL A   1      32.012  22.469  26.273  1.00  0.00     0.080 C 
ATOM     10  C   UNL A   1      33.720  24.008  25.336  1.00  0.00     0.080 C 
ATOM     11  C   UNL A   1      30.942  23.048  25.387  1.00  0.00     0.124 C 
ATOM     12  C   UNL A   1      32.577  24.646  24.511  1.00  0.00     0.124 C 
ATOM     13  N   UNL A   1      31.284  24.434  25.166  1.00  0.00    -0.338 N 
ATOM     14  C   UNL A   1      30.491  25.397  25.771  1.00  0.00     0.261 C 
ATOM     15  O   UNL A   1      29.628  25.141  26.608  1.00  0.00    -0.269 OA
BRANCH   8  16
ATOM     16  O   UNL A   1      33.633  21.839  24.432  1.00  0.00    -0.477 OA
BRANCH  16  17
ATOM     17  C   UNL A   1      33.565  20.520  24.117  1.00  0.00     0.121 A 
ATOM     18  C   UNL A   1      34.957  17.068  24.897  1.00  0.00     0.044 C 
ATOM     19  C   UNL A   1      34.086  18.144  24.315  1.00  0.00    -0.047 A 
ATOM     20  C   UNL A   1      32.914  17.817  23.631  1.00  0.00     0.003 A 
ATOM     21  C   UNL A   1      34.420  19.496  24.503  1.00  0.00     0.049 A 
ATOM     22  C   UNL A   1      32.084  18.832  23.164  1.00  0.00     0.004 A 
ATOM     23  C   UNL A   1      32.403  20.169  23.421  1.00  0.00     0.046 A 
ENDBRANCH  16  17
ENDBRANCH   8  16
BRANCH  14  24
ATOM     24  C   UNL A   1      30.578  26.747  25.210  1.00  0.00     0.123 A 
ATOM     25  C   UNL A   1      29.961  27.097  24.073  1.00  0.00     0.132 A 
ATOM     26  C   UNL A   1      31.434  27.749  25.865  1.00  0.00     0.263 A 
ATOM     27  N   UNL A   1      30.032  28.353  23.506  1.00  0.00    -0.246 NA
ATOM     28  N   UNL A   1      31.517  28.948  25.220  1.00  0.00    -0.312 N 
ATOM     29  O   UNL A   1      32.031  27.558  26.920  1.00  0.00    -0.269 OA
ATOM     30  C   UNL A   1      30.809  29.204  24.084  1.00  0.00     0.199 A 
ATOM     31  H   UNL A   1      32.105  29.649  25.585  1.00  0.00     0.171 HD
ENDBRANCH  14  24
ENDBRANCH   5   8
ENDBRANCH   3   4
ENDBRANCH   2   3
ENDBRANCH   1   2
BRANCH   1  32
ATOM     32  C   UNL A   1      39.391  22.762  26.452  1.00  0.00     0.116 C 
BRANCH  32  33
ATOM     33  N   UNL A   1      40.820  23.067  26.494  1.00  0.00    -0.352 N 
ATOM     34  C   UNL A   1      41.415  24.319  26.614  1.00  0.00     0.251 C 
ATOM     35  H   UNL A   1      41.432  22.298  26.430  1.00  0.00     0.163 HD
ATOM     36  O   UNL A   1      42.618  24.485  26.562  1.00  0.00    -0.269 OA
BRANCH  34  37
ATOM     37  C   UNL A   1      40.519  25.457  26.941  1.00  0.00     0.039 A 
ATOM     38  C   UNL A   1      40.749  26.654  26.256  1.00  0.00     0.014 A 
ATOM     39  C   UNL A   1      39.796  25.437  28.129  1.00  0.00     0.014 A 
ATOM     40  C   UNL A   1      40.486  27.858  26.901  1.00  0.00     0.010 A 
ATOM     41  C   UNL A   1      39.667  26.625  28.821  1.00  0.00     0.010 A 
ATOM     42  C   UNL A   1      40.069  27.831  28.231  1.00  0.00    -0.014 A 
BRANCH  42  43
ATOM     43  C   UNL A   1      40.152  28.996  29.110  1.00  0.00     0.031 A 
ATOM     44  C   UNL A   1      39.071  30.003  29.104  1.00  0.00     0.074 A 
ATOM     45  C   UNL A   1      41.204  29.162  29.942  1.00  0.00     0.049 A 
ATOM     46  N   UNL A   1      39.226  31.241  29.435  1.00  0.00    -0.248 NA
ATOM     47  C   UNL A   1      37.717  29.695  28.663  1.00  0.00     0.031 C 
ATOM     48  C   UNL A   1      41.329  30.129  31.031  1.00  0.00     0.029 A 
ATOM     49  N   UNL A   1      42.486  28.640  29.797  1.00  0.00    -0.354 N 
ATOM     50  C   UNL A   1      37.979  31.814  29.518  1.00  0.00     0.074 A 
ATOM     51  C   UNL A   1      37.079  30.826  28.973  1.00  0.00     0.031 C 
ATOM     52  C   UNL A   1      42.631  30.328  31.288  1.00  0.00     0.029 A 
ATOM     53  C   UNL A   1      43.390  29.596  30.291  1.00  0.00     0.049 A 
ATOM     54  H   UNL A   1      42.718  27.762  29.418  1.00  0.00     0.167 HD
ATOM     55  C   UNL A   1      37.825  33.007  30.159  1.00  0.00     0.034 A 
ATOM     56  C   UNL A   1      44.365  30.127  29.496  1.00  0.00     0.034 A 
ATOM     57  C   UNL A   1      39.109  33.554  30.597  1.00  0.00     0.049 A 
ATOM     58  C   UNL A   1      44.259  31.623  29.326  1.00  0.00     0.074 A 
ATOM     59  C   UNL A   1      39.762  33.559  31.819  1.00  0.00     0.029 A 
ATOM     60  N   UNL A   1      40.044  33.959  29.650  1.00  0.00    -0.354 N 
ATOM     61  N   UNL A   1      43.201  32.322  29.628  1.00  0.00    -0.248 NA
ATOM     62  C   UNL A   1      45.334  32.445  28.778  1.00  0.00     0.031 C 
ATOM     63  C   UNL A   1      41.117  33.913  31.591  1.00  0.00     0.029 A 
ATOM     64  C   UNL A   1      41.280  34.155  30.237  1.00  0.00     0.049 A 
ATOM     65  H   UNL A   1      39.851  34.088  28.693  1.00  0.00     0.167 HD
ATOM     66  C   UNL A   1      43.408  33.638  29.296  1.00  0.00     0.074 A 
ATOM     67  C   UNL A   1      44.775  33.667  28.803  1.00  0.00     0.031 C 
ATOM     68  C   UNL A   1      42.426  34.581  29.441  1.00  0.00     0.034 A 
BRANCH  55  69
ATOM     69  C   UNL A   1      36.490  33.513  30.664  1.00  0.00     0.023 A 
ATOM     70  C   UNL A   1      35.599  34.129  29.760  1.00  0.00     0.031 A 
ATOM     71  C   UNL A   1      36.057  33.479  32.004  1.00  0.00     0.131 A 
ATOM     72  C   UNL A   1      34.427  34.771  30.204  1.00  0.00     0.055 A 
ATOM     73  C   UNL A   1      34.930  34.177  32.458  1.00  0.00     0.041 A 
ATOM     74  F   UNL A   1      36.669  32.720  32.921  1.00  0.00    -0.206 F 
ATOM     75  C   UNL A   1      34.114  34.843  31.557  1.00  0.00     0.022 A 
BRANCH  72  76
ATOM     76  S   UNL A   1      33.305  35.501  28.980  1.00  0.00     0.124 S 
ATOM     77  O   UNL A   1      32.746  34.324  28.328  1.00  0.00    -0.237 OA
ATOM     78  O   UNL A   1      32.393  36.271  29.820  1.00  0.00    -0.237 OA
ATOM     79  O   UNL A   1      34.195  36.306  28.144  1.00  0.00    -0.744 OA
ENDBRANCH  72  76
ENDBRANCH  55  69
BRANCH  56  80
ATOM     80  C   UNL A   1      44.874  29.168  28.477  1.00  0.00     0.023 A 
ATOM     81  C   UNL A   1      45.761  28.172  28.940  1.00  0.00     0.031 A 
ATOM     82  C   UNL A   1      44.221  28.955  27.257  1.00  0.00     0.131 A 
ATOM     83  C   UNL A   1      45.818  26.930  28.299  1.00  0.00     0.055 A 
ATOM     84  C   UNL A   1      44.348  27.740  26.571  1.00  0.00     0.041 A 
ATOM     85  F   UNL A   1      43.346  29.855  26.784  1.00  0.00    -0.206 F 
ATOM     86  C   UNL A   1      45.106  26.702  27.118  1.00  0.00     0.022 A 
BRANCH  83  87
ATOM     87  S   UNL A   1      46.574  25.528  29.176  1.00  0.00     0.124 S 
ATOM     88  O   UNL A   1      45.450  25.011  29.945  1.00  0.00    -0.237 OA
ATOM     89  O   UNL A   1      47.046  24.669  28.088  1.00  0.00    -0.237 OA
ATOM     90  O   UNL A   1      47.643  26.164  29.940  1.00  0.00    -0.744 OA
ENDBRANCH  83  87
ENDBRANCH  56  80
BRANCH  68  91
ATOM     91  C   UNL A   1      42.479  36.007  28.927  1.00  0.00     0.023 A 
ATOM     92  C   UNL A   1      43.159  37.045  29.582  1.00  0.00     0.031 A 
ATOM     93  C   UNL A   1      41.888  36.359  27.688  1.00  0.00     0.131 A 
ATOM     94  C   UNL A   1      43.157  38.358  29.076  1.00  0.00     0.055 A 
ATOM     95  C   UNL A   1      41.957  37.645  27.144  1.00  0.00     0.041 A 
ATOM     96  F   UNL A   1      41.222  35.463  26.943  1.00  0.00    -0.206 F 
ATOM     97  C   UNL A   1      42.579  38.662  27.847  1.00  0.00     0.022 A 
BRANCH  94  98
ATOM     98  S   UNL A   1      43.869  39.673  30.100  1.00  0.00     0.124 S 
ATOM     99  O   UNL A   1      43.704  39.130  31.445  1.00  0.00    -0.237 OA
ATOM    100  O   UNL A   1      45.242  39.744  29.609  1.00  0.00    -0.237 OA
ATOM    101  O   UNL A   1      43.039  40.837  29.795  1.00  0.00    -0.744 OA
ENDBRANCH  94  98
ENDBRANCH  68  91
ENDBRANCH  42  43
ENDBRANCH  34  37
ENDBRANCH  32  33
ENDBRANCH   1  32
TORSDOF 17
ENDMDL
MODEL 3
REMARK VINA RESULT:     -13.5      1.781      4.279
REMARK SMILES Cc1cccc(OC2(C(=O)NCCCCNC(=O)c3ccc(-c4c5nc(c(-c6cc(S(=O)(=O)[O-])ccc6F)c6ccc([nH]6)c(-c6cc(S(=O)(=O)[O-])ccc6F)c6nc(c(-c7cc(S(=O)(=O)[O-])ccc7F)c7ccc4[nH]7)C=C6)C=C5)cc3)CCN(C(=O)c3cnc[nH]c3=O)CC2)c1
REMARK SMILES IDX 14 1 13 2 12 3 11 4 9 5 10 6 8 8 82 9 95 10 83 11 94 12
REMARK SMILES IDX 84 13 85 14 86 15 7 16 6 17 1 18 2 19 3 20 96 21 4 22 5 23
REMARK SMILES IDX 87 24 88 25 92 26 89 27 91 28 93 29 90 30 15 32 16 33 17 34
REMARK SMILES IDX 18 36 19 37 20 38 81 39 21 40 80 41 22 42 23 43 24 44 74 45
REMARK SMILES IDX 25 46 79 47 73 48 75 49 26 50 78 51 72 52 71 53 27 55 59 56
REMARK SMILES IDX 39 57 58 58 40 59 43 60 57 61 76 62 41 63 42 64 56 66 77 67
REMARK SMILES IDX 44 68 28 69 29 70 37 71 30 72 36 73 38 74 35 75 31 76 32 77
REMARK SMILES IDX 33 78 34 79 60 80 61 81 69 82 62 83 68 84 70 85 67 86 63 87
REMARK SMILES IDX 64 88 65 89 66 90 45 91 46 92 54 93 47 94 53 95 55 96 52 97
REMARK SMILES IDX 48 98 49 99 50 100 51 101
REMARK H PARENT 11 7 91 31 16 35 75 54 43 65
REMARK Flexibility Score: inf
ROOT
ATOM      1  C   UNL A   1      34.466  31.430  27.683  1.00  0.00     0.023 C 
ENDROOT
BRANCH   1   2
ATOM      2  C   UNL A   1      34.571  29.922  27.558  1.00  0.00     0.023 C 
BRANCH   2   3
ATOM      3  C   UNL A   1      33.706  29.258  26.463  1.00  0.00     0.116 C 
BRANCH   3   4
ATOM      4  N   UNL A   1      32.737  28.252  26.917  1.00  0.00    -0.353 N 
ATOM      5  C   UNL A   1      31.890  27.395  26.264  1.00  0.00     0.264 C 
ATOM      6  O   UNL A   1      31.450  26.463  26.953  1.00  0.00    -0.270 OA
ATOM      7  H   UNL A   1      32.687  28.175  27.897  1.00  0.00     0.163 HD
BRANCH   5   8
ATOM      8  C   UNL A   1      31.460  27.546  24.763  1.00  0.00     0.190 C 
ATOM      9  C   UNL A   1      30.098  26.914  24.533  1.00  0.00     0.080 C 
ATOM     10  C   UNL A   1      31.354  29.050  24.377  1.00  0.00     0.080 C 
ATOM     11  C   UNL A   1      29.561  27.079  23.136  1.00  0.00     0.124 C 
ATOM     12  C   UNL A   1      30.708  29.236  22.984  1.00  0.00     0.124 C 
ATOM     13  N   UNL A   1      29.446  28.498  22.894  1.00  0.00    -0.338 N 
ATOM     14  C   UNL A   1      28.170  29.038  22.825  1.00  0.00     0.261 C 
ATOM     15  O   UNL A   1      27.151  28.417  23.120  1.00  0.00    -0.269 OA
BRANCH   8  16
ATOM     16  O   UNL A   1      32.556  27.076  23.942  1.00  0.00    -0.477 OA
BRANCH  16  17
ATOM     17  C   UNL A   1      33.217  25.891  23.940  1.00  0.00     0.121 A 
ATOM     18  C   UNL A   1      35.529  23.624  25.936  1.00  0.00     0.044 C 
ATOM     19  C   UNL A   1      34.602  24.101  24.855  1.00  0.00    -0.047 A 
ATOM     20  C   UNL A   1      34.100  23.210  23.905  1.00  0.00     0.003 A 
ATOM     21  C   UNL A   1      34.190  25.444  24.826  1.00  0.00     0.049 A 
ATOM     22  C   UNL A   1      33.185  23.657  22.957  1.00  0.00     0.004 A 
ATOM     23  C   UNL A   1      32.739  24.983  22.989  1.00  0.00     0.046 A 
ENDBRANCH  16  17
ENDBRANCH   8  16
BRANCH  14  24
ATOM     24  C   UNL A   1      28.060  30.344  22.173  1.00  0.00     0.123 A 
ATOM     25  C   UNL A   1      27.857  30.478  20.855  1.00  0.00     0.132 A 
ATOM     26  C   UNL A   1      28.252  31.568  22.967  1.00  0.00     0.263 A 
ATOM     27  N   UNL A   1      27.762  31.690  20.203  1.00  0.00    -0.246 NA
ATOM     28  N   UNL A   1      28.214  32.731  22.254  1.00  0.00    -0.312 N 
ATOM     29  O   UNL A   1      28.420  31.579  24.182  1.00  0.00    -0.269 OA
ATOM     30  C   UNL A   1      27.961  32.745  20.916  1.00  0.00     0.199 A 
ATOM     31  H   UNL A   1      28.375  33.583  22.720  1.00  0.00     0.171 HD
ENDBRANCH  14  24
ENDBRANCH   5   8
ENDBRANCH   3   4
ENDBRANCH   2   3
ENDBRANCH   1   2
BRANCH   1  32
ATOM     32  C   UNL A   1      35.792  32.077  28.025  1.00  0.00     0.116 C 
BRANCH  32  33
ATOM     33  N   UNL A   1      36.060  32.235  29.452  1.00  0.00    -0.352 N 
ATOM     34  C   UNL A   1      36.667  31.318  30.306  1.00  0.00     0.251 C 
ATOM     35  H   UNL A   1      35.780  33.088  29.857  1.00  0.00     0.163 HD
ATOM     36  O   UNL A   1      36.779  31.506  31.502  1.00  0.00    -0.269 OA
BRANCH  34  37
ATOM     37  C   UNL A   1      37.299  30.133  29.674  1.00  0.00     0.039 A 
ATOM     38  C   UNL A   1      37.439  28.995  30.475  1.00  0.00     0.014 A 
ATOM     39  C   UNL A   1      38.059  30.297  28.521  1.00  0.00     0.014 A 
ATOM     40  C   UNL A   1      38.528  28.156  30.265  1.00  0.00     0.010 A 
ATOM     41  C   UNL A   1      39.212  29.547  28.401  1.00  0.00     0.010 A 
ATOM     42  C   UNL A   1      39.479  28.515  29.310  1.00  0.00    -0.014 A 
BRANCH  42  43
ATOM     43  C   UNL A   1      40.827  27.950  29.283  1.00  0.00     0.031 A 
ATOM     44  C   UNL A   1      41.042  26.575  28.786  1.00  0.00     0.074 A 
ATOM     45  C   UNL A   1      41.890  28.674  29.700  1.00  0.00     0.049 A 
ATOM     46  N   UNL A   1      42.026  25.818  29.137  1.00  0.00    -0.248 NA
ATOM     47  C   UNL A   1      40.111  25.919  27.878  1.00  0.00     0.031 C 
ATOM     48  C   UNL A   1      43.304  28.352  29.527  1.00  0.00     0.029 A 
ATOM     49  N   UNL A   1      41.887  29.739  30.595  1.00  0.00    -0.354 N 
ATOM     50  C   UNL A   1      42.019  24.713  28.319  1.00  0.00     0.074 A 
ATOM     51  C   UNL A   1      40.775  24.796  27.592  1.00  0.00     0.031 C 
ATOM     52  C   UNL A   1      44.016  29.005  30.458  1.00  0.00     0.029 A 
ATOM     53  C   UNL A   1      43.075  29.667  31.343  1.00  0.00     0.049 A 
ATOM     54  H   UNL A   1      41.182  30.420  30.689  1.00  0.00     0.167 HD
ATOM     55  C   UNL A   1      43.125  23.918  28.248  1.00  0.00     0.034 A 
ATOM     56  C   UNL A   1      43.051  29.546  32.702  1.00  0.00     0.034 A 
ATOM     57  C   UNL A   1      44.161  24.352  29.183  1.00  0.00     0.049 A 
ATOM     58  C   UNL A   1      43.708  28.284  33.209  1.00  0.00     0.074 A 
ATOM     59  C   UNL A   1      45.316  25.104  29.027  1.00  0.00     0.029 A 
ATOM     60  N   UNL A   1      43.938  24.257  30.553  1.00  0.00    -0.354 N 
ATOM     61  N   UNL A   1      43.999  27.257  32.460  1.00  0.00    -0.248 NA
ATOM     62  C   UNL A   1      44.066  28.074  34.608  1.00  0.00     0.031 C 
ATOM     63  C   UNL A   1      45.752  25.511  30.314  1.00  0.00     0.029 A 
ATOM     64  C   UNL A   1      44.884  24.981  31.254  1.00  0.00     0.049 A 
ATOM     65  H   UNL A   1      43.207  23.743  30.966  1.00  0.00     0.167 HD
ATOM     66  C   UNL A   1      44.528  26.256  33.236  1.00  0.00     0.074 A 
ATOM     67  C   UNL A   1      44.584  26.835  34.568  1.00  0.00     0.031 C 
ATOM     68  C   UNL A   1      44.855  25.035  32.711  1.00  0.00     0.034 A 
BRANCH  55  69
ATOM     69  C   UNL A   1      43.381  22.952  27.111  1.00  0.00     0.023 A 
ATOM     70  C   UNL A   1      42.800  21.667  27.153  1.00  0.00     0.031 A 
ATOM     71  C   UNL A   1      44.217  23.195  26.004  1.00  0.00     0.131 A 
ATOM     72  C   UNL A   1      43.144  20.672  26.218  1.00  0.00     0.055 A 
ATOM     73  C   UNL A   1      44.615  22.189  25.114  1.00  0.00     0.041 A 
ATOM     74  F   UNL A   1      44.636  24.430  25.698  1.00  0.00    -0.206 F 
ATOM     75  C   UNL A   1      44.090  20.911  25.229  1.00  0.00     0.022 A 
BRANCH  72  76
ATOM     76  S   UNL A   1      42.322  19.057  26.306  1.00  0.00     0.124 S 
ATOM     77  O   UNL A   1      42.418  18.735  27.725  1.00  0.00    -0.237 OA
ATOM     78  O   UNL A   1      40.988  19.363  25.801  1.00  0.00    -0.237 OA
ATOM     79  O   UNL A   1      43.134  18.217  25.427  1.00  0.00    -0.744 OA
ENDBRANCH  72  76
ENDBRANCH  55  69
BRANCH  56  80
ATOM     80  C   UNL A   1      41.891  30.236  33.330  1.00  0.00     0.023 A 
ATOM     81  C   UNL A   1      41.991  31.638  33.461  1.00  0.00     0.031 A 
ATOM     82  C   UNL A   1      40.618  29.657  33.391  1.00  0.00     0.131 A 
ATOM     83  C   UNL A   1      40.837  32.429  33.443  1.00  0.00     0.055 A 
ATOM     84  C   UNL A   1      39.465  30.449  33.460  1.00  0.00     0.041 A 
ATOM     85  F   UNL A   1      40.462  28.333  33.243  1.00  0.00    -0.206 F 
ATOM     86  C   UNL A   1      39.569  31.842  33.432  1.00  0.00     0.022 A 
BRANCH  83  87
ATOM     87  S   UNL A   1      41.004  34.211  33.122  1.00  0.00     0.124 S 
ATOM     88  O   UNL A   1      39.623  34.605  32.880  1.00  0.00    -0.237 OA
ATOM     89  O   UNL A   1      41.600  34.719  34.358  1.00  0.00    -0.237 OA
ATOM     90  O   UNL A   1      41.899  34.248  31.968  1.00  0.00    -0.744 OA
ENDBRANCH  83  87
ENDBRANCH  56  80
BRANCH  68  91
ATOM     91  C   UNL A   1      45.255  23.805  33.504  1.00  0.00     0.023 A 
ATOM     92  C   UNL A   1      46.549  23.588  34.002  1.00  0.00     0.031 A 
ATOM     93  C   UNL A   1      44.299  22.818  33.853  1.00  0.00     0.131 A 
ATOM     94  C   UNL A   1      46.875  22.417  34.711  1.00  0.00     0.055 A 
ATOM     95  C   UNL A   1      44.605  21.696  34.629  1.00  0.00     0.041 A 
ATOM     96  F   UNL A   1      43.019  22.905  33.462  1.00  0.00    -0.206 F 
ATOM     97  C   UNL A   1      45.906  21.478  35.048  1.00  0.00     0.022 A 
BRANCH  94  98
ATOM     98  S   UNL A   1      48.616  22.119  35.120  1.00  0.00     0.124 S 
ATOM     99  O   UNL A   1      48.910  20.925  34.333  1.00  0.00    -0.237 OA
ATOM    100  O   UNL A   1      49.259  23.349  34.669  1.00  0.00    -0.237 OA
ATOM    101  O   UNL A   1      48.602  21.920  36.568  1.00  0.00    -0.744 OA
ENDBRANCH  94  98
ENDBRANCH  68  91
ENDBRANCH  42  43
ENDBRANCH  34  37
ENDBRANCH  32  33
ENDBRANCH   1  32
TORSDOF 17
ENDMDL
