MODEL 1
REMARK VINA RESULT:     -12.3      0.000      0.000
REMARK SMILES COC(=O)c1c(NC(=O)[C@@H]2[C@H]3CC[C@H](CC3)[C@H]2C(=O)NCCCCNC(=O)c2ccc(-c3c4nc(c(-c5cc(S(=O)(=O)[O-])ccc5F)c5ccc([nH]5)c(-c5cc(S(=O)(=O)[O-])ccc5F)c5nc(c(-c6cc(S(=O)(=O)[O-])ccc6F)c6ccc3[nH]6)C=C5)C=C4)cc2)sc(C)c1-c1ccc(C)cc1
REMARK SMILES IDX 22 1 21 2 20 3 18 4 19 5 17 7 10 8 11 9 16 10 12 11 14 12
REMARK SMILES IDX 15 13 13 14 8 15 7 16 9 18 6 19 5 20 94 21 91 22 92 23 93 24
REMARK SMILES IDX 3 25 4 26 2 27 1 28 95 29 96 30 101 31 97 32 100 33 98 34
REMARK SMILES IDX 99 35 23 36 24 37 25 38 26 39 27 41 28 42 29 43 90 44 30 45
REMARK SMILES IDX 89 46 31 47 32 48 33 49 83 50 34 51 88 52 82 53 84 54 35 55
REMARK SMILES IDX 87 56 81 57 80 58 36 60 68 61 48 62 67 63 49 64 52 65 66 66
REMARK SMILES IDX 85 67 50 68 51 69 65 71 86 72 53 73 37 74 38 75 46 76 39 77
REMARK SMILES IDX 45 78 47 79 44 80 40 81 41 82 42 83 43 84 69 85 70 86 78 87
REMARK SMILES IDX 71 88 77 89 79 90 76 91 72 92 73 93 74 94 75 95 54 96 55 97
REMARK SMILES IDX 63 98 56 99 62 100 64 101 61 102 57 103 58 104 59 105 60 106
REMARK H PARENT 20 6 7 17 25 40 84 59 52 70
REMARK Flexibility Score: inf
ROOT
ATOM      1  C   UNL A   1      37.946  22.359  25.935  1.00  0.00     0.023 C 
ENDROOT
BRANCH   1   2
ATOM      2  C   UNL A   1      36.966  22.011  24.826  1.00  0.00     0.116 C 
BRANCH   2   3
ATOM      3  N   UNL A   1      36.352  20.710  24.886  1.00  0.00    -0.356 N 
ATOM      4  C   UNL A   1      35.038  20.356  24.908  1.00  0.00     0.224 C 
ATOM      5  O   UNL A   1      34.783  19.188  24.580  1.00  0.00    -0.275 OA
ATOM      6  H   UNL A   1      36.984  19.955  24.915  1.00  0.00     0.163 HD
BRANCH   4   7
ATOM      7  C   UNL A   1      33.865  21.288  25.288  1.00  0.00     0.094 C 
ATOM      8  C   UNL A   1      33.883  22.781  24.861  1.00  0.00     0.094 C 
ATOM      9  C   UNL A   1      32.527  23.062  24.075  1.00  0.00     0.002 C 
ATOM     10  C   UNL A   1      32.281  22.097  22.889  1.00  0.00     0.005 C 
ATOM     11  C   UNL A   1      31.318  22.813  25.011  1.00  0.00     0.005 C 
ATOM     12  C   UNL A   1      32.525  20.605  24.897  1.00  0.00     0.002 C 
ATOM     13  C   UNL A   1      32.315  20.643  23.375  1.00  0.00     0.005 C 
ATOM     14  C   UNL A   1      31.373  21.383  25.559  1.00  0.00     0.005 C 
BRANCH   8  15
ATOM     15  C   UNL A   1      34.002  23.824  26.018  1.00  0.00     0.229 C 
ATOM     16  N   UNL A   1      33.839  25.172  25.930  1.00  0.00    -0.317 N 
ATOM     17  H   UNL A   1      34.194  25.652  26.713  1.00  0.00     0.170 HD
ATOM     18  O   UNL A   1      34.258  23.425  27.167  1.00  0.00    -0.274 OA
BRANCH  16  19
ATOM     19  C   UNL A   1      33.290  26.018  24.991  1.00  0.00     0.111 A 
ATOM     20  C   UNL A   1      32.044  26.640  25.015  1.00  0.00     0.102 A 
ATOM     21  C   UNL A   1      31.953  27.627  23.945  1.00  0.00     0.012 A 
ATOM     22  S   UNL A   1      33.991  26.185  23.468  1.00  0.00    -0.122 S 
ATOM     23  C   UNL A   1      33.091  27.602  23.149  1.00  0.00     0.012 A 
ATOM     24  C   UNL A   1      33.588  28.557  22.111  1.00  0.00     0.057 C 
BRANCH  20  25
ATOM     25  C   UNL A   1      31.033  26.348  26.028  1.00  0.00     0.341 C 
ATOM     26  O   UNL A   1      29.900  25.951  25.753  1.00  0.00    -0.246 OA
BRANCH  25  27
ATOM     27  O   UNL A   1      31.457  26.623  27.291  1.00  0.00    -0.465 OA
ATOM     28  C   UNL A   1      31.462  27.999  27.663  1.00  0.00     0.282 C 
ENDBRANCH  25  27
ENDBRANCH  20  25
BRANCH  21  29
ATOM     29  C   UNL A   1      30.876  28.587  23.699  1.00  0.00    -0.016 A 
ATOM     30  C   UNL A   1      29.904  28.358  22.717  1.00  0.00     0.009 A 
ATOM     31  C   UNL A   1      30.842  29.787  24.421  1.00  0.00     0.009 A 
ATOM     32  C   UNL A   1      28.934  29.330  22.445  1.00  0.00     0.004 A 
ATOM     33  C   UNL A   1      29.859  30.744  24.167  1.00  0.00     0.004 A 
ATOM     34  C   UNL A   1      28.904  30.529  23.169  1.00  0.00    -0.051 A 
ATOM     35  C   UNL A   1      27.891  31.587  22.846  1.00  0.00     0.044 C 
ENDBRANCH  21  29
ENDBRANCH  16  19
ENDBRANCH   8  15
ENDBRANCH   4   7
ENDBRANCH   2   3
ENDBRANCH   1   2
BRANCH   1  36
ATOM     36  C   UNL A   1      39.370  21.854  25.756  1.00  0.00     0.023 C 
BRANCH  36  37
ATOM     37  C   UNL A   1      39.840  20.824  26.773  1.00  0.00     0.116 C 
BRANCH  37  38
ATOM     38  N   UNL A   1      40.713  19.790  26.227  1.00  0.00    -0.352 N 
ATOM     39  C   UNL A   1      42.065  19.857  25.978  1.00  0.00     0.251 C 
ATOM     40  H   UNL A   1      40.278  18.935  26.007  1.00  0.00     0.163 HD
ATOM     41  O   UNL A   1      42.657  18.899  25.491  1.00  0.00    -0.269 OA
BRANCH  39  42
ATOM     42  C   UNL A   1      42.766  21.128  26.243  1.00  0.00     0.039 A 
ATOM     43  C   UNL A   1      42.994  22.003  25.181  1.00  0.00     0.014 A 
ATOM     44  C   UNL A   1      43.064  21.505  27.555  1.00  0.00     0.014 A 
ATOM     45  C   UNL A   1      43.426  23.302  25.447  1.00  0.00     0.010 A 
ATOM     46  C   UNL A   1      43.393  22.827  27.823  1.00  0.00     0.010 A 
ATOM     47  C   UNL A   1      43.572  23.742  26.773  1.00  0.00    -0.014 A 
BRANCH  47  48
ATOM     48  C   UNL A   1      43.910  25.154  27.087  1.00  0.00     0.031 A 
ATOM     49  C   UNL A   1      45.313  25.651  26.870  1.00  0.00     0.074 A 
ATOM     50  C   UNL A   1      42.983  25.963  27.639  1.00  0.00     0.049 A 
ATOM     51  N   UNL A   1      45.833  26.818  27.150  1.00  0.00    -0.248 NA
ATOM     52  C   UNL A   1      46.266  24.689  26.301  1.00  0.00     0.031 C 
ATOM     53  C   UNL A   1      41.600  25.583  27.943  1.00  0.00     0.029 A 
ATOM     54  N   UNL A   1      43.060  27.272  28.042  1.00  0.00    -0.354 N 
ATOM     55  C   UNL A   1      47.177  26.723  26.808  1.00  0.00     0.074 A 
ATOM     56  C   UNL A   1      47.404  25.358  26.385  1.00  0.00     0.031 C 
ATOM     57  C   UNL A   1      40.950  26.648  28.438  1.00  0.00     0.029 A 
ATOM     58  C   UNL A   1      41.878  27.771  28.536  1.00  0.00     0.049 A 
ATOM     59  H   UNL A   1      43.886  27.804  27.982  1.00  0.00     0.167 HD
ATOM     60  C   UNL A   1      48.127  27.691  26.814  1.00  0.00     0.034 A 
ATOM     61  C   UNL A   1      41.576  28.995  29.012  1.00  0.00     0.034 A 
ATOM     62  C   UNL A   1      47.878  29.050  27.229  1.00  0.00     0.049 A 
ATOM     63  C   UNL A   1      42.656  30.047  29.050  1.00  0.00     0.074 A 
ATOM     64  C   UNL A   1      48.742  30.130  27.217  1.00  0.00     0.029 A 
ATOM     65  N   UNL A   1      46.672  29.514  27.744  1.00  0.00    -0.354 N 
ATOM     66  N   UNL A   1      43.908  29.961  28.667  1.00  0.00    -0.248 NA
ATOM     67  C   UNL A   1      42.276  31.361  29.581  1.00  0.00     0.031 C 
ATOM     68  C   UNL A   1      48.085  31.223  27.793  1.00  0.00     0.029 A 
ATOM     69  C   UNL A   1      46.784  30.853  28.090  1.00  0.00     0.049 A 
ATOM     70  H   UNL A   1      45.858  28.971  27.848  1.00  0.00     0.167 HD
ATOM     71  C   UNL A   1      44.456  31.224  28.877  1.00  0.00     0.074 A 
ATOM     72  C   UNL A   1      43.394  32.051  29.413  1.00  0.00     0.031 C 
ATOM     73  C   UNL A   1      45.720  31.662  28.640  1.00  0.00     0.034 A 
BRANCH  60  74
ATOM     74  C   UNL A   1      49.521  27.288  26.386  1.00  0.00     0.023 A 
ATOM     75  C   UNL A   1      50.510  26.946  27.326  1.00  0.00     0.031 A 
ATOM     76  C   UNL A   1      49.891  27.322  25.030  1.00  0.00     0.131 A 
ATOM     77  C   UNL A   1      51.838  26.767  26.914  1.00  0.00     0.055 A 
ATOM     78  C   UNL A   1      51.195  27.040  24.616  1.00  0.00     0.041 A 
ATOM     79  F   UNL A   1      49.001  27.660  24.085  1.00  0.00    -0.206 F 
ATOM     80  C   UNL A   1      52.184  26.785  25.562  1.00  0.00     0.022 A 
BRANCH  77  81
ATOM     81  S   UNL A   1      53.135  26.717  28.185  1.00  0.00     0.124 S 
ATOM     82  O   UNL A   1      53.590  28.106  28.193  1.00  0.00    -0.237 OA
ATOM     83  O   UNL A   1      52.401  26.277  29.365  1.00  0.00    -0.237 OA
ATOM     84  O   UNL A   1      54.099  25.758  27.653  1.00  0.00    -0.744 OA
ENDBRANCH  77  81
ENDBRANCH  60  74
BRANCH  61  85
ATOM     85  C   UNL A   1      40.194  29.307  29.475  1.00  0.00     0.023 A 
ATOM     86  C   UNL A   1      39.889  29.338  30.845  1.00  0.00     0.031 A 
ATOM     87  C   UNL A   1      39.153  29.549  28.561  1.00  0.00     0.131 A 
ATOM     88  C   UNL A   1      38.570  29.568  31.264  1.00  0.00     0.055 A 
ATOM     89  C   UNL A   1      37.851  29.825  28.985  1.00  0.00     0.041 A 
ATOM     90  F   UNL A   1      39.391  29.537  27.241  1.00  0.00    -0.206 F 
ATOM     91  C   UNL A   1      37.551  29.824  30.343  1.00  0.00     0.022 A 
BRANCH  88  92
ATOM     92  S   UNL A   1      38.189  29.460  33.034  1.00  0.00     0.124 S 
ATOM     93  O   UNL A   1      37.498  30.723  33.267  1.00  0.00    -0.237 OA
ATOM     94  O   UNL A   1      37.366  28.256  33.095  1.00  0.00    -0.237 OA
ATOM     95  O   UNL A   1      39.505  29.343  33.659  1.00  0.00    -0.744 OA
ENDBRANCH  88  92
ENDBRANCH  61  85
BRANCH  73  96
ATOM     96  C   UNL A   1      46.003  33.119  28.918  1.00  0.00     0.023 A 
ATOM     97  C   UNL A   1      45.749  34.119  27.965  1.00  0.00     0.031 A 
ATOM     98  C   UNL A   1      46.547  33.508  30.155  1.00  0.00     0.131 A 
ATOM     99  C   UNL A   1      46.091  35.451  28.241  1.00  0.00     0.055 A 
ATOM    100  C   UNL A   1      46.828  34.842  30.449  1.00  0.00     0.041 A 
ATOM    101  F   UNL A   1      46.814  32.594  31.102  1.00  0.00    -0.206 F 
ATOM    102  C   UNL A   1      46.612  35.822  29.483  1.00  0.00     0.022 A 
BRANCH  99 103
ATOM    103  S   UNL A   1      45.938  36.684  26.919  1.00  0.00     0.124 S 
ATOM    104  O   UNL A   1      46.414  35.942  25.756  1.00  0.00    -0.237 OA
ATOM    105  O   UNL A   1      44.511  36.989  26.939  1.00  0.00    -0.237 OA
ATOM    106  O   UNL A   1      46.810  37.772  27.360  1.00  0.00    -0.744 OA
ENDBRANCH  99 103
ENDBRANCH  73  96
ENDBRANCH  47  48
ENDBRANCH  39  42
ENDBRANCH  37  38
ENDBRANCH  36  37
ENDBRANCH   1  36
TORSDOF 19
ENDMDL
MODEL 2
REMARK VINA RESULT:     -12.2      1.963      2.327
REMARK SMILES COC(=O)c1c(NC(=O)[C@@H]2[C@H]3CC[C@H](CC3)[C@H]2C(=O)NCCCCNC(=O)c2ccc(-c3c4nc(c(-c5cc(S(=O)(=O)[O-])ccc5F)c5ccc([nH]5)c(-c5cc(S(=O)(=O)[O-])ccc5F)c5nc(c(-c6cc(S(=O)(=O)[O-])ccc6F)c6ccc3[nH]6)C=C5)C=C4)cc2)sc(C)c1-c1ccc(C)cc1
REMARK SMILES IDX 22 1 21 2 20 3 18 4 19 5 17 7 10 8 11 9 16 10 12 11 14 12
REMARK SMILES IDX 15 13 13 14 8 15 7 16 9 18 6 19 5 20 94 21 91 22 92 23 93 24
REMARK SMILES IDX 3 25 4 26 2 27 1 28 95 29 96 30 101 31 97 32 100 33 98 34
REMARK SMILES IDX 99 35 23 36 24 37 25 38 26 39 27 41 28 42 29 43 90 44 30 45
REMARK SMILES IDX 89 46 31 47 32 48 33 49 83 50 34 51 88 52 82 53 84 54 35 55
REMARK SMILES IDX 87 56 81 57 80 58 36 60 68 61 48 62 67 63 49 64 52 65 66 66
REMARK SMILES IDX 85 67 50 68 51 69 65 71 86 72 53 73 37 74 38 75 46 76 39 77
REMARK SMILES IDX 45 78 47 79 44 80 40 81 41 82 42 83 43 84 69 85 70 86 78 87
REMARK SMILES IDX 71 88 77 89 79 90 76 91 72 92 73 93 74 94 75 95 54 96 55 97
REMARK SMILES IDX 63 98 56 99 62 100 64 101 61 102 57 103 58 104 59 105 60 106
REMARK H PARENT 20 6 7 17 25 40 84 59 52 70
REMARK Flexibility Score: inf
ROOT
ATOM      1  C   UNL A   1      37.777  22.623  25.780  1.00  0.00     0.023 C 
ENDROOT
BRANCH   1   2
ATOM      2  C   UNL A   1      36.959  22.060  24.628  1.00  0.00     0.116 C 
BRANCH   2   3
ATOM      3  N   UNL A   1      36.394  20.749  24.812  1.00  0.00    -0.356 N 
ATOM      4  C   UNL A   1      35.095  20.358  24.931  1.00  0.00     0.224 C 
ATOM      5  O   UNL A   1      34.863  19.163  24.699  1.00  0.00    -0.275 OA
ATOM      6  H   UNL A   1      37.051  20.017  24.859  1.00  0.00     0.163 HD
BRANCH   4   7
ATOM      7  C   UNL A   1      33.913  21.280  25.308  1.00  0.00     0.094 C 
ATOM      8  C   UNL A   1      33.923  22.775  24.889  1.00  0.00     0.094 C 
ATOM      9  C   UNL A   1      32.570  23.051  24.097  1.00  0.00     0.002 C 
ATOM     10  C   UNL A   1      32.339  22.091  22.903  1.00  0.00     0.005 C 
ATOM     11  C   UNL A   1      31.357  22.788  25.023  1.00  0.00     0.005 C 
ATOM     12  C   UNL A   1      32.581  20.589  24.904  1.00  0.00     0.002 C 
ATOM     13  C   UNL A   1      32.380  20.634  23.381  1.00  0.00     0.005 C 
ATOM     14  C   UNL A   1      31.419  21.355  25.563  1.00  0.00     0.005 C 
BRANCH   8  15
ATOM     15  C   UNL A   1      34.027  23.812  26.053  1.00  0.00     0.229 C 
ATOM     16  N   UNL A   1      33.835  25.158  25.976  1.00  0.00    -0.317 N 
ATOM     17  H   UNL A   1      34.184  25.638  26.760  1.00  0.00     0.170 HD
ATOM     18  O   UNL A   1      34.297  23.411  27.198  1.00  0.00    -0.274 OA
BRANCH  16  19
ATOM     19  C   UNL A   1      33.263  25.998  25.046  1.00  0.00     0.111 A 
ATOM     20  C   UNL A   1      32.008  26.600  25.085  1.00  0.00     0.102 A 
ATOM     21  C   UNL A   1      31.891  27.590  24.020  1.00  0.00     0.012 A 
ATOM     22  S   UNL A   1      33.945  26.181  23.517  1.00  0.00    -0.122 S 
ATOM     23  C   UNL A   1      33.020  27.585  23.212  1.00  0.00     0.012 A 
ATOM     24  C   UNL A   1      33.492  28.552  22.173  1.00  0.00     0.057 C 
BRANCH  20  25
ATOM     25  C   UNL A   1      31.012  26.289  26.107  1.00  0.00     0.341 C 
ATOM     26  O   UNL A   1      29.914  25.794  25.849  1.00  0.00    -0.246 OA
BRANCH  25  27
ATOM     27  O   UNL A   1      31.403  26.663  27.356  1.00  0.00    -0.465 OA
ATOM     28  C   UNL A   1      31.657  28.055  27.540  1.00  0.00     0.282 C 
ENDBRANCH  25  27
ENDBRANCH  20  25
BRANCH  21  29
ATOM     29  C   UNL A   1      30.796  28.534  23.789  1.00  0.00    -0.016 A 
ATOM     30  C   UNL A   1      29.728  28.220  22.939  1.00  0.00     0.009 A 
ATOM     31  C   UNL A   1      30.839  29.801  24.386  1.00  0.00     0.009 A 
ATOM     32  C   UNL A   1      28.738  29.173  22.669  1.00  0.00     0.004 A 
ATOM     33  C   UNL A   1      29.837  30.740  24.137  1.00  0.00     0.004 A 
ATOM     34  C   UNL A   1      28.785  30.438  23.269  1.00  0.00    -0.051 A 
ATOM     35  C   UNL A   1      27.747  31.471  22.945  1.00  0.00     0.044 C 
ENDBRANCH  21  29
ENDBRANCH  16  19
ENDBRANCH   8  15
ENDBRANCH   4   7
ENDBRANCH   2   3
ENDBRANCH   1   2
BRANCH   1  36
ATOM     36  C   UNL A   1      39.261  22.295  25.774  1.00  0.00     0.023 C 
BRANCH  36  37
ATOM     37  C   UNL A   1      39.695  21.167  26.699  1.00  0.00     0.116 C 
BRANCH  37  38
ATOM     38  N   UNL A   1      40.699  20.272  26.134  1.00  0.00    -0.352 N 
ATOM     39  C   UNL A   1      42.047  20.499  25.966  1.00  0.00     0.251 C 
ATOM     40  H   UNL A   1      40.370  19.395  25.833  1.00  0.00     0.163 HD
ATOM     41  O   UNL A   1      42.761  19.646  25.450  1.00  0.00    -0.269 OA
BRANCH  39  42
ATOM     42  C   UNL A   1      42.593  21.813  26.356  1.00  0.00     0.039 A 
ATOM     43  C   UNL A   1      42.695  22.811  25.387  1.00  0.00     0.014 A 
ATOM     44  C   UNL A   1      42.864  22.091  27.698  1.00  0.00     0.014 A 
ATOM     45  C   UNL A   1      42.970  24.120  25.780  1.00  0.00     0.010 A 
ATOM     46  C   UNL A   1      43.035  23.409  28.096  1.00  0.00     0.010 A 
ATOM     47  C   UNL A   1      43.084  24.440  27.144  1.00  0.00    -0.014 A 
BRANCH  47  48
ATOM     48  C   UNL A   1      43.253  25.844  27.598  1.00  0.00     0.031 A 
ATOM     49  C   UNL A   1      44.607  26.494  27.523  1.00  0.00     0.074 A 
ATOM     50  C   UNL A   1      42.214  26.505  28.147  1.00  0.00     0.049 A 
ATOM     51  N   UNL A   1      44.985  27.676  27.935  1.00  0.00    -0.248 NA
ATOM     52  C   UNL A   1      45.689  25.685  26.945  1.00  0.00     0.031 C 
ATOM     53  C   UNL A   1      40.862  25.965  28.320  1.00  0.00     0.029 A 
ATOM     54  N   UNL A   1      42.130  27.774  28.663  1.00  0.00    -0.354 N 
ATOM     55  C   UNL A   1      46.350  27.745  27.683  1.00  0.00     0.074 A 
ATOM     56  C   UNL A   1      46.744  26.452  27.165  1.00  0.00     0.031 C 
ATOM     57  C   UNL A   1      40.076  26.913  28.855  1.00  0.00     0.029 A 
ATOM     58  C   UNL A   1      40.874  28.108  29.111  1.00  0.00     0.049 A 
ATOM     59  H   UNL A   1      42.898  28.388  28.707  1.00  0.00     0.167 HD
ATOM     60  C   UNL A   1      47.193  28.797  27.837  1.00  0.00     0.034 A 
ATOM     61  C   UNL A   1      40.417  29.248  29.665  1.00  0.00     0.034 A 
ATOM     62  C   UNL A   1      46.778  30.081  28.346  1.00  0.00     0.049 A 
ATOM     63  C   UNL A   1      41.377  30.393  29.867  1.00  0.00     0.074 A 
ATOM     64  C   UNL A   1      47.524  31.238  28.485  1.00  0.00     0.029 A 
ATOM     65  N   UNL A   1      45.500  30.376  28.810  1.00  0.00    -0.354 N 
ATOM     66  N   UNL A   1      42.654  30.466  29.569  1.00  0.00    -0.248 NA
ATOM     67  C   UNL A   1      40.831  31.611  30.477  1.00  0.00     0.031 C 
ATOM     68  C   UNL A   1      46.723  32.205  29.102  1.00  0.00     0.029 A 
ATOM     69  C   UNL A   1      45.451  31.683  29.273  1.00  0.00     0.049 A 
ATOM     70  H   UNL A   1      44.742  29.749  28.811  1.00  0.00     0.167 HD
ATOM     71  C   UNL A   1      43.053  31.752  29.922  1.00  0.00     0.074 A 
ATOM     72  C   UNL A   1      41.879  32.420  30.447  1.00  0.00     0.031 C 
ATOM     73  C   UNL A   1      44.277  32.332  29.812  1.00  0.00     0.034 A 
BRANCH  60  74
ATOM     74  C   UNL A   1      48.645  28.573  27.477  1.00  0.00     0.023 A 
ATOM     75  C   UNL A   1      49.093  28.643  26.145  1.00  0.00     0.031 A 
ATOM     76  C   UNL A   1      49.578  28.208  28.462  1.00  0.00     0.131 A 
ATOM     77  C   UNL A   1      50.396  28.242  25.821  1.00  0.00     0.055 A 
ATOM     78  C   UNL A   1      50.905  27.910  28.144  1.00  0.00     0.041 A 
ATOM     79  F   UNL A   1      49.211  28.104  29.749  1.00  0.00    -0.206 F 
ATOM     80  C   UNL A   1      51.315  27.902  26.814  1.00  0.00     0.022 A 
BRANCH  77  81
ATOM     81  S   UNL A   1      50.805  27.975  24.072  1.00  0.00     0.124 S 
ATOM     82  O   UNL A   1      49.477  27.840  23.477  1.00  0.00    -0.237 OA
ATOM     83  O   UNL A   1      51.539  29.188  23.732  1.00  0.00    -0.237 OA
ATOM     84  O   UNL A   1      51.598  26.748  24.089  1.00  0.00    -0.744 OA
ENDBRANCH  77  81
ENDBRANCH  60  74
BRANCH  61  85
ATOM     85  C   UNL A   1      38.984  29.380  30.053  1.00  0.00     0.023 A 
ATOM     86  C   UNL A   1      38.080  30.064  29.224  1.00  0.00     0.031 A 
ATOM     87  C   UNL A   1      38.501  28.854  31.264  1.00  0.00     0.131 A 
ATOM     88  C   UNL A   1      36.749  30.237  29.633  1.00  0.00     0.055 A 
ATOM     89  C   UNL A   1      37.164  28.988  31.644  1.00  0.00     0.041 A 
ATOM     90  F   UNL A   1      39.322  28.187  32.090  1.00  0.00    -0.206 F 
ATOM     91  C   UNL A   1      36.282  29.693  30.831  1.00  0.00     0.022 A 
BRANCH  88  92
ATOM     92  S   UNL A   1      35.648  31.246  28.603  1.00  0.00     0.124 S 
ATOM     93  O   UNL A   1      34.857  30.226  27.926  1.00  0.00    -0.237 OA
ATOM     94  O   UNL A   1      34.947  32.046  29.602  1.00  0.00    -0.237 OA
ATOM     95  O   UNL A   1      36.570  31.991  27.748  1.00  0.00    -0.744 OA
ENDBRANCH  88  92
ENDBRANCH  61  85
BRANCH  73  96
ATOM     96  C   UNL A   1      44.389  33.778  30.230  1.00  0.00     0.023 A 
ATOM     97  C   UNL A   1      44.098  34.831  29.345  1.00  0.00     0.031 A 
ATOM     98  C   UNL A   1      44.806  34.106  31.532  1.00  0.00     0.131 A 
ATOM     99  C   UNL A   1      44.283  36.160  29.755  1.00  0.00     0.055 A 
ATOM    100  C   UNL A   1      44.926  35.429  31.955  1.00  0.00     0.041 A 
ATOM    101  F   UNL A   1      45.100  33.141  32.418  1.00  0.00    -0.206 F 
ATOM    102  C   UNL A   1      44.677  36.466  31.061  1.00  0.00     0.022 A 
BRANCH  99 103
ATOM    103  S   UNL A   1      44.093  37.485  28.532  1.00  0.00     0.124 S 
ATOM    104  O   UNL A   1      43.130  36.904  27.602  1.00  0.00    -0.237 OA
ATOM    105  O   UNL A   1      43.604  38.594  29.345  1.00  0.00    -0.237 OA
ATOM    106  O   UNL A   1      45.444  37.657  27.999  1.00  0.00    -0.744 OA
ENDBRANCH  99 103
ENDBRANCH  73  96
ENDBRANCH  47  48
ENDBRANCH  39  42
ENDBRANCH  37  38
ENDBRANCH  36  37
ENDBRANCH   1  36
TORSDOF 19
ENDMDL
MODEL 3
REMARK VINA RESULT:     -12.0      5.545     11.068
REMARK SMILES COC(=O)c1c(NC(=O)[C@@H]2[C@H]3CC[C@H](CC3)[C@H]2C(=O)NCCCCNC(=O)c2ccc(-c3c4nc(c(-c5cc(S(=O)(=O)[O-])ccc5F)c5ccc([nH]5)c(-c5cc(S(=O)(=O)[O-])ccc5F)c5nc(c(-c6cc(S(=O)(=O)[O-])ccc6F)c6ccc3[nH]6)C=C5)C=C4)cc2)sc(C)c1-c1ccc(C)cc1
REMARK SMILES IDX 22 1 21 2 20 3 18 4 19 5 17 7 10 8 11 9 16 10 12 11 14 12
REMARK SMILES IDX 15 13 13 14 8 15 7 16 9 18 6 19 5 20 94 21 91 22 92 23 93 24
REMARK SMILES IDX 3 25 4 26 2 27 1 28 95 29 96 30 101 31 97 32 100 33 98 34
REMARK SMILES IDX 99 35 23 36 24 37 25 38 26 39 27 41 28 42 29 43 90 44 30 45
REMARK SMILES IDX 89 46 31 47 32 48 33 49 83 50 34 51 88 52 82 53 84 54 35 55
REMARK SMILES IDX 87 56 81 57 80 58 36 60 68 61 48 62 67 63 49 64 52 65 66 66
REMARK SMILES IDX 85 67 50 68 51 69 65 71 86 72 53 73 37 74 38 75 46 76 39 77
REMARK SMILES IDX 45 78 47 79 44 80 40 81 41 82 42 83 43 84 69 85 70 86 78 87
REMARK SMILES IDX 71 88 77 89 79 90 76 91 72 92 73 93 74 94 75 95 54 96 55 97
REMARK SMILES IDX 63 98 56 99 62 100 64 101 61 102 57 103 58 104 59 105 60 106
REMARK H PARENT 20 6 7 17 25 40 84 59 52 70
REMARK Flexibility Score: inf
ROOT
ATOM      1  C   UNL A   1      32.678  31.132  27.505  1.00  0.00     0.023 C 
ENDROOT
BRANCH   1   2
ATOM      2  C   UNL A   1      32.480  30.290  26.254  1.00  0.00     0.116 C 
BRANCH   2   3
ATOM      3  N   UNL A   1      31.434  30.698  25.354  1.00  0.00    -0.356 N 
ATOM      4  C   UNL A   1      30.803  30.006  24.365  1.00  0.00     0.224 C 
ATOM      5  O   UNL A   1      29.704  30.451  24.005  1.00  0.00    -0.275 OA
ATOM      6  H   UNL A   1      31.124  31.625  25.472  1.00  0.00     0.163 HD
BRANCH   4   7
ATOM      7  C   UNL A   1      31.340  28.727  23.684  1.00  0.00     0.094 C 
ATOM      8  C   UNL A   1      31.916  27.568  24.542  1.00  0.00     0.094 C 
ATOM      9  C   UNL A   1      31.133  26.244  24.132  1.00  0.00     0.002 C 
ATOM     10  C   UNL A   1      29.594  26.369  24.242  1.00  0.00     0.005 C 
ATOM     11  C   UNL A   1      31.372  25.937  22.632  1.00  0.00     0.005 C 
ATOM     12  C   UNL A   1      30.281  28.208  22.672  1.00  0.00     0.002 C 
ATOM     13  C   UNL A   1      29.098  27.554  23.403  1.00  0.00     0.005 C 
ATOM     14  C   UNL A   1      30.944  27.139  21.783  1.00  0.00     0.005 C 
BRANCH   8  15
ATOM     15  C   UNL A   1      33.447  27.297  24.389  1.00  0.00     0.229 C 
ATOM     16  N   UNL A   1      34.126  26.176  24.760  1.00  0.00    -0.317 N 
ATOM     17  H   UNL A   1      35.099  26.314  24.796  1.00  0.00     0.170 HD
ATOM     18  O   UNL A   1      34.165  28.164  23.861  1.00  0.00    -0.274 OA
BRANCH  16  19
ATOM     19  C   UNL A   1      33.756  24.893  25.098  1.00  0.00     0.111 A 
ATOM     20  C   UNL A   1      33.917  23.726  24.357  1.00  0.00     0.102 A 
ATOM     21  C   UNL A   1      33.600  22.561  25.175  1.00  0.00     0.012 A 
ATOM     22  S   UNL A   1      32.741  24.608  26.413  1.00  0.00    -0.122 S 
ATOM     23  C   UNL A   1      33.136  22.945  26.427  1.00  0.00     0.012 A 
ATOM     24  C   UNL A   1      32.926  22.161  27.683  1.00  0.00     0.057 C 
BRANCH  20  25
ATOM     25  C   UNL A   1      34.398  23.724  22.977  1.00  0.00     0.341 C 
ATOM     26  O   UNL A   1      33.823  24.317  22.064  1.00  0.00    -0.246 OA
BRANCH  25  27
ATOM     27  O   UNL A   1      35.503  22.950  22.805  1.00  0.00    -0.465 OA
ATOM     28  C   UNL A   1      36.668  23.355  23.522  1.00  0.00     0.282 C 
ENDBRANCH  25  27
ENDBRANCH  20  25
BRANCH  21  29
ATOM     29  C   UNL A   1      33.765  21.148  24.828  1.00  0.00    -0.016 A 
ATOM     30  C   UNL A   1      32.708  20.400  24.295  1.00  0.00     0.009 A 
ATOM     31  C   UNL A   1      34.987  20.512  25.082  1.00  0.00     0.009 A 
ATOM     32  C   UNL A   1      32.867  19.030  24.050  1.00  0.00     0.004 A 
ATOM     33  C   UNL A   1      35.153  19.153  24.813  1.00  0.00     0.004 A 
ATOM     34  C   UNL A   1      34.091  18.398  24.306  1.00  0.00    -0.051 A 
ATOM     35  C   UNL A   1      34.247  16.923  24.084  1.00  0.00     0.044 C 
ENDBRANCH  21  29
ENDBRANCH  16  19
ENDBRANCH   8  15
ENDBRANCH   4   7
ENDBRANCH   2   3
ENDBRANCH   1   2
BRANCH   1  36
ATOM     36  C   UNL A   1      34.100  31.588  27.790  1.00  0.00     0.023 C 
BRANCH  36  37
ATOM     37  C   UNL A   1      34.363  33.079  27.630  1.00  0.00     0.116 C 
BRANCH  37  38
ATOM     38  N   UNL A   1      33.494  33.935  28.430  1.00  0.00    -0.352 N 
ATOM     39  C   UNL A   1      33.645  34.316  29.745  1.00  0.00     0.251 C 
ATOM     40  H   UNL A   1      32.696  34.284  27.971  1.00  0.00     0.163 HD
ATOM     41  O   UNL A   1      32.807  35.029  30.286  1.00  0.00    -0.269 OA
BRANCH  39  42
ATOM     42  C   UNL A   1      34.797  33.787  30.501  1.00  0.00     0.039 A 
ATOM     43  C   UNL A   1      34.598  32.700  31.353  1.00  0.00     0.014 A 
ATOM     44  C   UNL A   1      36.082  34.276  30.256  1.00  0.00     0.014 A 
ATOM     45  C   UNL A   1      35.704  32.035  31.880  1.00  0.00     0.010 A 
ATOM     46  C   UNL A   1      37.179  33.551  30.698  1.00  0.00     0.010 A 
ATOM     47  C   UNL A   1      37.004  32.419  31.510  1.00  0.00    -0.014 A 
BRANCH  47  48
ATOM     48  C   UNL A   1      38.195  31.651  31.958  1.00  0.00     0.031 A 
ATOM     49  C   UNL A   1      38.858  31.998  33.262  1.00  0.00     0.074 A 
ATOM     50  C   UNL A   1      38.724  30.702  31.160  1.00  0.00     0.049 A 
ATOM     51  N   UNL A   1      39.945  31.507  33.797  1.00  0.00    -0.248 NA
ATOM     52  C   UNL A   1      38.233  33.072  34.047  1.00  0.00     0.031 C 
ATOM     53  C   UNL A   1      38.200  30.308  29.849  1.00  0.00     0.029 A 
ATOM     54  N   UNL A   1      39.820  29.895  31.332  1.00  0.00    -0.354 N 
ATOM     55  C   UNL A   1      40.145  32.224  34.971  1.00  0.00     0.074 A 
ATOM     56  C   UNL A   1      39.115  33.239  35.019  1.00  0.00     0.031 C 
ATOM     57  C   UNL A   1      38.946  29.303  29.361  1.00  0.00     0.029 A 
ATOM     58  C   UNL A   1      40.029  29.015  30.296  1.00  0.00     0.049 A 
ATOM     59  H   UNL A   1      40.402  29.941  32.125  1.00  0.00     0.167 HD
ATOM     60  C   UNL A   1      41.079  32.035  35.936  1.00  0.00     0.034 A 
ATOM     61  C   UNL A   1      40.985  28.082  30.120  1.00  0.00     0.034 A 
ATOM     62  C   UNL A   1      42.092  31.009  35.873  1.00  0.00     0.049 A 
ATOM     63  C   UNL A   1      42.040  27.913  31.184  1.00  0.00     0.074 A 
ATOM     64  C   UNL A   1      43.048  30.680  36.817  1.00  0.00     0.029 A 
ATOM     65  N   UNL A   1      42.286  30.150  34.797  1.00  0.00    -0.354 N 
ATOM     66  N   UNL A   1      42.182  28.558  32.318  1.00  0.00    -0.248 NA
ATOM     67  C   UNL A   1      43.060  26.885  30.943  1.00  0.00     0.031 C 
ATOM     68  C   UNL A   1      43.866  29.678  36.283  1.00  0.00     0.029 A 
ATOM     69  C   UNL A   1      43.372  29.320  35.039  1.00  0.00     0.049 A 
ATOM     70  H   UNL A   1      41.735  30.133  33.983  1.00  0.00     0.167 HD
ATOM     71  C   UNL A   1      43.288  27.987  32.943  1.00  0.00     0.074 A 
ATOM     72  C   UNL A   1      43.767  26.942  32.062  1.00  0.00     0.031 C 
ATOM     73  C   UNL A   1      43.850  28.293  34.142  1.00  0.00     0.034 A 
BRANCH  60  74
ATOM     74  C   UNL A   1      41.053  32.983  37.114  1.00  0.00     0.023 A 
ATOM     75  C   UNL A   1      40.396  32.651  38.313  1.00  0.00     0.031 A 
ATOM     76  C   UNL A   1      41.621  34.265  37.013  1.00  0.00     0.131 A 
ATOM     77  C   UNL A   1      40.223  33.620  39.310  1.00  0.00     0.055 A 
ATOM     78  C   UNL A   1      41.534  35.192  38.054  1.00  0.00     0.041 A 
ATOM     79  F   UNL A   1      42.244  34.652  35.890  1.00  0.00    -0.206 F 
ATOM     80  C   UNL A   1      40.811  34.881  39.202  1.00  0.00     0.022 A 
BRANCH  77  81
ATOM     81  S   UNL A   1      39.048  33.276  40.651  1.00  0.00     0.124 S 
ATOM     82  O   UNL A   1      37.773  33.294  39.936  1.00  0.00    -0.237 OA
ATOM     83  O   UNL A   1      39.493  31.973  41.132  1.00  0.00    -0.237 OA
ATOM     84  O   UNL A   1      39.248  34.387  41.577  1.00  0.00    -0.744 OA
ENDBRANCH  77  81
ENDBRANCH  60  74
BRANCH  61  85
ATOM     85  C   UNL A   1      40.986  27.220  28.904  1.00  0.00     0.023 A 
ATOM     86  C   UNL A   1      41.908  27.445  27.870  1.00  0.00     0.031 A 
ATOM     87  C   UNL A   1      40.053  26.180  28.743  1.00  0.00     0.131 A 
ATOM     88  C   UNL A   1      41.854  26.668  26.703  1.00  0.00     0.055 A 
ATOM     89  C   UNL A   1      40.036  25.378  27.600  1.00  0.00     0.041 A 
ATOM     90  F   UNL A   1      39.154  25.919  29.704  1.00  0.00    -0.206 F 
ATOM     91  C   UNL A   1      40.933  25.628  26.566  1.00  0.00     0.022 A 
BRANCH  88  92
ATOM     92  S   UNL A   1      42.969  27.081  25.332  1.00  0.00     0.124 S 
ATOM     93  O   UNL A   1      42.295  28.230  24.738  1.00  0.00    -0.237 OA
ATOM     94  O   UNL A   1      44.219  27.361  26.032  1.00  0.00    -0.237 OA
ATOM     95  O   UNL A   1      42.973  25.868  24.518  1.00  0.00    -0.744 OA
ENDBRANCH  88  92
ENDBRANCH  61  85
BRANCH  73  96
ATOM     96  C   UNL A   1      45.021  27.448  34.583  1.00  0.00     0.023 A 
ATOM     97  C   UNL A   1      44.844  26.200  35.204  1.00  0.00     0.031 A 
ATOM     98  C   UNL A   1      46.336  27.909  34.390  1.00  0.00     0.131 A 
ATOM     99  C   UNL A   1      45.959  25.481  35.661  1.00  0.00     0.055 A 
ATOM    100  C   UNL A   1      47.444  27.161  34.788  1.00  0.00     0.041 A 
ATOM    101  F   UNL A   1      46.565  29.096  33.806  1.00  0.00    -0.206 F 
ATOM    102  C   UNL A   1      47.259  25.945  35.440  1.00  0.00     0.022 A 
BRANCH  99 103
ATOM    103  S   UNL A   1      45.688  23.975  36.634  1.00  0.00     0.124 S 
ATOM    104  O   UNL A   1      45.510  24.511  37.980  1.00  0.00    -0.237 OA
ATOM    105  O   UNL A   1      44.495  23.410  36.011  1.00  0.00    -0.237 OA
ATOM    106  O   UNL A   1      46.915  23.208  36.429  1.00  0.00    -0.744 OA
ENDBRANCH  99 103
ENDBRANCH  73  96
ENDBRANCH  47  48
ENDBRANCH  39  42
ENDBRANCH  37  38
ENDBRANCH  36  37
ENDBRANCH   1  36
TORSDOF 19
ENDMDL
