MODEL 1
REMARK VINA RESULT:     -11.7      0.000      0.000
REMARK SMILES C[C@@H](C(=O)NCCCCNC(=O)c1ccc(-c2c3nc(c(-c4cc(S(=O)(=O)[O-])ccc4F)c4ccc([nH]4)c(-c4cc(S(=O)(=O)[O-])ccc4F)c4nc(c(-c5cc(S(=O)(=O)[O-])ccc5F)c5ccc2[nH]5)C=C4)C=C3)cc1)c1ccc(-c2cccc(OC(=O)NCCCc3ccccc3)c2)c(F)c1
REMARK SMILES IDX 3 1 4 2 5 3 2 5 1 6 76 7 77 8 101 9 78 10 99 11 79 12 100 13
REMARK SMILES IDX 80 14 81 15 98 16 82 17 84 18 83 19 85 20 86 21 87 22 88 23
REMARK SMILES IDX 89 25 90 26 91 27 92 28 93 29 97 30 94 31 96 32 95 33 6 34
REMARK SMILES IDX 7 35 8 36 9 37 10 38 11 39 12 41 13 42 14 43 75 44 15 45
REMARK SMILES IDX 74 46 16 47 17 48 18 49 68 50 19 51 73 52 67 53 69 54 20 55
REMARK SMILES IDX 72 56 66 57 65 58 21 60 53 61 33 62 52 63 34 64 37 65 51 66
REMARK SMILES IDX 70 67 35 68 36 69 50 71 71 72 38 73 22 74 23 75 31 76 24 77
REMARK SMILES IDX 30 78 32 79 29 80 25 81 26 82 27 83 28 84 54 85 55 86 63 87
REMARK SMILES IDX 56 88 62 89 64 90 61 91 57 92 58 93 59 94 60 95 39 96 40 97
REMARK SMILES IDX 48 98 41 99 47 100 49 101 46 102 42 103 43 104 44 105 45 106
REMARK H PARENT 5 4 88 24 10 40 69 59 37 70
REMARK Flexibility Score: inf
ROOT
ATOM      1  C   UNL A   1      33.480  21.058  26.402  1.00  0.00     0.227 C 
ATOM      2  O   UNL A   1      33.278  21.503  27.534  1.00  0.00    -0.274 OA
ATOM      3  N   UNL A   1      34.725  20.560  26.160  1.00  0.00    -0.356 N 
ATOM      4  H   UNL A   1      35.318  20.512  26.946  1.00  0.00     0.163 HD
ENDROOT
BRANCH   1   5
ATOM      5  C   UNL A   1      32.406  20.999  25.300  1.00  0.00     0.105 C 
ATOM      6  C   UNL A   1      32.916  20.464  23.961  1.00  0.00     0.023 C 
BRANCH   5   7
ATOM      7  C   UNL A   1      31.756  22.347  25.023  1.00  0.00    -0.033 A 
ATOM      8  C   UNL A   1      31.377  22.715  23.722  1.00  0.00     0.005 A 
ATOM      9  C   UNL A   1      31.462  23.212  26.081  1.00  0.00     0.044 A 
ATOM     10  C   UNL A   1      30.749  23.934  23.478  1.00  0.00     0.012 A 
ATOM     11  C   UNL A   1      30.822  24.420  25.831  1.00  0.00     0.131 A 
ATOM     12  C   UNL A   1      30.466  24.812  24.532  1.00  0.00     0.018 A 
ATOM     13  F   UNL A   1      30.557  25.219  26.878  1.00  0.00    -0.206 F 
BRANCH  12  14
ATOM     14  C   UNL A   1      29.913  26.140  24.253  1.00  0.00    -0.012 A 
ATOM     15  C   UNL A   1      28.625  26.322  23.727  1.00  0.00     0.009 A 
ATOM     16  C   UNL A   1      30.720  27.268  24.458  1.00  0.00     0.056 A 
ATOM     17  C   UNL A   1      28.159  27.600  23.408  1.00  0.00     0.004 A 
ATOM     18  C   UNL A   1      30.263  28.534  24.126  1.00  0.00     0.133 A 
ATOM     19  C   UNL A   1      28.981  28.708  23.604  1.00  0.00     0.047 A 
BRANCH  18  20
ATOM     20  O   UNL A   1      31.022  29.710  24.302  1.00  0.00    -0.410 OA
BRANCH  20  21
ATOM     21  C   UNL A   1      32.293  29.776  24.869  1.00  0.00     0.412 C 
ATOM     22  O   UNL A   1      32.571  29.959  26.045  1.00  0.00    -0.224 OA
ATOM     23  N   UNL A   1      33.288  29.591  23.952  1.00  0.00    -0.321 N 
ATOM     24  H   UNL A   1      34.214  29.729  24.255  1.00  0.00     0.167 HD
BRANCH  23  25
ATOM     25  C   UNL A   1      33.091  29.211  22.576  1.00  0.00     0.120 C 
BRANCH  25  26
ATOM     26  C   UNL A   1      33.988  28.067  22.111  1.00  0.00     0.026 C 
BRANCH  26  27
ATOM     27  C   UNL A   1      33.473  26.631  22.266  1.00  0.00     0.037 C 
BRANCH  27  28
ATOM     28  C   UNL A   1      33.946  25.763  23.410  1.00  0.00    -0.048 A 
ATOM     29  C   UNL A   1      33.976  26.154  24.752  1.00  0.00     0.004 A 
ATOM     30  C   UNL A   1      34.455  24.492  23.087  1.00  0.00     0.004 A 
ATOM     31  C   UNL A   1      34.507  25.314  25.736  1.00  0.00     0.000 A 
ATOM     32  C   UNL A   1      34.975  23.646  24.070  1.00  0.00     0.000 A 
ATOM     33  C   UNL A   1      35.007  24.062  25.396  1.00  0.00     0.000 A 
ENDBRANCH  27  28
ENDBRANCH  26  27
ENDBRANCH  25  26
ENDBRANCH  23  25
ENDBRANCH  20  21
ENDBRANCH  18  20
ENDBRANCH  12  14
ENDBRANCH   5   7
ENDBRANCH   1   5
BRANCH   3  34
ATOM     34  C   UNL A   1      35.307  20.090  24.922  1.00  0.00     0.116 C 
BRANCH  34  35
ATOM     35  C   UNL A   1      36.662  20.755  24.676  1.00  0.00     0.023 C 
BRANCH  35  36
ATOM     36  C   UNL A   1      37.868  19.868  24.990  1.00  0.00     0.023 C 
BRANCH  36  37
ATOM     37  C   UNL A   1      38.985  20.559  25.755  1.00  0.00     0.116 C 
BRANCH  37  38
ATOM     38  N   UNL A   1      40.119  19.680  25.987  1.00  0.00    -0.352 N 
ATOM     39  C   UNL A   1      41.406  20.007  26.330  1.00  0.00     0.251 C 
ATOM     40  H   UNL A   1      39.937  18.718  25.886  1.00  0.00     0.163 HD
ATOM     41  O   UNL A   1      42.275  19.140  26.304  1.00  0.00    -0.269 OA
BRANCH  39  42
ATOM     42  C   UNL A   1      41.740  21.399  26.700  1.00  0.00     0.039 A 
ATOM     43  C   UNL A   1      41.963  21.700  28.045  1.00  0.00     0.014 A 
ATOM     44  C   UNL A   1      41.821  22.405  25.733  1.00  0.00     0.014 A 
ATOM     45  C   UNL A   1      42.290  23.006  28.415  1.00  0.00     0.010 A 
ATOM     46  C   UNL A   1      42.241  23.682  26.092  1.00  0.00     0.010 A 
ATOM     47  C   UNL A   1      42.449  24.005  27.440  1.00  0.00    -0.014 A 
BRANCH  47  48
ATOM     48  C   UNL A   1      42.769  25.403  27.829  1.00  0.00     0.031 A 
ATOM     49  C   UNL A   1      44.167  25.932  27.639  1.00  0.00     0.074 A 
ATOM     50  C   UNL A   1      41.813  26.187  28.365  1.00  0.00     0.049 A 
ATOM     51  N   UNL A   1      44.649  27.118  27.909  1.00  0.00    -0.248 NA
ATOM     52  C   UNL A   1      45.165  24.992  27.100  1.00  0.00     0.031 C 
ATOM     53  C   UNL A   1      40.435  25.772  28.635  1.00  0.00     0.029 A 
ATOM     54  N   UNL A   1      41.850  27.497  28.770  1.00  0.00    -0.354 N 
ATOM     55  C   UNL A   1      46.002  27.061  27.587  1.00  0.00     0.074 A 
ATOM     56  C   UNL A   1      46.277  25.703  27.175  1.00  0.00     0.031 C 
ATOM     57  C   UNL A   1      39.747  26.820  29.117  1.00  0.00     0.029 A 
ATOM     58  C   UNL A   1      40.642  27.967  29.234  1.00  0.00     0.049 A 
ATOM     59  H   UNL A   1      42.664  28.049  28.732  1.00  0.00     0.167 HD
ATOM     60  C   UNL A   1      46.923  28.057  27.605  1.00  0.00     0.034 A 
ATOM     61  C   UNL A   1      40.298  29.185  29.698  1.00  0.00     0.034 A 
ATOM     62  C   UNL A   1      46.624  29.410  28.009  1.00  0.00     0.049 A 
ATOM     63  C   UNL A   1      41.344  30.272  29.725  1.00  0.00     0.074 A 
ATOM     64  C   UNL A   1      47.464  30.510  28.018  1.00  0.00     0.029 A 
ATOM     65  N   UNL A   1      45.393  29.847  28.481  1.00  0.00    -0.354 N 
ATOM     66  N   UNL A   1      42.605  30.219  29.362  1.00  0.00    -0.248 NA
ATOM     67  C   UNL A   1      40.911  31.589  30.206  1.00  0.00     0.031 C 
ATOM     68  C   UNL A   1      46.765  31.590  28.571  1.00  0.00     0.029 A 
ATOM     69  C   UNL A   1      45.460  31.191  28.814  1.00  0.00     0.049 A 
ATOM     70  H   UNL A   1      44.590  29.284  28.566  1.00  0.00     0.167 HD
ATOM     71  C   UNL A   1      43.103  31.509  29.529  1.00  0.00     0.074 A 
ATOM     72  C   UNL A   1      42.000  32.316  30.011  1.00  0.00     0.031 C 
ATOM     73  C   UNL A   1      44.353  31.986  29.298  1.00  0.00     0.034 A 
BRANCH  60  74
ATOM     74  C   UNL A   1      48.339  27.705  27.209  1.00  0.00     0.023 A 
ATOM     75  C   UNL A   1      48.807  27.874  25.894  1.00  0.00     0.031 A 
ATOM     76  C   UNL A   1      49.226  27.159  28.154  1.00  0.00     0.131 A 
ATOM     77  C   UNL A   1      50.089  27.427  25.541  1.00  0.00     0.055 A 
ATOM     78  C   UNL A   1      50.534  26.802  27.817  1.00  0.00     0.041 A 
ATOM     79  F   UNL A   1      48.834  26.949  29.420  1.00  0.00    -0.206 F 
ATOM     80  C   UNL A   1      50.968  26.919  26.500  1.00  0.00     0.022 A 
BRANCH  77  81
ATOM     81  S   UNL A   1      50.534  27.369  23.783  1.00  0.00     0.124 S 
ATOM     82  O   UNL A   1      50.627  28.790  23.456  1.00  0.00    -0.237 OA
ATOM     83  O   UNL A   1      51.791  26.632  23.798  1.00  0.00    -0.237 OA
ATOM     84  O   UNL A   1      49.406  26.670  23.167  1.00  0.00    -0.744 OA
ENDBRANCH  77  81
ENDBRANCH  60  74
BRANCH  61  85
ATOM     85  C   UNL A   1      38.906  29.454  30.163  1.00  0.00     0.023 A 
ATOM     86  C   UNL A   1      37.999  30.166  29.360  1.00  0.00     0.031 A 
ATOM     87  C   UNL A   1      38.477  29.052  31.441  1.00  0.00     0.131 A 
ATOM     88  C   UNL A   1      36.733  30.504  29.864  1.00  0.00     0.055 A 
ATOM     89  C   UNL A   1      37.195  29.339  31.913  1.00  0.00     0.041 A 
ATOM     90  F   UNL A   1      39.301  28.367  32.249  1.00  0.00    -0.206 F 
ATOM     91  C   UNL A   1      36.320  30.082  31.129  1.00  0.00     0.022 A 
BRANCH  88  92
ATOM     92  S   UNL A   1      35.670  31.595  28.878  1.00  0.00     0.124 S 
ATOM     93  O   UNL A   1      35.093  30.660  27.919  1.00  0.00    -0.237 OA
ATOM     94  O   UNL A   1      34.760  32.124  29.888  1.00  0.00    -0.237 OA
ATOM     95  O   UNL A   1      36.608  32.566  28.317  1.00  0.00    -0.744 OA
ENDBRANCH  88  92
ENDBRANCH  61  85
BRANCH  73  96
ATOM     96  C   UNL A   1      44.573  33.468  29.500  1.00  0.00     0.023 A 
ATOM     97  C   UNL A   1      44.231  34.415  28.518  1.00  0.00     0.031 A 
ATOM     98  C   UNL A   1      45.166  33.936  30.688  1.00  0.00     0.131 A 
ATOM     99  C   UNL A   1      44.558  35.766  28.707  1.00  0.00     0.055 A 
ATOM    100  C   UNL A   1      45.415  35.290  30.903  1.00  0.00     0.041 A 
ATOM    101  F   UNL A   1      45.518  33.079  31.660  1.00  0.00    -0.206 F 
ATOM    102  C   UNL A   1      45.129  36.213  29.902  1.00  0.00     0.022 A 
BRANCH  99 103
ATOM    103  S   UNL A   1      44.351  36.913  27.317  1.00  0.00     0.124 S 
ATOM    104  O   UNL A   1      43.967  38.147  27.996  1.00  0.00    -0.237 OA
ATOM    105  O   UNL A   1      45.678  36.907  26.710  1.00  0.00    -0.237 OA
ATOM    106  O   UNL A   1      43.299  36.293  26.514  1.00  0.00    -0.744 OA
ENDBRANCH  99 103
ENDBRANCH  73  96
ENDBRANCH  47  48
ENDBRANCH  39  42
ENDBRANCH  37  38
ENDBRANCH  36  37
ENDBRANCH  35  36
ENDBRANCH  34  35
ENDBRANCH   3  34
TORSDOF 22
ENDMDL
MODEL 2
REMARK VINA RESULT:     -11.6      5.520      9.114
REMARK SMILES C[C@@H](C(=O)NCCCCNC(=O)c1ccc(-c2c3nc(c(-c4cc(S(=O)(=O)[O-])ccc4F)c4ccc([nH]4)c(-c4cc(S(=O)(=O)[O-])ccc4F)c4nc(c(-c5cc(S(=O)(=O)[O-])ccc5F)c5ccc2[nH]5)C=C4)C=C3)cc1)c1ccc(-c2cccc(OC(=O)NCCCc3ccccc3)c2)c(F)c1
REMARK SMILES IDX 3 1 4 2 5 3 2 5 1 6 76 7 77 8 101 9 78 10 99 11 79 12 100 13
REMARK SMILES IDX 80 14 81 15 98 16 82 17 84 18 83 19 85 20 86 21 87 22 88 23
REMARK SMILES IDX 89 25 90 26 91 27 92 28 93 29 97 30 94 31 96 32 95 33 6 34
REMARK SMILES IDX 7 35 8 36 9 37 10 38 11 39 12 41 13 42 14 43 75 44 15 45
REMARK SMILES IDX 74 46 16 47 17 48 18 49 68 50 19 51 73 52 67 53 69 54 20 55
REMARK SMILES IDX 72 56 66 57 65 58 21 60 53 61 33 62 52 63 34 64 37 65 51 66
REMARK SMILES IDX 70 67 35 68 36 69 50 71 71 72 38 73 22 74 23 75 31 76 24 77
REMARK SMILES IDX 30 78 32 79 29 80 25 81 26 82 27 83 28 84 54 85 55 86 63 87
REMARK SMILES IDX 56 88 62 89 64 90 61 91 57 92 58 93 59 94 60 95 39 96 40 97
REMARK SMILES IDX 48 98 41 99 47 100 49 101 46 102 42 103 43 104 44 105 45 106
REMARK H PARENT 5 4 88 24 10 40 69 59 37 70
REMARK Flexibility Score: inf
ROOT
ATOM      1  C   UNL A   1      41.156  23.909  26.714  1.00  0.00     0.227 C 
ATOM      2  O   UNL A   1      40.007  23.528  26.949  1.00  0.00    -0.274 OA
ATOM      3  N   UNL A   1      41.839  23.219  25.757  1.00  0.00    -0.356 N 
ATOM      4  H   UNL A   1      41.313  22.540  25.274  1.00  0.00     0.163 HD
ENDROOT
BRANCH   1   5
ATOM      5  C   UNL A   1      41.813  25.123  27.396  1.00  0.00     0.105 C 
ATOM      6  C   UNL A   1      42.672  24.765  28.611  1.00  0.00     0.023 C 
BRANCH   5   7
ATOM      7  C   UNL A   1      40.809  26.170  27.854  1.00  0.00    -0.033 A 
ATOM      8  C   UNL A   1      40.503  27.281  27.051  1.00  0.00     0.005 A 
ATOM      9  C   UNL A   1      40.120  25.999  29.058  1.00  0.00     0.044 A 
ATOM     10  C   UNL A   1      39.556  28.218  27.457  1.00  0.00     0.012 A 
ATOM     11  C   UNL A   1      39.165  26.931  29.449  1.00  0.00     0.131 A 
ATOM     12  C   UNL A   1      38.874  28.060  28.669  1.00  0.00     0.018 A 
ATOM     13  F   UNL A   1      38.527  26.725  30.612  1.00  0.00    -0.206 F 
BRANCH  12  14
ATOM     14  C   UNL A   1      37.966  29.109  29.144  1.00  0.00    -0.012 A 
ATOM     15  C   UNL A   1      37.191  28.962  30.304  1.00  0.00     0.009 A 
ATOM     16  C   UNL A   1      37.817  30.274  28.379  1.00  0.00     0.056 A 
ATOM     17  C   UNL A   1      36.284  29.953  30.686  1.00  0.00     0.004 A 
ATOM     18  C   UNL A   1      36.905  31.250  28.750  1.00  0.00     0.133 A 
ATOM     19  C   UNL A   1      36.138  31.099  29.905  1.00  0.00     0.047 A 
BRANCH  18  20
ATOM     20  O   UNL A   1      36.701  32.444  28.027  1.00  0.00    -0.410 OA
BRANCH  20  21
ATOM     21  C   UNL A   1      35.838  33.475  28.393  1.00  0.00     0.412 C 
ATOM     22  O   UNL A   1      34.631  33.530  28.206  1.00  0.00    -0.224 OA
ATOM     23  N   UNL A   1      36.477  34.492  29.041  1.00  0.00    -0.321 N 
ATOM     24  H   UNL A   1      35.955  35.303  29.237  1.00  0.00     0.167 HD
BRANCH  23  25
ATOM     25  C   UNL A   1      37.855  34.475  29.461  1.00  0.00     0.120 C 
BRANCH  25  26
ATOM     26  C   UNL A   1      38.069  33.947  30.877  1.00  0.00     0.026 C 
BRANCH  26  27
ATOM     27  C   UNL A   1      39.424  33.314  31.218  1.00  0.00     0.037 C 
BRANCH  27  28
ATOM     28  C   UNL A   1      39.495  31.936  31.836  1.00  0.00    -0.048 A 
ATOM     29  C   UNL A   1      40.219  30.861  31.311  1.00  0.00     0.004 A 
ATOM     30  C   UNL A   1      38.721  31.704  32.987  1.00  0.00     0.004 A 
ATOM     31  C   UNL A   1      40.163  29.596  31.905  1.00  0.00     0.000 A 
ATOM     32  C   UNL A   1      38.673  30.445  33.590  1.00  0.00     0.000 A 
ATOM     33  C   UNL A   1      39.390  29.387  33.042  1.00  0.00     0.000 A 
ENDBRANCH  27  28
ENDBRANCH  26  27
ENDBRANCH  25  26
ENDBRANCH  23  25
ENDBRANCH  20  21
ENDBRANCH  18  20
ENDBRANCH  12  14
ENDBRANCH   5   7
ENDBRANCH   1   5
BRANCH   3  34
ATOM     34  C   UNL A   1      43.220  23.333  25.345  1.00  0.00     0.116 C 
BRANCH  34  35
ATOM     35  C   UNL A   1      44.088  22.307  26.076  1.00  0.00     0.023 C 
BRANCH  35  36
ATOM     36  C   UNL A   1      45.585  22.425  25.784  1.00  0.00     0.023 C 
BRANCH  36  37
ATOM     37  C   UNL A   1      46.233  23.706  26.287  1.00  0.00     0.116 C 
BRANCH  37  38
ATOM     38  N   UNL A   1      46.813  24.489  25.209  1.00  0.00    -0.352 N 
ATOM     39  C   UNL A   1      46.764  25.844  25.006  1.00  0.00     0.251 C 
ATOM     40  H   UNL A   1      47.310  23.976  24.532  1.00  0.00     0.163 HD
ATOM     41  O   UNL A   1      47.156  26.309  23.940  1.00  0.00    -0.269 OA
BRANCH  39  42
ATOM     42  C   UNL A   1      46.216  26.728  26.058  1.00  0.00     0.039 A 
ATOM     43  C   UNL A   1      44.838  26.949  26.098  1.00  0.00     0.014 A 
ATOM     44  C   UNL A   1      47.053  27.347  26.992  1.00  0.00     0.014 A 
ATOM     45  C   UNL A   1      44.300  27.771  27.089  1.00  0.00     0.010 A 
ATOM     46  C   UNL A   1      46.505  28.086  28.035  1.00  0.00     0.010 A 
ATOM     47  C   UNL A   1      45.126  28.334  28.077  1.00  0.00    -0.014 A 
BRANCH  47  48
ATOM     48  C   UNL A   1      44.563  29.232  29.118  1.00  0.00     0.031 A 
ATOM     49  C   UNL A   1      44.230  28.684  30.481  1.00  0.00     0.074 A 
ATOM     50  C   UNL A   1      44.336  30.530  28.833  1.00  0.00     0.049 A 
ATOM     51  N   UNL A   1      43.737  29.300  31.525  1.00  0.00    -0.248 NA
ATOM     52  C   UNL A   1      44.454  27.244  30.689  1.00  0.00     0.031 C 
ATOM     53  C   UNL A   1      44.580  31.165  27.536  1.00  0.00     0.029 A 
ATOM     54  N   UNL A   1      43.860  31.550  29.617  1.00  0.00    -0.354 N 
ATOM     55  C   UNL A   1      43.581  28.323  32.503  1.00  0.00     0.074 A 
ATOM     56  C   UNL A   1      43.959  27.063  31.902  1.00  0.00     0.031 C 
ATOM     57  C   UNL A   1      44.296  32.474  27.628  1.00  0.00     0.029 A 
ATOM     58  C   UNL A   1      43.808  32.765  28.972  1.00  0.00     0.049 A 
ATOM     59  H   UNL A   1      43.583  31.425  30.554  1.00  0.00     0.167 HD
ATOM     60  C   UNL A   1      43.186  28.466  33.793  1.00  0.00     0.034 A 
ATOM     61  C   UNL A   1      43.413  33.975  29.417  1.00  0.00     0.034 A 
ATOM     62  C   UNL A   1      42.824  29.735  34.378  1.00  0.00     0.049 A 
ATOM     63  C   UNL A   1      42.961  34.107  30.851  1.00  0.00     0.074 A 
ATOM     64  C   UNL A   1      42.458  30.008  35.685  1.00  0.00     0.029 A 
ATOM     65  N   UNL A   1      42.774  30.943  33.692  1.00  0.00    -0.354 N 
ATOM     66  N   UNL A   1      42.874  33.184  31.782  1.00  0.00    -0.248 NA
ATOM     67  C   UNL A   1      42.574  35.450  31.297  1.00  0.00     0.031 C 
ATOM     68  C   UNL A   1      42.109  31.361  35.769  1.00  0.00     0.029 A 
ATOM     69  C   UNL A   1      42.352  31.956  34.541  1.00  0.00     0.049 A 
ATOM     70  H   UNL A   1      43.003  31.062  32.743  1.00  0.00     0.167 HD
ATOM     71  C   UNL A   1      42.466  33.848  32.937  1.00  0.00     0.074 A 
ATOM     72  C   UNL A   1      42.339  35.247  32.584  1.00  0.00     0.031 C 
ATOM     73  C   UNL A   1      42.226  33.348  34.177  1.00  0.00     0.034 A 
BRANCH  60  74
ATOM     74  C   UNL A   1      43.096  27.216  34.639  1.00  0.00     0.023 A 
ATOM     75  C   UNL A   1      44.215  26.693  35.313  1.00  0.00     0.031 A 
ATOM     76  C   UNL A   1      41.882  26.517  34.747  1.00  0.00     0.131 A 
ATOM     77  C   UNL A   1      44.117  25.469  35.991  1.00  0.00     0.055 A 
ATOM     78  C   UNL A   1      41.769  25.346  35.502  1.00  0.00     0.041 A 
ATOM     79  F   UNL A   1      40.784  26.949  34.108  1.00  0.00    -0.206 F 
ATOM     80  C   UNL A   1      42.894  24.806  36.115  1.00  0.00     0.022 A 
BRANCH  77  81
ATOM     81  S   UNL A   1      45.643  24.675  36.570  1.00  0.00     0.124 S 
ATOM     82  O   UNL A   1      45.175  23.325  36.876  1.00  0.00    -0.237 OA
ATOM     83  O   UNL A   1      46.523  24.800  35.415  1.00  0.00    -0.237 OA
ATOM     84  O   UNL A   1      46.023  25.472  37.736  1.00  0.00    -0.744 OA
ENDBRANCH  77  81
ENDBRANCH  60  74
BRANCH  61  85
ATOM     85  C   UNL A   1      43.434  35.161  28.512  1.00  0.00     0.023 A 
ATOM     86  C   UNL A   1      44.641  35.800  28.186  1.00  0.00     0.031 A 
ATOM     87  C   UNL A   1      42.243  35.707  28.003  1.00  0.00     0.131 A 
ATOM     88  C   UNL A   1      44.625  36.980  27.424  1.00  0.00     0.055 A 
ATOM     89  C   UNL A   1      42.238  36.845  27.195  1.00  0.00     0.041 A 
ATOM     90  F   UNL A   1      41.061  35.134  28.280  1.00  0.00    -0.206 F 
ATOM     91  C   UNL A   1      43.434  37.498  26.914  1.00  0.00     0.022 A 
BRANCH  88  92
ATOM     92  S   UNL A   1      46.181  37.886  27.196  1.00  0.00     0.124 S 
ATOM     93  O   UNL A   1      46.741  37.225  26.024  1.00  0.00    -0.237 OA
ATOM     94  O   UNL A   1      45.709  39.252  26.999  1.00  0.00    -0.237 OA
ATOM     95  O   UNL A   1      46.897  37.651  28.449  1.00  0.00    -0.744 OA
ENDBRANCH  88  92
ENDBRANCH  61  85
BRANCH  73  96
ATOM     96  C   UNL A   1      41.867  34.340  35.260  1.00  0.00     0.023 A 
ATOM     97  C   UNL A   1      42.829  34.865  36.141  1.00  0.00     0.031 A 
ATOM     98  C   UNL A   1      40.529  34.742  35.432  1.00  0.00     0.131 A 
ATOM     99  C   UNL A   1      42.428  35.694  37.200  1.00  0.00     0.055 A 
ATOM    100  C   UNL A   1      40.149  35.629  36.437  1.00  0.00     0.041 A 
ATOM    101  F   UNL A   1      39.565  34.271  34.624  1.00  0.00    -0.206 F 
ATOM    102  C   UNL A   1      41.097  36.096  37.341  1.00  0.00     0.022 A 
BRANCH  99 103
ATOM    103  S   UNL A   1      43.647  36.132  38.471  1.00  0.00     0.124 S 
ATOM    104  O   UNL A   1      44.626  35.058  38.334  1.00  0.00    -0.237 OA
ATOM    105  O   UNL A   1      44.087  37.454  38.037  1.00  0.00    -0.237 OA
ATOM    106  O   UNL A   1      42.872  36.112  39.710  1.00  0.00    -0.744 OA
ENDBRANCH  99 103
ENDBRANCH  73  96
ENDBRANCH  47  48
ENDBRANCH  39  42
ENDBRANCH  37  38
ENDBRANCH  36  37
ENDBRANCH  35  36
ENDBRANCH  34  35
ENDBRANCH   3  34
TORSDOF 22
ENDMDL
MODEL 3
REMARK VINA RESULT:     -11.4      2.304      7.508
REMARK SMILES C[C@@H](C(=O)NCCCCNC(=O)c1ccc(-c2c3nc(c(-c4cc(S(=O)(=O)[O-])ccc4F)c4ccc([nH]4)c(-c4cc(S(=O)(=O)[O-])ccc4F)c4nc(c(-c5cc(S(=O)(=O)[O-])ccc5F)c5ccc2[nH]5)C=C4)C=C3)cc1)c1ccc(-c2cccc(OC(=O)NCCCc3ccccc3)c2)c(F)c1
REMARK SMILES IDX 3 1 4 2 5 3 2 5 1 6 76 7 77 8 101 9 78 10 99 11 79 12 100 13
REMARK SMILES IDX 80 14 81 15 98 16 82 17 84 18 83 19 85 20 86 21 87 22 88 23
REMARK SMILES IDX 89 25 90 26 91 27 92 28 93 29 97 30 94 31 96 32 95 33 6 34
REMARK SMILES IDX 7 35 8 36 9 37 10 38 11 39 12 41 13 42 14 43 75 44 15 45
REMARK SMILES IDX 74 46 16 47 17 48 18 49 68 50 19 51 73 52 67 53 69 54 20 55
REMARK SMILES IDX 72 56 66 57 65 58 21 60 53 61 33 62 52 63 34 64 37 65 51 66
REMARK SMILES IDX 70 67 35 68 36 69 50 71 71 72 38 73 22 74 23 75 31 76 24 77
REMARK SMILES IDX 30 78 32 79 29 80 25 81 26 82 27 83 28 84 54 85 55 86 63 87
REMARK SMILES IDX 56 88 62 89 64 90 61 91 57 92 58 93 59 94 60 95 39 96 40 97
REMARK SMILES IDX 48 98 41 99 47 100 49 101 46 102 42 103 43 104 44 105 45 106
REMARK H PARENT 5 4 88 24 10 40 69 59 37 70
REMARK Flexibility Score: inf
ROOT
ATOM      1  C   UNL A   1      33.642  21.084  26.508  1.00  0.00     0.227 C 
ATOM      2  O   UNL A   1      33.494  21.468  27.670  1.00  0.00    -0.274 OA
ATOM      3  N   UNL A   1      34.900  20.698  26.153  1.00  0.00    -0.356 N 
ATOM      4  H   UNL A   1      35.554  20.670  26.890  1.00  0.00     0.163 HD
ENDROOT
BRANCH   1   5
ATOM      5  C   UNL A   1      32.493  20.978  25.487  1.00  0.00     0.105 C 
ATOM      6  C   UNL A   1      32.901  20.347  24.155  1.00  0.00     0.023 C 
BRANCH   5   7
ATOM      7  C   UNL A   1      31.850  22.319  25.168  1.00  0.00    -0.033 A 
ATOM      8  C   UNL A   1      31.643  22.726  23.840  1.00  0.00     0.005 A 
ATOM      9  C   UNL A   1      31.390  23.138  26.203  1.00  0.00     0.044 A 
ATOM     10  C   UNL A   1      31.020  23.938  23.551  1.00  0.00     0.012 A 
ATOM     11  C   UNL A   1      30.756  24.340  25.906  1.00  0.00     0.131 A 
ATOM     12  C   UNL A   1      30.571  24.770  24.584  1.00  0.00     0.018 A 
ATOM     13  F   UNL A   1      30.328  25.093  26.932  1.00  0.00    -0.206 F 
BRANCH  12  14
ATOM     14  C   UNL A   1      30.024  26.094  24.275  1.00  0.00    -0.012 A 
ATOM     15  C   UNL A   1      28.770  26.266  23.670  1.00  0.00     0.009 A 
ATOM     16  C   UNL A   1      30.807  27.228  24.533  1.00  0.00     0.056 A 
ATOM     17  C   UNL A   1      28.313  27.540  23.326  1.00  0.00     0.004 A 
ATOM     18  C   UNL A   1      30.359  28.491  24.177  1.00  0.00     0.133 A 
ATOM     19  C   UNL A   1      29.111  28.655  23.576  1.00  0.00     0.047 A 
BRANCH  18  20
ATOM     20  O   UNL A   1      31.094  29.674  24.404  1.00  0.00    -0.410 OA
BRANCH  20  21
ATOM     21  C   UNL A   1      32.375  29.738  24.949  1.00  0.00     0.412 C 
ATOM     22  O   UNL A   1      32.672  29.883  26.126  1.00  0.00    -0.224 OA
ATOM     23  N   UNL A   1      33.355  29.602  24.008  1.00  0.00    -0.321 N 
ATOM     24  H   UNL A   1      34.285  29.743  24.299  1.00  0.00     0.167 HD
BRANCH  23  25
ATOM     25  C   UNL A   1      33.138  29.269  22.623  1.00  0.00     0.120 C 
BRANCH  25  26
ATOM     26  C   UNL A   1      33.988  28.104  22.122  1.00  0.00     0.026 C 
BRANCH  26  27
ATOM     27  C   UNL A   1      33.449  26.680  22.303  1.00  0.00     0.037 C 
BRANCH  27  28
ATOM     28  C   UNL A   1      33.960  25.800  23.421  1.00  0.00    -0.048 A 
ATOM     29  C   UNL A   1      33.925  26.130  24.779  1.00  0.00     0.004 A 
ATOM     30  C   UNL A   1      34.577  24.589  23.057  1.00  0.00     0.004 A 
ATOM     31  C   UNL A   1      34.496  25.289  25.740  1.00  0.00     0.000 A 
ATOM     32  C   UNL A   1      35.137  23.742  24.016  1.00  0.00     0.000 A 
ATOM     33  C   UNL A   1      35.103  24.097  25.360  1.00  0.00     0.000 A 
ENDBRANCH  27  28
ENDBRANCH  26  27
ENDBRANCH  25  26
ENDBRANCH  23  25
ENDBRANCH  20  21
ENDBRANCH  18  20
ENDBRANCH  12  14
ENDBRANCH   5   7
ENDBRANCH   1   5
BRANCH   3  34
ATOM     34  C   UNL A   1      35.420  20.324  24.856  1.00  0.00     0.116 C 
BRANCH  34  35
ATOM     35  C   UNL A   1      36.851  20.834  24.681  1.00  0.00     0.023 C 
BRANCH  35  36
ATOM     36  C   UNL A   1      37.933  19.812  25.032  1.00  0.00     0.023 C 
BRANCH  36  37
ATOM     37  C   UNL A   1      39.106  20.372  25.821  1.00  0.00     0.116 C 
BRANCH  37  38
ATOM     38  N   UNL A   1      40.174  19.401  25.984  1.00  0.00    -0.352 N 
ATOM     39  C   UNL A   1      41.519  19.618  26.139  1.00  0.00     0.251 C 
ATOM     40  H   UNL A   1      39.893  18.458  25.984  1.00  0.00     0.163 HD
ATOM     41  O   UNL A   1      42.294  18.668  26.078  1.00  0.00    -0.269 OA
BRANCH  39  42
ATOM     42  C   UNL A   1      42.025  20.992  26.351  1.00  0.00     0.039 A 
ATOM     43  C   UNL A   1      42.137  21.471  27.657  1.00  0.00     0.014 A 
ATOM     44  C   UNL A   1      42.375  21.808  25.271  1.00  0.00     0.014 A 
ATOM     45  C   UNL A   1      42.622  22.761  27.880  1.00  0.00     0.010 A 
ATOM     46  C   UNL A   1      42.949  23.055  25.500  1.00  0.00     0.010 A 
ATOM     47  C   UNL A   1      43.048  23.559  26.804  1.00  0.00    -0.014 A 
BRANCH  47  48
ATOM     48  C   UNL A   1      43.540  24.943  27.031  1.00  0.00     0.031 A 
ATOM     49  C   UNL A   1      42.612  25.982  27.604  1.00  0.00     0.074 A 
ATOM     50  C   UNL A   1      44.808  25.266  26.709  1.00  0.00     0.049 A 
ATOM     51  N   UNL A   1      42.846  27.240  27.881  1.00  0.00    -0.248 NA
ATOM     52  C   UNL A   1      41.228  25.560  27.874  1.00  0.00     0.031 C 
ATOM     53  C   UNL A   1      45.785  24.355  26.109  1.00  0.00     0.029 A 
ATOM     54  N   UNL A   1      45.495  26.445  26.848  1.00  0.00    -0.354 N 
ATOM     55  C   UNL A   1      41.640  27.758  28.343  1.00  0.00     0.074 A 
ATOM     56  C   UNL A   1      40.661  26.699  28.236  1.00  0.00     0.031 C 
ATOM     57  C   UNL A   1      46.958  24.995  25.976  1.00  0.00     0.029 A 
ATOM     58  C   UNL A   1      46.807  26.372  26.436  1.00  0.00     0.049 A 
ATOM     59  H   UNL A   1      45.089  27.266  27.209  1.00  0.00     0.167 HD
ATOM     60  C   UNL A   1      41.379  28.993  28.839  1.00  0.00     0.034 A 
ATOM     61  C   UNL A   1      47.776  27.310  26.432  1.00  0.00     0.034 A 
ATOM     62  C   UNL A   1      42.374  30.033  28.949  1.00  0.00     0.049 A 
ATOM     63  C   UNL A   1      47.457  28.683  26.972  1.00  0.00     0.074 A 
ATOM     64  C   UNL A   1      42.236  31.303  29.481  1.00  0.00     0.029 A 
ATOM     65  N   UNL A   1      43.689  29.926  28.514  1.00  0.00    -0.354 N 
ATOM     66  N   UNL A   1      46.327  29.140  27.460  1.00  0.00    -0.248 NA
ATOM     67  C   UNL A   1      48.554  29.657  26.979  1.00  0.00     0.031 C 
ATOM     68  C   UNL A   1      43.441  31.990  29.294  1.00  0.00     0.029 A 
ATOM     69  C   UNL A   1      44.363  31.118  28.735  1.00  0.00     0.049 A 
ATOM     70  H   UNL A   1      44.084  29.122  28.106  1.00  0.00     0.167 HD
ATOM     71  C   UNL A   1      46.592  30.443  27.874  1.00  0.00     0.074 A 
ATOM     72  C   UNL A   1      47.992  30.689  27.590  1.00  0.00     0.031 C 
ATOM     73  C   UNL A   1      45.759  31.352  28.444  1.00  0.00     0.034 A 
BRANCH  60  74
ATOM     74  C   UNL A   1      39.958  29.289  29.264  1.00  0.00     0.023 A 
ATOM     75  C   UNL A   1      39.589  29.369  30.619  1.00  0.00     0.031 A 
ATOM     76  C   UNL A   1      38.949  29.461  28.300  1.00  0.00     0.131 A 
ATOM     77  C   UNL A   1      38.240  29.529  30.972  1.00  0.00     0.055 A 
ATOM     78  C   UNL A   1      37.623  29.713  28.658  1.00  0.00     0.041 A 
ATOM     79  F   UNL A   1      39.231  29.371  26.991  1.00  0.00    -0.206 F 
ATOM     80  C   UNL A   1      37.258  29.731  30.000  1.00  0.00     0.022 A 
BRANCH  77  81
ATOM     81  S   UNL A   1      37.767  29.307  32.709  1.00  0.00     0.124 S 
ATOM     82  O   UNL A   1      37.662  27.853  32.803  1.00  0.00    -0.237 OA
ATOM     83  O   UNL A   1      38.884  29.916  33.422  1.00  0.00    -0.237 OA
ATOM     84  O   UNL A   1      36.496  30.022  32.811  1.00  0.00    -0.744 OA
ENDBRANCH  77  81
ENDBRANCH  60  74
BRANCH  61  85
ATOM     85  C   UNL A   1      49.139  26.991  25.915  1.00  0.00     0.023 A 
ATOM     86  C   UNL A   1      50.199  26.715  26.794  1.00  0.00     0.031 A 
ATOM     87  C   UNL A   1      49.415  27.011  24.537  1.00  0.00     0.131 A 
ATOM     88  C   UNL A   1      51.496  26.529  26.289  1.00  0.00     0.055 A 
ATOM     89  C   UNL A   1      50.695  26.764  24.037  1.00  0.00     0.041 A 
ATOM     90  F   UNL A   1      48.438  27.266  23.652  1.00  0.00    -0.206 F 
ATOM     91  C   UNL A   1      51.748  26.537  24.917  1.00  0.00     0.022 A 
BRANCH  88  92
ATOM     92  S   UNL A   1      52.871  26.378  27.464  1.00  0.00     0.124 S 
ATOM     93  O   UNL A   1      53.670  25.323  26.853  1.00  0.00    -0.237 OA
ATOM     94  O   UNL A   1      53.445  27.719  27.432  1.00  0.00    -0.237 OA
ATOM     95  O   UNL A   1      52.209  26.016  28.716  1.00  0.00    -0.744 OA
ENDBRANCH  88  92
ENDBRANCH  61  85
BRANCH  73  96
ATOM     96  C   UNL A   1      46.364  32.674  28.860  1.00  0.00     0.023 A 
ATOM     97  C   UNL A   1      46.906  32.877  30.141  1.00  0.00     0.031 A 
ATOM     98  C   UNL A   1      46.366  33.759  27.965  1.00  0.00     0.131 A 
ATOM     99  C   UNL A   1      47.353  34.153  30.517  1.00  0.00     0.055 A 
ATOM    100  C   UNL A   1      46.885  35.005  28.317  1.00  0.00     0.041 A 
ATOM    101  F   UNL A   1      45.858  33.627  26.729  1.00  0.00    -0.206 F 
ATOM    102  C   UNL A   1      47.364  35.213  29.606  1.00  0.00     0.022 A 
BRANCH  99 103
ATOM    103  S   UNL A   1      47.792  34.445  32.253  1.00  0.00     0.124 S 
ATOM    104  O   UNL A   1      46.483  34.471  32.896  1.00  0.00    -0.237 OA
ATOM    105  O   UNL A   1      48.630  33.290  32.559  1.00  0.00    -0.237 OA
ATOM    106  O   UNL A   1      48.493  35.727  32.218  1.00  0.00    -0.744 OA
ENDBRANCH  99 103
ENDBRANCH  73  96
ENDBRANCH  47  48
ENDBRANCH  39  42
ENDBRANCH  37  38
ENDBRANCH  36  37
ENDBRANCH  35  36
ENDBRANCH  34  35
ENDBRANCH   3  34
TORSDOF 22
ENDMDL
