MODEL 1
REMARK VINA RESULT:     -11.8      0.000      0.000
REMARK SMILES O=C(NCCCCNC(=O)[C@H]1CC[N@@H+]1CCc1ccccc1)c1ccc(-c2c3nc(c(-c4cc(S(=O)(=O)[O-])ccc4F)c4ccc([nH]4)c(-c4cc(S(=O)(=O)[O-])ccc4F)c4nc(c(-c5cc(S(=O)(=O)[O-])ccc5F)c5ccc2[nH]5)C=C4)C=C3)cc1
REMARK SMILES IDX 5 1 4 2 3 3 1 4 2 5 23 7 24 8 85 9 25 10 84 11 26 12 27 13
REMARK SMILES IDX 28 14 78 15 29 16 83 17 77 18 79 19 30 20 82 21 76 22 75 23
REMARK SMILES IDX 31 25 63 26 43 27 62 28 44 29 47 30 61 31 80 32 45 33 46 34
REMARK SMILES IDX 60 36 81 37 48 38 32 39 33 40 41 41 34 42 40 43 42 44 39 45
REMARK SMILES IDX 35 46 36 47 37 48 38 49 64 50 65 51 73 52 66 53 72 54 74 55
REMARK SMILES IDX 71 56 67 57 68 58 69 59 70 60 49 61 50 62 58 63 51 64 57 65
REMARK SMILES IDX 59 66 56 67 52 68 53 69 54 70 55 71 6 72 7 73 8 74 9 75
REMARK SMILES IDX 10 77 11 78 12 79 14 80 13 81 15 83 16 84 17 85 18 86 22 87
REMARK SMILES IDX 19 88 21 89 20 90
REMARK H PARENT 3 6 79 24 47 35 8 76 14 82
REMARK Flexibility Score: inf
ROOT
ATOM      1  C   UNL A   1      31.764  32.276  26.873  1.00  0.00     0.023 C 
ENDROOT
BRANCH   1   2
ATOM      2  C   UNL A   1      32.879  33.050  27.555  1.00  0.00     0.116 C 
BRANCH   2   3
ATOM      3  N   UNL A   1      32.582  34.454  27.816  1.00  0.00    -0.352 N 
ATOM      4  O   UNL A   1      32.827  36.390  28.975  1.00  0.00    -0.269 OA
ATOM      5  C   UNL A   1      33.195  35.247  28.766  1.00  0.00     0.251 C 
ATOM      6  H   UNL A   1      31.883  34.873  27.265  1.00  0.00     0.163 HD
BRANCH   5   7
ATOM      7  C   UNL A   1      34.293  34.639  29.551  1.00  0.00     0.039 A 
ATOM      8  C   UNL A   1      35.591  34.653  29.040  1.00  0.00     0.014 A 
ATOM      9  C   UNL A   1      33.997  33.957  30.733  1.00  0.00     0.014 A 
ATOM     10  C   UNL A   1      36.570  33.870  29.634  1.00  0.00     0.010 A 
ATOM     11  C   UNL A   1      35.008  33.241  31.380  1.00  0.00     0.010 A 
ATOM     12  C   UNL A   1      36.295  33.175  30.823  1.00  0.00    -0.014 A 
BRANCH  12  13
ATOM     13  C   UNL A   1      37.407  32.491  31.526  1.00  0.00     0.031 A 
ATOM     14  C   UNL A   1      37.888  32.948  32.874  1.00  0.00     0.074 A 
ATOM     15  C   UNL A   1      37.972  31.430  30.915  1.00  0.00     0.049 A 
ATOM     16  N   UNL A   1      38.867  32.472  33.599  1.00  0.00    -0.248 NA
ATOM     17  C   UNL A   1      37.187  34.087  33.487  1.00  0.00     0.031 C 
ATOM     18  C   UNL A   1      37.575  30.912  29.601  1.00  0.00     0.029 A 
ATOM     19  N   UNL A   1      38.986  30.597  31.304  1.00  0.00    -0.354 N 
ATOM     20  C   UNL A   1      38.921  33.264  34.741  1.00  0.00     0.074 A 
ATOM     21  C   UNL A   1      37.877  34.258  34.609  1.00  0.00     0.031 C 
ATOM     22  C   UNL A   1      38.317  29.836  29.307  1.00  0.00     0.029 A 
ATOM     23  C   UNL A   1      39.295  29.637  30.368  1.00  0.00     0.049 A 
ATOM     24  H   UNL A   1      39.449  30.676  32.168  1.00  0.00     0.167 HD
ATOM     25  C   UNL A   1      39.770  33.163  35.792  1.00  0.00     0.034 A 
ATOM     26  C   UNL A   1      40.283  28.726  30.341  1.00  0.00     0.034 A 
ATOM     27  C   UNL A   1      40.793  32.148  35.905  1.00  0.00     0.049 A 
ATOM     28  C   UNL A   1      41.233  28.669  31.505  1.00  0.00     0.074 A 
ATOM     29  C   UNL A   1      41.651  31.904  36.963  1.00  0.00     0.029 A 
ATOM     30  N   UNL A   1      41.108  31.222  34.918  1.00  0.00    -0.354 N 
ATOM     31  N   UNL A   1      41.238  29.397  32.598  1.00  0.00    -0.248 NA
ATOM     32  C   UNL A   1      42.310  27.676  31.432  1.00  0.00     0.031 C 
ATOM     33  C   UNL A   1      42.531  30.882  36.589  1.00  0.00     0.029 A 
ATOM     34  C   UNL A   1      42.180  30.441  35.323  1.00  0.00     0.049 A 
ATOM     35  H   UNL A   1      40.640  31.134  34.057  1.00  0.00     0.167 HD
ATOM     36  C   UNL A   1      42.319  28.945  33.345  1.00  0.00     0.074 A 
ATOM     37  C   UNL A   1      42.918  27.860  32.593  1.00  0.00     0.031 C 
ATOM     38  C   UNL A   1      42.781  29.387  34.541  1.00  0.00     0.034 A 
BRANCH  25  39
ATOM     39  C   UNL A   1      39.676  34.197  36.887  1.00  0.00     0.023 A 
ATOM     40  C   UNL A   1      39.193  33.889  38.170  1.00  0.00     0.031 A 
ATOM     41  C   UNL A   1      40.123  35.509  36.647  1.00  0.00     0.131 A 
ATOM     42  C   UNL A   1      39.138  34.889  39.155  1.00  0.00     0.055 A 
ATOM     43  C   UNL A   1      40.118  36.484  37.646  1.00  0.00     0.041 A 
ATOM     44  F   UNL A   1      40.578  35.864  35.435  1.00  0.00    -0.206 F 
ATOM     45  C   UNL A   1      39.618  36.178  38.907  1.00  0.00     0.022 A 
BRANCH  42  46
ATOM     46  S   UNL A   1      38.359  34.505  40.748  1.00  0.00     0.124 S 
ATOM     47  O   UNL A   1      37.911  35.826  41.184  1.00  0.00    -0.237 OA
ATOM     48  O   UNL A   1      37.308  33.568  40.369  1.00  0.00    -0.237 OA
ATOM     49  O   UNL A   1      39.450  33.934  41.535  1.00  0.00    -0.744 OA
ENDBRANCH  42  46
ENDBRANCH  25  39
BRANCH  26  50
ATOM     50  C   UNL A   1      40.467  27.850  29.150  1.00  0.00     0.023 A 
ATOM     51  C   UNL A   1      41.387  28.175  28.144  1.00  0.00     0.031 A 
ATOM     52  C   UNL A   1      39.691  26.687  28.986  1.00  0.00     0.131 A 
ATOM     53  C   UNL A   1      41.478  27.373  26.997  1.00  0.00     0.055 A 
ATOM     54  C   UNL A   1      39.828  25.860  27.871  1.00  0.00     0.041 A 
ATOM     55  F   UNL A   1      38.796  26.328  29.920  1.00  0.00    -0.206 F 
ATOM     56  C   UNL A   1      40.716  26.210  26.860  1.00  0.00     0.022 A 
BRANCH  53  57
ATOM     57  S   UNL A   1      42.534  27.929  25.632  1.00  0.00     0.124 S 
ATOM     58  O   UNL A   1      41.786  29.074  25.124  1.00  0.00    -0.237 OA
ATOM     59  O   UNL A   1      43.782  28.235  26.324  1.00  0.00    -0.237 OA
ATOM     60  O   UNL A   1      42.581  26.770  24.744  1.00  0.00    -0.744 OA
ENDBRANCH  53  57
ENDBRANCH  26  50
BRANCH  38  61
ATOM     61  C   UNL A   1      43.989  28.678  35.093  1.00  0.00     0.023 A 
ATOM     62  C   UNL A   1      43.863  27.682  36.076  1.00  0.00     0.031 A 
ATOM     63  C   UNL A   1      45.280  29.030  34.663  1.00  0.00     0.131 A 
ATOM     64  C   UNL A   1      45.011  27.111  36.641  1.00  0.00     0.055 A 
ATOM     65  C   UNL A   1      46.418  28.416  35.186  1.00  0.00     0.041 A 
ATOM     66  F   UNL A   1      45.455  29.979  33.729  1.00  0.00    -0.206 F 
ATOM     67  C   UNL A   1      46.287  27.460  36.191  1.00  0.00     0.022 A 
BRANCH  64  68
ATOM     68  S   UNL A   1      44.818  25.968  38.035  1.00  0.00     0.124 S 
ATOM     69  O   UNL A   1      44.728  24.678  37.359  1.00  0.00    -0.237 OA
ATOM     70  O   UNL A   1      46.036  26.201  38.804  1.00  0.00    -0.237 OA
ATOM     71  O   UNL A   1      43.584  26.418  38.679  1.00  0.00    -0.744 OA
ENDBRANCH  64  68
ENDBRANCH  38  61
ENDBRANCH  12  13
ENDBRANCH   5   7
ENDBRANCH   2   3
ENDBRANCH   1   2
BRANCH   1  72
ATOM     72  C   UNL A   1      32.012  30.779  26.728  1.00  0.00     0.023 C 
BRANCH  72  73
ATOM     73  C   UNL A   1      31.569  30.145  25.402  1.00  0.00     0.116 C 
BRANCH  73  74
ATOM     74  N   UNL A   1      32.650  29.594  24.593  1.00  0.00    -0.351 N 
ATOM     75  C   UNL A   1      32.698  28.879  23.402  1.00  0.00     0.278 C 
ATOM     76  H   UNL A   1      33.541  29.765  24.974  1.00  0.00     0.163 HD
ATOM     77  O   UNL A   1      33.840  28.761  22.925  1.00  0.00    -0.268 OA
BRANCH  75  78
ATOM     78  C   UNL A   1      31.437  28.179  22.747  1.00  0.00     0.279 C 
ATOM     79  C   UNL A   1      31.545  26.736  22.284  1.00  0.00     0.137 C 
ATOM     80  N   UNL A   1      30.357  27.700  23.714  1.00  0.00    -0.324 N 
ATOM     81  C   UNL A   1      31.008  26.385  23.703  1.00  0.00     0.269 C 
ATOM     82  H   UNL A   1      30.172  28.250  24.554  1.00  0.00     0.348 HD
BRANCH  80  83
ATOM     83  C   UNL A   1      28.977  27.582  23.164  1.00  0.00     0.267 C 
BRANCH  83  84
ATOM     84  C   UNL A   1      27.821  28.657  23.227  1.00  0.00     0.097 C 
BRANCH  84  85
ATOM     85  C   UNL A   1      28.013  30.089  22.718  1.00  0.00    -0.042 A 
ATOM     86  C   UNL A   1      28.004  30.359  21.342  1.00  0.00     0.004 A 
ATOM     87  C   UNL A   1      28.124  31.203  23.571  1.00  0.00     0.004 A 
ATOM     88  C   UNL A   1      28.142  31.671  20.859  1.00  0.00     0.000 A 
ATOM     89  C   UNL A   1      28.331  32.500  23.097  1.00  0.00     0.000 A 
ATOM     90  C   UNL A   1      28.333  32.737  21.734  1.00  0.00     0.000 A 
ENDBRANCH  84  85
ENDBRANCH  83  84
ENDBRANCH  80  83
ENDBRANCH  75  78
ENDBRANCH  73  74
ENDBRANCH  72  73
ENDBRANCH   1  72
TORSDOF 17
ENDMDL
MODEL 2
REMARK VINA RESULT:     -11.7      0.997      8.021
REMARK SMILES O=C(NCCCCNC(=O)[C@H]1CC[N@@H+]1CCc1ccccc1)c1ccc(-c2c3nc(c(-c4cc(S(=O)(=O)[O-])ccc4F)c4ccc([nH]4)c(-c4cc(S(=O)(=O)[O-])ccc4F)c4nc(c(-c5cc(S(=O)(=O)[O-])ccc5F)c5ccc2[nH]5)C=C4)C=C3)cc1
REMARK SMILES IDX 5 1 4 2 3 3 1 4 2 5 23 7 24 8 85 9 25 10 84 11 26 12 27 13
REMARK SMILES IDX 28 14 78 15 29 16 83 17 77 18 79 19 30 20 82 21 76 22 75 23
REMARK SMILES IDX 31 25 63 26 43 27 62 28 44 29 47 30 61 31 80 32 45 33 46 34
REMARK SMILES IDX 60 36 81 37 48 38 32 39 33 40 41 41 34 42 40 43 42 44 39 45
REMARK SMILES IDX 35 46 36 47 37 48 38 49 64 50 65 51 73 52 66 53 72 54 74 55
REMARK SMILES IDX 71 56 67 57 68 58 69 59 70 60 49 61 50 62 58 63 51 64 57 65
REMARK SMILES IDX 59 66 56 67 52 68 53 69 54 70 55 71 6 72 7 73 8 74 9 75
REMARK SMILES IDX 10 77 11 78 12 79 14 80 13 81 15 83 16 84 17 85 18 86 22 87
REMARK SMILES IDX 19 88 21 89 20 90
REMARK H PARENT 3 6 79 24 47 35 8 76 14 82
REMARK Flexibility Score: inf
ROOT
ATOM      1  C   UNL A   1      31.657  31.677  26.675  1.00  0.00     0.023 C 
ENDROOT
BRANCH   1   2
ATOM      2  C   UNL A   1      32.848  32.484  27.164  1.00  0.00     0.116 C 
BRANCH   2   3
ATOM      3  N   UNL A   1      32.524  33.807  27.682  1.00  0.00    -0.352 N 
ATOM      4  O   UNL A   1      32.819  35.548  29.110  1.00  0.00    -0.269 OA
ATOM      5  C   UNL A   1      33.209  34.477  28.677  1.00  0.00     0.251 C 
ATOM      6  H   UNL A   1      31.746  34.264  27.288  1.00  0.00     0.163 HD
BRANCH   5   7
ATOM      7  C   UNL A   1      34.418  33.822  29.226  1.00  0.00     0.039 A 
ATOM      8  C   UNL A   1      34.276  32.788  30.153  1.00  0.00     0.014 A 
ATOM      9  C   UNL A   1      35.680  34.323  28.901  1.00  0.00     0.014 A 
ATOM     10  C   UNL A   1      35.384  32.347  30.862  1.00  0.00     0.010 A 
ATOM     11  C   UNL A   1      36.806  33.813  29.553  1.00  0.00     0.010 A 
ATOM     12  C   UNL A   1      36.663  32.837  30.553  1.00  0.00    -0.014 A 
BRANCH  12  13
ATOM     13  C   UNL A   1      37.844  32.221  31.204  1.00  0.00     0.031 A 
ATOM     14  C   UNL A   1      38.648  31.148  30.527  1.00  0.00     0.074 A 
ATOM     15  C   UNL A   1      38.181  32.664  32.433  1.00  0.00     0.049 A 
ATOM     16  N   UNL A   1      39.685  30.492  30.980  1.00  0.00    -0.248 NA
ATOM     17  C   UNL A   1      38.236  30.753  29.171  1.00  0.00     0.031 C 
ATOM     18  C   UNL A   1      37.457  33.702  33.175  1.00  0.00     0.029 A 
ATOM     19  N   UNL A   1      39.203  32.313  33.271  1.00  0.00    -0.354 N 
ATOM     20  C   UNL A   1      40.038  29.591  29.981  1.00  0.00     0.074 A 
ATOM     21  C   UNL A   1      39.097  29.780  28.898  1.00  0.00     0.031 C 
ATOM     22  C   UNL A   1      38.074  33.922  34.343  1.00  0.00     0.029 A 
ATOM     23  C   UNL A   1      39.183  32.987  34.471  1.00  0.00     0.049 A 
ATOM     24  H   UNL A   1      39.886  31.644  33.041  1.00  0.00     0.167 HD
ATOM     25  C   UNL A   1      41.052  28.692  29.983  1.00  0.00     0.034 A 
ATOM     26  C   UNL A   1      39.942  32.840  35.571  1.00  0.00     0.034 A 
ATOM     27  C   UNL A   1      41.987  28.537  31.074  1.00  0.00     0.049 A 
ATOM     28  C   UNL A   1      41.031  31.804  35.553  1.00  0.00     0.074 A 
ATOM     29  C   UNL A   1      43.099  27.717  31.144  1.00  0.00     0.029 A 
ATOM     30  N   UNL A   1      41.909  29.202  32.291  1.00  0.00    -0.354 N 
ATOM     31  N   UNL A   1      41.378  30.993  34.580  1.00  0.00    -0.248 NA
ATOM     32  C   UNL A   1      41.825  31.659  36.778  1.00  0.00     0.031 C 
ATOM     33  C   UNL A   1      43.650  27.831  32.425  1.00  0.00     0.029 A 
ATOM     34  C   UNL A   1      42.922  28.773  33.134  1.00  0.00     0.049 A 
ATOM     35  H   UNL A   1      41.233  29.880  32.521  1.00  0.00     0.167 HD
ATOM     36  C   UNL A   1      42.437  30.243  35.077  1.00  0.00     0.074 A 
ATOM     37  C   UNL A   1      42.691  30.723  36.422  1.00  0.00     0.031 C 
ATOM     38  C   UNL A   1      43.134  29.243  34.483  1.00  0.00     0.034 A 
BRANCH  25  39
ATOM     39  C   UNL A   1      41.185  27.766  28.799  1.00  0.00     0.023 A 
ATOM     40  C   UNL A   1      42.178  27.938  27.820  1.00  0.00     0.031 A 
ATOM     41  C   UNL A   1      40.322  26.661  28.679  1.00  0.00     0.131 A 
ATOM     42  C   UNL A   1      42.263  27.038  26.745  1.00  0.00     0.055 A 
ATOM     43  C   UNL A   1      40.448  25.738  27.638  1.00  0.00     0.041 A 
ATOM     44  F   UNL A   1      39.345  26.457  29.575  1.00  0.00    -0.206 F 
ATOM     45  C   UNL A   1      41.419  25.927  26.660  1.00  0.00     0.022 A 
BRANCH  42  46
ATOM     46  S   UNL A   1      43.446  27.377  25.412  1.00  0.00     0.124 S 
ATOM     47  O   UNL A   1      44.079  26.072  25.239  1.00  0.00    -0.237 OA
ATOM     48  O   UNL A   1      42.580  27.816  24.325  1.00  0.00    -0.237 OA
ATOM     49  O   UNL A   1      44.312  28.411  25.976  1.00  0.00    -0.744 OA
ENDBRANCH  42  46
ENDBRANCH  25  39
BRANCH  26  50
ATOM     50  C   UNL A   1      39.654  33.637  36.796  1.00  0.00     0.023 A 
ATOM     51  C   UNL A   1      39.007  33.066  37.901  1.00  0.00     0.031 A 
ATOM     52  C   UNL A   1      39.992  35.003  36.862  1.00  0.00     0.131 A 
ATOM     53  C   UNL A   1      38.678  33.864  39.006  1.00  0.00     0.055 A 
ATOM     54  C   UNL A   1      39.715  35.778  37.988  1.00  0.00     0.041 A 
ATOM     55  F   UNL A   1      40.614  35.600  35.833  1.00  0.00    -0.206 F 
ATOM     56  C   UNL A   1      39.040  35.212  39.063  1.00  0.00     0.022 A 
BRANCH  53  57
ATOM     57  S   UNL A   1      37.671  33.139  40.328  1.00  0.00     0.124 S 
ATOM     58  O   UNL A   1      37.588  34.243  41.279  1.00  0.00    -0.237 OA
ATOM     59  O   UNL A   1      36.439  32.807  39.620  1.00  0.00    -0.237 OA
ATOM     60  O   UNL A   1      38.464  31.994  40.770  1.00  0.00    -0.744 OA
ENDBRANCH  53  57
ENDBRANCH  26  50
BRANCH  38  61
ATOM     61  C   UNL A   1      44.237  28.622  35.298  1.00  0.00     0.023 A 
ATOM     62  C   UNL A   1      43.983  27.547  36.167  1.00  0.00     0.031 A 
ATOM     63  C   UNL A   1      45.545  29.133  35.235  1.00  0.00     0.131 A 
ATOM     64  C   UNL A   1      45.008  27.055  36.986  1.00  0.00     0.055 A 
ATOM     65  C   UNL A   1      46.576  28.600  36.009  1.00  0.00     0.041 A 
ATOM     66  F   UNL A   1      45.839  30.162  34.423  1.00  0.00    -0.206 F 
ATOM     67  C   UNL A   1      46.307  27.564  36.901  1.00  0.00     0.022 A 
BRANCH  64  68
ATOM     68  S   UNL A   1      44.602  25.798  38.227  1.00  0.00     0.124 S 
ATOM     69  O   UNL A   1      43.660  26.512  39.083  1.00  0.00    -0.237 OA
ATOM     70  O   UNL A   1      44.037  24.726  37.415  1.00  0.00    -0.237 OA
ATOM     71  O   UNL A   1      45.893  25.494  38.843  1.00  0.00    -0.744 OA
ENDBRANCH  64  68
ENDBRANCH  38  61
ENDBRANCH  12  13
ENDBRANCH   5   7
ENDBRANCH   2   3
ENDBRANCH   1   2
BRANCH   1  72
ATOM     72  C   UNL A   1      31.822  30.165  26.762  1.00  0.00     0.023 C 
BRANCH  72  73
ATOM     73  C   UNL A   1      33.236  29.655  27.071  1.00  0.00     0.116 C 
BRANCH  73  74
ATOM     74  N   UNL A   1      33.506  28.288  26.636  1.00  0.00    -0.351 N 
ATOM     75  C   UNL A   1      33.451  27.635  25.411  1.00  0.00     0.278 C 
ATOM     76  H   UNL A   1      33.788  27.700  27.373  1.00  0.00     0.163 HD
ATOM     77  O   UNL A   1      33.955  26.500  25.416  1.00  0.00    -0.268 OA
BRANCH  75  78
ATOM     78  C   UNL A   1      32.722  28.226  24.134  1.00  0.00     0.279 C 
ATOM     79  C   UNL A   1      33.537  28.526  22.886  1.00  0.00     0.137 C 
ATOM     80  N   UNL A   1      31.944  27.225  23.283  1.00  0.00    -0.324 N 
ATOM     81  C   UNL A   1      33.143  27.084  22.450  1.00  0.00     0.269 C 
ATOM     82  H   UNL A   1      31.465  26.454  23.749  1.00  0.00     0.348 HD
BRANCH  80  83
ATOM     83  C   UNL A   1      30.826  27.777  22.465  1.00  0.00     0.267 C 
BRANCH  83  84
ATOM     84  C   UNL A   1      29.477  28.413  22.985  1.00  0.00     0.097 C 
BRANCH  84  85
ATOM     85  C   UNL A   1      29.099  29.869  22.697  1.00  0.00    -0.042 A 
ATOM     86  C   UNL A   1      28.600  30.237  21.439  1.00  0.00     0.004 A 
ATOM     87  C   UNL A   1      29.148  30.886  23.670  1.00  0.00     0.004 A 
ATOM     88  C   UNL A   1      28.215  31.561  21.169  1.00  0.00     0.000 A 
ATOM     89  C   UNL A   1      28.832  32.217  23.388  1.00  0.00     0.000 A 
ATOM     90  C   UNL A   1      28.357  32.555  22.134  1.00  0.00     0.000 A 
ENDBRANCH  84  85
ENDBRANCH  83  84
ENDBRANCH  80  83
ENDBRANCH  75  78
ENDBRANCH  73  74
ENDBRANCH  72  73
ENDBRANCH   1  72
TORSDOF 17
ENDMDL
MODEL 3
REMARK VINA RESULT:     -11.6      3.820      9.431
REMARK SMILES O=C(NCCCCNC(=O)[C@H]1CC[N@@H+]1CCc1ccccc1)c1ccc(-c2c3nc(c(-c4cc(S(=O)(=O)[O-])ccc4F)c4ccc([nH]4)c(-c4cc(S(=O)(=O)[O-])ccc4F)c4nc(c(-c5cc(S(=O)(=O)[O-])ccc5F)c5ccc2[nH]5)C=C4)C=C3)cc1
REMARK SMILES IDX 5 1 4 2 3 3 1 4 2 5 23 7 24 8 85 9 25 10 84 11 26 12 27 13
REMARK SMILES IDX 28 14 78 15 29 16 83 17 77 18 79 19 30 20 82 21 76 22 75 23
REMARK SMILES IDX 31 25 63 26 43 27 62 28 44 29 47 30 61 31 80 32 45 33 46 34
REMARK SMILES IDX 60 36 81 37 48 38 32 39 33 40 41 41 34 42 40 43 42 44 39 45
REMARK SMILES IDX 35 46 36 47 37 48 38 49 64 50 65 51 73 52 66 53 72 54 74 55
REMARK SMILES IDX 71 56 67 57 68 58 69 59 70 60 49 61 50 62 58 63 51 64 57 65
REMARK SMILES IDX 59 66 56 67 52 68 53 69 54 70 55 71 6 72 7 73 8 74 9 75
REMARK SMILES IDX 10 77 11 78 12 79 14 80 13 81 15 83 16 84 17 85 18 86 22 87
REMARK SMILES IDX 19 88 21 89 20 90
REMARK H PARENT 3 6 79 24 47 35 8 76 14 82
REMARK Flexibility Score: inf
ROOT
ATOM      1  C   UNL A   1      32.919  27.659  26.474  1.00  0.00     0.023 C 
ENDROOT
BRANCH   1   2
ATOM      2  C   UNL A   1      33.444  28.871  25.723  1.00  0.00     0.116 C 
BRANCH   2   3
ATOM      3  N   UNL A   1      32.809  30.136  26.074  1.00  0.00    -0.352 N 
ATOM      4  O   UNL A   1      32.647  32.050  27.285  1.00  0.00    -0.269 OA
ATOM      5  C   UNL A   1      33.285  31.055  26.989  1.00  0.00     0.251 C 
ATOM      6  H   UNL A   1      31.965  30.354  25.617  1.00  0.00     0.163 HD
BRANCH   5   7
ATOM      7  C   UNL A   1      34.588  30.761  27.629  1.00  0.00     0.039 A 
ATOM      8  C   UNL A   1      34.767  29.547  28.294  1.00  0.00     0.014 A 
ATOM      9  C   UNL A   1      35.577  31.746  27.661  1.00  0.00     0.014 A 
ATOM     10  C   UNL A   1      35.876  29.369  29.108  1.00  0.00     0.010 A 
ATOM     11  C   UNL A   1      36.736  31.528  28.410  1.00  0.00     0.010 A 
ATOM     12  C   UNL A   1      36.883  30.347  29.156  1.00  0.00    -0.014 A 
BRANCH  12  13
ATOM     13  C   UNL A   1      38.134  30.052  29.896  1.00  0.00     0.031 A 
ATOM     14  C   UNL A   1      39.196  29.156  29.324  1.00  0.00     0.074 A 
ATOM     15  C   UNL A   1      38.292  30.626  31.106  1.00  0.00     0.049 A 
ATOM     16  N   UNL A   1      40.326  28.780  29.863  1.00  0.00    -0.248 NA
ATOM     17  C   UNL A   1      38.960  28.606  27.980  1.00  0.00     0.031 C 
ATOM     18  C   UNL A   1      37.312  31.509  31.748  1.00  0.00     0.029 A 
ATOM     19  N   UNL A   1      39.319  30.562  32.008  1.00  0.00    -0.354 N 
ATOM     20  C   UNL A   1      40.929  27.932  28.940  1.00  0.00     0.074 A 
ATOM     21  C   UNL A   1      40.032  27.842  27.808  1.00  0.00     0.031 C 
ATOM     22  C   UNL A   1      37.797  31.926  32.925  1.00  0.00     0.029 A 
ATOM     23  C   UNL A   1      39.079  31.277  33.160  1.00  0.00     0.049 A 
ATOM     24  H   UNL A   1      40.147  30.055  31.851  1.00  0.00     0.167 HD
ATOM     25  C   UNL A   1      42.118  27.289  29.043  1.00  0.00     0.034 A 
ATOM     26  C   UNL A   1      39.789  31.366  34.299  1.00  0.00     0.034 A 
ATOM     27  C   UNL A   1      43.002  27.410  30.181  1.00  0.00     0.049 A 
ATOM     28  C   UNL A   1      41.083  30.607  34.394  1.00  0.00     0.074 A 
ATOM     29  C   UNL A   1      44.264  26.871  30.351  1.00  0.00     0.029 A 
ATOM     30  N   UNL A   1      42.707  28.104  31.347  1.00  0.00    -0.354 N 
ATOM     31  N   UNL A   1      41.658  29.846  33.491  1.00  0.00    -0.248 NA
ATOM     32  C   UNL A   1      41.819  30.713  35.658  1.00  0.00     0.031 C 
ATOM     33  C   UNL A   1      44.702  27.176  31.645  1.00  0.00     0.029 A 
ATOM     34  C   UNL A   1      43.742  27.963  32.260  1.00  0.00     0.049 A 
ATOM     35  H   UNL A   1      41.884  28.621  31.504  1.00  0.00     0.167 HD
ATOM     36  C   UNL A   1      42.830  29.385  34.081  1.00  0.00     0.074 A 
ATOM     37  C   UNL A   1      42.892  29.982  35.401  1.00  0.00     0.031 C 
ATOM     38  C   UNL A   1      43.766  28.541  33.582  1.00  0.00     0.034 A 
BRANCH  25  39
ATOM     39  C   UNL A   1      42.523  26.356  27.929  1.00  0.00     0.023 A 
ATOM     40  C   UNL A   1      41.999  25.058  27.810  1.00  0.00     0.031 A 
ATOM     41  C   UNL A   1      43.423  26.799  26.941  1.00  0.00     0.131 A 
ATOM     42  C   UNL A   1      42.404  24.236  26.745  1.00  0.00     0.055 A 
ATOM     43  C   UNL A   1      43.777  25.997  25.854  1.00  0.00     0.041 A 
ATOM     44  F   UNL A   1      43.968  28.023  27.014  1.00  0.00    -0.206 F 
ATOM     45  C   UNL A   1      43.272  24.706  25.755  1.00  0.00     0.022 A 
BRANCH  42  46
ATOM     46  S   UNL A   1      41.838  22.513  26.708  1.00  0.00     0.124 S 
ATOM     47  O   UNL A   1      42.403  22.043  25.445  1.00  0.00    -0.237 OA
ATOM     48  O   UNL A   1      42.433  21.958  27.918  1.00  0.00    -0.237 OA
ATOM     49  O   UNL A   1      40.382  22.628  26.725  1.00  0.00    -0.744 OA
ENDBRANCH  42  46
ENDBRANCH  25  39
BRANCH  26  50
ATOM     50  C   UNL A   1      39.260  32.141  35.456  1.00  0.00     0.023 A 
ATOM     51  C   UNL A   1      38.626  31.502  36.530  1.00  0.00     0.031 A 
ATOM     52  C   UNL A   1      39.351  33.546  35.483  1.00  0.00     0.131 A 
ATOM     53  C   UNL A   1      38.067  32.266  37.565  1.00  0.00     0.055 A 
ATOM     54  C   UNL A   1      38.846  34.298  36.544  1.00  0.00     0.041 A 
ATOM     55  F   UNL A   1      39.950  34.208  34.480  1.00  0.00    -0.206 F 
ATOM     56  C   UNL A   1      38.186  33.658  37.586  1.00  0.00     0.022 A 
BRANCH  53  57
ATOM     57  S   UNL A   1      37.087  31.421  38.834  1.00  0.00     0.124 S 
ATOM     58  O   UNL A   1      35.907  32.275  38.918  1.00  0.00    -0.237 OA
ATOM     59  O   UNL A   1      36.886  30.107  38.232  1.00  0.00    -0.237 OA
ATOM     60  O   UNL A   1      37.958  31.443  40.007  1.00  0.00    -0.744 OA
ENDBRANCH  53  57
ENDBRANCH  26  50
BRANCH  38  61
ATOM     61  C   UNL A   1      44.933  28.232  34.483  1.00  0.00     0.023 A 
ATOM     62  C   UNL A   1      44.894  27.152  35.381  1.00  0.00     0.031 A 
ATOM     63  C   UNL A   1      46.078  29.047  34.471  1.00  0.00     0.131 A 
ATOM     64  C   UNL A   1      45.954  26.950  36.274  1.00  0.00     0.055 A 
ATOM     65  C   UNL A   1      47.156  28.806  35.321  1.00  0.00     0.041 A 
ATOM     66  F   UNL A   1      46.163  30.095  33.634  1.00  0.00    -0.206 F 
ATOM     67  C   UNL A   1      47.092  27.761  36.240  1.00  0.00     0.022 A 
BRANCH  64  68
ATOM     68  S   UNL A   1      45.789  25.666  37.543  1.00  0.00     0.124 S 
ATOM     69  O   UNL A   1      47.149  25.143  37.624  1.00  0.00    -0.237 OA
ATOM     70  O   UNL A   1      45.329  26.425  38.701  1.00  0.00    -0.237 OA
ATOM     71  O   UNL A   1      44.804  24.747  36.974  1.00  0.00    -0.744 OA
ENDBRANCH  64  68
ENDBRANCH  38  61
ENDBRANCH  12  13
ENDBRANCH   5   7
ENDBRANCH   2   3
ENDBRANCH   1   2
BRANCH   1  72
ATOM     72  C   UNL A   1      31.401  27.526  26.502  1.00  0.00     0.023 C 
BRANCH  72  73
ATOM     73  C   UNL A   1      30.802  26.432  25.609  1.00  0.00     0.116 C 
BRANCH  73  74
ATOM     74  N   UNL A   1      30.235  25.294  26.325  1.00  0.00    -0.351 N 
ATOM     75  C   UNL A   1      30.692  24.017  26.626  1.00  0.00     0.278 C 
ATOM     76  H   UNL A   1      29.330  25.470  26.671  1.00  0.00     0.163 HD
ATOM     77  O   UNL A   1      29.982  23.400  27.439  1.00  0.00    -0.268 OA
BRANCH  75  78
ATOM     78  C   UNL A   1      31.946  23.346  25.928  1.00  0.00     0.279 C 
ATOM     79  C   UNL A   1      33.344  23.730  26.386  1.00  0.00     0.137 C 
ATOM     80  N   UNL A   1      32.281  21.925  26.374  1.00  0.00    -0.324 N 
ATOM     81  C   UNL A   1      33.217  22.507  27.342  1.00  0.00     0.269 C 
ATOM     82  H   UNL A   1      31.516  21.293  26.612  1.00  0.00     0.348 HD
BRANCH  80  83
ATOM     83  C   UNL A   1      33.029  21.082  25.397  1.00  0.00     0.267 C 
BRANCH  83  84
ATOM     84  C   UNL A   1      32.439  19.994  24.416  1.00  0.00     0.097 C 
BRANCH  84  85
ATOM     85  C   UNL A   1      32.850  18.520  24.493  1.00  0.00    -0.042 A 
ATOM     86  C   UNL A   1      33.493  17.905  23.408  1.00  0.00     0.004 A 
ATOM     87  C   UNL A   1      32.690  17.734  25.650  1.00  0.00     0.004 A 
ATOM     88  C   UNL A   1      33.909  16.566  23.475  1.00  0.00     0.000 A 
ATOM     89  C   UNL A   1      33.038  16.382  25.698  1.00  0.00     0.000 A 
ATOM     90  C   UNL A   1      33.657  15.796  24.609  1.00  0.00     0.000 A 
ENDBRANCH  84  85
ENDBRANCH  83  84
ENDBRANCH  80  83
ENDBRANCH  75  78
ENDBRANCH  73  74
ENDBRANCH  72  73
ENDBRANCH   1  72
TORSDOF 17
ENDMDL
