MODEL 1
REMARK VINA RESULT:     -12.9      0.000      0.000
REMARK SMILES O=C(NCCCCNC(=O)c1ccccc1-c1ccccc1C(=O)N1CC[NH+](Cc2ccc3c(c2)OCO3)CC1)c1ccc(-c2c3nc(c(-c4cc(S(=O)(=O)[O-])ccc4F)c4ccc([nH]4)c(-c4cc(S(=O)(=O)[O-])ccc4F)c4nc(c(-c5cc(S(=O)(=O)[O-])ccc5F)c5ccc2[nH]5)C=C4)C=C3)cc1
REMARK SMILES IDX 6 1 5 2 4 3 3 4 1 5 2 6 41 8 42 9 103 10 43 11 102 12 44 13
REMARK SMILES IDX 45 14 46 15 96 16 47 17 101 18 95 19 97 20 48 21 100 22
REMARK SMILES IDX 94 23 93 24 49 26 81 27 61 28 80 29 62 30 65 31 79 32 98 33
REMARK SMILES IDX 63 34 64 35 78 37 99 38 66 39 50 40 51 41 59 42 52 43 58 44
REMARK SMILES IDX 60 45 57 46 53 47 54 48 55 49 56 50 82 51 83 52 91 53 84 54
REMARK SMILES IDX 90 55 92 56 89 57 85 58 86 59 87 60 88 61 67 62 68 63 76 64
REMARK SMILES IDX 69 65 75 66 77 67 74 68 70 69 71 70 72 71 73 72 7 73 8 74
REMARK SMILES IDX 9 75 10 77 11 78 12 79 16 80 13 81 15 82 14 83 17 84 18 85
REMARK SMILES IDX 22 86 19 87 21 88 20 89 23 90 24 91 25 92 26 93 40 94 27 95
REMARK SMILES IDX 39 96 28 97 29 99 30 100 31 101 35 102 32 103 34 104 33 105
REMARK SMILES IDX 36 106 38 107 37 108
REMARK H PARENT 3 7 97 25 65 36 8 76 28 98
REMARK Flexibility Score: inf
ROOT
ATOM      1  C   UNL A   1      38.730  22.449  26.091  1.00  0.00     0.023 C 
ENDROOT
BRANCH   1   2
ATOM      2  C   UNL A   1      39.173  21.071  25.599  1.00  0.00     0.023 C 
BRANCH   2   3
ATOM      3  C   UNL A   1      39.918  20.248  26.640  1.00  0.00     0.116 C 
BRANCH   3   4
ATOM      4  N   UNL A   1      41.037  19.512  26.062  1.00  0.00    -0.352 N 
ATOM      5  O   UNL A   1      43.070  19.268  25.118  1.00  0.00    -0.269 OA
ATOM      6  C   UNL A   1      42.290  19.966  25.732  1.00  0.00     0.251 C 
ATOM      7  H   UNL A   1      40.870  18.557  25.885  1.00  0.00     0.163 HD
BRANCH   6   8
ATOM      8  C   UNL A   1      42.641  21.337  26.139  1.00  0.00     0.039 A 
ATOM      9  C   UNL A   1      42.616  22.361  25.188  1.00  0.00     0.014 A 
ATOM     10  C   UNL A   1      43.063  21.571  27.448  1.00  0.00     0.014 A 
ATOM     11  C   UNL A   1      43.133  23.601  25.517  1.00  0.00     0.010 A 
ATOM     12  C   UNL A   1      43.494  22.849  27.801  1.00  0.00     0.010 A 
ATOM     13  C   UNL A   1      43.543  23.866  26.834  1.00  0.00    -0.014 A 
BRANCH  13  14
ATOM     14  C   UNL A   1      43.899  25.254  27.201  1.00  0.00     0.031 A 
ATOM     15  C   UNL A   1      42.877  26.205  27.747  1.00  0.00     0.074 A 
ATOM     16  C   UNL A   1      45.183  25.628  27.030  1.00  0.00     0.049 A 
ATOM     17  N   UNL A   1      43.025  27.459  28.085  1.00  0.00    -0.248 NA
ATOM     18  C   UNL A   1      41.512  25.690  27.932  1.00  0.00     0.031 C 
ATOM     19  C   UNL A   1      46.243  24.763  26.496  1.00  0.00     0.029 A 
ATOM     20  N   UNL A   1      45.823  26.807  27.295  1.00  0.00    -0.354 N 
ATOM     21  C   UNL A   1      41.772  27.895  28.500  1.00  0.00     0.074 A 
ATOM     22  C   UNL A   1      40.870  26.772  28.358  1.00  0.00     0.031 C 
ATOM     23  C   UNL A   1      47.405  25.428  26.514  1.00  0.00     0.029 A 
ATOM     24  C   UNL A   1      47.161  26.787  26.974  1.00  0.00     0.049 A 
ATOM     25  H   UNL A   1      45.371  27.594  27.676  1.00  0.00     0.167 HD
ATOM     26  C   UNL A   1      41.421  29.124  28.951  1.00  0.00     0.034 A 
ATOM     27  C   UNL A   1      48.081  27.766  27.008  1.00  0.00     0.034 A 
ATOM     28  C   UNL A   1      42.352  30.219  29.090  1.00  0.00     0.049 A 
ATOM     29  C   UNL A   1      47.649  29.124  27.487  1.00  0.00     0.074 A 
ATOM     30  C   UNL A   1      42.119  31.491  29.586  1.00  0.00     0.029 A 
ATOM     31  N   UNL A   1      43.693  30.178  28.723  1.00  0.00    -0.354 N 
ATOM     32  N   UNL A   1      46.464  29.513  27.900  1.00  0.00    -0.248 NA
ATOM     33  C   UNL A   1      48.672  30.173  27.502  1.00  0.00     0.031 C 
ATOM     34  C   UNL A   1      43.296  32.235  29.454  1.00  0.00     0.029 A 
ATOM     35  C   UNL A   1      44.286  31.411  28.944  1.00  0.00     0.049 A 
ATOM     36  H   UNL A   1      44.153  29.387  28.359  1.00  0.00     0.167 HD
ATOM     37  C   UNL A   1      46.604  30.853  28.236  1.00  0.00     0.074 A 
ATOM     38  C   UNL A   1      47.995  31.193  28.008  1.00  0.00     0.031 C 
ATOM     39  C   UNL A   1      45.671  31.728  28.685  1.00  0.00     0.034 A 
BRANCH  26  40
ATOM     40  C   UNL A   1      39.969  29.372  29.277  1.00  0.00     0.023 A 
ATOM     41  C   UNL A   1      39.495  29.421  30.599  1.00  0.00     0.031 A 
ATOM     42  C   UNL A   1      39.046  29.593  28.236  1.00  0.00     0.131 A 
ATOM     43  C   UNL A   1      38.130  29.649  30.844  1.00  0.00     0.055 A 
ATOM     44  C   UNL A   1      37.703  29.880  28.489  1.00  0.00     0.041 A 
ATOM     45  F   UNL A   1      39.438  29.538  26.954  1.00  0.00    -0.206 F 
ATOM     46  C   UNL A   1      37.238  29.903  29.800  1.00  0.00     0.022 A 
BRANCH  43  47
ATOM     47  S   UNL A   1      37.516  29.528  32.547  1.00  0.00     0.124 S 
ATOM     48  O   UNL A   1      38.450  30.396  33.259  1.00  0.00    -0.237 OA
ATOM     49  O   UNL A   1      36.149  30.020  32.427  1.00  0.00    -0.237 OA
ATOM     50  O   UNL A   1      37.641  28.104  32.857  1.00  0.00    -0.744 OA
ENDBRANCH  43  47
ENDBRANCH  26  40
BRANCH  27  51
ATOM     51  C   UNL A   1      49.468  27.515  26.528  1.00  0.00     0.023 A 
ATOM     52  C   UNL A   1      49.825  27.740  25.190  1.00  0.00     0.031 A 
ATOM     53  C   UNL A   1      50.454  27.010  27.397  1.00  0.00     0.131 A 
ATOM     54  C   UNL A   1      51.116  27.415  24.748  1.00  0.00     0.055 A 
ATOM     55  C   UNL A   1      51.755  26.749  26.967  1.00  0.00     0.041 A 
ATOM     56  F   UNL A   1      50.168  26.779  28.688  1.00  0.00    -0.206 F 
ATOM     57  C   UNL A   1      52.088  26.935  25.630  1.00  0.00     0.022 A 
BRANCH  54  58
ATOM     58  S   UNL A   1      51.476  27.524  22.974  1.00  0.00     0.124 S 
ATOM     59  O   UNL A   1      52.542  26.541  22.825  1.00  0.00    -0.237 OA
ATOM     60  O   UNL A   1      50.189  27.170  22.383  1.00  0.00    -0.237 OA
ATOM     61  O   UNL A   1      51.881  28.917  22.796  1.00  0.00    -0.744 OA
ENDBRANCH  54  58
ENDBRANCH  27  51
BRANCH  39  62
ATOM     62  C   UNL A   1      46.153  33.126  28.974  1.00  0.00     0.023 A 
ATOM     63  C   UNL A   1      46.216  34.102  27.963  1.00  0.00     0.031 A 
ATOM     64  C   UNL A   1      46.593  33.474  30.263  1.00  0.00     0.131 A 
ATOM     65  C   UNL A   1      46.771  35.358  28.242  1.00  0.00     0.055 A 
ATOM     66  C   UNL A   1      47.086  34.746  30.549  1.00  0.00     0.041 A 
ATOM     67  F   UNL A   1      46.557  32.578  31.261  1.00  0.00    -0.206 F 
ATOM     68  C   UNL A   1      47.192  35.692  29.532  1.00  0.00     0.022 A 
BRANCH  65  69
ATOM     69  S   UNL A   1      47.030  36.516  26.870  1.00  0.00     0.124 S 
ATOM     70  O   UNL A   1      48.339  37.076  27.190  1.00  0.00    -0.237 OA
ATOM     71  O   UNL A   1      46.980  35.637  25.706  1.00  0.00    -0.237 OA
ATOM     72  O   UNL A   1      45.910  37.447  26.992  1.00  0.00    -0.744 OA
ENDBRANCH  65  69
ENDBRANCH  39  62
ENDBRANCH  13  14
ENDBRANCH   6   8
ENDBRANCH   3   4
ENDBRANCH   2   3
ENDBRANCH   1   2
BRANCH   1  73
ATOM     73  C   UNL A   1      37.332  22.843  25.631  1.00  0.00     0.116 C 
BRANCH  73  74
ATOM     74  N   UNL A   1      36.769  21.791  24.821  1.00  0.00    -0.352 N 
ATOM     75  C   UNL A   1      35.711  21.018  25.189  1.00  0.00     0.251 C 
ATOM     76  H   UNL A   1      37.178  21.620  23.942  1.00  0.00     0.163 HD
ATOM     77  O   UNL A   1      35.729  19.817  24.935  1.00  0.00    -0.269 OA
BRANCH  75  78
ATOM     78  C   UNL A   1      34.566  21.636  25.908  1.00  0.00     0.047 A 
ATOM     79  C   UNL A   1      34.758  21.802  27.292  1.00  0.00     0.014 A 
ATOM     80  C   UNL A   1      33.333  21.986  25.306  1.00  0.00    -0.005 A 
ATOM     81  C   UNL A   1      33.757  22.341  28.093  1.00  0.00     0.001 A 
ATOM     82  C   UNL A   1      32.341  22.540  26.150  1.00  0.00     0.009 A 
ATOM     83  C   UNL A   1      32.550  22.719  27.521  1.00  0.00     0.001 A 
BRANCH  80  84
ATOM     84  C   UNL A   1      33.005  21.869  23.859  1.00  0.00    -0.005 A 
ATOM     85  C   UNL A   1      32.316  20.689  23.466  1.00  0.00     0.009 A 
ATOM     86  C   UNL A   1      33.258  22.835  22.857  1.00  0.00     0.047 A 
ATOM     87  C   UNL A   1      31.854  20.485  22.164  1.00  0.00     0.001 A 
ATOM     88  C   UNL A   1      32.787  22.608  21.541  1.00  0.00     0.014 A 
ATOM     89  C   UNL A   1      32.087  21.450  21.199  1.00  0.00     0.001 A 
BRANCH  86  90
ATOM     90  C   UNL A   1      33.814  24.201  23.093  1.00  0.00     0.254 C 
ATOM     91  O   UNL A   1      35.041  24.304  23.168  1.00  0.00    -0.269 OA
ATOM     92  N   UNL A   1      32.988  25.316  23.142  1.00  0.00    -0.327 N 
ATOM     93  C   UNL A   1      33.589  26.603  22.817  1.00  0.00     0.181 C 
ATOM     94  C   UNL A   1      31.787  25.414  23.960  1.00  0.00     0.181 C 
ATOM     95  C   UNL A   1      32.570  27.562  22.169  1.00  0.00     0.284 C 
ATOM     96  C   UNL A   1      30.778  26.480  23.456  1.00  0.00     0.284 C 
ATOM     97  N   UNL A   1      31.286  27.731  22.873  1.00  0.00    -0.328 N 
ATOM     98  H   UNL A   1      30.600  27.940  22.147  1.00  0.00     0.348 HD
BRANCH  97  99
ATOM     99  C   UNL A   1      31.174  28.944  23.685  1.00  0.00     0.299 C 
BRANCH  99 100
ATOM    100  C   UNL A   1      29.946  29.766  23.377  1.00  0.00     0.010 A 
ATOM    101  C   UNL A   1      29.654  30.905  24.160  1.00  0.00     0.013 A 
ATOM    102  C   UNL A   1      29.266  29.544  22.168  1.00  0.00     0.060 A 
ATOM    103  C   UNL A   1      28.828  31.913  23.661  1.00  0.00     0.051 A 
ATOM    104  C   UNL A   1      28.521  30.586  21.674  1.00  0.00     0.166 A 
ATOM    105  C   UNL A   1      28.337  31.750  22.384  1.00  0.00     0.165 A 
ATOM    106  O   UNL A   1      28.055  30.680  20.398  1.00  0.00    -0.454 OA
ATOM    107  O   UNL A   1      27.738  32.714  21.631  1.00  0.00    -0.454 OA
ATOM    108  C   UNL A   1      27.849  32.106  20.323  1.00  0.00     0.468 C 
ENDBRANCH  99 100
ENDBRANCH  97  99
ENDBRANCH  86  90
ENDBRANCH  80  84
ENDBRANCH  75  78
ENDBRANCH  73  74
ENDBRANCH   1  73
TORSDOF 18
ENDMDL
MODEL 2
REMARK VINA RESULT:     -12.8      1.626      7.252
REMARK SMILES O=C(NCCCCNC(=O)c1ccccc1-c1ccccc1C(=O)N1CC[NH+](Cc2ccc3c(c2)OCO3)CC1)c1ccc(-c2c3nc(c(-c4cc(S(=O)(=O)[O-])ccc4F)c4ccc([nH]4)c(-c4cc(S(=O)(=O)[O-])ccc4F)c4nc(c(-c5cc(S(=O)(=O)[O-])ccc5F)c5ccc2[nH]5)C=C4)C=C3)cc1
REMARK SMILES IDX 6 1 5 2 4 3 3 4 1 5 2 6 41 8 42 9 103 10 43 11 102 12 44 13
REMARK SMILES IDX 45 14 46 15 96 16 47 17 101 18 95 19 97 20 48 21 100 22
REMARK SMILES IDX 94 23 93 24 49 26 81 27 61 28 80 29 62 30 65 31 79 32 98 33
REMARK SMILES IDX 63 34 64 35 78 37 99 38 66 39 50 40 51 41 59 42 52 43 58 44
REMARK SMILES IDX 60 45 57 46 53 47 54 48 55 49 56 50 82 51 83 52 91 53 84 54
REMARK SMILES IDX 90 55 92 56 89 57 85 58 86 59 87 60 88 61 67 62 68 63 76 64
REMARK SMILES IDX 69 65 75 66 77 67 74 68 70 69 71 70 72 71 73 72 7 73 8 74
REMARK SMILES IDX 9 75 10 77 11 78 12 79 16 80 13 81 15 82 14 83 17 84 18 85
REMARK SMILES IDX 22 86 19 87 21 88 20 89 23 90 24 91 25 92 26 93 40 94 27 95
REMARK SMILES IDX 39 96 28 97 29 99 30 100 31 101 35 102 32 103 34 104 33 105
REMARK SMILES IDX 36 106 38 107 37 108
REMARK H PARENT 3 7 97 25 65 36 8 76 28 98
REMARK Flexibility Score: inf
ROOT
ATOM      1  C   UNL A   1      38.490  22.775  26.166  1.00  0.00     0.023 C 
ENDROOT
BRANCH   1   2
ATOM      2  C   UNL A   1      39.175  21.490  25.700  1.00  0.00     0.023 C 
BRANCH   2   3
ATOM      3  C   UNL A   1      40.002  20.800  26.775  1.00  0.00     0.116 C 
BRANCH   3   4
ATOM      4  N   UNL A   1      41.160  20.108  26.220  1.00  0.00    -0.352 N 
ATOM      5  O   UNL A   1      43.218  19.944  25.312  1.00  0.00    -0.269 OA
ATOM      6  C   UNL A   1      42.399  20.612  25.910  1.00  0.00     0.251 C 
ATOM      7  H   UNL A   1      41.036  19.147  26.044  1.00  0.00     0.163 HD
BRANCH   6   8
ATOM      8  C   UNL A   1      42.686  21.998  26.318  1.00  0.00     0.039 A 
ATOM      9  C   UNL A   1      42.923  22.278  27.666  1.00  0.00     0.014 A 
ATOM     10  C   UNL A   1      42.644  23.012  25.361  1.00  0.00     0.014 A 
ATOM     11  C   UNL A   1      42.995  23.597  28.080  1.00  0.00     0.010 A 
ATOM     12  C   UNL A   1      42.814  24.334  25.769  1.00  0.00     0.010 A 
ATOM     13  C   UNL A   1      42.977  24.633  27.132  1.00  0.00    -0.014 A 
BRANCH  13  14
ATOM     14  C   UNL A   1      43.259  26.013  27.584  1.00  0.00     0.031 A 
ATOM     15  C   UNL A   1      44.643  26.586  27.529  1.00  0.00     0.074 A 
ATOM     16  C   UNL A   1      42.219  26.738  28.040  1.00  0.00     0.049 A 
ATOM     17  N   UNL A   1      45.057  27.763  27.917  1.00  0.00    -0.248 NA
ATOM     18  C   UNL A   1      45.704  25.728  26.978  1.00  0.00     0.031 C 
ATOM     19  C   UNL A   1      40.835  26.252  28.133  1.00  0.00     0.029 A 
ATOM     20  N   UNL A   1      42.145  28.026  28.494  1.00  0.00    -0.354 N 
ATOM     21  C   UNL A   1      46.427  27.787  27.682  1.00  0.00     0.074 A 
ATOM     22  C   UNL A   1      46.778  26.495  27.129  1.00  0.00     0.031 C 
ATOM     23  C   UNL A   1      40.048  27.242  28.572  1.00  0.00     0.029 A 
ATOM     24  C   UNL A   1      40.877  28.400  28.876  1.00  0.00     0.049 A 
ATOM     25  H   UNL A   1      42.924  28.627  28.545  1.00  0.00     0.167 HD
ATOM     26  C   UNL A   1      47.299  28.797  27.915  1.00  0.00     0.034 A 
ATOM     27  C   UNL A   1      40.437  29.535  29.445  1.00  0.00     0.034 A 
ATOM     28  C   UNL A   1      46.910  30.078  28.457  1.00  0.00     0.049 A 
ATOM     29  C   UNL A   1      41.437  30.624  29.716  1.00  0.00     0.074 A 
ATOM     30  C   UNL A   1      47.698  31.193  28.686  1.00  0.00     0.029 A 
ATOM     31  N   UNL A   1      45.624  30.413  28.867  1.00  0.00    -0.354 N 
ATOM     32  N   UNL A   1      42.727  30.638  29.463  1.00  0.00    -0.248 NA
ATOM     33  C   UNL A   1      40.928  31.844  30.346  1.00  0.00     0.031 C 
ATOM     34  C   UNL A   1      46.908  32.172  29.295  1.00  0.00     0.029 A 
ATOM     35  C   UNL A   1      45.607  31.701  29.382  1.00  0.00     0.049 A 
ATOM     36  H   UNL A   1      44.839  29.822  28.801  1.00  0.00     0.167 HD
ATOM     37  C   UNL A   1      43.180  31.876  29.897  1.00  0.00     0.074 A 
ATOM     38  C   UNL A   1      42.021  32.591  30.394  1.00  0.00     0.031 C 
ATOM     39  C   UNL A   1      44.440  32.379  29.893  1.00  0.00     0.034 A 
BRANCH  26  40
ATOM     40  C   UNL A   1      48.761  28.550  27.639  1.00  0.00     0.023 A 
ATOM     41  C   UNL A   1      49.318  28.699  26.357  1.00  0.00     0.031 A 
ATOM     42  C   UNL A   1      49.621  28.186  28.693  1.00  0.00     0.131 A 
ATOM     43  C   UNL A   1      50.686  28.448  26.156  1.00  0.00     0.055 A 
ATOM     44  C   UNL A   1      50.990  27.999  28.498  1.00  0.00     0.041 A 
ATOM     45  F   UNL A   1      49.140  28.010  29.934  1.00  0.00    -0.206 F 
ATOM     46  C   UNL A   1      51.529  28.124  27.221  1.00  0.00     0.022 A 
BRANCH  43  47
ATOM     47  S   UNL A   1      51.338  28.472  24.463  1.00  0.00     0.124 S 
ATOM     48  O   UNL A   1      50.148  28.141  23.683  1.00  0.00    -0.237 OA
ATOM     49  O   UNL A   1      51.829  29.839  24.332  1.00  0.00    -0.237 OA
ATOM     50  O   UNL A   1      52.372  27.438  24.478  1.00  0.00    -0.744 OA
ENDBRANCH  43  47
ENDBRANCH  26  40
BRANCH  27  51
ATOM     51  C   UNL A   1      39.008  29.674  29.844  1.00  0.00     0.023 A 
ATOM     52  C   UNL A   1      38.090  30.354  29.031  1.00  0.00     0.031 A 
ATOM     53  C   UNL A   1      38.546  29.155  31.069  1.00  0.00     0.131 A 
ATOM     54  C   UNL A   1      36.772  30.541  29.472  1.00  0.00     0.055 A 
ATOM     55  C   UNL A   1      37.218  29.288  31.474  1.00  0.00     0.041 A 
ATOM     56  F   UNL A   1      39.382  28.493  31.886  1.00  0.00    -0.206 F 
ATOM     57  C   UNL A   1      36.326  29.999  30.681  1.00  0.00     0.022 A 
BRANCH  54  58
ATOM     58  S   UNL A   1      35.673  31.599  28.492  1.00  0.00     0.124 S 
ATOM     59  O   UNL A   1      34.641  31.939  29.464  1.00  0.00    -0.237 OA
ATOM     60  O   UNL A   1      36.569  32.683  28.101  1.00  0.00    -0.237 OA
ATOM     61  O   UNL A   1      35.243  30.724  27.403  1.00  0.00    -0.744 OA
ENDBRANCH  54  58
ENDBRANCH  27  51
BRANCH  39  62
ATOM     62  C   UNL A   1      44.601  33.779  30.427  1.00  0.00     0.023 A 
ATOM     63  C   UNL A   1      44.460  34.901  29.592  1.00  0.00     0.031 A 
ATOM     64  C   UNL A   1      44.940  33.990  31.775  1.00  0.00     0.131 A 
ATOM     65  C   UNL A   1      44.723  36.182  30.097  1.00  0.00     0.055 A 
ATOM     66  C   UNL A   1      45.138  35.272  32.287  1.00  0.00     0.041 A 
ATOM     67  F   UNL A   1      45.090  32.952  32.613  1.00  0.00    -0.206 F 
ATOM     68  C   UNL A   1      45.045  36.376  31.443  1.00  0.00     0.022 A 
BRANCH  65  69
ATOM     69  S   UNL A   1      44.737  37.582  28.946  1.00  0.00     0.124 S 
ATOM     70  O   UNL A   1      43.652  38.410  29.462  1.00  0.00    -0.237 OA
ATOM     71  O   UNL A   1      46.085  38.117  29.120  1.00  0.00    -0.237 OA
ATOM     72  O   UNL A   1      44.481  36.961  27.648  1.00  0.00    -0.744 OA
ENDBRANCH  65  69
ENDBRANCH  39  62
ENDBRANCH  13  14
ENDBRANCH   6   8
ENDBRANCH   3   4
ENDBRANCH   2   3
ENDBRANCH   1   2
BRANCH   1  73
ATOM     73  C   UNL A   1      37.264  23.148  25.341  1.00  0.00     0.116 C 
BRANCH  73  74
ATOM     74  N   UNL A   1      36.765  21.985  24.652  1.00  0.00    -0.352 N 
ATOM     75  C   UNL A   1      35.823  21.137  25.151  1.00  0.00     0.251 C 
ATOM     76  H   UNL A   1      37.129  21.789  23.759  1.00  0.00     0.163 HD
ATOM     77  O   UNL A   1      35.953  19.929  24.981  1.00  0.00    -0.269 OA
BRANCH  75  78
ATOM     78  C   UNL A   1      34.669  21.688  25.910  1.00  0.00     0.047 A 
ATOM     79  C   UNL A   1      34.896  21.858  27.288  1.00  0.00     0.014 A 
ATOM     80  C   UNL A   1      33.401  21.973  25.349  1.00  0.00    -0.005 A 
ATOM     81  C   UNL A   1      33.892  22.337  28.124  1.00  0.00     0.001 A 
ATOM     82  C   UNL A   1      32.408  22.469  26.227  1.00  0.00     0.009 A 
ATOM     83  C   UNL A   1      32.649  22.652  27.592  1.00  0.00     0.001 A 
BRANCH  80  84
ATOM     84  C   UNL A   1      33.035  21.846  23.912  1.00  0.00    -0.005 A 
ATOM     85  C   UNL A   1      32.373  20.644  23.538  1.00  0.00     0.009 A 
ATOM     86  C   UNL A   1      33.227  22.820  22.904  1.00  0.00     0.047 A 
ATOM     87  C   UNL A   1      31.880  20.426  22.250  1.00  0.00     0.001 A 
ATOM     88  C   UNL A   1      32.725  22.578  21.602  1.00  0.00     0.014 A 
ATOM     89  C   UNL A   1      32.053  21.398  21.280  1.00  0.00     0.001 A 
BRANCH  86  90
ATOM     90  C   UNL A   1      33.744  24.204  23.125  1.00  0.00     0.254 C 
ATOM     91  O   UNL A   1      34.969  24.351  23.135  1.00  0.00    -0.269 OA
ATOM     92  N   UNL A   1      32.882  25.287  23.231  1.00  0.00    -0.327 N 
ATOM     93  C   UNL A   1      33.417  26.598  22.889  1.00  0.00     0.181 C 
ATOM     94  C   UNL A   1      31.725  25.333  24.114  1.00  0.00     0.181 C 
ATOM     95  C   UNL A   1      32.331  27.525  22.307  1.00  0.00     0.284 C 
ATOM     96  C   UNL A   1      30.652  26.366  23.677  1.00  0.00     0.284 C 
ATOM     97  N   UNL A   1      31.082  27.640  23.082  1.00  0.00    -0.328 N 
ATOM     98  H   UNL A   1      30.350  27.830  22.396  1.00  0.00     0.348 HD
BRANCH  97  99
ATOM     99  C   UNL A   1      30.970  28.840  23.913  1.00  0.00     0.299 C 
BRANCH  99 100
ATOM    100  C   UNL A   1      29.813  29.732  23.534  1.00  0.00     0.010 A 
ATOM    101  C   UNL A   1      29.632  30.963  24.202  1.00  0.00     0.013 A 
ATOM    102  C   UNL A   1      29.096  29.451  22.359  1.00  0.00     0.060 A 
ATOM    103  C   UNL A   1      28.888  31.985  23.611  1.00  0.00     0.051 A 
ATOM    104  C   UNL A   1      28.434  30.500  21.769  1.00  0.00     0.166 A 
ATOM    105  C   UNL A   1      28.364  31.741  22.361  1.00  0.00     0.165 A 
ATOM    106  O   UNL A   1      27.957  30.508  20.494  1.00  0.00    -0.454 OA
ATOM    107  O   UNL A   1      27.837  32.673  21.520  1.00  0.00    -0.454 OA
ATOM    108  C   UNL A   1      27.873  31.932  20.279  1.00  0.00     0.468 C 
ENDBRANCH  99 100
ENDBRANCH  97  99
ENDBRANCH  86  90
ENDBRANCH  80  84
ENDBRANCH  75  78
ENDBRANCH  73  74
ENDBRANCH   1  73
TORSDOF 18
ENDMDL
MODEL 3
REMARK VINA RESULT:     -12.3      2.233      7.958
REMARK SMILES O=C(NCCCCNC(=O)c1ccccc1-c1ccccc1C(=O)N1CC[NH+](Cc2ccc3c(c2)OCO3)CC1)c1ccc(-c2c3nc(c(-c4cc(S(=O)(=O)[O-])ccc4F)c4ccc([nH]4)c(-c4cc(S(=O)(=O)[O-])ccc4F)c4nc(c(-c5cc(S(=O)(=O)[O-])ccc5F)c5ccc2[nH]5)C=C4)C=C3)cc1
REMARK SMILES IDX 6 1 5 2 4 3 3 4 1 5 2 6 41 8 42 9 103 10 43 11 102 12 44 13
REMARK SMILES IDX 45 14 46 15 96 16 47 17 101 18 95 19 97 20 48 21 100 22
REMARK SMILES IDX 94 23 93 24 49 26 81 27 61 28 80 29 62 30 65 31 79 32 98 33
REMARK SMILES IDX 63 34 64 35 78 37 99 38 66 39 50 40 51 41 59 42 52 43 58 44
REMARK SMILES IDX 60 45 57 46 53 47 54 48 55 49 56 50 82 51 83 52 91 53 84 54
REMARK SMILES IDX 90 55 92 56 89 57 85 58 86 59 87 60 88 61 67 62 68 63 76 64
REMARK SMILES IDX 69 65 75 66 77 67 74 68 70 69 71 70 72 71 73 72 7 73 8 74
REMARK SMILES IDX 9 75 10 77 11 78 12 79 16 80 13 81 15 82 14 83 17 84 18 85
REMARK SMILES IDX 22 86 19 87 21 88 20 89 23 90 24 91 25 92 26 93 40 94 27 95
REMARK SMILES IDX 39 96 28 97 29 99 30 100 31 101 35 102 32 103 34 104 33 105
REMARK SMILES IDX 36 106 38 107 37 108
REMARK H PARENT 3 7 97 25 65 36 8 76 28 98
REMARK Flexibility Score: inf
ROOT
ATOM      1  C   UNL A   1      38.966  22.439  26.027  1.00  0.00     0.023 C 
ENDROOT
BRANCH   1   2
ATOM      2  C   UNL A   1      39.170  20.967  25.666  1.00  0.00     0.023 C 
BRANCH   2   3
ATOM      3  C   UNL A   1      39.935  20.170  26.713  1.00  0.00     0.116 C 
BRANCH   3   4
ATOM      4  N   UNL A   1      41.040  19.417  26.133  1.00  0.00    -0.352 N 
ATOM      5  O   UNL A   1      43.049  19.145  25.144  1.00  0.00    -0.269 OA
ATOM      6  C   UNL A   1      42.283  19.863  25.753  1.00  0.00     0.251 C 
ATOM      7  H   UNL A   1      40.873  18.456  25.995  1.00  0.00     0.163 HD
BRANCH   6   8
ATOM      8  C   UNL A   1      42.639  21.248  26.101  1.00  0.00     0.039 A 
ATOM      9  C   UNL A   1      42.726  22.207  25.089  1.00  0.00     0.014 A 
ATOM     10  C   UNL A   1      42.954  21.558  27.424  1.00  0.00     0.014 A 
ATOM     11  C   UNL A   1      43.251  23.454  25.381  1.00  0.00     0.010 A 
ATOM     12  C   UNL A   1      43.391  22.846  27.732  1.00  0.00     0.010 A 
ATOM     13  C   UNL A   1      43.553  23.795  26.710  1.00  0.00    -0.014 A 
BRANCH  13  14
ATOM     14  C   UNL A   1      43.919  25.195  27.017  1.00  0.00     0.031 A 
ATOM     15  C   UNL A   1      45.317  25.698  26.819  1.00  0.00     0.074 A 
ATOM     16  C   UNL A   1      42.942  26.002  27.475  1.00  0.00     0.049 A 
ATOM     17  N   UNL A   1      45.802  26.886  27.072  1.00  0.00    -0.248 NA
ATOM     18  C   UNL A   1      46.303  24.750  26.278  1.00  0.00     0.031 C 
ATOM     19  C   UNL A   1      41.551  25.588  27.702  1.00  0.00     0.029 A 
ATOM     20  N   UNL A   1      42.950  27.327  27.816  1.00  0.00    -0.354 N 
ATOM     21  C   UNL A   1      47.152  26.827  26.745  1.00  0.00     0.074 A 
ATOM     22  C   UNL A   1      47.413  25.478  26.288  1.00  0.00     0.031 C 
ATOM     23  C   UNL A   1      40.836  26.647  28.103  1.00  0.00     0.029 A 
ATOM     24  C   UNL A   1      41.728  27.788  28.246  1.00  0.00     0.049 A 
ATOM     25  H   UNL A   1      43.753  27.894  27.761  1.00  0.00     0.167 HD
ATOM     26  C   UNL A   1      48.076  27.814  26.829  1.00  0.00     0.034 A 
ATOM     27  C   UNL A   1      41.372  28.987  28.740  1.00  0.00     0.034 A 
ATOM     28  C   UNL A   1      47.776  29.153  27.280  1.00  0.00     0.049 A 
ATOM     29  C   UNL A   1      42.430  30.049  28.845  1.00  0.00     0.074 A 
ATOM     30  C   UNL A   1      48.621  30.247  27.355  1.00  0.00     0.029 A 
ATOM     31  N   UNL A   1      46.536  29.580  27.742  1.00  0.00    -0.354 N 
ATOM     32  N   UNL A   1      43.699  29.984  28.508  1.00  0.00    -0.248 NA
ATOM     33  C   UNL A   1      42.015  31.341  29.397  1.00  0.00     0.031 C 
ATOM     34  C   UNL A   1      47.914  31.310  27.925  1.00  0.00     0.029 A 
ATOM     35  C   UNL A   1      46.605  30.906  28.140  1.00  0.00     0.049 A 
ATOM     36  H   UNL A   1      45.726  29.021  27.781  1.00  0.00     0.167 HD
ATOM     37  C   UNL A   1      44.229  31.234  28.798  1.00  0.00     0.074 A 
ATOM     38  C   UNL A   1      43.136  32.040  29.305  1.00  0.00     0.031 C 
ATOM     39  C   UNL A   1      45.504  31.678  28.666  1.00  0.00     0.034 A 
BRANCH  26  40
ATOM     40  C   UNL A   1      49.505  27.479  26.480  1.00  0.00     0.023 A 
ATOM     41  C   UNL A   1      50.031  27.687  25.193  1.00  0.00     0.031 A 
ATOM     42  C   UNL A   1      50.366  26.968  27.469  1.00  0.00     0.131 A 
ATOM     43  C   UNL A   1      51.368  27.350  24.921  1.00  0.00     0.055 A 
ATOM     44  C   UNL A   1      51.710  26.693  27.208  1.00  0.00     0.041 A 
ATOM     45  F   UNL A   1      49.913  26.730  28.710  1.00  0.00    -0.206 F 
ATOM     46  C   UNL A   1      52.216  26.879  25.926  1.00  0.00     0.022 A 
BRANCH  43  47
ATOM     47  S   UNL A   1      51.966  27.460  23.212  1.00  0.00     0.124 S 
ATOM     48  O   UNL A   1      52.160  28.900  23.059  1.00  0.00    -0.237 OA
ATOM     49  O   UNL A   1      53.179  26.652  23.248  1.00  0.00    -0.237 OA
ATOM     50  O   UNL A   1      50.868  26.899  22.427  1.00  0.00    -0.744 OA
ENDBRANCH  43  47
ENDBRANCH  26  40
BRANCH  27  51
ATOM     51  C   UNL A   1      39.982  29.223  29.219  1.00  0.00     0.023 A 
ATOM     52  C   UNL A   1      39.663  29.153  30.583  1.00  0.00     0.031 A 
ATOM     53  C   UNL A   1      38.939  29.489  28.311  1.00  0.00     0.131 A 
ATOM     54  C   UNL A   1      38.330  29.297  30.997  1.00  0.00     0.055 A 
ATOM     55  C   UNL A   1      37.626  29.695  28.733  1.00  0.00     0.041 A 
ATOM     56  F   UNL A   1      39.189  29.569  26.994  1.00  0.00    -0.206 F 
ATOM     57  C   UNL A   1      37.312  29.583  30.083  1.00  0.00     0.022 A 
BRANCH  54  58
ATOM     58  S   UNL A   1      37.927  28.996  32.739  1.00  0.00     0.124 S 
ATOM     59  O   UNL A   1      36.666  29.715  32.882  1.00  0.00    -0.237 OA
ATOM     60  O   UNL A   1      37.844  27.540  32.781  1.00  0.00    -0.237 OA
ATOM     61  O   UNL A   1      39.062  29.576  33.454  1.00  0.00    -0.744 OA
ENDBRANCH  54  58
ENDBRANCH  27  51
BRANCH  39  62
ATOM     62  C   UNL A   1      45.755  33.109  29.061  1.00  0.00     0.023 A 
ATOM     63  C   UNL A   1      45.590  34.162  28.143  1.00  0.00     0.031 A 
ATOM     64  C   UNL A   1      46.207  33.420  30.356  1.00  0.00     0.131 A 
ATOM     65  C   UNL A   1      45.936  35.468  28.513  1.00  0.00     0.055 A 
ATOM     66  C   UNL A   1      46.490  34.731  30.736  1.00  0.00     0.041 A 
ATOM     67  F   UNL A   1      46.385  32.452  31.267  1.00  0.00    -0.206 F 
ATOM     68  C   UNL A   1      46.370  35.762  29.808  1.00  0.00     0.022 A 
BRANCH  65  69
ATOM     69  S   UNL A   1      45.909  36.764  27.245  1.00  0.00     0.124 S 
ATOM     70  O   UNL A   1      46.228  36.012  26.036  1.00  0.00    -0.237 OA
ATOM     71  O   UNL A   1      44.542  37.267  27.340  1.00  0.00    -0.237 OA
ATOM     72  O   UNL A   1      46.943  37.698  27.687  1.00  0.00    -0.744 OA
ENDBRANCH  65  69
ENDBRANCH  39  62
ENDBRANCH  13  14
ENDBRANCH   6   8
ENDBRANCH   3   4
ENDBRANCH   2   3
ENDBRANCH   1   2
BRANCH   1  73
ATOM     73  C   UNL A   1      37.516  22.897  25.929  1.00  0.00     0.116 C 
BRANCH  73  74
ATOM     74  N   UNL A   1      37.265  23.449  24.621  1.00  0.00    -0.352 N 
ATOM     75  C   UNL A   1      36.389  22.927  23.718  1.00  0.00     0.251 C 
ATOM     76  H   UNL A   1      37.760  24.260  24.362  1.00  0.00     0.163 HD
ATOM     77  O   UNL A   1      36.698  22.897  22.531  1.00  0.00    -0.269 OA
BRANCH  75  78
ATOM     78  C   UNL A   1      35.087  22.385  24.189  1.00  0.00     0.047 A 
ATOM     79  C   UNL A   1      35.181  21.221  24.974  1.00  0.00     0.014 A 
ATOM     80  C   UNL A   1      33.822  22.923  23.846  1.00  0.00    -0.005 A 
ATOM     81  C   UNL A   1      34.039  20.590  25.456  1.00  0.00     0.001 A 
ATOM     82  C   UNL A   1      32.683  22.260  24.364  1.00  0.00     0.009 A 
ATOM     83  C   UNL A   1      32.788  21.116  25.159  1.00  0.00     0.001 A 
BRANCH  80  84
ATOM     84  C   UNL A   1      33.586  24.147  23.035  1.00  0.00    -0.005 A 
ATOM     85  C   UNL A   1      33.242  23.938  21.671  1.00  0.00     0.009 A 
ATOM     86  C   UNL A   1      33.612  25.484  23.498  1.00  0.00     0.047 A 
ATOM     87  C   UNL A   1      32.893  24.983  20.814  1.00  0.00     0.001 A 
ATOM     88  C   UNL A   1      33.261  26.531  22.612  1.00  0.00     0.014 A 
ATOM     89  C   UNL A   1      32.899  26.285  21.288  1.00  0.00     0.001 A 
BRANCH  86  90
ATOM     90  C   UNL A   1      33.784  25.902  24.922  1.00  0.00     0.254 C 
ATOM     91  O   UNL A   1      34.241  25.064  25.703  1.00  0.00    -0.269 OA
ATOM     92  N   UNL A   1      33.519  27.203  25.327  1.00  0.00    -0.327 N 
ATOM     93  C   UNL A   1      34.206  27.681  26.520  1.00  0.00     0.181 C 
ATOM     94  C   UNL A   1      32.289  27.924  25.025  1.00  0.00     0.181 C 
ATOM     95  C   UNL A   1      34.471  29.199  26.457  1.00  0.00     0.284 C 
ATOM     96  C   UNL A   1      32.440  29.466  25.099  1.00  0.00     0.284 C 
ATOM     97  N   UNL A   1      33.318  30.054  26.123  1.00  0.00    -0.328 N 
ATOM     98  H   UNL A   1      33.708  30.869  25.648  1.00  0.00     0.348 HD
BRANCH  97  99
ATOM     99  C   UNL A   1      32.674  30.708  27.264  1.00  0.00     0.299 C 
BRANCH  99 100
ATOM    100  C   UNL A   1      33.425  31.915  27.772  1.00  0.00     0.010 A 
ATOM    101  C   UNL A   1      32.891  33.206  27.570  1.00  0.00     0.013 A 
ATOM    102  C   UNL A   1      34.498  31.722  28.658  1.00  0.00     0.060 A 
ATOM    103  C   UNL A   1      33.291  34.271  28.378  1.00  0.00     0.051 A 
ATOM    104  C   UNL A   1      34.816  32.771  29.486  1.00  0.00     0.166 A 
ATOM    105  C   UNL A   1      34.204  33.998  29.372  1.00  0.00     0.165 A 
ATOM    106  O   UNL A   1      35.593  32.681  30.601  1.00  0.00    -0.454 OA
ATOM    107  O   UNL A   1      34.524  34.821  30.410  1.00  0.00    -0.454 OA
ATOM    108  C   UNL A   1      35.150  33.865  31.296  1.00  0.00     0.468 C 
ENDBRANCH  99 100
ENDBRANCH  97  99
ENDBRANCH  86  90
ENDBRANCH  80  84
ENDBRANCH  75  78
ENDBRANCH  73  74
ENDBRANCH   1  73
TORSDOF 18
ENDMDL
