MODEL 1
REMARK VINA RESULT:     -11.4      0.000      0.000
REMARK SMILES CC(C)C[C@H](C(=O)NCCCCNC(=O)c1ccc(-c2c3nc(c(-c4cc(S(=O)(=O)[O-])ccc4F)c4ccc([nH]4)c(-c4cc(S(=O)(=O)[O-])ccc4F)c4nc(c(-c5cc(S(=O)(=O)[O-])ccc5F)c5ccc2[nH]5)C=C4)C=C3)cc1)[C@@H]1CCO[C@]2(CCOC2)C1
REMARK SMILES IDX 11 1 10 2 9 3 8 4 6 5 7 6 5 8 4 9 2 10 1 11 3 12 79 13 80 14
REMARK SMILES IDX 88 15 81 16 83 17 82 18 84 19 87 20 85 21 86 22 12 23 13 24
REMARK SMILES IDX 14 25 15 27 16 28 17 29 78 30 18 31 77 32 19 33 20 34 21 35
REMARK SMILES IDX 71 36 22 37 76 38 70 39 72 40 23 41 75 42 69 43 68 44 24 46
REMARK SMILES IDX 56 47 36 48 55 49 37 50 40 51 54 52 73 53 38 54 39 55 53 57
REMARK SMILES IDX 74 58 41 59 25 60 26 61 34 62 27 63 33 64 35 65 32 66 28 67
REMARK SMILES IDX 29 68 30 69 31 70 57 71 58 72 66 73 59 74 65 75 67 76 64 77
REMARK SMILES IDX 60 78 61 79 62 80 63 81 42 82 43 83 51 84 44 85 50 86 52 87
REMARK SMILES IDX 49 88 45 89 46 90 47 91 48 92
REMARK H PARENT 8 7 13 26 72 45 40 56
REMARK Flexibility Score: inf
ROOT
ATOM      1  C   UNL A   1      32.419  28.967  25.367  1.00  0.00     0.023 C 
ENDROOT
BRANCH   1   2
ATOM      2  C   UNL A   1      32.662  28.709  23.875  1.00  0.00     0.023 C 
BRANCH   2   3
ATOM      3  C   UNL A   1      33.624  27.553  23.578  1.00  0.00     0.116 C 
BRANCH   3   4
ATOM      4  N   UNL A   1      33.388  27.025  22.245  1.00  0.00    -0.356 N 
ATOM      5  C   UNL A   1      33.130  25.756  21.819  1.00  0.00     0.223 C 
ATOM      6  O   UNL A   1      33.253  25.533  20.616  1.00  0.00    -0.275 OA
ATOM      7  H   UNL A   1      33.419  27.697  21.528  1.00  0.00     0.163 HD
BRANCH   5   8
ATOM      8  C   UNL A   1      32.689  24.683  22.822  1.00  0.00     0.082 C 
BRANCH   8   9
ATOM      9  C   UNL A   1      31.188  24.858  23.223  1.00  0.00     0.016 C 
BRANCH   9  10
ATOM     10  C   UNL A   1      30.610  25.085  24.646  1.00  0.00    -0.017 C 
ATOM     11  C   UNL A   1      31.601  25.274  25.789  1.00  0.00     0.007 C 
ATOM     12  C   UNL A   1      29.733  26.354  24.585  1.00  0.00     0.007 C 
ENDBRANCH   9  10
ENDBRANCH   8   9
BRANCH   8  13
ATOM     13  C   UNL A   1      33.295  23.273  22.483  1.00  0.00     0.007 C 
ATOM     14  C   UNL A   1      32.452  22.063  22.852  1.00  0.00     0.033 C 
ATOM     15  C   UNL A   1      34.756  23.014  22.961  1.00  0.00     0.042 C 
ATOM     16  C   UNL A   1      32.604  21.687  24.313  1.00  0.00     0.161 C 
ATOM     17  C   UNL A   1      34.889  22.489  24.406  1.00  0.00     0.094 C 
ATOM     18  O   UNL A   1      33.955  21.438  24.664  1.00  0.00    -0.372 OA
ATOM     19  C   UNL A   1      34.895  23.633  25.414  1.00  0.00     0.066 C 
ATOM     20  C   UNL A   1      36.261  21.871  24.702  1.00  0.00     0.195 C 
ATOM     21  C   UNL A   1      36.356  23.919  25.718  1.00  0.00     0.163 C 
ATOM     22  O   UNL A   1      37.145  22.932  25.058  1.00  0.00    -0.378 OA
ENDBRANCH   8  13
ENDBRANCH   5   8
ENDBRANCH   3   4
ENDBRANCH   2   3
ENDBRANCH   1   2
BRANCH   1  23
ATOM     23  C   UNL A   1      33.617  29.521  26.127  1.00  0.00     0.116 C 
BRANCH  23  24
ATOM     24  N   UNL A   1      33.390  30.875  26.601  1.00  0.00    -0.352 N 
ATOM     25  C   UNL A   1      34.069  31.578  27.563  1.00  0.00     0.251 C 
ATOM     26  H   UNL A   1      32.645  31.355  26.171  1.00  0.00     0.163 HD
ATOM     27  O   UNL A   1      33.606  32.645  27.968  1.00  0.00    -0.269 OA
BRANCH  25  28
ATOM     28  C   UNL A   1      35.332  31.049  28.127  1.00  0.00     0.039 A 
ATOM     29  C   UNL A   1      35.308  29.834  28.816  1.00  0.00     0.014 A 
ATOM     30  C   UNL A   1      36.533  31.754  28.002  1.00  0.00     0.014 A 
ATOM     31  C   UNL A   1      36.489  29.314  29.350  1.00  0.00     0.010 A 
ATOM     32  C   UNL A   1      37.723  31.192  28.457  1.00  0.00     0.010 A 
ATOM     33  C   UNL A   1      37.711  29.979  29.162  1.00  0.00    -0.014 A 
BRANCH  33  34
ATOM     34  C   UNL A   1      38.971  29.450  29.751  1.00  0.00     0.031 A 
ATOM     35  C   UNL A   1      39.446  29.957  31.088  1.00  0.00     0.074 A 
ATOM     36  C   UNL A   1      39.699  28.538  29.077  1.00  0.00     0.049 A 
ATOM     37  N   UNL A   1      40.519  29.639  31.765  1.00  0.00    -0.248 NA
ATOM     38  C   UNL A   1      38.618  30.987  31.735  1.00  0.00     0.031 C 
ATOM     39  C   UNL A   1      39.364  27.994  27.759  1.00  0.00     0.029 A 
ATOM     40  N   UNL A   1      40.868  27.899  29.409  1.00  0.00    -0.354 N 
ATOM     41  C   UNL A   1      40.504  30.438  32.904  1.00  0.00     0.074 A 
ATOM     42  C   UNL A   1      39.353  31.307  32.787  1.00  0.00     0.031 C 
ATOM     43  C   UNL A   1      40.281  27.075  27.416  1.00  0.00     0.029 A 
ATOM     44  C   UNL A   1      41.293  26.994  28.465  1.00  0.00     0.049 A 
ATOM     45  H   UNL A   1      41.358  28.074  30.246  1.00  0.00     0.167 HD
ATOM     46  C   UNL A   1      41.353  30.430  33.962  1.00  0.00     0.034 A 
ATOM     47  C   UNL A   1      42.373  26.188  28.448  1.00  0.00     0.034 A 
ATOM     48  C   UNL A   1      42.487  29.544  34.067  1.00  0.00     0.049 A 
ATOM     49  C   UNL A   1      43.316  26.209  29.627  1.00  0.00     0.074 A 
ATOM     50  C   UNL A   1      43.382  29.410  35.115  1.00  0.00     0.029 A 
ATOM     51  N   UNL A   1      42.891  28.646  33.087  1.00  0.00    -0.354 N 
ATOM     52  N   UNL A   1      43.257  26.931  30.723  1.00  0.00    -0.248 NA
ATOM     53  C   UNL A   1      44.459  25.290  29.573  1.00  0.00     0.031 C 
ATOM     54  C   UNL A   1      44.369  28.495  34.736  1.00  0.00     0.029 A 
ATOM     55  C   UNL A   1      44.038  27.980  33.492  1.00  0.00     0.049 A 
ATOM     56  H   UNL A   1      42.429  28.503  32.229  1.00  0.00     0.167 HD
ATOM     57  C   UNL A   1      44.329  26.515  31.509  1.00  0.00     0.074 A 
ATOM     58  C   UNL A   1      45.008  25.475  30.763  1.00  0.00     0.031 C 
ATOM     59  C   UNL A   1      44.711  26.945  32.740  1.00  0.00     0.034 A 
BRANCH  46  60
ATOM     60  C   UNL A   1      41.101  31.435  35.065  1.00  0.00     0.023 A 
ATOM     61  C   UNL A   1      40.028  31.299  35.965  1.00  0.00     0.031 A 
ATOM     62  C   UNL A   1      41.923  32.569  35.195  1.00  0.00     0.131 A 
ATOM     63  C   UNL A   1      39.751  32.320  36.888  1.00  0.00     0.055 A 
ATOM     64  C   UNL A   1      41.699  33.533  36.180  1.00  0.00     0.041 A 
ATOM     65  F   UNL A   1      42.949  32.769  34.354  1.00  0.00    -0.206 F 
ATOM     66  C   UNL A   1      40.597  33.423  37.021  1.00  0.00     0.022 A 
BRANCH  63  67
ATOM     67  S   UNL A   1      38.177  32.270  37.787  1.00  0.00     0.124 S 
ATOM     68  O   UNL A   1      37.615  31.003  37.327  1.00  0.00    -0.237 OA
ATOM     69  O   UNL A   1      38.606  32.312  39.180  1.00  0.00    -0.237 OA
ATOM     70  O   UNL A   1      37.474  33.461  37.314  1.00  0.00    -0.744 OA
ENDBRANCH  63  67
ENDBRANCH  46  60
BRANCH  47  71
ATOM     71  C   UNL A   1      42.626  25.278  27.292  1.00  0.00     0.023 A 
ATOM     72  C   UNL A   1      42.099  23.976  27.269  1.00  0.00     0.031 A 
ATOM     73  C   UNL A   1      43.437  25.679  26.216  1.00  0.00     0.131 A 
ATOM     74  C   UNL A   1      42.435  23.102  26.223  1.00  0.00     0.055 A 
ATOM     75  C   UNL A   1      43.719  24.825  25.146  1.00  0.00     0.041 A 
ATOM     76  F   UNL A   1      43.963  26.913  26.183  1.00  0.00    -0.206 F 
ATOM     77  C   UNL A   1      43.228  23.523  25.154  1.00  0.00     0.022 A 
BRANCH  74  78
ATOM     78  S   UNL A   1      41.896  21.374  26.328  1.00  0.00     0.124 S 
ATOM     79  O   UNL A   1      42.146  21.070  27.733  1.00  0.00    -0.237 OA
ATOM     80  O   UNL A   1      40.495  21.469  25.932  1.00  0.00    -0.237 OA
ATOM     81  O   UNL A   1      42.766  20.688  25.376  1.00  0.00    -0.744 OA
ENDBRANCH  74  78
ENDBRANCH  47  71
BRANCH  59  82
ATOM     82  C   UNL A   1      45.878  26.234  33.387  1.00  0.00     0.023 A 
ATOM     83  C   UNL A   1      45.717  25.049  34.126  1.00  0.00     0.031 A 
ATOM     84  C   UNL A   1      47.173  26.775  33.284  1.00  0.00     0.131 A 
ATOM     85  C   UNL A   1      46.815  24.488  34.795  1.00  0.00     0.055 A 
ATOM     86  C   UNL A   1      48.275  26.168  33.888  1.00  0.00     0.041 A 
ATOM     87  F   UNL A   1      47.390  27.906  32.595  1.00  0.00    -0.206 F 
ATOM     88  C   UNL A   1      48.097  25.028  34.665  1.00  0.00     0.022 A 
BRANCH  85  89
ATOM     89  S   UNL A   1      46.525  23.118  35.949  1.00  0.00     0.124 S 
ATOM     90  O   UNL A   1      47.465  23.421  37.023  1.00  0.00    -0.237 OA
ATOM     91  O   UNL A   1      45.112  23.281  36.275  1.00  0.00    -0.237 OA
ATOM     92  O   UNL A   1      46.846  21.931  35.160  1.00  0.00    -0.744 OA
ENDBRANCH  85  89
ENDBRANCH  59  82
ENDBRANCH  33  34
ENDBRANCH  25  28
ENDBRANCH  23  24
ENDBRANCH   1  23
TORSDOF 17
ENDMDL
MODEL 2
REMARK VINA RESULT:     -11.3      4.913      9.998
REMARK SMILES CC(C)C[C@H](C(=O)NCCCCNC(=O)c1ccc(-c2c3nc(c(-c4cc(S(=O)(=O)[O-])ccc4F)c4ccc([nH]4)c(-c4cc(S(=O)(=O)[O-])ccc4F)c4nc(c(-c5cc(S(=O)(=O)[O-])ccc5F)c5ccc2[nH]5)C=C4)C=C3)cc1)[C@@H]1CCO[C@]2(CCOC2)C1
REMARK SMILES IDX 11 1 10 2 9 3 8 4 6 5 7 6 5 8 4 9 2 10 1 11 3 12 79 13 80 14
REMARK SMILES IDX 88 15 81 16 83 17 82 18 84 19 87 20 85 21 86 22 12 23 13 24
REMARK SMILES IDX 14 25 15 27 16 28 17 29 78 30 18 31 77 32 19 33 20 34 21 35
REMARK SMILES IDX 71 36 22 37 76 38 70 39 72 40 23 41 75 42 69 43 68 44 24 46
REMARK SMILES IDX 56 47 36 48 55 49 37 50 40 51 54 52 73 53 38 54 39 55 53 57
REMARK SMILES IDX 74 58 41 59 25 60 26 61 34 62 27 63 33 64 35 65 32 66 28 67
REMARK SMILES IDX 29 68 30 69 31 70 57 71 58 72 66 73 59 74 65 75 67 76 64 77
REMARK SMILES IDX 60 78 61 79 62 80 63 81 42 82 43 83 51 84 44 85 50 86 52 87
REMARK SMILES IDX 49 88 45 89 46 90 47 91 48 92
REMARK H PARENT 8 7 13 26 72 45 40 56
REMARK Flexibility Score: inf
ROOT
ATOM      1  C   UNL A   1      35.637  21.891  25.391  1.00  0.00     0.023 C 
ENDROOT
BRANCH   1   2
ATOM      2  C   UNL A   1      34.590  21.925  26.511  1.00  0.00     0.023 C 
BRANCH   2   3
ATOM      3  C   UNL A   1      33.780  23.223  26.587  1.00  0.00     0.116 C 
BRANCH   3   4
ATOM      4  N   UNL A   1      32.421  22.950  27.022  1.00  0.00    -0.356 N 
ATOM      5  C   UNL A   1      31.238  23.533  26.679  1.00  0.00     0.223 C 
ATOM      6  O   UNL A   1      30.270  23.307  27.404  1.00  0.00    -0.275 OA
ATOM      7  H   UNL A   1      32.341  22.220  27.677  1.00  0.00     0.163 HD
BRANCH   5   8
ATOM      8  C   UNL A   1      31.149  24.411  25.426  1.00  0.00     0.082 C 
BRANCH   8   9
ATOM      9  C   UNL A   1      31.012  23.548  24.130  1.00  0.00     0.016 C 
BRANCH   9  10
ATOM     10  C   UNL A   1      32.101  23.269  23.060  1.00  0.00    -0.017 C 
ATOM     11  C   UNL A   1      33.336  24.164  23.060  1.00  0.00     0.007 C 
ATOM     12  C   UNL A   1      32.586  21.819  23.268  1.00  0.00     0.007 C 
ENDBRANCH   9  10
ENDBRANCH   8   9
BRANCH   8  13
ATOM     13  C   UNL A   1      30.267  25.691  25.663  1.00  0.00     0.007 C 
ATOM     14  C   UNL A   1      29.582  26.282  24.440  1.00  0.00     0.033 C 
ATOM     15  C   UNL A   1      30.934  26.855  26.459  1.00  0.00     0.042 C 
ATOM     16  C   UNL A   1      30.514  27.172  23.640  1.00  0.00     0.161 C 
ATOM     17  C   UNL A   1      31.761  27.841  25.608  1.00  0.00     0.094 C 
ATOM     18  O   UNL A   1      31.056  28.222  24.423  1.00  0.00    -0.372 OA
ATOM     19  C   UNL A   1      33.185  27.335  25.398  1.00  0.00     0.066 C 
ATOM     20  C   UNL A   1      32.055  29.163  26.328  1.00  0.00     0.195 C 
ATOM     21  C   UNL A   1      34.035  28.022  26.453  1.00  0.00     0.163 C 
ATOM     22  O   UNL A   1      33.213  28.965  27.136  1.00  0.00    -0.378 OA
ENDBRANCH   8  13
ENDBRANCH   5   8
ENDBRANCH   3   4
ENDBRANCH   2   3
ENDBRANCH   1   2
BRANCH   1  23
ATOM     23  C   UNL A   1      36.981  22.512  25.749  1.00  0.00     0.116 C 
BRANCH  23  24
ATOM     24  N   UNL A   1      38.003  21.508  25.992  1.00  0.00    -0.352 N 
ATOM     25  C   UNL A   1      39.315  21.681  26.353  1.00  0.00     0.251 C 
ATOM     26  H   UNL A   1      37.713  20.573  25.884  1.00  0.00     0.163 HD
ATOM     27  O   UNL A   1      40.080  20.717  26.320  1.00  0.00    -0.269 OA
BRANCH  25  28
ATOM     28  C   UNL A   1      39.812  23.018  26.752  1.00  0.00     0.039 A 
ATOM     29  C   UNL A   1      40.653  23.122  27.863  1.00  0.00     0.014 A 
ATOM     30  C   UNL A   1      39.435  24.169  26.053  1.00  0.00     0.014 A 
ATOM     31  C   UNL A   1      41.137  24.373  28.252  1.00  0.00     0.010 A 
ATOM     32  C   UNL A   1      39.990  25.401  26.389  1.00  0.00     0.010 A 
ATOM     33  C   UNL A   1      40.825  25.523  27.510  1.00  0.00    -0.014 A 
BRANCH  33  34
ATOM     34  C   UNL A   1      41.312  26.863  27.932  1.00  0.00     0.031 A 
ATOM     35  C   UNL A   1      42.730  27.277  27.628  1.00  0.00     0.074 A 
ATOM     36  C   UNL A   1      40.497  27.695  28.609  1.00  0.00     0.049 A 
ATOM     37  N   UNL A   1      43.352  28.390  27.922  1.00  0.00    -0.248 NA
ATOM     38  C   UNL A   1      43.568  26.293  26.927  1.00  0.00     0.031 C 
ATOM     39  C   UNL A   1      39.116  27.396  28.995  1.00  0.00     0.029 A 
ATOM     40  N   UNL A   1      40.705  28.965  29.088  1.00  0.00    -0.354 N 
ATOM     41  C   UNL A   1      44.656  28.232  27.459  1.00  0.00     0.074 A 
ATOM     42  C   UNL A   1      44.750  26.888  26.933  1.00  0.00     0.031 C 
ATOM     43  C   UNL A   1      38.590  28.468  29.611  1.00  0.00     0.029 A 
ATOM     44  C   UNL A   1      39.605  29.513  29.705  1.00  0.00     0.049 A 
ATOM     45  H   UNL A   1      41.564  29.439  28.998  1.00  0.00     0.167 HD
ATOM     46  C   UNL A   1      45.671  29.131  27.448  1.00  0.00     0.034 A 
ATOM     47  C   UNL A   1      39.433  30.720  30.278  1.00  0.00     0.034 A 
ATOM     48  C   UNL A   1      45.552  30.474  27.965  1.00  0.00     0.049 A 
ATOM     49  C   UNL A   1      40.582  31.699  30.273  1.00  0.00     0.074 A 
ATOM     50  C   UNL A   1      46.495  31.487  27.957  1.00  0.00     0.029 A 
ATOM     51  N   UNL A   1      44.423  30.990  28.590  1.00  0.00    -0.354 N 
ATOM     52  N   UNL A   1      41.792  31.555  29.781  1.00  0.00    -0.248 NA
ATOM     53  C   UNL A   1      40.333  33.011  30.882  1.00  0.00     0.031 C 
ATOM     54  C   UNL A   1      45.968  32.583  28.648  1.00  0.00     0.029 A 
ATOM     55  C   UNL A   1      44.659  32.294  29.001  1.00  0.00     0.049 A 
ATOM     56  H   UNL A   1      43.579  30.502  28.723  1.00  0.00     0.167 HD
ATOM     57  C   UNL A   1      42.430  32.777  29.980  1.00  0.00     0.074 A 
ATOM     58  C   UNL A   1      41.466  33.645  30.626  1.00  0.00     0.031 C 
ATOM     59  C   UNL A   1      43.693  33.152  29.648  1.00  0.00     0.034 A 
BRANCH  46  60
ATOM     60  C   UNL A   1      47.001  28.674  26.893  1.00  0.00     0.023 A 
ATOM     61  C   UNL A   1      47.204  28.473  25.515  1.00  0.00     0.031 A 
ATOM     62  C   UNL A   1      48.074  28.394  27.758  1.00  0.00     0.131 A 
ATOM     63  C   UNL A   1      48.410  27.922  25.055  1.00  0.00     0.055 A 
ATOM     64  C   UNL A   1      49.305  27.938  27.283  1.00  0.00     0.041 A 
ATOM     65  F   UNL A   1      47.939  28.542  29.085  1.00  0.00    -0.206 F 
ATOM     66  C   UNL A   1      49.473  27.680  25.927  1.00  0.00     0.022 A 
BRANCH  63  67
ATOM     67  S   UNL A   1      48.504  27.363  23.331  1.00  0.00     0.124 S 
ATOM     68  O   UNL A   1      48.315  25.922  23.478  1.00  0.00    -0.237 OA
ATOM     69  O   UNL A   1      47.408  28.092  22.702  1.00  0.00    -0.237 OA
ATOM     70  O   UNL A   1      49.845  27.768  22.913  1.00  0.00    -0.744 OA
ENDBRANCH  63  67
ENDBRANCH  46  60
BRANCH  47  71
ATOM     71  C   UNL A   1      38.125  31.090  30.894  1.00  0.00     0.023 A 
ATOM     72  C   UNL A   1      37.129  31.736  30.142  1.00  0.00     0.031 A 
ATOM     73  C   UNL A   1      37.868  30.850  32.256  1.00  0.00     0.131 A 
ATOM     74  C   UNL A   1      35.948  32.168  30.767  1.00  0.00     0.055 A 
ATOM     75  C   UNL A   1      36.666  31.228  32.859  1.00  0.00     0.041 A 
ATOM     76  F   UNL A   1      38.782  30.233  33.021  1.00  0.00    -0.206 F 
ATOM     77  C   UNL A   1      35.704  31.905  32.116  1.00  0.00     0.022 A 
BRANCH  74  78
ATOM     78  S   UNL A   1      34.776  33.166  29.809  1.00  0.00     0.124 S 
ATOM     79  O   UNL A   1      34.161  32.160  28.951  1.00  0.00    -0.237 OA
ATOM     80  O   UNL A   1      33.926  33.723  30.856  1.00  0.00    -0.237 OA
ATOM     81  O   UNL A   1      35.632  34.133  29.125  1.00  0.00    -0.744 OA
ENDBRANCH  74  78
ENDBRANCH  47  71
BRANCH  59  82
ATOM     82  C   UNL A   1      44.077  34.590  29.913  1.00  0.00     0.023 A 
ATOM     83  C   UNL A   1      43.872  35.608  28.966  1.00  0.00     0.031 A 
ATOM     84  C   UNL A   1      44.689  34.939  31.131  1.00  0.00     0.131 A 
ATOM     85  C   UNL A   1      44.343  36.905  29.219  1.00  0.00     0.055 A 
ATOM     86  C   UNL A   1      45.085  36.248  31.409  1.00  0.00     0.041 A 
ATOM     87  F   UNL A   1      44.915  34.011  32.074  1.00  0.00    -0.206 F 
ATOM     88  C   UNL A   1      44.930  37.236  30.442  1.00  0.00     0.022 A 
BRANCH  85  89
ATOM     89  S   UNL A   1      44.300  38.125  27.876  1.00  0.00     0.124 S 
ATOM     90  O   UNL A   1      43.915  39.342  28.585  1.00  0.00    -0.237 OA
ATOM     91  O   UNL A   1      45.671  38.086  27.377  1.00  0.00    -0.237 OA
ATOM     92  O   UNL A   1      43.291  37.594  26.962  1.00  0.00    -0.744 OA
ENDBRANCH  85  89
ENDBRANCH  59  82
ENDBRANCH  33  34
ENDBRANCH  25  28
ENDBRANCH  23  24
ENDBRANCH   1  23
TORSDOF 17
ENDMDL
MODEL 3
REMARK VINA RESULT:     -11.3      1.565      1.923
REMARK SMILES CC(C)C[C@H](C(=O)NCCCCNC(=O)c1ccc(-c2c3nc(c(-c4cc(S(=O)(=O)[O-])ccc4F)c4ccc([nH]4)c(-c4cc(S(=O)(=O)[O-])ccc4F)c4nc(c(-c5cc(S(=O)(=O)[O-])ccc5F)c5ccc2[nH]5)C=C4)C=C3)cc1)[C@@H]1CCO[C@]2(CCOC2)C1
REMARK SMILES IDX 11 1 10 2 9 3 8 4 6 5 7 6 5 8 4 9 2 10 1 11 3 12 79 13 80 14
REMARK SMILES IDX 88 15 81 16 83 17 82 18 84 19 87 20 85 21 86 22 12 23 13 24
REMARK SMILES IDX 14 25 15 27 16 28 17 29 78 30 18 31 77 32 19 33 20 34 21 35
REMARK SMILES IDX 71 36 22 37 76 38 70 39 72 40 23 41 75 42 69 43 68 44 24 46
REMARK SMILES IDX 56 47 36 48 55 49 37 50 40 51 54 52 73 53 38 54 39 55 53 57
REMARK SMILES IDX 74 58 41 59 25 60 26 61 34 62 27 63 33 64 35 65 32 66 28 67
REMARK SMILES IDX 29 68 30 69 31 70 57 71 58 72 66 73 59 74 65 75 67 76 64 77
REMARK SMILES IDX 60 78 61 79 62 80 63 81 42 82 43 83 51 84 44 85 50 86 52 87
REMARK SMILES IDX 49 88 45 89 46 90 47 91 48 92
REMARK H PARENT 8 7 13 26 72 45 40 56
REMARK Flexibility Score: inf
ROOT
ATOM      1  C   UNL A   1      32.123  29.171  24.588  1.00  0.00     0.023 C 
ENDROOT
BRANCH   1   2
ATOM      2  C   UNL A   1      32.823  28.902  23.251  1.00  0.00     0.023 C 
BRANCH   2   3
ATOM      3  C   UNL A   1      33.470  27.518  23.138  1.00  0.00     0.116 C 
BRANCH   3   4
ATOM      4  N   UNL A   1      33.191  26.930  21.838  1.00  0.00    -0.356 N 
ATOM      5  C   UNL A   1      32.925  25.643  21.478  1.00  0.00     0.223 C 
ATOM      6  O   UNL A   1      33.008  25.368  20.281  1.00  0.00    -0.275 OA
ATOM      7  H   UNL A   1      33.194  27.571  21.092  1.00  0.00     0.163 HD
BRANCH   5   8
ATOM      8  C   UNL A   1      32.524  24.614  22.541  1.00  0.00     0.082 C 
BRANCH   8   9
ATOM      9  C   UNL A   1      31.015  24.746  22.924  1.00  0.00     0.016 C 
BRANCH   9  10
ATOM     10  C   UNL A   1      30.421  25.260  24.262  1.00  0.00    -0.017 C 
ATOM     11  C   UNL A   1      31.392  25.547  25.402  1.00  0.00     0.007 C 
ATOM     12  C   UNL A   1      29.674  26.575  23.954  1.00  0.00     0.007 C 
ENDBRANCH   9  10
ENDBRANCH   8   9
BRANCH   8  13
ATOM     13  C   UNL A   1      33.194  23.214  22.289  1.00  0.00     0.007 C 
ATOM     14  C   UNL A   1      32.374  21.989  22.663  1.00  0.00     0.033 C 
ATOM     15  C   UNL A   1      34.637  23.025  22.851  1.00  0.00     0.042 C 
ATOM     16  C   UNL A   1      32.463  21.675  24.144  1.00  0.00     0.161 C 
ATOM     17  C   UNL A   1      34.712  22.561  24.321  1.00  0.00     0.094 C 
ATOM     18  O   UNL A   1      33.801  21.488  24.573  1.00  0.00    -0.372 OA
ATOM     19  C   UNL A   1      34.626  23.742  25.281  1.00  0.00     0.066 C 
ATOM     20  C   UNL A   1      36.087  22.004  24.710  1.00  0.00     0.195 C 
ATOM     21  C   UNL A   1      36.060  24.091  25.647  1.00  0.00     0.163 C 
ATOM     22  O   UNL A   1      36.914  23.109  25.067  1.00  0.00    -0.378 OA
ENDBRANCH   8  13
ENDBRANCH   5   8
ENDBRANCH   3   4
ENDBRANCH   2   3
ENDBRANCH   1   2
BRANCH   1  23
ATOM     23  C   UNL A   1      33.025  29.714  25.689  1.00  0.00     0.116 C 
BRANCH  23  24
ATOM     24  N   UNL A   1      32.648  31.056  26.097  1.00  0.00    -0.352 N 
ATOM     25  C   UNL A   1      33.177  31.836  27.094  1.00  0.00     0.251 C 
ATOM     26  H   UNL A   1      31.911  31.463  25.586  1.00  0.00     0.163 HD
ATOM     27  O   UNL A   1      32.595  32.870  27.421  1.00  0.00    -0.269 OA
BRANCH  25  28
ATOM     28  C   UNL A   1      34.420  31.426  27.786  1.00  0.00     0.039 A 
ATOM     29  C   UNL A   1      34.518  30.124  28.284  1.00  0.00     0.014 A 
ATOM     30  C   UNL A   1      35.477  32.323  27.970  1.00  0.00     0.014 A 
ATOM     31  C   UNL A   1      35.684  29.715  28.935  1.00  0.00     0.010 A 
ATOM     32  C   UNL A   1      36.670  31.887  28.540  1.00  0.00     0.010 A 
ATOM     33  C   UNL A   1      36.779  30.587  29.055  1.00  0.00    -0.014 A 
BRANCH  33  34
ATOM     34  C   UNL A   1      38.014  30.171  29.771  1.00  0.00     0.031 A 
ATOM     35  C   UNL A   1      38.259  30.643  31.182  1.00  0.00     0.074 A 
ATOM     36  C   UNL A   1      38.926  29.397  29.151  1.00  0.00     0.049 A 
ATOM     37  N   UNL A   1      39.275  30.409  31.973  1.00  0.00    -0.248 NA
ATOM     38  C   UNL A   1      37.238  31.524  31.770  1.00  0.00     0.031 C 
ATOM     39  C   UNL A   1      38.821  28.904  27.776  1.00  0.00     0.029 A 
ATOM     40  N   UNL A   1      40.117  28.879  29.596  1.00  0.00    -0.354 N 
ATOM     41  C   UNL A   1      39.024  31.126  33.139  1.00  0.00     0.074 A 
ATOM     42  C   UNL A   1      37.797  31.859  32.921  1.00  0.00     0.031 C 
ATOM     43  C   UNL A   1      39.880  28.123  27.507  1.00  0.00     0.029 A 
ATOM     44  C   UNL A   1      40.761  28.093  28.669  1.00  0.00     0.049 A 
ATOM     45  H   UNL A   1      40.477  29.056  30.496  1.00  0.00     0.167 HD
ATOM     46  C   UNL A   1      39.734  31.149  34.294  1.00  0.00     0.034 A 
ATOM     47  C   UNL A   1      41.927  27.422  28.750  1.00  0.00     0.034 A 
ATOM     48  C   UNL A   1      40.950  30.397  34.498  1.00  0.00     0.049 A 
ATOM     49  C   UNL A   1      42.712  27.477  30.038  1.00  0.00     0.074 A 
ATOM     50  C   UNL A   1      41.722  30.301  35.643  1.00  0.00     0.029 A 
ATOM     51  N   UNL A   1      41.576  29.618  33.533  1.00  0.00    -0.354 N 
ATOM     52  N   UNL A   1      42.433  28.115  31.152  1.00  0.00    -0.248 NA
ATOM     53  C   UNL A   1      43.959  26.704  30.084  1.00  0.00     0.031 C 
ATOM     54  C   UNL A   1      42.853  29.534  35.347  1.00  0.00     0.029 A 
ATOM     55  C   UNL A   1      42.741  29.066  34.047  1.00  0.00     0.049 A 
ATOM     56  H   UNL A   1      41.242  29.477  32.618  1.00  0.00     0.167 HD
ATOM     57  C   UNL A   1      43.447  27.777  32.046  1.00  0.00     0.074 A 
ATOM     58  C   UNL A   1      44.334  26.874  31.341  1.00  0.00     0.031 C 
ATOM     59  C   UNL A   1      43.622  28.168  33.335  1.00  0.00     0.034 A 
BRANCH  46  60
ATOM     60  C   UNL A   1      39.229  32.043  35.405  1.00  0.00     0.023 A 
ATOM     61  C   UNL A   1      39.621  33.391  35.513  1.00  0.00     0.031 A 
ATOM     62  C   UNL A   1      38.373  31.531  36.397  1.00  0.00     0.131 A 
ATOM     63  C   UNL A   1      39.236  34.147  36.631  1.00  0.00     0.055 A 
ATOM     64  C   UNL A   1      37.915  32.318  37.455  1.00  0.00     0.041 A 
ATOM     65  F   UNL A   1      37.981  30.248  36.365  1.00  0.00    -0.206 F 
ATOM     66  C   UNL A   1      38.361  33.629  37.588  1.00  0.00     0.022 A 
BRANCH  63  67
ATOM     67  S   UNL A   1      40.032  35.753  36.905  1.00  0.00     0.124 S 
ATOM     68  O   UNL A   1      39.393  36.192  38.143  1.00  0.00    -0.237 OA
ATOM     69  O   UNL A   1      41.442  35.394  37.006  1.00  0.00    -0.237 OA
ATOM     70  O   UNL A   1      39.668  36.524  35.718  1.00  0.00    -0.744 OA
ENDBRANCH  63  67
ENDBRANCH  46  60
BRANCH  47  71
ATOM     71  C   UNL A   1      42.427  26.626  27.591  1.00  0.00     0.023 A 
ATOM     72  C   UNL A   1      42.029  25.291  27.405  1.00  0.00     0.031 A 
ATOM     73  C   UNL A   1      43.350  27.169  26.679  1.00  0.00     0.131 A 
ATOM     74  C   UNL A   1      42.591  24.528  26.370  1.00  0.00     0.055 A 
ATOM     75  C   UNL A   1      43.861  26.424  25.614  1.00  0.00     0.041 A 
ATOM     76  F   UNL A   1      43.763  28.440  26.805  1.00  0.00    -0.206 F 
ATOM     77  C   UNL A   1      43.493  25.090  25.464  1.00  0.00     0.022 A 
BRANCH  74  78
ATOM     78  S   UNL A   1      42.199  22.760  26.283  1.00  0.00     0.124 S 
ATOM     79  O   UNL A   1      40.744  22.774  26.381  1.00  0.00    -0.237 OA
ATOM     80  O   UNL A   1      42.751  22.391  24.984  1.00  0.00    -0.237 OA
ATOM     81  O   UNL A   1      42.898  22.199  27.437  1.00  0.00    -0.744 OA
ENDBRANCH  74  78
ENDBRANCH  47  71
BRANCH  59  82
ATOM     82  C   UNL A   1      44.782  27.558  34.089  1.00  0.00     0.023 A 
ATOM     83  C   UNL A   1      44.654  26.370  34.828  1.00  0.00     0.031 A 
ATOM     84  C   UNL A   1      46.034  28.201  34.089  1.00  0.00     0.131 A 
ATOM     85  C   UNL A   1      45.732  25.903  35.595  1.00  0.00     0.055 A 
ATOM     86  C   UNL A   1      47.126  27.690  34.792  1.00  0.00     0.041 A 
ATOM     87  F   UNL A   1      46.218  29.342  33.405  1.00  0.00    -0.206 F 
ATOM     88  C   UNL A   1      46.973  26.545  35.566  1.00  0.00     0.022 A 
BRANCH  85  89
ATOM     89  S   UNL A   1      45.455  24.522  36.739  1.00  0.00     0.124 S 
ATOM     90  O   UNL A   1      46.674  24.542  37.541  1.00  0.00    -0.237 OA
ATOM     91  O   UNL A   1      44.233  24.929  37.426  1.00  0.00    -0.237 OA
ATOM     92  O   UNL A   1      45.313  23.367  35.854  1.00  0.00    -0.744 OA
ENDBRANCH  85  89
ENDBRANCH  59  82
ENDBRANCH  33  34
ENDBRANCH  25  28
ENDBRANCH  23  24
ENDBRANCH   1  23
TORSDOF 17
ENDMDL
