MODEL 1
REMARK VINA RESULT:     -11.9      0.000      0.000
REMARK SMILES O=C(Cc1ccc(OC[C@H]2Cc3ccccc3S2)cc1)NCCCCNC(=O)c1ccc(-c2c3nc(c(-c4cc(S(=O)(=O)[O-])ccc4F)c4ccc([nH]4)c(-c4cc(S(=O)(=O)[O-])ccc4F)c4nc(c(-c5cc(S(=O)(=O)[O-])ccc5F)c5ccc2[nH]5)C=C4)C=C3)cc1
REMARK SMILES IDX 23 1 22 2 21 3 1 4 2 5 3 7 4 8 5 9 20 10 6 11 19 12 7 13
REMARK SMILES IDX 8 14 9 15 10 16 11 17 18 18 12 19 17 20 13 21 16 22 14 23
REMARK SMILES IDX 15 24 24 25 25 26 26 27 27 28 28 30 29 31 30 32 91 33 31 34
REMARK SMILES IDX 90 35 32 36 33 37 34 38 84 39 35 40 89 41 83 42 85 43 36 44
REMARK SMILES IDX 88 45 82 46 81 47 37 49 69 50 49 51 68 52 50 53 53 54 67 55
REMARK SMILES IDX 86 56 51 57 52 58 66 60 87 61 54 62 38 63 39 64 47 65 40 66
REMARK SMILES IDX 46 67 48 68 45 69 41 70 42 71 43 72 44 73 70 74 71 75 79 76
REMARK SMILES IDX 72 77 78 78 80 79 77 80 73 81 74 82 75 83 76 84 55 85 56 86
REMARK SMILES IDX 64 87 57 88 63 89 65 90 62 91 58 92 59 93 60 94 61 95
REMARK H PARENT 21 6 26 29 85 48 53 59
REMARK Flexibility Score: inf
ROOT
ATOM      1  C   UNL A   1      31.868  30.235  26.634  1.00  0.00     0.023 C 
ENDROOT
BRANCH   1   2
ATOM      2  C   UNL A   1      32.271  29.825  25.225  1.00  0.00     0.116 C 
BRANCH   2   3
ATOM      3  N   UNL A   1      31.316  28.921  24.615  1.00  0.00    -0.356 N 
ATOM      4  O   UNL A   1      29.853  30.522  23.843  1.00  0.00    -0.275 OA
ATOM      5  C   UNL A   1      30.243  29.358  23.862  1.00  0.00     0.224 C 
ATOM      6  H   UNL A   1      31.437  27.952  24.745  1.00  0.00     0.163 HD
BRANCH   5   7
ATOM      7  C   UNL A   1      29.621  28.270  22.985  1.00  0.00     0.135 C 
BRANCH   7   8
ATOM      8  C   UNL A   1      30.348  26.940  23.072  1.00  0.00    -0.038 A 
ATOM      9  C   UNL A   1      31.387  26.619  22.189  1.00  0.00     0.008 A 
ATOM     10  C   UNL A   1      29.977  25.988  24.028  1.00  0.00     0.008 A 
ATOM     11  C   UNL A   1      32.006  25.360  22.247  1.00  0.00     0.047 A 
ATOM     12  C   UNL A   1      30.526  24.714  24.015  1.00  0.00     0.047 A 
ATOM     13  C   UNL A   1      31.574  24.396  23.161  1.00  0.00     0.119 A 
BRANCH  13  14
ATOM     14  O   UNL A   1      32.250  23.203  23.170  1.00  0.00    -0.492 OA
BRANCH  14  15
ATOM     15  C   UNL A   1      32.294  22.473  24.417  1.00  0.00     0.244 C 
BRANCH  15  16
ATOM     16  C   UNL A   1      33.708  22.469  25.018  1.00  0.00     0.094 C 
ATOM     17  C   UNL A   1      34.752  21.671  24.209  1.00  0.00     0.055 C 
ATOM     18  S   UNL A   1      34.481  24.121  25.203  1.00  0.00    -0.119 SA
ATOM     19  C   UNL A   1      36.074  22.066  24.804  1.00  0.00    -0.033 A 
ATOM     20  C   UNL A   1      36.078  23.361  25.334  1.00  0.00     0.011 A 
ATOM     21  C   UNL A   1      37.201  21.258  24.891  1.00  0.00     0.005 A 
ATOM     22  C   UNL A   1      37.194  23.867  25.975  1.00  0.00     0.015 A 
ATOM     23  C   UNL A   1      38.323  21.752  25.558  1.00  0.00     0.000 A 
ATOM     24  C   UNL A   1      38.319  23.047  26.097  1.00  0.00     0.001 A 
ENDBRANCH  15  16
ENDBRANCH  14  15
ENDBRANCH  13  14
ENDBRANCH   7   8
ENDBRANCH   5   7
ENDBRANCH   2   3
ENDBRANCH   1   2
BRANCH   1  25
ATOM     25  C   UNL A   1      31.680  31.742  26.835  1.00  0.00     0.023 C 
BRANCH  25  26
ATOM     26  C   UNL A   1      32.933  32.517  27.234  1.00  0.00     0.116 C 
BRANCH  26  27
ATOM     27  N   UNL A   1      32.643  33.887  27.628  1.00  0.00    -0.352 N 
ATOM     28  C   UNL A   1      33.185  34.644  28.639  1.00  0.00     0.251 C 
ATOM     29  H   UNL A   1      31.957  34.341  27.088  1.00  0.00     0.163 HD
ATOM     30  O   UNL A   1      32.672  35.726  28.921  1.00  0.00    -0.269 OA
BRANCH  28  31
ATOM     31  C   UNL A   1      34.355  34.157  29.408  1.00  0.00     0.039 A 
ATOM     32  C   UNL A   1      34.137  33.446  30.592  1.00  0.00     0.014 A 
ATOM     33  C   UNL A   1      35.661  34.403  28.976  1.00  0.00     0.014 A 
ATOM     34  C   UNL A   1      35.224  32.921  31.300  1.00  0.00     0.010 A 
ATOM     35  C   UNL A   1      36.738  33.815  29.642  1.00  0.00     0.010 A 
ATOM     36  C   UNL A   1      36.532  33.063  30.809  1.00  0.00    -0.014 A 
BRANCH  36  37
ATOM     37  C   UNL A   1      37.689  32.423  31.497  1.00  0.00     0.031 A 
ATOM     38  C   UNL A   1      38.441  31.299  30.835  1.00  0.00     0.074 A 
ATOM     39  C   UNL A   1      38.027  32.816  32.741  1.00  0.00     0.049 A 
ATOM     40  N   UNL A   1      39.424  30.572  31.303  1.00  0.00    -0.248 NA
ATOM     41  C   UNL A   1      38.011  30.924  29.480  1.00  0.00     0.031 C 
ATOM     42  C   UNL A   1      37.359  33.874  33.503  1.00  0.00     0.029 A 
ATOM     43  N   UNL A   1      39.010  32.371  33.591  1.00  0.00    -0.354 N 
ATOM     44  C   UNL A   1      39.724  29.649  30.306  1.00  0.00     0.074 A 
ATOM     45  C   UNL A   1      38.775  29.871  29.234  1.00  0.00     0.031 C 
ATOM     46  C   UNL A   1      37.969  34.015  34.690  1.00  0.00     0.029 A 
ATOM     47  C   UNL A   1      39.036  33.024  34.803  1.00  0.00     0.049 A 
ATOM     48  H   UNL A   1      39.639  31.652  33.355  1.00  0.00     0.167 HD
ATOM     49  C   UNL A   1      40.710  28.717  30.278  1.00  0.00     0.034 A 
ATOM     50  C   UNL A   1      39.815  32.839  35.888  1.00  0.00     0.034 A 
ATOM     51  C   UNL A   1      41.654  28.512  31.352  1.00  0.00     0.049 A 
ATOM     52  C   UNL A   1      40.874  31.765  35.850  1.00  0.00     0.074 A 
ATOM     53  C   UNL A   1      42.724  27.636  31.401  1.00  0.00     0.029 A 
ATOM     54  N   UNL A   1      41.635  29.181  32.569  1.00  0.00    -0.354 N 
ATOM     55  N   UNL A   1      41.177  30.935  34.878  1.00  0.00    -0.248 NA
ATOM     56  C   UNL A   1      41.703  31.610  37.052  1.00  0.00     0.031 C 
ATOM     57  C   UNL A   1      43.298  27.713  32.674  1.00  0.00     0.029 A 
ATOM     58  C   UNL A   1      42.649  28.706  33.390  1.00  0.00     0.049 A 
ATOM     59  H   UNL A   1      40.996  29.888  32.815  1.00  0.00     0.167 HD
ATOM     60  C   UNL A   1      42.255  30.186  35.341  1.00  0.00     0.074 A 
ATOM     61  C   UNL A   1      42.559  30.673  36.671  1.00  0.00     0.031 C 
ATOM     62  C   UNL A   1      42.938  29.190  34.720  1.00  0.00     0.034 A 
BRANCH  49  63
ATOM     63  C   UNL A   1      40.797  27.827  29.060  1.00  0.00     0.023 A 
ATOM     64  C   UNL A   1      41.719  28.073  28.026  1.00  0.00     0.031 A 
ATOM     65  C   UNL A   1      39.936  26.722  28.922  1.00  0.00     0.131 A 
ATOM     66  C   UNL A   1      41.706  27.275  26.872  1.00  0.00     0.055 A 
ATOM     67  C   UNL A   1      39.989  25.880  27.809  1.00  0.00     0.041 A 
ATOM     68  F   UNL A   1      39.020  26.448  29.863  1.00  0.00    -0.206 F 
ATOM     69  C   UNL A   1      40.868  26.163  26.768  1.00  0.00     0.022 A 
BRANCH  66  70
ATOM     70  S   UNL A   1      42.695  27.803  25.445  1.00  0.00     0.124 S 
ATOM     71  O   UNL A   1      42.714  26.589  24.634  1.00  0.00    -0.237 OA
ATOM     72  O   UNL A   1      41.914  28.915  24.915  1.00  0.00    -0.237 OA
ATOM     73  O   UNL A   1      43.981  28.169  26.036  1.00  0.00    -0.744 OA
ENDBRANCH  66  70
ENDBRANCH  49  63
BRANCH  50  74
ATOM     74  C   UNL A   1      39.624  33.672  37.112  1.00  0.00     0.023 A 
ATOM     75  C   UNL A   1      40.421  34.804  37.348  1.00  0.00     0.031 A 
ATOM     76  C   UNL A   1      38.681  33.316  38.093  1.00  0.00     0.131 A 
ATOM     77  C   UNL A   1      40.298  35.507  38.557  1.00  0.00     0.055 A 
ATOM     78  C   UNL A   1      38.518  34.056  39.265  1.00  0.00     0.041 A 
ATOM     79  F   UNL A   1      37.891  32.243  37.920  1.00  0.00    -0.206 F 
ATOM     80  C   UNL A   1      39.341  35.151  39.509  1.00  0.00     0.022 A 
BRANCH  77  81
ATOM     81  S   UNL A   1      41.481  36.835  38.911  1.00  0.00     0.124 S 
ATOM     82  O   UNL A   1      42.242  36.265  40.017  1.00  0.00    -0.237 OA
ATOM     83  O   UNL A   1      42.188  36.959  37.641  1.00  0.00    -0.237 OA
ATOM     84  O   UNL A   1      40.626  37.968  39.259  1.00  0.00    -0.744 OA
ENDBRANCH  77  81
ENDBRANCH  50  74
BRANCH  62  85
ATOM     85  C   UNL A   1      44.117  28.596  35.456  1.00  0.00     0.023 A 
ATOM     86  C   UNL A   1      43.972  27.523  36.353  1.00  0.00     0.031 A 
ATOM     87  C   UNL A   1      45.407  29.124  35.265  1.00  0.00     0.131 A 
ATOM     88  C   UNL A   1      45.084  27.051  37.066  1.00  0.00     0.055 A 
ATOM     89  C   UNL A   1      46.521  28.605  35.925  1.00  0.00     0.041 A 
ATOM     90  F   UNL A   1      45.607  30.154  34.426  1.00  0.00    -0.206 F 
ATOM     91  C   UNL A   1      46.361  27.572  36.843  1.00  0.00     0.022 A 
BRANCH  88  92
ATOM     92  S   UNL A   1      44.825  25.815  38.367  1.00  0.00     0.124 S 
ATOM     93  O   UNL A   1      43.987  26.542  39.314  1.00  0.00    -0.237 OA
ATOM     94  O   UNL A   1      44.172  24.729  37.642  1.00  0.00    -0.237 OA
ATOM     95  O   UNL A   1      46.178  25.519  38.835  1.00  0.00    -0.744 OA
ENDBRANCH  88  92
ENDBRANCH  62  85
ENDBRANCH  36  37
ENDBRANCH  28  31
ENDBRANCH  26  27
ENDBRANCH  25  26
ENDBRANCH   1  25
TORSDOF 18
ENDMDL
MODEL 2
REMARK VINA RESULT:     -11.8      4.353     10.752
REMARK SMILES O=C(Cc1ccc(OC[C@H]2Cc3ccccc3S2)cc1)NCCCCNC(=O)c1ccc(-c2c3nc(c(-c4cc(S(=O)(=O)[O-])ccc4F)c4ccc([nH]4)c(-c4cc(S(=O)(=O)[O-])ccc4F)c4nc(c(-c5cc(S(=O)(=O)[O-])ccc5F)c5ccc2[nH]5)C=C4)C=C3)cc1
REMARK SMILES IDX 23 1 22 2 21 3 1 4 2 5 3 7 4 8 5 9 20 10 6 11 19 12 7 13
REMARK SMILES IDX 8 14 9 15 10 16 11 17 18 18 12 19 17 20 13 21 16 22 14 23
REMARK SMILES IDX 15 24 24 25 25 26 26 27 27 28 28 30 29 31 30 32 91 33 31 34
REMARK SMILES IDX 90 35 32 36 33 37 34 38 84 39 35 40 89 41 83 42 85 43 36 44
REMARK SMILES IDX 88 45 82 46 81 47 37 49 69 50 49 51 68 52 50 53 53 54 67 55
REMARK SMILES IDX 86 56 51 57 52 58 66 60 87 61 54 62 38 63 39 64 47 65 40 66
REMARK SMILES IDX 46 67 48 68 45 69 41 70 42 71 43 72 44 73 70 74 71 75 79 76
REMARK SMILES IDX 72 77 78 78 80 79 77 80 73 81 74 82 75 83 76 84 55 85 56 86
REMARK SMILES IDX 64 87 57 88 63 89 65 90 62 91 58 92 59 93 60 94 61 95
REMARK H PARENT 21 6 26 29 85 48 53 59
REMARK Flexibility Score: inf
ROOT
ATOM      1  C   UNL A   1      34.706  32.768  31.236  1.00  0.00     0.023 C 
ENDROOT
BRANCH   1   2
ATOM      2  C   UNL A   1      34.467  33.124  32.695  1.00  0.00     0.116 C 
BRANCH   2   3
ATOM      3  N   UNL A   1      35.490  34.000  33.228  1.00  0.00    -0.356 N 
ATOM      4  O   UNL A   1      36.721  32.383  34.310  1.00  0.00    -0.275 OA
ATOM      5  C   UNL A   1      36.609  33.532  33.892  1.00  0.00     0.224 C 
ATOM      6  H   UNL A   1      35.384  34.972  33.113  1.00  0.00     0.163 HD
BRANCH   5   7
ATOM      7  C   UNL A   1      37.739  34.558  33.997  1.00  0.00     0.135 C 
BRANCH   7   8
ATOM      8  C   UNL A   1      38.771  34.429  32.891  1.00  0.00    -0.038 A 
ATOM      9  C   UNL A   1      40.144  34.448  33.171  1.00  0.00     0.008 A 
ATOM     10  C   UNL A   1      38.373  34.312  31.555  1.00  0.00     0.008 A 
ATOM     11  C   UNL A   1      41.083  34.390  32.129  1.00  0.00     0.047 A 
ATOM     12  C   UNL A   1      39.304  34.353  30.527  1.00  0.00     0.047 A 
ATOM     13  C   UNL A   1      40.666  34.345  30.796  1.00  0.00     0.119 A 
BRANCH  13  14
ATOM     14  O   UNL A   1      41.647  34.263  29.843  1.00  0.00    -0.492 OA
BRANCH  14  15
ATOM     15  C   UNL A   1      42.951  33.806  30.268  1.00  0.00     0.244 C 
BRANCH  15  16
ATOM     16  C   UNL A   1      43.269  32.410  29.712  1.00  0.00     0.094 C 
ATOM     17  C   UNL A   1      43.935  32.405  28.319  1.00  0.00     0.055 C 
ATOM     18  S   UNL A   1      44.408  31.403  30.735  1.00  0.00    -0.119 SA
ATOM     19  C   UNL A   1      44.418  30.994  28.137  1.00  0.00    -0.033 A 
ATOM     20  C   UNL A   1      44.742  30.359  29.341  1.00  0.00     0.011 A 
ATOM     21  C   UNL A   1      44.515  30.317  26.927  1.00  0.00     0.005 A 
ATOM     22  C   UNL A   1      45.147  29.037  29.365  1.00  0.00     0.015 A 
ATOM     23  C   UNL A   1      44.899  28.976  26.945  1.00  0.00     0.000 A 
ATOM     24  C   UNL A   1      45.212  28.340  28.156  1.00  0.00     0.001 A 
ENDBRANCH  15  16
ENDBRANCH  14  15
ENDBRANCH  13  14
ENDBRANCH   7   8
ENDBRANCH   5   7
ENDBRANCH   2   3
ENDBRANCH   1   2
BRANCH   1  25
ATOM     25  C   UNL A   1      34.449  33.908  30.245  1.00  0.00     0.023 C 
BRANCH  25  26
ATOM     26  C   UNL A   1      34.913  33.655  28.813  1.00  0.00     0.116 C 
BRANCH  26  27
ATOM     27  N   UNL A   1      34.053  32.722  28.101  1.00  0.00    -0.352 N 
ATOM     28  C   UNL A   1      34.292  31.423  27.719  1.00  0.00     0.251 C 
ATOM     29  H   UNL A   1      33.166  33.073  27.858  1.00  0.00     0.163 HD
ATOM     30  O   UNL A   1      33.498  30.863  26.964  1.00  0.00    -0.269 OA
BRANCH  28  31
ATOM     31  C   UNL A   1      35.505  30.708  28.180  1.00  0.00     0.039 A 
ATOM     32  C   UNL A   1      36.735  31.012  27.588  1.00  0.00     0.014 A 
ATOM     33  C   UNL A   1      35.439  29.736  29.182  1.00  0.00     0.014 A 
ATOM     34  C   UNL A   1      37.903  30.397  28.051  1.00  0.00     0.010 A 
ATOM     35  C   UNL A   1      36.613  29.180  29.693  1.00  0.00     0.010 A 
ATOM     36  C   UNL A   1      37.859  29.507  29.137  1.00  0.00    -0.014 A 
BRANCH  36  37
ATOM     37  C   UNL A   1      39.106  28.922  29.707  1.00  0.00     0.031 A 
ATOM     38  C   UNL A   1      39.732  29.519  30.940  1.00  0.00     0.074 A 
ATOM     39  C   UNL A   1      39.706  27.889  29.082  1.00  0.00     0.049 A 
ATOM     40  N   UNL A   1      40.849  29.196  31.540  1.00  0.00    -0.248 NA
ATOM     41  C   UNL A   1      39.021  30.645  31.563  1.00  0.00     0.031 C 
ATOM     42  C   UNL A   1      39.216  27.241  27.863  1.00  0.00     0.029 A 
ATOM     43  N   UNL A   1      40.860  27.205  29.377  1.00  0.00    -0.354 N 
ATOM     44  C   UNL A   1      40.981  30.083  32.603  1.00  0.00     0.074 A 
ATOM     45  C   UNL A   1      39.859  30.995  32.526  1.00  0.00     0.031 C 
ATOM     46  C   UNL A   1      40.045  26.238  27.534  1.00  0.00     0.029 A 
ATOM     47  C   UNL A   1      41.156  26.202  28.481  1.00  0.00     0.049 A 
ATOM     48  H   UNL A   1      41.423  27.412  30.156  1.00  0.00     0.167 HD
ATOM     49  C   UNL A   1      41.938  30.121  33.566  1.00  0.00     0.034 A 
ATOM     50  C   UNL A   1      42.208  25.360  28.416  1.00  0.00     0.034 A 
ATOM     51  C   UNL A   1      43.047  29.200  33.634  1.00  0.00     0.049 A 
ATOM     52  C   UNL A   1      43.282  25.454  29.472  1.00  0.00     0.074 A 
ATOM     53  C   UNL A   1      44.038  29.116  34.598  1.00  0.00     0.029 A 
ATOM     54  N   UNL A   1      43.322  28.210  32.699  1.00  0.00    -0.354 N 
ATOM     55  N   UNL A   1      43.364  26.267  30.500  1.00  0.00    -0.248 NA
ATOM     56  C   UNL A   1      44.401  24.508  29.363  1.00  0.00     0.031 C 
ATOM     57  C   UNL A   1      44.955  28.137  34.202  1.00  0.00     0.029 A 
ATOM     58  C   UNL A   1      44.489  27.541  33.041  1.00  0.00     0.049 A 
ATOM     59  H   UNL A   1      42.771  28.013  31.908  1.00  0.00     0.167 HD
ATOM     60  C   UNL A   1      44.524  25.904  31.179  1.00  0.00     0.074 A 
ATOM     61  C   UNL A   1      45.099  24.791  30.452  1.00  0.00     0.031 C 
ATOM     62  C   UNL A   1      45.062  26.438  32.305  1.00  0.00     0.034 A 
BRANCH  49  63
ATOM     63  C   UNL A   1      41.842  31.216  34.603  1.00  0.00     0.023 A 
ATOM     64  C   UNL A   1      40.815  31.240  35.563  1.00  0.00     0.031 A 
ATOM     65  C   UNL A   1      42.785  32.260  34.626  1.00  0.00     0.131 A 
ATOM     66  C   UNL A   1      40.710  32.322  36.452  1.00  0.00     0.055 A 
ATOM     67  C   UNL A   1      42.726  33.288  35.570  1.00  0.00     0.041 A 
ATOM     68  F   UNL A   1      43.776  32.306  33.723  1.00  0.00    -0.206 F 
ATOM     69  C   UNL A   1      41.675  33.331  36.480  1.00  0.00     0.022 A 
BRANCH  66  70
ATOM     70  S   UNL A   1      39.213  32.467  37.465  1.00  0.00     0.124 S 
ATOM     71  O   UNL A   1      39.760  32.374  38.815  1.00  0.00    -0.237 OA
ATOM     72  O   UNL A   1      38.693  33.772  37.074  1.00  0.00    -0.237 OA
ATOM     73  O   UNL A   1      38.405  31.322  37.048  1.00  0.00    -0.744 OA
ENDBRANCH  66  70
ENDBRANCH  49  63
BRANCH  50  74
ATOM     74  C   UNL A   1      42.316  24.363  27.311  1.00  0.00     0.023 A 
ATOM     75  C   UNL A   1      41.571  23.172  27.336  1.00  0.00     0.031 A 
ATOM     76  C   UNL A   1      43.208  24.557  26.241  1.00  0.00     0.131 A 
ATOM     77  C   UNL A   1      41.771  22.200  26.343  1.00  0.00     0.055 A 
ATOM     78  C   UNL A   1      43.356  23.615  25.221  1.00  0.00     0.041 A 
ATOM     79  F   UNL A   1      43.945  25.678  26.165  1.00  0.00    -0.206 F 
ATOM     80  C   UNL A   1      42.646  22.421  25.277  1.00  0.00     0.022 A 
BRANCH  77  81
ATOM     81  S   UNL A   1      40.944  20.596  26.521  1.00  0.00     0.124 S 
ATOM     82  O   UNL A   1      39.591  20.910  26.076  1.00  0.00    -0.237 OA
ATOM     83  O   UNL A   1      41.732  19.748  25.632  1.00  0.00    -0.237 OA
ATOM     84  O   UNL A   1      41.081  20.299  27.945  1.00  0.00    -0.744 OA
ENDBRANCH  77  81
ENDBRANCH  50  74
BRANCH  62  85
ATOM     85  C   UNL A   1      46.313  25.788  32.850  1.00  0.00     0.023 A 
ATOM     86  C   UNL A   1      46.261  24.685  33.722  1.00  0.00     0.031 A 
ATOM     87  C   UNL A   1      47.579  26.290  32.498  1.00  0.00     0.131 A 
ATOM     88  C   UNL A   1      47.446  24.160  34.256  1.00  0.00     0.055 A 
ATOM     89  C   UNL A   1      48.758  25.718  32.978  1.00  0.00     0.041 A 
ATOM     90  F   UNL A   1      47.692  27.345  31.674  1.00  0.00    -0.206 F 
ATOM     91  C   UNL A   1      48.695  24.656  33.875  1.00  0.00     0.022 A 
BRANCH  88  92
ATOM     92  S   UNL A   1      47.333  22.883  35.539  1.00  0.00     0.124 S 
ATOM     93  O   UNL A   1      47.119  21.676  34.748  1.00  0.00    -0.237 OA
ATOM     94  O   UNL A   1      48.629  22.988  36.202  1.00  0.00    -0.237 OA
ATOM     95  O   UNL A   1      46.190  23.306  36.347  1.00  0.00    -0.744 OA
ENDBRANCH  88  92
ENDBRANCH  62  85
ENDBRANCH  36  37
ENDBRANCH  28  31
ENDBRANCH  26  27
ENDBRANCH  25  26
ENDBRANCH   1  25
TORSDOF 18
ENDMDL
MODEL 3
REMARK VINA RESULT:     -11.5      1.427      1.882
REMARK SMILES O=C(Cc1ccc(OC[C@H]2Cc3ccccc3S2)cc1)NCCCCNC(=O)c1ccc(-c2c3nc(c(-c4cc(S(=O)(=O)[O-])ccc4F)c4ccc([nH]4)c(-c4cc(S(=O)(=O)[O-])ccc4F)c4nc(c(-c5cc(S(=O)(=O)[O-])ccc5F)c5ccc2[nH]5)C=C4)C=C3)cc1
REMARK SMILES IDX 23 1 22 2 21 3 1 4 2 5 3 7 4 8 5 9 20 10 6 11 19 12 7 13
REMARK SMILES IDX 8 14 9 15 10 16 11 17 18 18 12 19 17 20 13 21 16 22 14 23
REMARK SMILES IDX 15 24 24 25 25 26 26 27 27 28 28 30 29 31 30 32 91 33 31 34
REMARK SMILES IDX 90 35 32 36 33 37 34 38 84 39 35 40 89 41 83 42 85 43 36 44
REMARK SMILES IDX 88 45 82 46 81 47 37 49 69 50 49 51 68 52 50 53 53 54 67 55
REMARK SMILES IDX 86 56 51 57 52 58 66 60 87 61 54 62 38 63 39 64 47 65 40 66
REMARK SMILES IDX 46 67 48 68 45 69 41 70 42 71 43 72 44 73 70 74 71 75 79 76
REMARK SMILES IDX 72 77 78 78 80 79 77 80 73 81 74 82 75 83 76 84 55 85 56 86
REMARK SMILES IDX 64 87 57 88 63 89 65 90 62 91 58 92 59 93 60 94 61 95
REMARK H PARENT 21 6 26 29 85 48 53 59
REMARK Flexibility Score: inf
ROOT
ATOM      1  C   UNL A   1      32.080  30.583  26.691  1.00  0.00     0.023 C 
ENDROOT
BRANCH   1   2
ATOM      2  C   UNL A   1      31.093  31.149  25.680  1.00  0.00     0.116 C 
BRANCH   2   3
ATOM      3  N   UNL A   1      30.784  30.211  24.620  1.00  0.00    -0.356 N 
ATOM      4  O   UNL A   1      28.879  31.254  23.857  1.00  0.00    -0.275 OA
ATOM      5  C   UNL A   1      29.763  30.414  23.711  1.00  0.00     0.224 C 
ATOM      6  H   UNL A   1      31.325  29.392  24.545  1.00  0.00     0.163 HD
BRANCH   5   7
ATOM      7  C   UNL A   1      29.871  29.545  22.457  1.00  0.00     0.135 C 
BRANCH   7   8
ATOM      8  C   UNL A   1      30.055  28.069  22.764  1.00  0.00    -0.038 A 
ATOM      9  C   UNL A   1      29.139  27.372  23.563  1.00  0.00     0.008 A 
ATOM     10  C   UNL A   1      31.164  27.373  22.273  1.00  0.00     0.008 A 
ATOM     11  C   UNL A   1      29.360  26.024  23.886  1.00  0.00     0.047 A 
ATOM     12  C   UNL A   1      31.425  26.071  22.675  1.00  0.00     0.047 A 
ATOM     13  C   UNL A   1      30.510  25.365  23.444  1.00  0.00     0.119 A 
BRANCH  13  14
ATOM     14  O   UNL A   1      30.634  24.042  23.781  1.00  0.00    -0.492 OA
BRANCH  14  15
ATOM     15  C   UNL A   1      31.228  23.736  25.064  1.00  0.00     0.244 C 
BRANCH  15  16
ATOM     16  C   UNL A   1      32.710  23.356  24.922  1.00  0.00     0.094 C 
ATOM     17  C   UNL A   1      33.680  24.209  25.766  1.00  0.00     0.055 C 
ATOM     18  S   UNL A   1      33.123  21.636  25.401  1.00  0.00    -0.119 SA
ATOM     19  C   UNL A   1      34.986  23.468  25.705  1.00  0.00    -0.033 A 
ATOM     20  C   UNL A   1      34.832  22.086  25.552  1.00  0.00     0.011 A 
ATOM     21  C   UNL A   1      36.250  24.043  25.746  1.00  0.00     0.005 A 
ATOM     22  C   UNL A   1      35.929  21.256  25.417  1.00  0.00     0.015 A 
ATOM     23  C   UNL A   1      37.362  23.215  25.587  1.00  0.00     0.000 A 
ATOM     24  C   UNL A   1      37.203  21.831  25.421  1.00  0.00     0.001 A 
ENDBRANCH  15  16
ENDBRANCH  14  15
ENDBRANCH  13  14
ENDBRANCH   7   8
ENDBRANCH   5   7
ENDBRANCH   2   3
ENDBRANCH   1   2
BRANCH   1  25
ATOM     25  C   UNL A   1      32.681  31.615  27.650  1.00  0.00     0.023 C 
BRANCH  25  26
ATOM     26  C   UNL A   1      33.274  32.860  26.994  1.00  0.00     0.116 C 
BRANCH  26  27
ATOM     27  N   UNL A   1      32.794  34.094  27.596  1.00  0.00    -0.352 N 
ATOM     28  C   UNL A   1      33.174  34.707  28.767  1.00  0.00     0.251 C 
ATOM     29  H   UNL A   1      32.092  34.561  27.089  1.00  0.00     0.163 HD
ATOM     30  O   UNL A   1      32.514  35.655  29.190  1.00  0.00    -0.269 OA
BRANCH  28  31
ATOM     31  C   UNL A   1      34.344  34.218  29.533  1.00  0.00     0.039 A 
ATOM     32  C   UNL A   1      34.128  33.434  30.670  1.00  0.00     0.014 A 
ATOM     33  C   UNL A   1      35.649  34.534  29.146  1.00  0.00     0.014 A 
ATOM     34  C   UNL A   1      35.217  32.908  31.373  1.00  0.00     0.010 A 
ATOM     35  C   UNL A   1      36.732  33.946  29.803  1.00  0.00     0.010 A 
ATOM     36  C   UNL A   1      36.529  33.123  30.921  1.00  0.00    -0.014 A 
BRANCH  36  37
ATOM     37  C   UNL A   1      37.694  32.486  31.598  1.00  0.00     0.031 A 
ATOM     38  C   UNL A   1      38.422  31.341  30.944  1.00  0.00     0.074 A 
ATOM     39  C   UNL A   1      38.061  32.901  32.827  1.00  0.00     0.049 A 
ATOM     40  N   UNL A   1      39.407  30.614  31.407  1.00  0.00    -0.248 NA
ATOM     41  C   UNL A   1      37.961  30.943  29.606  1.00  0.00     0.031 C 
ATOM     42  C   UNL A   1      37.419  33.980  33.580  1.00  0.00     0.029 A 
ATOM     43  N   UNL A   1      39.058  32.463  33.666  1.00  0.00    -0.354 N 
ATOM     44  C   UNL A   1      39.678  29.669  30.423  1.00  0.00     0.074 A 
ATOM     45  C   UNL A   1      38.710  29.878  29.366  1.00  0.00     0.031 C 
ATOM     46  C   UNL A   1      38.055  34.139  34.751  1.00  0.00     0.029 A 
ATOM     47  C   UNL A   1      39.114  33.141  34.863  1.00  0.00     0.049 A 
ATOM     48  H   UNL A   1      39.675  31.734  33.432  1.00  0.00     0.167 HD
ATOM     49  C   UNL A   1      40.655  28.727  30.394  1.00  0.00     0.034 A 
ATOM     50  C   UNL A   1      39.914  32.970  35.935  1.00  0.00     0.034 A 
ATOM     51  C   UNL A   1      41.619  28.535  31.453  1.00  0.00     0.049 A 
ATOM     52  C   UNL A   1      40.962  31.885  35.898  1.00  0.00     0.074 A 
ATOM     53  C   UNL A   1      42.681  27.649  31.498  1.00  0.00     0.029 A 
ATOM     54  N   UNL A   1      41.631  29.228  32.657  1.00  0.00    -0.354 N 
ATOM     55  N   UNL A   1      41.237  31.033  34.937  1.00  0.00    -0.248 NA
ATOM     56  C   UNL A   1      41.814  31.746  37.086  1.00  0.00     0.031 C 
ATOM     57  C   UNL A   1      43.282  27.746  32.757  1.00  0.00     0.029 A 
ATOM     58  C   UNL A   1      42.657  28.760  33.466  1.00  0.00     0.049 A 
ATOM     59  H   UNL A   1      41.004  29.946  32.900  1.00  0.00     0.167 HD
ATOM     60  C   UNL A   1      42.317  30.283  35.393  1.00  0.00     0.074 A 
ATOM     61  C   UNL A   1      42.652  30.794  36.707  1.00  0.00     0.031 C 
ATOM     62  C   UNL A   1      42.978  29.268  34.779  1.00  0.00     0.034 A 
BRANCH  49  63
ATOM     63  C   UNL A   1      40.709  27.811  29.193  1.00  0.00     0.023 A 
ATOM     64  C   UNL A   1      41.624  28.016  28.145  1.00  0.00     0.031 A 
ATOM     65  C   UNL A   1      39.823  26.724  29.086  1.00  0.00     0.131 A 
ATOM     66  C   UNL A   1      41.581  27.197  27.007  1.00  0.00     0.055 A 
ATOM     67  C   UNL A   1      39.844  25.859  27.990  1.00  0.00     0.041 A 
ATOM     68  F   UNL A   1      38.911  26.488  30.042  1.00  0.00    -0.206 F 
ATOM     69  C   UNL A   1      40.717  26.102  26.934  1.00  0.00     0.022 A 
BRANCH  66  70
ATOM     70  S   UNL A   1      42.565  27.674  25.560  1.00  0.00     0.124 S 
ATOM     71  O   UNL A   1      43.894  27.830  26.145  1.00  0.00    -0.237 OA
ATOM     72  O   UNL A   1      42.389  26.534  24.667  1.00  0.00    -0.237 OA
ATOM     73  O   UNL A   1      41.939  28.919  25.115  1.00  0.00    -0.744 OA
ENDBRANCH  66  70
ENDBRANCH  49  63
BRANCH  50  74
ATOM     74  C   UNL A   1      39.755  33.829  37.146  1.00  0.00     0.023 A 
ATOM     75  C   UNL A   1      39.079  33.359  38.283  1.00  0.00     0.031 A 
ATOM     76  C   UNL A   1      40.225  35.155  37.162  1.00  0.00     0.131 A 
ATOM     77  C   UNL A   1      38.846  34.221  39.366  1.00  0.00     0.055 A 
ATOM     78  C   UNL A   1      40.046  35.989  38.268  1.00  0.00     0.041 A 
ATOM     79  F   UNL A   1      40.879  35.659  36.102  1.00  0.00    -0.206 F 
ATOM     80  C   UNL A   1      39.339  35.527  39.373  1.00  0.00     0.022 A 
BRANCH  77  81
ATOM     81  S   UNL A   1      37.796  33.640  40.727  1.00  0.00     0.124 S 
ATOM     82  O   UNL A   1      36.770  32.892  40.009  1.00  0.00    -0.237 OA
ATOM     83  O   UNL A   1      38.734  32.849  41.517  1.00  0.00    -0.237 OA
ATOM     84  O   UNL A   1      37.342  34.877  41.358  1.00  0.00    -0.744 OA
ENDBRANCH  77  81
ENDBRANCH  50  74
BRANCH  62  85
ATOM     85  C   UNL A   1      44.166  28.678  35.504  1.00  0.00     0.023 A 
ATOM     86  C   UNL A   1      44.025  27.651  36.454  1.00  0.00     0.031 A 
ATOM     87  C   UNL A   1      45.461  29.162  35.245  1.00  0.00     0.131 A 
ATOM     88  C   UNL A   1      45.148  27.184  37.152  1.00  0.00     0.055 A 
ATOM     89  C   UNL A   1      46.584  28.644  35.892  1.00  0.00     0.041 A 
ATOM     90  F   UNL A   1      45.658  30.146  34.352  1.00  0.00    -0.206 F 
ATOM     91  C   UNL A   1      46.430  27.659  36.863  1.00  0.00     0.022 A 
BRANCH  88  92
ATOM     92  S   UNL A   1      44.903  26.017  38.519  1.00  0.00     0.124 S 
ATOM     93  O   UNL A   1      44.156  24.944  37.871  1.00  0.00    -0.237 OA
ATOM     94  O   UNL A   1      46.273  25.695  38.905  1.00  0.00    -0.237 OA
ATOM     95  O   UNL A   1      44.149  26.792  39.502  1.00  0.00    -0.744 OA
ENDBRANCH  88  92
ENDBRANCH  62  85
ENDBRANCH  36  37
ENDBRANCH  28  31
ENDBRANCH  26  27
ENDBRANCH  25  26
ENDBRANCH   1  25
TORSDOF 18
ENDMDL
