MODEL 1
REMARK VINA RESULT:     -11.9      0.000      0.000
REMARK SMILES Cc1cc(C(=O)Nc2nc(CC(=O)NCCCCNC(=O)c3ccc(-c4c5nc(c(-c6cc(S(=O)(=O)[O-])ccc6F)c6ccc([nH]6)c(-c6cc(S(=O)(=O)[O-])ccc6F)c6nc(c(-c7cc(S(=O)(=O)[O-])ccc7F)c7ccc4[nH]7)C=C6)C=C5)cc3)cs2)sc1C
REMARK SMILES IDX 16 1 15 2 14 3 12 4 13 5 11 7 10 8 8 9 9 10 86 11 85 12 7 13
REMARK SMILES IDX 5 14 6 15 4 17 1 18 2 19 3 20 88 21 87 22 89 23 17 24 18 25
REMARK SMILES IDX 19 26 20 27 21 29 22 30 23 31 84 32 24 33 83 34 25 35 26 36
REMARK SMILES IDX 27 37 77 38 28 39 82 40 76 41 78 42 29 43 81 44 75 45 74 46
REMARK SMILES IDX 30 48 62 49 42 50 61 51 43 52 46 53 60 54 79 55 44 56 45 57
REMARK SMILES IDX 59 59 80 60 47 61 31 62 32 63 40 64 33 65 39 66 41 67 38 68
REMARK SMILES IDX 34 69 35 70 36 71 37 72 63 73 64 74 72 75 65 76 71 77 73 78
REMARK SMILES IDX 70 79 66 80 67 81 68 82 69 83 48 84 49 85 57 86 50 87 56 88
REMARK SMILES IDX 58 89 55 90 51 91 52 92 53 93 54 94
REMARK H PARENT 14 6 7 16 19 28 78 47 46 58
REMARK Flexibility Score: inf
ROOT
ATOM      1  C   UNL A   1      31.865  30.559  26.547  1.00  0.00     0.023 C 
ENDROOT
BRANCH   1   2
ATOM      2  C   UNL A   1      33.342  30.188  26.404  1.00  0.00     0.116 C 
BRANCH   2   3
ATOM      3  N   UNL A   1      33.598  29.470  25.167  1.00  0.00    -0.356 N 
ATOM      4  C   UNL A   1      33.796  28.130  24.989  1.00  0.00     0.226 C 
ATOM      5  O   UNL A   1      34.091  27.718  23.865  1.00  0.00    -0.275 OA
ATOM      6  H   UNL A   1      33.632  30.021  24.351  1.00  0.00     0.163 HD
BRANCH   4   7
ATOM      7  C   UNL A   1      33.606  27.174  26.147  1.00  0.00     0.157 C 
BRANCH   7   8
ATOM      8  C   UNL A   1      32.473  26.228  25.943  1.00  0.00     0.063 A 
ATOM      9  C   UNL A   1      31.655  24.183  25.831  1.00  0.00     0.189 A 
ATOM     10  N   UNL A   1      32.759  24.870  25.949  1.00  0.00    -0.224 NA
ATOM     11  S   UNL A   1      30.241  25.077  25.509  1.00  0.00    -0.105 S 
ATOM     12  C   UNL A   1      31.135  26.527  25.749  1.00  0.00     0.093 A 
BRANCH   9  13
ATOM     13  N   UNL A   1      31.480  22.837  25.935  1.00  0.00    -0.297 N 
ATOM     14  C   UNL A   1      32.307  21.853  25.440  1.00  0.00     0.267 C 
ATOM     15  O   UNL A   1      31.789  20.738  25.300  1.00  0.00    -0.268 OA
ATOM     16  H   UNL A   1      30.677  22.535  26.416  1.00  0.00     0.172 HD
BRANCH  14  17
ATOM     17  C   UNL A   1      33.737  22.051  25.186  1.00  0.00     0.093 A 
ATOM     18  C   UNL A   1      36.585  22.927  22.861  1.00  0.00     0.045 C 
ATOM     19  C   UNL A   1      35.739  22.559  24.034  1.00  0.00    -0.037 A 
ATOM     20  C   UNL A   1      34.307  22.450  23.985  1.00  0.00     0.029 A 
ATOM     21  C   UNL A   1      36.196  22.306  25.315  1.00  0.00     0.005 A 
ATOM     22  S   UNL A   1      34.981  21.567  26.257  1.00  0.00    -0.135 S 
ATOM     23  C   UNL A   1      37.550  22.509  25.905  1.00  0.00     0.056 C 
ENDBRANCH  14  17
ENDBRANCH   9  13
ENDBRANCH   7   8
ENDBRANCH   4   7
ENDBRANCH   2   3
ENDBRANCH   1   2
BRANCH   1  24
ATOM     24  C   UNL A   1      31.600  32.017  26.927  1.00  0.00     0.023 C 
BRANCH  24  25
ATOM     25  C   UNL A   1      32.823  32.787  27.403  1.00  0.00     0.116 C 
BRANCH  25  26
ATOM     26  N   UNL A   1      32.525  34.171  27.734  1.00  0.00    -0.352 N 
ATOM     27  C   UNL A   1      33.104  34.968  28.691  1.00  0.00     0.251 C 
ATOM     28  H   UNL A   1      31.813  34.593  27.201  1.00  0.00     0.163 HD
ATOM     29  O   UNL A   1      32.632  36.077  28.928  1.00  0.00    -0.269 OA
BRANCH  27  30
ATOM     30  C   UNL A   1      34.266  34.466  29.456  1.00  0.00     0.039 A 
ATOM     31  C   UNL A   1      34.046  33.833  30.680  1.00  0.00     0.014 A 
ATOM     32  C   UNL A   1      35.566  34.600  28.957  1.00  0.00     0.014 A 
ATOM     33  C   UNL A   1      35.122  33.278  31.375  1.00  0.00     0.010 A 
ATOM     34  C   UNL A   1      36.625  33.979  29.612  1.00  0.00     0.010 A 
ATOM     35  C   UNL A   1      36.416  33.317  30.831  1.00  0.00    -0.014 A 
BRANCH  35  36
ATOM     36  C   UNL A   1      37.565  32.685  31.529  1.00  0.00     0.031 A 
ATOM     37  C   UNL A   1      38.292  31.533  30.889  1.00  0.00     0.074 A 
ATOM     38  C   UNL A   1      37.915  33.107  32.761  1.00  0.00     0.049 A 
ATOM     39  N   UNL A   1      39.267  30.802  31.363  1.00  0.00    -0.248 NA
ATOM     40  C   UNL A   1      37.836  31.132  29.550  1.00  0.00     0.031 C 
ATOM     41  C   UNL A   1      37.258  34.185  33.503  1.00  0.00     0.029 A 
ATOM     42  N   UNL A   1      38.903  32.676  33.610  1.00  0.00    -0.354 N 
ATOM     43  C   UNL A   1      39.532  29.845  30.388  1.00  0.00     0.074 A 
ATOM     44  C   UNL A   1      38.568  30.052  29.328  1.00  0.00     0.031 C 
ATOM     45  C   UNL A   1      37.877  34.347  34.684  1.00  0.00     0.029 A 
ATOM     46  C   UNL A   1      38.945  33.359  34.803  1.00  0.00     0.049 A 
ATOM     47  H   UNL A   1      39.524  31.945  33.386  1.00  0.00     0.167 HD
ATOM     48  C   UNL A   1      40.505  28.900  30.367  1.00  0.00     0.034 A 
ATOM     49  C   UNL A   1      39.747  33.202  35.875  1.00  0.00     0.034 A 
ATOM     50  C   UNL A   1      41.467  28.718  31.427  1.00  0.00     0.049 A 
ATOM     51  C   UNL A   1      40.813  32.137  35.836  1.00  0.00     0.074 A 
ATOM     52  C   UNL A   1      42.526  27.828  31.489  1.00  0.00     0.029 A 
ATOM     53  N   UNL A   1      41.485  29.437  32.617  1.00  0.00    -0.354 N 
ATOM     54  N   UNL A   1      41.084  31.272  34.885  1.00  0.00    -0.248 NA
ATOM     55  C   UNL A   1      41.692  32.037  37.007  1.00  0.00     0.031 C 
ATOM     56  C   UNL A   1      43.141  27.963  32.738  1.00  0.00     0.029 A 
ATOM     57  C   UNL A   1      42.519  28.992  33.428  1.00  0.00     0.049 A 
ATOM     58  H   UNL A   1      40.856  30.157  32.850  1.00  0.00     0.167 HD
ATOM     59  C   UNL A   1      42.185  30.549  35.333  1.00  0.00     0.074 A 
ATOM     60  C   UNL A   1      42.537  31.090  36.630  1.00  0.00     0.031 C 
ATOM     61  C   UNL A   1      42.852  29.534  34.725  1.00  0.00     0.034 A 
BRANCH  48  62
ATOM     62  C   UNL A   1      40.552  27.982  29.167  1.00  0.00     0.023 A 
ATOM     63  C   UNL A   1      41.509  28.146  28.149  1.00  0.00     0.031 A 
ATOM     64  C   UNL A   1      39.608  26.951  29.020  1.00  0.00     0.131 A 
ATOM     65  C   UNL A   1      41.445  27.354  26.993  1.00  0.00     0.055 A 
ATOM     66  C   UNL A   1      39.605  26.108  27.907  1.00  0.00     0.041 A 
ATOM     67  F   UNL A   1      38.656  26.757  29.947  1.00  0.00    -0.206 F 
ATOM     68  C   UNL A   1      40.516  26.317  26.876  1.00  0.00     0.022 A 
BRANCH  65  69
ATOM     69  S   UNL A   1      42.491  27.800  25.580  1.00  0.00     0.124 S 
ATOM     70  O   UNL A   1      41.767  28.942  25.027  1.00  0.00    -0.237 OA
ATOM     71  O   UNL A   1      43.769  28.101  26.216  1.00  0.00    -0.237 OA
ATOM     72  O   UNL A   1      42.475  26.599  24.748  1.00  0.00    -0.744 OA
ENDBRANCH  65  69
ENDBRANCH  48  62
BRANCH  49  73
ATOM     73  C   UNL A   1      39.579  34.067  37.078  1.00  0.00     0.023 A 
ATOM     74  C   UNL A   1      39.001  33.565  38.254  1.00  0.00     0.031 A 
ATOM     75  C   UNL A   1      39.957  35.421  37.056  1.00  0.00     0.131 A 
ATOM     76  C   UNL A   1      38.772  34.421  39.343  1.00  0.00     0.055 A 
ATOM     77  C   UNL A   1      39.777  36.256  38.160  1.00  0.00     0.041 A 
ATOM     78  F   UNL A   1      40.521  35.951  35.958  1.00  0.00    -0.206 F 
ATOM     79  C   UNL A   1      39.168  35.759  39.309  1.00  0.00     0.022 A 
BRANCH  76  80
ATOM     80  S   UNL A   1      37.875  33.777  40.781  1.00  0.00     0.124 S 
ATOM     81  O   UNL A   1      37.472  35.006  41.455  1.00  0.00    -0.237 OA
ATOM     82  O   UNL A   1      36.804  33.010  40.152  1.00  0.00    -0.237 OA
ATOM     83  O   UNL A   1      38.880  32.981  41.483  1.00  0.00    -0.744 OA
ENDBRANCH  76  80
ENDBRANCH  49  73
BRANCH  61  84
ATOM     84  C   UNL A   1      44.061  28.982  35.440  1.00  0.00     0.023 A 
ATOM     85  C   UNL A   1      43.956  27.944  36.383  1.00  0.00     0.031 A 
ATOM     86  C   UNL A   1      45.336  29.516  35.184  1.00  0.00     0.131 A 
ATOM     87  C   UNL A   1      45.096  27.515  37.078  1.00  0.00     0.055 A 
ATOM     88  C   UNL A   1      46.476  29.042  35.834  1.00  0.00     0.041 A 
ATOM     89  F   UNL A   1      45.495  30.510  34.295  1.00  0.00    -0.206 F 
ATOM     90  C   UNL A   1      46.358  28.045  36.798  1.00  0.00     0.022 A 
BRANCH  87  91
ATOM     91  S   UNL A   1      44.895  26.320  38.429  1.00  0.00     0.124 S 
ATOM     92  O   UNL A   1      45.130  25.050  37.749  1.00  0.00    -0.237 OA
ATOM     93  O   UNL A   1      45.927  26.739  39.372  1.00  0.00    -0.237 OA
ATOM     94  O   UNL A   1      43.521  26.538  38.878  1.00  0.00    -0.744 OA
ENDBRANCH  87  91
ENDBRANCH  61  84
ENDBRANCH  35  36
ENDBRANCH  27  30
ENDBRANCH  25  26
ENDBRANCH  24  25
ENDBRANCH   1  24
TORSDOF 17
ENDMDL
MODEL 2
REMARK VINA RESULT:     -11.7      3.437      8.662
REMARK SMILES Cc1cc(C(=O)Nc2nc(CC(=O)NCCCCNC(=O)c3ccc(-c4c5nc(c(-c6cc(S(=O)(=O)[O-])ccc6F)c6ccc([nH]6)c(-c6cc(S(=O)(=O)[O-])ccc6F)c6nc(c(-c7cc(S(=O)(=O)[O-])ccc7F)c7ccc4[nH]7)C=C6)C=C5)cc3)cs2)sc1C
REMARK SMILES IDX 16 1 15 2 14 3 12 4 13 5 11 7 10 8 8 9 9 10 86 11 85 12 7 13
REMARK SMILES IDX 5 14 6 15 4 17 1 18 2 19 3 20 88 21 87 22 89 23 17 24 18 25
REMARK SMILES IDX 19 26 20 27 21 29 22 30 23 31 84 32 24 33 83 34 25 35 26 36
REMARK SMILES IDX 27 37 77 38 28 39 82 40 76 41 78 42 29 43 81 44 75 45 74 46
REMARK SMILES IDX 30 48 62 49 42 50 61 51 43 52 46 53 60 54 79 55 44 56 45 57
REMARK SMILES IDX 59 59 80 60 47 61 31 62 32 63 40 64 33 65 39 66 41 67 38 68
REMARK SMILES IDX 34 69 35 70 36 71 37 72 63 73 64 74 72 75 65 76 71 77 73 78
REMARK SMILES IDX 70 79 66 80 67 81 68 82 69 83 48 84 49 85 57 86 50 87 56 88
REMARK SMILES IDX 58 89 55 90 51 91 52 92 53 93 54 94
REMARK H PARENT 14 6 7 16 19 28 78 47 46 58
REMARK Flexibility Score: inf
ROOT
ATOM      1  C   UNL A   1      31.799  27.903  26.355  1.00  0.00     0.023 C 
ENDROOT
BRANCH   1   2
ATOM      2  C   UNL A   1      31.567  28.173  24.867  1.00  0.00     0.116 C 
BRANCH   2   3
ATOM      3  N   UNL A   1      32.506  27.440  24.036  1.00  0.00    -0.356 N 
ATOM      4  C   UNL A   1      32.343  26.218  23.447  1.00  0.00     0.226 C 
ATOM      5  O   UNL A   1      33.296  25.716  22.848  1.00  0.00    -0.275 OA
ATOM      6  H   UNL A   1      33.372  27.881  23.876  1.00  0.00     0.163 HD
BRANCH   4   7
ATOM      7  C   UNL A   1      30.997  25.527  23.492  1.00  0.00     0.157 C 
BRANCH   7   8
ATOM      8  C   UNL A   1      30.884  24.544  24.607  1.00  0.00     0.063 A 
ATOM      9  C   UNL A   1      31.160  22.519  25.437  1.00  0.00     0.189 A 
ATOM     10  N   UNL A   1      31.248  23.230  24.346  1.00  0.00    -0.224 NA
ATOM     11  S   UNL A   1      30.462  23.292  26.786  1.00  0.00    -0.105 S 
ATOM     12  C   UNL A   1      30.461  24.770  25.906  1.00  0.00     0.093 A 
BRANCH   9  13
ATOM     13  N   UNL A   1      31.558  21.234  25.645  1.00  0.00    -0.297 N 
ATOM     14  C   UNL A   1      32.774  20.679  25.312  1.00  0.00     0.267 C 
ATOM     15  O   UNL A   1      32.794  19.444  25.228  1.00  0.00    -0.268 OA
ATOM     16  H   UNL A   1      30.907  20.638  26.081  1.00  0.00     0.172 HD
BRANCH  14  17
ATOM     17  C   UNL A   1      34.005  21.459  25.164  1.00  0.00     0.093 A 
ATOM     18  C   UNL A   1      36.695  23.002  23.004  1.00  0.00     0.045 C 
ATOM     19  C   UNL A   1      35.826  22.563  24.134  1.00  0.00    -0.037 A 
ATOM     20  C   UNL A   1      34.627  21.787  23.968  1.00  0.00     0.029 A 
ATOM     21  C   UNL A   1      36.024  22.858  25.471  1.00  0.00     0.005 A 
ATOM     22  S   UNL A   1      35.041  21.878  26.462  1.00  0.00    -0.135 S 
ATOM     23  C   UNL A   1      36.984  23.803  26.110  1.00  0.00     0.056 C 
ENDBRANCH  14  17
ENDBRANCH   9  13
ENDBRANCH   7   8
ENDBRANCH   4   7
ENDBRANCH   2   3
ENDBRANCH   1   2
BRANCH   1  24
ATOM     24  C   UNL A   1      32.042  29.149  27.207  1.00  0.00     0.023 C 
BRANCH  24  25
ATOM     25  C   UNL A   1      33.453  29.715  27.128  1.00  0.00     0.116 C 
BRANCH  25  26
ATOM     26  N   UNL A   1      33.520  31.119  27.496  1.00  0.00    -0.352 N 
ATOM     27  C   UNL A   1      34.493  31.772  28.213  1.00  0.00     0.251 C 
ATOM     28  H   UNL A   1      32.768  31.676  27.191  1.00  0.00     0.163 HD
ATOM     29  O   UNL A   1      34.320  32.940  28.552  1.00  0.00    -0.269 OA
BRANCH  27  30
ATOM     30  C   UNL A   1      35.723  31.049  28.605  1.00  0.00     0.039 A 
ATOM     31  C   UNL A   1      36.946  31.460  28.071  1.00  0.00     0.014 A 
ATOM     32  C   UNL A   1      35.673  29.987  29.512  1.00  0.00     0.014 A 
ATOM     33  C   UNL A   1      38.126  30.846  28.494  1.00  0.00     0.010 A 
ATOM     34  C   UNL A   1      36.855  29.429  29.990  1.00  0.00     0.010 A 
ATOM     35  C   UNL A   1      38.094  29.848  29.482  1.00  0.00    -0.014 A 
BRANCH  35  36
ATOM     36  C   UNL A   1      39.343  29.220  29.984  1.00  0.00     0.031 A 
ATOM     37  C   UNL A   1      40.038  29.792  31.190  1.00  0.00     0.074 A 
ATOM     38  C   UNL A   1      39.881  28.177  29.322  1.00  0.00     0.049 A 
ATOM     39  N   UNL A   1      41.171  29.438  31.739  1.00  0.00    -0.248 NA
ATOM     40  C   UNL A   1      39.387  30.937  31.842  1.00  0.00     0.031 C 
ATOM     41  C   UNL A   1      39.323  27.562  28.115  1.00  0.00     0.029 A 
ATOM     42  N   UNL A   1      41.022  27.453  29.564  1.00  0.00    -0.354 N 
ATOM     43  C   UNL A   1      41.376  30.324  32.792  1.00  0.00     0.074 A 
ATOM     44  C   UNL A   1      40.282  31.271  32.759  1.00  0.00     0.031 C 
ATOM     45  C   UNL A   1      40.108  26.540  27.739  1.00  0.00     0.029 A 
ATOM     46  C   UNL A   1      41.247  26.452  28.648  1.00  0.00     0.049 A 
ATOM     47  H   UNL A   1      41.624  27.634  30.322  1.00  0.00     0.167 HD
ATOM     48  C   UNL A   1      42.369  30.330  33.717  1.00  0.00     0.034 A 
ATOM     49  C   UNL A   1      42.260  25.568  28.547  1.00  0.00     0.034 A 
ATOM     50  C   UNL A   1      43.444  29.369  33.744  1.00  0.00     0.049 A 
ATOM     51  C   UNL A   1      43.360  25.602  29.576  1.00  0.00     0.074 A 
ATOM     52  C   UNL A   1      44.473  29.250  34.661  1.00  0.00     0.029 A 
ATOM     53  N   UNL A   1      43.634  28.361  32.804  1.00  0.00    -0.354 N 
ATOM     54  N   UNL A   1      43.514  26.415  30.597  1.00  0.00    -0.248 NA
ATOM     55  C   UNL A   1      44.415  24.589  29.451  1.00  0.00     0.031 C 
ATOM     56  C   UNL A   1      45.318  28.216  34.243  1.00  0.00     0.029 A 
ATOM     57  C   UNL A   1      44.776  27.635  33.107  1.00  0.00     0.049 A 
ATOM     58  H   UNL A   1      43.043  28.188  32.037  1.00  0.00     0.167 HD
ATOM     59  C   UNL A   1      44.665  25.988  31.252  1.00  0.00     0.074 A 
ATOM     60  C   UNL A   1      45.156  24.838  30.520  1.00  0.00     0.031 C 
ATOM     61  C   UNL A   1      45.260  26.496  32.362  1.00  0.00     0.034 A 
BRANCH  48  62
ATOM     62  C   UNL A   1      42.341  31.429  34.754  1.00  0.00     0.023 A 
ATOM     63  C   UNL A   1      41.367  31.462  35.769  1.00  0.00     0.031 A 
ATOM     64  C   UNL A   1      43.277  32.478  34.709  1.00  0.00     0.131 A 
ATOM     65  C   UNL A   1      41.297  32.561  36.638  1.00  0.00     0.055 A 
ATOM     66  C   UNL A   1      43.256  33.524  35.633  1.00  0.00     0.041 A 
ATOM     67  F   UNL A   1      44.217  32.514  33.752  1.00  0.00    -0.206 F 
ATOM     68  C   UNL A   1      42.251  33.580  36.595  1.00  0.00     0.022 A 
BRANCH  65  69
ATOM     69  S   UNL A   1      39.850  32.716  37.721  1.00  0.00     0.124 S 
ATOM     70  O   UNL A   1      39.025  31.597  37.271  1.00  0.00    -0.237 OA
ATOM     71  O   UNL A   1      40.436  32.585  39.050  1.00  0.00    -0.237 OA
ATOM     72  O   UNL A   1      39.321  34.040  37.400  1.00  0.00    -0.744 OA
ENDBRANCH  65  69
ENDBRANCH  48  62
BRANCH  49  73
ATOM     73  C   UNL A   1      42.290  24.577  27.433  1.00  0.00     0.023 A 
ATOM     74  C   UNL A   1      41.530  23.398  27.494  1.00  0.00     0.031 A 
ATOM     75  C   UNL A   1      43.110  24.775  26.309  1.00  0.00     0.131 A 
ATOM     76  C   UNL A   1      41.642  22.440  26.474  1.00  0.00     0.055 A 
ATOM     77  C   UNL A   1      43.178  23.843  25.271  1.00  0.00     0.041 A 
ATOM     78  F   UNL A   1      43.852  25.889  26.197  1.00  0.00    -0.206 F 
ATOM     79  C   UNL A   1      42.451  22.660  25.358  1.00  0.00     0.022 A 
BRANCH  76  80
ATOM     80  S   UNL A   1      40.774  20.860  26.669  1.00  0.00     0.124 S 
ATOM     81  O   UNL A   1      40.760  20.705  28.119  1.00  0.00    -0.237 OA
ATOM     82  O   UNL A   1      39.487  21.141  26.041  1.00  0.00    -0.237 OA
ATOM     83  O   UNL A   1      41.623  19.913  25.948  1.00  0.00    -0.744 OA
ENDBRANCH  76  80
ENDBRANCH  49  73
BRANCH  61  84
ATOM     84  C   UNL A   1      46.480  25.772  32.877  1.00  0.00     0.023 A 
ATOM     85  C   UNL A   1      47.770  26.051  32.390  1.00  0.00     0.031 A 
ATOM     86  C   UNL A   1      46.346  24.776  33.861  1.00  0.00     0.131 A 
ATOM     87  C   UNL A   1      48.864  25.300  32.845  1.00  0.00     0.055 A 
ATOM     88  C   UNL A   1      47.447  24.076  34.354  1.00  0.00     0.041 A 
ATOM     89  F   UNL A   1      45.138  24.467  34.360  1.00  0.00    -0.206 F 
ATOM     90  C   UNL A   1      48.714  24.326  33.835  1.00  0.00     0.022 A 
BRANCH  87  91
ATOM     91  S   UNL A   1      50.478  25.545  32.051  1.00  0.00     0.124 S 
ATOM     92  O   UNL A   1      51.371  25.640  33.201  1.00  0.00    -0.237 OA
ATOM     93  O   UNL A   1      50.611  24.340  31.239  1.00  0.00    -0.237 OA
ATOM     94  O   UNL A   1      50.304  26.784  31.296  1.00  0.00    -0.744 OA
ENDBRANCH  87  91
ENDBRANCH  61  84
ENDBRANCH  35  36
ENDBRANCH  27  30
ENDBRANCH  25  26
ENDBRANCH  24  25
ENDBRANCH   1  24
TORSDOF 17
ENDMDL
MODEL 3
REMARK VINA RESULT:     -11.6      6.221      9.814
REMARK SMILES Cc1cc(C(=O)Nc2nc(CC(=O)NCCCCNC(=O)c3ccc(-c4c5nc(c(-c6cc(S(=O)(=O)[O-])ccc6F)c6ccc([nH]6)c(-c6cc(S(=O)(=O)[O-])ccc6F)c6nc(c(-c7cc(S(=O)(=O)[O-])ccc7F)c7ccc4[nH]7)C=C6)C=C5)cc3)cs2)sc1C
REMARK SMILES IDX 16 1 15 2 14 3 12 4 13 5 11 7 10 8 8 9 9 10 86 11 85 12 7 13
REMARK SMILES IDX 5 14 6 15 4 17 1 18 2 19 3 20 88 21 87 22 89 23 17 24 18 25
REMARK SMILES IDX 19 26 20 27 21 29 22 30 23 31 84 32 24 33 83 34 25 35 26 36
REMARK SMILES IDX 27 37 77 38 28 39 82 40 76 41 78 42 29 43 81 44 75 45 74 46
REMARK SMILES IDX 30 48 62 49 42 50 61 51 43 52 46 53 60 54 79 55 44 56 45 57
REMARK SMILES IDX 59 59 80 60 47 61 31 62 32 63 40 64 33 65 39 66 41 67 38 68
REMARK SMILES IDX 34 69 35 70 36 71 37 72 63 73 64 74 72 75 65 76 71 77 73 78
REMARK SMILES IDX 70 79 66 80 67 81 68 82 69 83 48 84 49 85 57 86 50 87 56 88
REMARK SMILES IDX 58 89 55 90 51 91 52 92 53 93 54 94
REMARK H PARENT 14 6 7 16 19 28 78 47 46 58
REMARK Flexibility Score: inf
ROOT
ATOM      1  C   UNL A   1      37.499  20.100  24.512  1.00  0.00     0.023 C 
ENDROOT
BRANCH   1   2
ATOM      2  C   UNL A   1      36.241  20.615  25.215  1.00  0.00     0.116 C 
BRANCH   2   3
ATOM      3  N   UNL A   1      36.488  21.867  25.908  1.00  0.00    -0.356 N 
ATOM      4  C   UNL A   1      36.415  23.139  25.413  1.00  0.00     0.226 C 
ATOM      5  O   UNL A   1      36.751  24.078  26.138  1.00  0.00    -0.275 OA
ATOM      6  H   UNL A   1      36.740  21.790  26.857  1.00  0.00     0.163 HD
BRANCH   4   7
ATOM      7  C   UNL A   1      35.883  23.381  24.017  1.00  0.00     0.157 C 
BRANCH   7   8
ATOM      8  C   UNL A   1      34.421  23.116  23.896  1.00  0.00     0.063 A 
ATOM      9  C   UNL A   1      32.422  22.848  24.788  1.00  0.00     0.189 A 
ATOM     10  N   UNL A   1      33.687  23.007  25.069  1.00  0.00    -0.224 NA
ATOM     11  S   UNL A   1      32.037  22.620  23.144  1.00  0.00    -0.105 S 
ATOM     12  C   UNL A   1      33.673  22.967  22.740  1.00  0.00     0.093 A 
BRANCH   9  13
ATOM     13  N   UNL A   1      31.360  22.844  25.639  1.00  0.00    -0.297 N 
ATOM     14  C   UNL A   1      30.779  23.937  26.244  1.00  0.00     0.267 C 
ATOM     15  O   UNL A   1      30.103  23.695  27.252  1.00  0.00    -0.268 OA
ATOM     16  H   UNL A   1      30.965  21.967  25.844  1.00  0.00     0.172 HD
BRANCH  14  17
ATOM     17  C   UNL A   1      30.847  25.295  25.698  1.00  0.00     0.093 A 
ATOM     18  C   UNL A   1      29.678  27.931  23.255  1.00  0.00     0.045 C 
ATOM     19  C   UNL A   1      30.356  27.173  24.347  1.00  0.00    -0.037 A 
ATOM     20  C   UNL A   1      30.061  25.805  24.674  1.00  0.00     0.029 A 
ATOM     21  C   UNL A   1      31.319  27.674  25.205  1.00  0.00     0.005 A 
ATOM     22  S   UNL A   1      32.096  26.412  26.049  1.00  0.00    -0.135 S 
ATOM     23  C   UNL A   1      31.784  29.076  25.406  1.00  0.00     0.056 C 
ENDBRANCH  14  17
ENDBRANCH   9  13
ENDBRANCH   7   8
ENDBRANCH   4   7
ENDBRANCH   2   3
ENDBRANCH   1   2
BRANCH   1  24
ATOM     24  C   UNL A   1      38.454  19.302  25.400  1.00  0.00     0.023 C 
BRANCH  24  25
ATOM     25  C   UNL A   1      39.522  20.129  26.099  1.00  0.00     0.116 C 
BRANCH  25  26
ATOM     26  N   UNL A   1      40.814  19.463  26.143  1.00  0.00    -0.352 N 
ATOM     27  C   UNL A   1      42.056  20.013  26.342  1.00  0.00     0.251 C 
ATOM     28  H   UNL A   1      40.795  18.487  26.013  1.00  0.00     0.163 HD
ATOM     29  O   UNL A   1      43.060  19.316  26.211  1.00  0.00    -0.269 OA
BRANCH  27  30
ATOM     30  C   UNL A   1      42.176  21.450  26.673  1.00  0.00     0.039 A 
ATOM     31  C   UNL A   1      42.283  21.827  28.013  1.00  0.00     0.014 A 
ATOM     32  C   UNL A   1      42.207  22.419  25.665  1.00  0.00     0.014 A 
ATOM     33  C   UNL A   1      42.483  23.170  28.339  1.00  0.00     0.010 A 
ATOM     34  C   UNL A   1      42.483  23.744  25.987  1.00  0.00     0.010 A 
ATOM     35  C   UNL A   1      42.618  24.135  27.328  1.00  0.00    -0.014 A 
BRANCH  35  36
ATOM     36  C   UNL A   1      42.885  25.560  27.653  1.00  0.00     0.031 A 
ATOM     37  C   UNL A   1      44.274  26.118  27.499  1.00  0.00     0.074 A 
ATOM     38  C   UNL A   1      41.893  26.332  28.141  1.00  0.00     0.049 A 
ATOM     39  N   UNL A   1      44.726  27.308  27.797  1.00  0.00    -0.248 NA
ATOM     40  C   UNL A   1      45.294  25.202  26.971  1.00  0.00     0.031 C 
ATOM     41  C   UNL A   1      40.516  25.892  28.376  1.00  0.00     0.029 A 
ATOM     42  N   UNL A   1      41.892  27.646  28.537  1.00  0.00    -0.354 N 
ATOM     43  C   UNL A   1      46.086  27.281  27.507  1.00  0.00     0.074 A 
ATOM     44  C   UNL A   1      46.393  25.934  27.073  1.00  0.00     0.031 C 
ATOM     45  C   UNL A   1      39.799  26.924  28.849  1.00  0.00     0.029 A 
ATOM     46  C   UNL A   1      40.671  28.086  28.994  1.00  0.00     0.049 A 
ATOM     47  H   UNL A   1      42.690  28.221  28.497  1.00  0.00     0.167 HD
ATOM     48  C   UNL A   1      46.990  28.291  27.570  1.00  0.00     0.034 A 
ATOM     49  C   UNL A   1      40.298  29.286  29.481  1.00  0.00     0.034 A 
ATOM     50  C   UNL A   1      46.664  29.631  27.991  1.00  0.00     0.049 A 
ATOM     51  C   UNL A   1      41.322  30.390  29.556  1.00  0.00     0.074 A 
ATOM     52  C   UNL A   1      47.485  30.744  28.045  1.00  0.00     0.029 A 
ATOM     53  N   UNL A   1      45.413  30.043  28.437  1.00  0.00    -0.354 N 
ATOM     54  N   UNL A   1      42.594  30.363  29.230  1.00  0.00    -0.248 NA
ATOM     55  C   UNL A   1      40.856  31.692  30.048  1.00  0.00     0.031 C 
ATOM     56  C   UNL A   1      46.752  31.807  28.584  1.00  0.00     0.029 A 
ATOM     57  C   UNL A   1      45.449  31.383  28.793  1.00  0.00     0.049 A 
ATOM     58  H   UNL A   1      44.617  29.466  28.492  1.00  0.00     0.167 HD
ATOM     59  C   UNL A   1      43.069  31.652  29.448  1.00  0.00     0.074 A 
ATOM     60  C   UNL A   1      41.944  32.435  29.918  1.00  0.00     0.031 C 
ATOM     61  C   UNL A   1      44.321  32.149  29.270  1.00  0.00     0.034 A 
BRANCH  48  62
ATOM     62  C   UNL A   1      48.418  27.966  27.196  1.00  0.00     0.023 A 
ATOM     63  C   UNL A   1      48.916  28.206  25.902  1.00  0.00     0.031 A 
ATOM     64  C   UNL A   1      49.285  27.376  28.133  1.00  0.00     0.131 A 
ATOM     65  C   UNL A   1      50.207  27.779  25.557  1.00  0.00     0.055 A 
ATOM     66  C   UNL A   1      50.599  27.034  27.808  1.00  0.00     0.041 A 
ATOM     67  F   UNL A   1      48.863  27.102  29.378  1.00  0.00    -0.206 F 
ATOM     68  C   UNL A   1      51.062  27.218  26.509  1.00  0.00     0.022 A 
BRANCH  65  69
ATOM     69  S   UNL A   1      50.694  27.823  23.811  1.00  0.00     0.124 S 
ATOM     70  O   UNL A   1      49.412  27.614  23.143  1.00  0.00    -0.237 OA
ATOM     71  O   UNL A   1      51.273  29.155  23.679  1.00  0.00    -0.237 OA
ATOM     72  O   UNL A   1      51.640  26.716  23.690  1.00  0.00    -0.744 OA
ENDBRANCH  65  69
ENDBRANCH  48  62
BRANCH  49  73
ATOM     73  C   UNL A   1      38.898  29.513  29.940  1.00  0.00     0.023 A 
ATOM     74  C   UNL A   1      37.966  30.168  29.119  1.00  0.00     0.031 A 
ATOM     75  C   UNL A   1      38.482  29.115  31.222  1.00  0.00     0.131 A 
ATOM     76  C   UNL A   1      36.680  30.449  29.606  1.00  0.00     0.055 A 
ATOM     77  C   UNL A   1      37.184  29.349  31.683  1.00  0.00     0.041 A 
ATOM     78  F   UNL A   1      39.331  28.479  32.045  1.00  0.00    -0.206 F 
ATOM     79  C   UNL A   1      36.279  30.032  30.878  1.00  0.00     0.022 A 
BRANCH  76  80
ATOM     80  S   UNL A   1      35.560  31.441  28.581  1.00  0.00     0.124 S 
ATOM     81  O   UNL A   1      35.042  30.440  27.655  1.00  0.00    -0.237 OA
ATOM     82  O   UNL A   1      34.615  31.950  29.570  1.00  0.00    -0.237 OA
ATOM     83  O   UNL A   1      36.440  32.445  27.988  1.00  0.00    -0.744 OA
ENDBRANCH  76  80
ENDBRANCH  49  73
BRANCH  61  84
ATOM     84  C   UNL A   1      44.519  33.621  29.537  1.00  0.00     0.023 A 
ATOM     85  C   UNL A   1      44.190  34.600  28.583  1.00  0.00     0.031 A 
ATOM     86  C   UNL A   1      45.063  34.047  30.762  1.00  0.00     0.131 A 
ATOM     87  C   UNL A   1      44.462  35.951  28.848  1.00  0.00     0.055 A 
ATOM     88  C   UNL A   1      45.274  35.398  31.043  1.00  0.00     0.041 A 
ATOM     89  F   UNL A   1      45.399  33.155  31.709  1.00  0.00    -0.206 F 
ATOM     90  C   UNL A   1      44.986  36.358  30.077  1.00  0.00     0.022 A 
BRANCH  87  91
ATOM     91  S   UNL A   1      44.214  37.164  27.522  1.00  0.00     0.124 S 
ATOM     92  O   UNL A   1      45.576  37.375  27.044  1.00  0.00    -0.237 OA
ATOM     93  O   UNL A   1      43.321  36.454  26.612  1.00  0.00    -0.237 OA
ATOM     94  O   UNL A   1      43.614  38.306  28.209  1.00  0.00    -0.744 OA
ENDBRANCH  87  91
ENDBRANCH  61  84
ENDBRANCH  35  36
ENDBRANCH  27  30
ENDBRANCH  25  26
ENDBRANCH  24  25
ENDBRANCH   1  24
TORSDOF 17
ENDMDL
