MODEL 1
REMARK VINA RESULT:     -12.6      0.000      0.000
REMARK SMILES O=C(NCCCCNC(=O)c1ccccc1-c1ccccc1C(=O)NCCc1ccccc1)c1ccc(-c2c3nc(c(-c4cc(S(=O)(=O)[O-])ccc4F)c4ccc([nH]4)c(-c4cc(S(=O)(=O)[O-])ccc4F)c4nc(c(-c5cc(S(=O)(=O)[O-])ccc5F)c5ccc2[nH]5)C=C4)C=C3)cc1
REMARK SMILES IDX 6 1 5 2 4 3 3 4 1 5 2 6 34 8 35 9 96 10 36 11 95 12 37 13
REMARK SMILES IDX 38 14 39 15 89 16 40 17 94 18 88 19 90 20 41 21 93 22 87 23
REMARK SMILES IDX 86 24 42 26 74 27 54 28 73 29 55 30 58 31 72 32 91 33 56 34
REMARK SMILES IDX 57 35 71 37 92 38 59 39 43 40 44 41 52 42 45 43 51 44 53 45
REMARK SMILES IDX 50 46 46 47 47 48 48 49 49 50 75 51 76 52 84 53 77 54 83 55
REMARK SMILES IDX 85 56 82 57 78 58 79 59 80 60 81 61 60 62 61 63 69 64 62 65
REMARK SMILES IDX 68 66 70 67 67 68 63 69 64 70 65 71 66 72 7 73 8 74 9 75
REMARK SMILES IDX 10 77 11 78 12 79 16 80 13 81 15 82 14 83 17 84 18 85 22 86
REMARK SMILES IDX 19 87 21 88 20 89 23 90 24 91 25 92 26 94 27 95 28 96 29 97
REMARK SMILES IDX 33 98 30 99 32 100 31 101
REMARK H PARENT 3 7 90 25 58 36 8 76 25 93
REMARK Flexibility Score: inf
ROOT
ATOM      1  C   UNL A   1      31.648  30.751  25.827  1.00  0.00     0.023 C 
ENDROOT
BRANCH   1   2
ATOM      2  C   UNL A   1      31.755  31.522  27.139  1.00  0.00     0.023 C 
BRANCH   2   3
ATOM      3  C   UNL A   1      33.023  32.353  27.288  1.00  0.00     0.116 C 
BRANCH   3   4
ATOM      4  N   UNL A   1      32.748  33.739  27.637  1.00  0.00    -0.352 N 
ATOM      5  O   UNL A   1      32.845  35.606  28.912  1.00  0.00    -0.269 OA
ATOM      6  C   UNL A   1      33.289  34.498  28.652  1.00  0.00     0.251 C 
ATOM      7  H   UNL A   1      32.084  34.197  27.072  1.00  0.00     0.163 HD
BRANCH   6   8
ATOM      8  C   UNL A   1      34.405  33.924  29.423  1.00  0.00     0.039 A 
ATOM      9  C   UNL A   1      35.713  34.301  29.116  1.00  0.00     0.014 A 
ATOM     10  C   UNL A   1      34.147  32.959  30.398  1.00  0.00     0.014 A 
ATOM     11  C   UNL A   1      36.771  33.598  29.671  1.00  0.00     0.010 A 
ATOM     12  C   UNL A   1      35.217  32.324  31.031  1.00  0.00     0.010 A 
ATOM     13  C   UNL A   1      36.536  32.621  30.652  1.00  0.00    -0.014 A 
BRANCH  13  14
ATOM     14  C   UNL A   1      37.698  31.988  31.321  1.00  0.00     0.031 A 
ATOM     15  C   UNL A   1      38.528  30.944  30.630  1.00  0.00     0.074 A 
ATOM     16  C   UNL A   1      38.007  32.405  32.566  1.00  0.00     0.049 A 
ATOM     17  N   UNL A   1      39.564  30.287  31.084  1.00  0.00    -0.248 NA
ATOM     18  C   UNL A   1      38.143  30.582  29.257  1.00  0.00     0.031 C 
ATOM     19  C   UNL A   1      37.260  33.417  33.320  1.00  0.00     0.029 A 
ATOM     20  N   UNL A   1      39.028  32.054  33.408  1.00  0.00    -0.354 N 
ATOM     21  C   UNL A   1      39.943  29.417  30.067  1.00  0.00     0.074 A 
ATOM     22  C   UNL A   1      39.011  29.619  28.977  1.00  0.00     0.031 C 
ATOM     23  C   UNL A   1      37.876  33.641  34.488  1.00  0.00     0.029 A 
ATOM     24  C   UNL A   1      39.006  32.731  34.605  1.00  0.00     0.049 A 
ATOM     25  H   UNL A   1      39.712  31.384  33.178  1.00  0.00     0.167 HD
ATOM     26  C   UNL A   1      40.974  28.536  30.055  1.00  0.00     0.034 A 
ATOM     27  C   UNL A   1      39.789  32.609  35.693  1.00  0.00     0.034 A 
ATOM     28  C   UNL A   1      41.896  28.366  31.155  1.00  0.00     0.049 A 
ATOM     29  C   UNL A   1      40.905  31.603  35.658  1.00  0.00     0.074 A 
ATOM     30  C   UNL A   1      42.997  27.531  31.235  1.00  0.00     0.029 A 
ATOM     31  N   UNL A   1      41.822  29.040  32.369  1.00  0.00    -0.354 N 
ATOM     32  N   UNL A   1      41.253  30.795  34.683  1.00  0.00    -0.248 NA
ATOM     33  C   UNL A   1      41.730  31.491  36.865  1.00  0.00     0.031 C 
ATOM     34  C   UNL A   1      43.546  27.650  32.517  1.00  0.00     0.029 A 
ATOM     35  C   UNL A   1      42.835  28.614  33.214  1.00  0.00     0.049 A 
ATOM     36  H   UNL A   1      41.147  29.720  32.595  1.00  0.00     0.167 HD
ATOM     37  C   UNL A   1      42.352  30.087  35.157  1.00  0.00     0.074 A 
ATOM     38  C   UNL A   1      42.621  30.586  36.491  1.00  0.00     0.031 C 
ATOM     39  C   UNL A   1      43.071  29.110  34.549  1.00  0.00     0.034 A 
BRANCH  26  40
ATOM     40  C   UNL A   1      41.132  27.650  28.843  1.00  0.00     0.023 A 
ATOM     41  C   UNL A   1      42.138  27.863  27.884  1.00  0.00     0.031 A 
ATOM     42  C   UNL A   1      40.266  26.557  28.655  1.00  0.00     0.131 A 
ATOM     43  C   UNL A   1      42.225  27.024  26.762  1.00  0.00     0.055 A 
ATOM     44  C   UNL A   1      40.399  25.687  27.571  1.00  0.00     0.041 A 
ATOM     45  F   UNL A   1      39.273  26.315  29.525  1.00  0.00    -0.206 F 
ATOM     46  C   UNL A   1      41.378  25.923  26.611  1.00  0.00     0.022 A 
BRANCH  43  47
ATOM     47  S   UNL A   1      43.402  27.445  25.445  1.00  0.00     0.124 S 
ATOM     48  O   UNL A   1      44.121  26.183  25.279  1.00  0.00    -0.237 OA
ATOM     49  O   UNL A   1      42.522  27.829  24.347  1.00  0.00    -0.237 OA
ATOM     50  O   UNL A   1      44.190  28.531  26.023  1.00  0.00    -0.744 OA
ENDBRANCH  43  47
ENDBRANCH  26  40
BRANCH  27  51
ATOM     51  C   UNL A   1      39.512  33.420  36.912  1.00  0.00     0.023 A 
ATOM     52  C   UNL A   1      38.908  32.850  38.041  1.00  0.00     0.031 A 
ATOM     53  C   UNL A   1      39.824  34.792  36.951  1.00  0.00     0.131 A 
ATOM     54  C   UNL A   1      38.592  33.657  39.145  1.00  0.00     0.055 A 
ATOM     55  C   UNL A   1      39.565  35.577  38.075  1.00  0.00     0.041 A 
ATOM     56  F   UNL A   1      40.407  35.388  35.898  1.00  0.00    -0.206 F 
ATOM     57  C   UNL A   1      38.931  35.012  39.176  1.00  0.00     0.022 A 
BRANCH  54  58
ATOM     58  S   UNL A   1      37.639  32.930  40.505  1.00  0.00     0.124 S 
ATOM     59  O   UNL A   1      36.275  33.028  39.999  1.00  0.00    -0.237 OA
ATOM     60  O   UNL A   1      38.200  31.585  40.582  1.00  0.00    -0.237 OA
ATOM     61  O   UNL A   1      37.948  33.799  41.638  1.00  0.00    -0.744 OA
ENDBRANCH  54  58
ENDBRANCH  27  51
BRANCH  39  62
ATOM     62  C   UNL A   1      44.234  28.552  35.328  1.00  0.00     0.023 A 
ATOM     63  C   UNL A   1      44.062  27.513  36.260  1.00  0.00     0.031 A 
ATOM     64  C   UNL A   1      45.521  29.093  35.166  1.00  0.00     0.131 A 
ATOM     65  C   UNL A   1      45.147  27.092  37.041  1.00  0.00     0.055 A 
ATOM     66  C   UNL A   1      46.610  28.627  35.902  1.00  0.00     0.041 A 
ATOM     67  F   UNL A   1      45.738  30.089  34.292  1.00  0.00    -0.206 F 
ATOM     68  C   UNL A   1      46.423  27.631  36.858  1.00  0.00     0.022 A 
BRANCH  65  69
ATOM     69  S   UNL A   1      44.847  25.897  38.372  1.00  0.00     0.124 S 
ATOM     70  O   UNL A   1      44.260  24.775  37.646  1.00  0.00    -0.237 OA
ATOM     71  O   UNL A   1      46.188  25.679  38.906  1.00  0.00    -0.237 OA
ATOM     72  O   UNL A   1      43.932  26.603  39.267  1.00  0.00    -0.744 OA
ENDBRANCH  65  69
ENDBRANCH  39  62
ENDBRANCH  13  14
ENDBRANCH   6   8
ENDBRANCH   3   4
ENDBRANCH   2   3
ENDBRANCH   1   2
BRANCH   1  73
ATOM     73  C   UNL A   1      32.701  29.667  25.650  1.00  0.00     0.116 C 
BRANCH  73  74
ATOM     74  N   UNL A   1      33.202  29.608  24.293  1.00  0.00    -0.352 N 
ATOM     75  C   UNL A   1      32.776  28.799  23.278  1.00  0.00     0.251 C 
ATOM     76  H   UNL A   1      33.939  30.223  24.076  1.00  0.00     0.163 HD
ATOM     77  O   UNL A   1      33.387  28.735  22.216  1.00  0.00    -0.269 OA
BRANCH  75  78
ATOM     78  C   UNL A   1      31.589  27.950  23.478  1.00  0.00     0.047 A 
ATOM     79  C   UNL A   1      30.350  28.576  23.250  1.00  0.00     0.014 A 
ATOM     80  C   UNL A   1      31.656  26.622  23.955  1.00  0.00    -0.005 A 
ATOM     81  C   UNL A   1      29.160  27.887  23.459  1.00  0.00     0.001 A 
ATOM     82  C   UNL A   1      30.426  25.944  24.131  1.00  0.00     0.009 A 
ATOM     83  C   UNL A   1      29.198  26.566  23.893  1.00  0.00     0.001 A 
BRANCH  80  84
ATOM     84  C   UNL A   1      32.907  25.889  24.266  1.00  0.00    -0.005 A 
ATOM     85  C   UNL A   1      33.431  26.097  25.574  1.00  0.00     0.009 A 
ATOM     86  C   UNL A   1      33.598  24.989  23.423  1.00  0.00     0.047 A 
ATOM     87  C   UNL A   1      34.552  25.422  26.057  1.00  0.00     0.001 A 
ATOM     88  C   UNL A   1      34.730  24.306  23.944  1.00  0.00     0.014 A 
ATOM     89  C   UNL A   1      35.199  24.514  25.241  1.00  0.00     0.001 A 
BRANCH  86  90
ATOM     90  C   UNL A   1      33.263  24.555  22.027  1.00  0.00     0.251 C 
ATOM     91  O   UNL A   1      33.366  25.390  21.124  1.00  0.00    -0.269 OA
ATOM     92  N   UNL A   1      32.760  23.331  21.672  1.00  0.00    -0.352 N 
ATOM     93  H   UNL A   1      32.493  23.267  20.727  1.00  0.00     0.163 HD
BRANCH  92  94
ATOM     94  C   UNL A   1      32.550  22.114  22.426  1.00  0.00     0.121 C 
BRANCH  94  95
ATOM     95  C   UNL A   1      31.495  22.197  23.530  1.00  0.00     0.057 C 
BRANCH  95  96
ATOM     96  C   UNL A   1      32.046  22.181  24.942  1.00  0.00    -0.046 A 
ATOM     97  C   UNL A   1      31.501  22.986  25.951  1.00  0.00     0.004 A 
ATOM     98  C   UNL A   1      33.153  21.374  25.256  1.00  0.00     0.004 A 
ATOM     99  C   UNL A   1      32.062  23.002  27.231  1.00  0.00     0.000 A 
ATOM    100  C   UNL A   1      33.715  21.394  26.535  1.00  0.00     0.000 A 
ATOM    101  C   UNL A   1      33.174  22.214  27.521  1.00  0.00     0.000 A 
ENDBRANCH  95  96
ENDBRANCH  94  95
ENDBRANCH  92  94
ENDBRANCH  86  90
ENDBRANCH  80  84
ENDBRANCH  75  78
ENDBRANCH  73  74
ENDBRANCH   1  73
TORSDOF 19
ENDMDL
MODEL 2
REMARK VINA RESULT:     -12.4      0.494      7.498
REMARK SMILES O=C(NCCCCNC(=O)c1ccccc1-c1ccccc1C(=O)NCCc1ccccc1)c1ccc(-c2c3nc(c(-c4cc(S(=O)(=O)[O-])ccc4F)c4ccc([nH]4)c(-c4cc(S(=O)(=O)[O-])ccc4F)c4nc(c(-c5cc(S(=O)(=O)[O-])ccc5F)c5ccc2[nH]5)C=C4)C=C3)cc1
REMARK SMILES IDX 6 1 5 2 4 3 3 4 1 5 2 6 34 8 35 9 96 10 36 11 95 12 37 13
REMARK SMILES IDX 38 14 39 15 89 16 40 17 94 18 88 19 90 20 41 21 93 22 87 23
REMARK SMILES IDX 86 24 42 26 74 27 54 28 73 29 55 30 58 31 72 32 91 33 56 34
REMARK SMILES IDX 57 35 71 37 92 38 59 39 43 40 44 41 52 42 45 43 51 44 53 45
REMARK SMILES IDX 50 46 46 47 47 48 48 49 49 50 75 51 76 52 84 53 77 54 83 55
REMARK SMILES IDX 85 56 82 57 78 58 79 59 80 60 81 61 60 62 61 63 69 64 62 65
REMARK SMILES IDX 68 66 70 67 67 68 63 69 64 70 65 71 66 72 7 73 8 74 9 75
REMARK SMILES IDX 10 77 11 78 12 79 16 80 13 81 15 82 14 83 17 84 18 85 22 86
REMARK SMILES IDX 19 87 21 88 20 89 23 90 24 91 25 92 26 94 27 95 28 96 29 97
REMARK SMILES IDX 33 98 30 99 32 100 31 101
REMARK H PARENT 3 7 90 25 58 36 8 76 25 93
REMARK Flexibility Score: inf
ROOT
ATOM      1  C   UNL A   1      31.345  30.807  25.727  1.00  0.00     0.023 C 
ENDROOT
BRANCH   1   2
ATOM      2  C   UNL A   1      31.407  31.746  26.928  1.00  0.00     0.023 C 
BRANCH   2   3
ATOM      3  C   UNL A   1      32.726  32.492  27.085  1.00  0.00     0.116 C 
BRANCH   3   4
ATOM      4  N   UNL A   1      32.548  33.844  27.596  1.00  0.00    -0.352 N 
ATOM      5  O   UNL A   1      32.865  35.571  29.024  1.00  0.00    -0.269 OA
ATOM      6  C   UNL A   1      33.231  34.481  28.608  1.00  0.00     0.251 C 
ATOM      7  H   UNL A   1      31.844  34.375  27.158  1.00  0.00     0.163 HD
BRANCH   6   8
ATOM      8  C   UNL A   1      34.404  33.800  29.185  1.00  0.00     0.039 A 
ATOM      9  C   UNL A   1      34.210  32.745  30.079  1.00  0.00     0.014 A 
ATOM     10  C   UNL A   1      35.686  34.265  28.890  1.00  0.00     0.014 A 
ATOM     11  C   UNL A   1      35.289  32.259  30.799  1.00  0.00     0.010 A 
ATOM     12  C   UNL A   1      36.784  33.701  29.543  1.00  0.00     0.010 A 
ATOM     13  C   UNL A   1      36.590  32.713  30.522  1.00  0.00    -0.014 A 
BRANCH  13  14
ATOM     14  C   UNL A   1      37.732  32.070  31.215  1.00  0.00     0.031 A 
ATOM     15  C   UNL A   1      38.156  32.500  32.591  1.00  0.00     0.074 A 
ATOM     16  C   UNL A   1      38.364  31.061  30.580  1.00  0.00     0.049 A 
ATOM     17  N   UNL A   1      39.141  32.048  33.324  1.00  0.00    -0.248 NA
ATOM     18  C   UNL A   1      37.383  33.579  33.224  1.00  0.00     0.031 C 
ATOM     19  C   UNL A   1      38.023  30.572  29.240  1.00  0.00     0.029 A 
ATOM     20  N   UNL A   1      39.399  30.256  30.972  1.00  0.00    -0.354 N 
ATOM     21  C   UNL A   1      39.125  32.800  34.493  1.00  0.00     0.074 A 
ATOM     22  C   UNL A   1      38.040  33.751  34.364  1.00  0.00     0.031 C 
ATOM     23  C   UNL A   1      38.799  29.521  28.944  1.00  0.00     0.029 A 
ATOM     24  C   UNL A   1      39.748  29.317  30.029  1.00  0.00     0.049 A 
ATOM     25  H   UNL A   1      39.850  30.341  31.843  1.00  0.00     0.167 HD
ATOM     26  C   UNL A   1      39.945  32.698  35.569  1.00  0.00     0.034 A 
ATOM     27  C   UNL A   1      40.744  28.413  30.023  1.00  0.00     0.034 A 
ATOM     28  C   UNL A   1      41.011  31.730  35.676  1.00  0.00     0.049 A 
ATOM     29  C   UNL A   1      41.652  28.346  31.219  1.00  0.00     0.074 A 
ATOM     30  C   UNL A   1      41.877  31.513  36.734  1.00  0.00     0.029 A 
ATOM     31  N   UNL A   1      41.363  30.819  34.686  1.00  0.00    -0.354 N 
ATOM     32  N   UNL A   1      41.616  29.060  32.320  1.00  0.00    -0.248 NA
ATOM     33  C   UNL A   1      42.732  27.355  31.171  1.00  0.00     0.031 C 
ATOM     34  C   UNL A   1      42.790  30.522  36.360  1.00  0.00     0.029 A 
ATOM     35  C   UNL A   1      42.452  30.064  35.097  1.00  0.00     0.049 A 
ATOM     36  H   UNL A   1      40.905  30.724  33.820  1.00  0.00     0.167 HD
ATOM     37  C   UNL A   1      42.663  28.592  33.105  1.00  0.00     0.074 A 
ATOM     38  C   UNL A   1      43.290  27.518  32.361  1.00  0.00     0.031 C 
ATOM     39  C   UNL A   1      43.075  29.013  34.328  1.00  0.00     0.034 A 
BRANCH  26  40
ATOM     40  C   UNL A   1      39.760  33.688  36.695  1.00  0.00     0.023 A 
ATOM     41  C   UNL A   1      39.210  33.320  37.935  1.00  0.00     0.031 A 
ATOM     42  C   UNL A   1      40.159  35.027  36.524  1.00  0.00     0.131 A 
ATOM     43  C   UNL A   1      39.038  34.286  38.939  1.00  0.00     0.055 A 
ATOM     44  C   UNL A   1      40.045  35.968  37.549  1.00  0.00     0.041 A 
ATOM     45  F   UNL A   1      40.671  35.443  35.355  1.00  0.00    -0.206 F 
ATOM     46  C   UNL A   1      39.473  35.602  38.764  1.00  0.00     0.022 A 
BRANCH  43  47
ATOM     47  S   UNL A   1      38.144  33.825  40.451  1.00  0.00     0.124 S 
ATOM     48  O   UNL A   1      39.136  33.000  41.139  1.00  0.00    -0.237 OA
ATOM     49  O   UNL A   1      37.859  35.121  41.057  1.00  0.00    -0.237 OA
ATOM     50  O   UNL A   1      36.978  33.099  39.953  1.00  0.00    -0.744 OA
ENDBRANCH  43  47
ENDBRANCH  26  40
BRANCH  27  51
ATOM     51  C   UNL A   1      40.962  27.543  28.832  1.00  0.00     0.023 A 
ATOM     52  C   UNL A   1      41.951  27.842  27.885  1.00  0.00     0.031 A 
ATOM     53  C   UNL A   1      40.156  26.410  28.610  1.00  0.00     0.131 A 
ATOM     54  C   UNL A   1      42.081  27.046  26.737  1.00  0.00     0.055 A 
ATOM     55  C   UNL A   1      40.330  25.586  27.498  1.00  0.00     0.041 A 
ATOM     56  F   UNL A   1      39.195  26.076  29.488  1.00  0.00    -0.206 F 
ATOM     57  C   UNL A   1      41.288  25.911  26.545  1.00  0.00     0.022 A 
BRANCH  54  58
ATOM     58  S   UNL A   1      43.237  27.573  25.444  1.00  0.00     0.124 S 
ATOM     59  O   UNL A   1      43.802  26.301  25.011  1.00  0.00    -0.237 OA
ATOM     60  O   UNL A   1      42.347  28.237  24.496  1.00  0.00    -0.237 OA
ATOM     61  O   UNL A   1      44.160  28.457  26.153  1.00  0.00    -0.744 OA
ENDBRANCH  54  58
ENDBRANCH  27  51
BRANCH  39  62
ATOM     62  C   UNL A   1      44.241  28.275  34.932  1.00  0.00     0.023 A 
ATOM     63  C   UNL A   1      44.057  27.108  35.694  1.00  0.00     0.031 A 
ATOM     64  C   UNL A   1      45.549  28.768  34.777  1.00  0.00     0.131 A 
ATOM     65  C   UNL A   1      45.155  26.509  36.327  1.00  0.00     0.055 A 
ATOM     66  C   UNL A   1      46.645  28.133  35.359  1.00  0.00     0.041 A 
ATOM     67  F   UNL A   1      45.779  29.882  34.062  1.00  0.00    -0.206 F 
ATOM     68  C   UNL A   1      46.449  27.005  36.152  1.00  0.00     0.022 A 
BRANCH  65  69
ATOM     69  S   UNL A   1      44.854  25.129  37.465  1.00  0.00     0.124 S 
ATOM     70  O   UNL A   1      45.250  23.979  36.659  1.00  0.00    -0.237 OA
ATOM     71  O   UNL A   1      45.730  25.452  38.587  1.00  0.00    -0.237 OA
ATOM     72  O   UNL A   1      43.424  25.225  37.750  1.00  0.00    -0.744 OA
ENDBRANCH  65  69
ENDBRANCH  39  62
ENDBRANCH  13  14
ENDBRANCH   6   8
ENDBRANCH   3   4
ENDBRANCH   2   3
ENDBRANCH   1   2
BRANCH   1  73
ATOM     73  C   UNL A   1      32.482  29.799  25.660  1.00  0.00     0.116 C 
BRANCH  73  74
ATOM     74  N   UNL A   1      33.049  29.700  24.332  1.00  0.00    -0.352 N 
ATOM     75  C   UNL A   1      32.691  28.841  23.331  1.00  0.00     0.251 C 
ATOM     76  H   UNL A   1      33.780  30.325  24.125  1.00  0.00     0.163 HD
ATOM     77  O   UNL A   1      33.354  28.751  22.303  1.00  0.00    -0.269 OA
BRANCH  75  78
ATOM     78  C   UNL A   1      31.516  27.970  23.510  1.00  0.00     0.047 A 
ATOM     79  C   UNL A   1      30.271  28.575  23.266  1.00  0.00     0.014 A 
ATOM     80  C   UNL A   1      31.600  26.641  23.982  1.00  0.00    -0.005 A 
ATOM     81  C   UNL A   1      29.090  27.864  23.454  1.00  0.00     0.001 A 
ATOM     82  C   UNL A   1      30.380  25.940  24.136  1.00  0.00     0.009 A 
ATOM     83  C   UNL A   1      29.145  26.542  23.883  1.00  0.00     0.001 A 
BRANCH  80  84
ATOM     84  C   UNL A   1      32.860  25.929  24.308  1.00  0.00    -0.005 A 
ATOM     85  C   UNL A   1      33.344  26.116  25.635  1.00  0.00     0.009 A 
ATOM     86  C   UNL A   1      33.593  25.066  23.462  1.00  0.00     0.047 A 
ATOM     87  C   UNL A   1      34.467  25.454  26.131  1.00  0.00     0.001 A 
ATOM     88  C   UNL A   1      34.726  24.397  23.997  1.00  0.00     0.014 A 
ATOM     89  C   UNL A   1      35.156  24.582  25.311  1.00  0.00     0.001 A 
BRANCH  86  90
ATOM     90  C   UNL A   1      33.305  24.660  22.048  1.00  0.00     0.251 C 
ATOM     91  O   UNL A   1      33.470  25.504  21.161  1.00  0.00    -0.269 OA
ATOM     92  N   UNL A   1      32.784  23.456  21.654  1.00  0.00    -0.352 N 
ATOM     93  H   UNL A   1      32.555  23.412  20.698  1.00  0.00     0.163 HD
BRANCH  92  94
ATOM     94  C   UNL A   1      32.508  22.236  22.382  1.00  0.00     0.121 C 
BRANCH  94  95
ATOM     95  C   UNL A   1      31.481  22.359  23.508  1.00  0.00     0.057 C 
BRANCH  95  96
ATOM     96  C   UNL A   1      32.051  22.239  24.908  1.00  0.00    -0.046 A 
ATOM     97  C   UNL A   1      31.511  22.953  25.984  1.00  0.00     0.004 A 
ATOM     98  C   UNL A   1      33.173  21.425  25.143  1.00  0.00     0.004 A 
ATOM     99  C   UNL A   1      32.089  22.876  27.255  1.00  0.00     0.000 A 
ATOM    100  C   UNL A   1      33.753  21.352  26.412  1.00  0.00     0.000 A 
ATOM    101  C   UNL A   1      33.214  22.084  27.467  1.00  0.00     0.000 A 
ENDBRANCH  95  96
ENDBRANCH  94  95
ENDBRANCH  92  94
ENDBRANCH  86  90
ENDBRANCH  80  84
ENDBRANCH  75  78
ENDBRANCH  73  74
ENDBRANCH   1  73
TORSDOF 19
ENDMDL
MODEL 3
REMARK VINA RESULT:     -12.2      5.537      9.775
REMARK SMILES O=C(NCCCCNC(=O)c1ccccc1-c1ccccc1C(=O)NCCc1ccccc1)c1ccc(-c2c3nc(c(-c4cc(S(=O)(=O)[O-])ccc4F)c4ccc([nH]4)c(-c4cc(S(=O)(=O)[O-])ccc4F)c4nc(c(-c5cc(S(=O)(=O)[O-])ccc5F)c5ccc2[nH]5)C=C4)C=C3)cc1
REMARK SMILES IDX 6 1 5 2 4 3 3 4 1 5 2 6 34 8 35 9 96 10 36 11 95 12 37 13
REMARK SMILES IDX 38 14 39 15 89 16 40 17 94 18 88 19 90 20 41 21 93 22 87 23
REMARK SMILES IDX 86 24 42 26 74 27 54 28 73 29 55 30 58 31 72 32 91 33 56 34
REMARK SMILES IDX 57 35 71 37 92 38 59 39 43 40 44 41 52 42 45 43 51 44 53 45
REMARK SMILES IDX 50 46 46 47 47 48 48 49 49 50 75 51 76 52 84 53 77 54 83 55
REMARK SMILES IDX 85 56 82 57 78 58 79 59 80 60 81 61 60 62 61 63 69 64 62 65
REMARK SMILES IDX 68 66 70 67 67 68 63 69 64 70 65 71 66 72 7 73 8 74 9 75
REMARK SMILES IDX 10 77 11 78 12 79 16 80 13 81 15 82 14 83 17 84 18 85 22 86
REMARK SMILES IDX 19 87 21 88 20 89 23 90 24 91 25 92 26 94 27 95 28 96 29 97
REMARK SMILES IDX 33 98 30 99 32 100 31 101
REMARK H PARENT 3 7 90 25 58 36 8 76 25 93
REMARK Flexibility Score: inf
ROOT
ATOM      1  C   UNL A   1      37.718  21.525  25.211  1.00  0.00     0.023 C 
ENDROOT
BRANCH   1   2
ATOM      2  C   UNL A   1      38.647  20.316  25.172  1.00  0.00     0.023 C 
BRANCH   2   3
ATOM      3  C   UNL A   1      39.675  20.266  26.295  1.00  0.00     0.116 C 
BRANCH   3   4
ATOM      4  N   UNL A   1      40.691  19.246  26.082  1.00  0.00    -0.352 N 
ATOM      5  O   UNL A   1      42.760  18.457  25.614  1.00  0.00    -0.269 OA
ATOM      6  C   UNL A   1      42.053  19.399  25.938  1.00  0.00     0.251 C 
ATOM      7  H   UNL A   1      40.360  18.319  26.033  1.00  0.00     0.163 HD
BRANCH   6   8
ATOM      8  C   UNL A   1      42.625  20.737  26.169  1.00  0.00     0.039 A 
ATOM      9  C   UNL A   1      42.859  21.164  27.477  1.00  0.00     0.014 A 
ATOM     10  C   UNL A   1      42.855  21.586  25.085  1.00  0.00     0.014 A 
ATOM     11  C   UNL A   1      43.173  22.493  27.712  1.00  0.00     0.010 A 
ATOM     12  C   UNL A   1      43.271  22.898  25.321  1.00  0.00     0.010 A 
ATOM     13  C   UNL A   1      43.407  23.367  26.637  1.00  0.00    -0.014 A 
BRANCH  13  14
ATOM     14  C   UNL A   1      43.875  24.744  26.927  1.00  0.00     0.031 A 
ATOM     15  C   UNL A   1      45.300  25.153  26.686  1.00  0.00     0.074 A 
ATOM     16  C   UNL A   1      42.969  25.631  27.388  1.00  0.00     0.049 A 
ATOM     17  N   UNL A   1      45.868  26.312  26.902  1.00  0.00    -0.248 NA
ATOM     18  C   UNL A   1      46.209  24.133  26.143  1.00  0.00     0.031 C 
ATOM     19  C   UNL A   1      41.559  25.326  27.652  1.00  0.00     0.029 A 
ATOM     20  N   UNL A   1      43.082  26.960  27.696  1.00  0.00    -0.354 N 
ATOM     21  C   UNL A   1      47.203  26.158  26.546  1.00  0.00     0.074 A 
ATOM     22  C   UNL A   1      47.364  24.785  26.115  1.00  0.00     0.031 C 
ATOM     23  C   UNL A   1      40.929  26.446  28.032  1.00  0.00     0.029 A 
ATOM     24  C   UNL A   1      41.903  27.524  28.124  1.00  0.00     0.049 A 
ATOM     25  H   UNL A   1      43.924  27.462  27.617  1.00  0.00     0.167 HD
ATOM     26  C   UNL A   1      48.195  27.083  26.579  1.00  0.00     0.034 A 
ATOM     27  C   UNL A   1      41.640  28.764  28.574  1.00  0.00     0.034 A 
ATOM     28  C   UNL A   1      48.001  28.451  27.001  1.00  0.00     0.049 A 
ATOM     29  C   UNL A   1      42.767  29.757  28.625  1.00  0.00     0.074 A 
ATOM     30  C   UNL A   1      48.925  29.481  27.038  1.00  0.00     0.029 A 
ATOM     31  N   UNL A   1      46.802  28.980  27.466  1.00  0.00    -0.354 N 
ATOM     32  N   UNL A   1      44.022  29.595  28.274  1.00  0.00    -0.248 NA
ATOM     33  C   UNL A   1      42.445  31.095  29.131  1.00  0.00     0.031 C 
ATOM     34  C   UNL A   1      48.304  30.609  27.586  1.00  0.00     0.029 A 
ATOM     35  C   UNL A   1      46.973  30.309  27.824  1.00  0.00     0.049 A 
ATOM     36  H   UNL A   1      45.955  28.482  27.533  1.00  0.00     0.167 HD
ATOM     37  C   UNL A   1      44.637  30.820  28.505  1.00  0.00     0.074 A 
ATOM     38  C   UNL A   1      43.607  31.714  28.996  1.00  0.00     0.031 C 
ATOM     39  C   UNL A   1      45.935  31.175  28.332  1.00  0.00     0.034 A 
BRANCH  26  40
ATOM     40  C   UNL A   1      49.587  26.640  26.199  1.00  0.00     0.023 A 
ATOM     41  C   UNL A   1      50.202  27.042  25.000  1.00  0.00     0.031 A 
ATOM     42  C   UNL A   1      50.321  25.811  27.068  1.00  0.00     0.131 A 
ATOM     43  C   UNL A   1      51.490  26.581  24.685  1.00  0.00     0.055 A 
ATOM     44  C   UNL A   1      51.626  25.408  26.778  1.00  0.00     0.041 A 
ATOM     45  F   UNL A   1      49.779  25.377  28.217  1.00  0.00    -0.206 F 
ATOM     46  C   UNL A   1      52.216  25.786  25.576  1.00  0.00     0.022 A 
BRANCH  43  47
ATOM     47  S   UNL A   1      52.174  26.952  23.045  1.00  0.00     0.124 S 
ATOM     48  O   UNL A   1      50.978  26.886  22.206  1.00  0.00    -0.237 OA
ATOM     49  O   UNL A   1      52.749  28.278  23.235  1.00  0.00    -0.237 OA
ATOM     50  O   UNL A   1      53.140  25.878  22.824  1.00  0.00    -0.744 OA
ENDBRANCH  43  47
ENDBRANCH  26  40
BRANCH  27  51
ATOM     51  C   UNL A   1      40.274  29.114  29.056  1.00  0.00     0.023 A 
ATOM     52  C   UNL A   1      39.950  29.068  30.419  1.00  0.00     0.031 A 
ATOM     53  C   UNL A   1      39.260  29.474  28.148  1.00  0.00     0.131 A 
ATOM     54  C   UNL A   1      38.636  29.331  30.833  1.00  0.00     0.055 A 
ATOM     55  C   UNL A   1      37.969  29.795  28.571  1.00  0.00     0.041 A 
ATOM     56  F   UNL A   1      39.516  29.537  26.831  1.00  0.00    -0.206 F 
ATOM     57  C   UNL A   1      37.647  29.709  29.920  1.00  0.00     0.022 A 
BRANCH  54  58
ATOM     58  S   UNL A   1      38.208  29.072  32.575  1.00  0.00     0.124 S 
ATOM     59  O   UNL A   1      36.752  29.151  32.541  1.00  0.00    -0.237 OA
ATOM     60  O   UNL A   1      38.774  27.752  32.833  1.00  0.00    -0.237 OA
ATOM     61  O   UNL A   1      38.877  30.178  33.257  1.00  0.00    -0.744 OA
ENDBRANCH  54  58
ENDBRANCH  27  51
BRANCH  39  62
ATOM     62  C   UNL A   1      46.287  32.604  28.654  1.00  0.00     0.023 A 
ATOM     63  C   UNL A   1      46.352  33.588  27.651  1.00  0.00     0.031 A 
ATOM     64  C   UNL A   1      46.599  32.978  29.973  1.00  0.00     0.131 A 
ATOM     65  C   UNL A   1      46.784  34.882  27.972  1.00  0.00     0.055 A 
ATOM     66  C   UNL A   1      46.969  34.283  30.296  1.00  0.00     0.041 A 
ATOM     67  F   UNL A   1      46.555  32.076  30.967  1.00  0.00    -0.206 F 
ATOM     68  C   UNL A   1      47.078  35.240  29.290  1.00  0.00     0.022 A 
BRANCH  65  69
ATOM     69  S   UNL A   1      47.052  36.067  26.625  1.00  0.00     0.124 S 
ATOM     70  O   UNL A   1      47.085  35.195  25.455  1.00  0.00    -0.237 OA
ATOM     71  O   UNL A   1      45.887  36.938  26.737  1.00  0.00    -0.237 OA
ATOM     72  O   UNL A   1      48.328  36.693  26.969  1.00  0.00    -0.744 OA
ENDBRANCH  65  69
ENDBRANCH  39  62
ENDBRANCH  13  14
ENDBRANCH   6   8
ENDBRANCH   3   4
ENDBRANCH   2   3
ENDBRANCH   1   2
BRANCH   1  73
ATOM     73  C   UNL A   1      36.263  21.208  24.907  1.00  0.00     0.116 C 
BRANCH  73  74
ATOM     74  N   UNL A   1      35.463  21.098  26.109  1.00  0.00    -0.352 N 
ATOM     75  C   UNL A   1      34.107  21.214  26.226  1.00  0.00     0.251 C 
ATOM     76  H   UNL A   1      35.956  20.921  26.942  1.00  0.00     0.163 HD
ATOM     77  O   UNL A   1      33.564  21.256  27.325  1.00  0.00    -0.269 OA
BRANCH  75  78
ATOM     78  C   UNL A   1      33.284  21.341  25.010  1.00  0.00     0.047 A 
ATOM     79  C   UNL A   1      33.003  20.137  24.340  1.00  0.00     0.014 A 
ATOM     80  C   UNL A   1      32.868  22.583  24.481  1.00  0.00    -0.005 A 
ATOM     81  C   UNL A   1      32.278  20.141  23.153  1.00  0.00     0.001 A 
ATOM     82  C   UNL A   1      32.111  22.546  23.285  1.00  0.00     0.009 A 
ATOM     83  C   UNL A   1      31.825  21.347  22.628  1.00  0.00     0.001 A 
BRANCH  80  84
ATOM     84  C   UNL A   1      33.150  23.907  25.088  1.00  0.00    -0.005 A 
ATOM     85  C   UNL A   1      34.414  24.475  24.760  1.00  0.00     0.009 A 
ATOM     86  C   UNL A   1      32.288  24.667  25.911  1.00  0.00     0.047 A 
ATOM     87  C   UNL A   1      34.804  25.748  25.177  1.00  0.00     0.001 A 
ATOM     88  C   UNL A   1      32.705  25.964  26.312  1.00  0.00     0.014 A 
ATOM     89  C   UNL A   1      33.940  26.501  25.949  1.00  0.00     0.001 A 
BRANCH  86  90
ATOM     90  C   UNL A   1      30.903  24.341  26.383  1.00  0.00     0.251 C 
ATOM     91  O   UNL A   1      30.778  23.454  27.233  1.00  0.00    -0.269 OA
ATOM     92  N   UNL A   1      29.745  24.879  25.887  1.00  0.00    -0.352 N 
ATOM     93  H   UNL A   1      28.926  24.460  26.239  1.00  0.00     0.163 HD
BRANCH  92  94
ATOM     94  C   UNL A   1      29.499  25.947  24.943  1.00  0.00     0.121 C 
BRANCH  94  95
ATOM     95  C   UNL A   1      29.901  25.654  23.497  1.00  0.00     0.057 C 
BRANCH  95  96
ATOM     96  C   UNL A   1      31.137  26.389  23.016  1.00  0.00    -0.046 A 
ATOM     97  C   UNL A   1      32.071  25.778  22.170  1.00  0.00     0.004 A 
ATOM     98  C   UNL A   1      31.388  27.703  23.449  1.00  0.00     0.004 A 
ATOM     99  C   UNL A   1      33.234  26.451  21.787  1.00  0.00     0.000 A 
ATOM    100  C   UNL A   1      32.553  28.373  23.070  1.00  0.00     0.000 A 
ATOM    101  C   UNL A   1      33.481  27.744  22.244  1.00  0.00     0.000 A 
ENDBRANCH  95  96
ENDBRANCH  94  95
ENDBRANCH  92  94
ENDBRANCH  86  90
ENDBRANCH  80  84
ENDBRANCH  75  78
ENDBRANCH  73  74
ENDBRANCH   1  73
TORSDOF 19
ENDMDL
