MODEL 1
REMARK VINA RESULT:     -13.1      0.000      0.000
REMARK SMILES COc1ccc(-c2cc(Cl)cc3c2O[C@@H](C(F)(F)F)C(C(=O)NCCCCNC(=O)c2ccc(-c4c5nc(c(-c6cc(S(=O)(=O)[O-])ccc6F)c6ccc([nH]6)c(-c6cc(S(=O)(=O)[O-])ccc6F)c6nc(c(-c7cc(S(=O)(=O)[O-])ccc7F)c7ccc4[nH]7)C=C6)C=C5)cc2)=C3)cc1C
REMARK SMILES IDX 26 1 25 2 24 3 23 4 21 5 22 6 20 8 7 9 8 10 13 11 9 12 12 13
REMARK SMILES IDX 14 14 10 15 11 16 94 17 15 18 6 19 3 20 4 21 96 22 5 23
REMARK SMILES IDX 95 24 97 25 2 26 1 27 16 28 17 29 18 30 19 31 27 32 28 33
REMARK SMILES IDX 29 34 30 36 31 37 32 38 93 39 33 40 92 41 34 42 35 43 36 44
REMARK SMILES IDX 86 45 37 46 91 47 85 48 87 49 38 50 90 51 84 52 83 53 39 55
REMARK SMILES IDX 71 56 51 57 70 58 52 59 55 60 69 61 88 62 53 63 54 64 68 66
REMARK SMILES IDX 89 67 56 68 40 69 41 70 49 71 42 72 48 73 50 74 47 75 43 76
REMARK SMILES IDX 44 77 45 78 46 79 72 80 73 81 81 82 74 83 80 84 82 85 79 86
REMARK SMILES IDX 75 87 76 88 77 89 78 90 57 91 58 92 66 93 59 94 65 95 67 96
REMARK SMILES IDX 64 97 60 98 61 99 62 100 63 101
REMARK H PARENT 23 7 28 35 87 54 55 65
REMARK Flexibility Score: inf
ROOT
ATOM      1  C   UNL A   1      33.032  29.615  26.222  1.00  0.00     0.023 C 
ENDROOT
BRANCH   1   2
ATOM      2  C   UNL A   1      33.972  28.801  25.331  1.00  0.00     0.023 C 
BRANCH   2   3
ATOM      3  C   UNL A   1      33.360  27.831  24.302  1.00  0.00     0.116 C 
BRANCH   3   4
ATOM      4  N   UNL A   1      34.056  26.554  24.167  1.00  0.00    -0.352 N 
ATOM      5  C   UNL A   1      33.725  25.396  23.516  1.00  0.00     0.251 C 
ATOM      6  O   UNL A   1      34.666  24.729  23.073  1.00  0.00    -0.270 OA
ATOM      7  H   UNL A   1      34.925  26.521  24.629  1.00  0.00     0.163 HD
BRANCH   5   8
ATOM      8  C   UNL A   1      32.302  24.825  23.458  1.00  0.00     0.067 C 
ATOM      9  C   UNL A   1      33.950  22.003  25.756  1.00  0.00     0.026 A 
ATOM     10  C   UNL A   1      33.548  20.657  25.668  1.00  0.00     0.033 A 
ATOM     11  C   UNL A   1      33.124  22.892  25.073  1.00  0.00     0.135 A 
ATOM     12  C   UNL A   1      32.700  20.247  24.631  1.00  0.00     0.042 A 
ATOM     13  C   UNL A   1      32.577  22.504  23.828  1.00  0.00     0.019 A 
ATOM     14  O   UNL A   1      32.658  24.073  25.693  1.00  0.00    -0.475 OA
ATOM     15  Cl  UNL A   1      32.284  18.583  24.491  1.00  0.00    -0.084 Cl
ATOM     16  C   UNL A   1      32.302  21.154  23.641  1.00  0.00     0.032 A 
ATOM     17  C   UNL A   1      32.255  23.605  22.850  1.00  0.00     0.025 C 
ATOM     18  C   UNL A   1      31.644  24.675  24.820  1.00  0.00     0.314 C 
BRANCH   9  19
ATOM     19  C   UNL A   1      35.436  22.177  25.629  1.00  0.00    -0.014 A 
ATOM     20  C   UNL A   1      38.281  22.183  25.642  1.00  0.00     0.121 A 
ATOM     21  C   UNL A   1      37.536  23.318  26.016  1.00  0.00     0.047 A 
ATOM     22  C   UNL A   1      37.614  21.023  25.247  1.00  0.00    -0.008 A 
ATOM     23  C   UNL A   1      36.129  23.319  26.012  1.00  0.00     0.013 A 
ATOM     24  C   UNL A   1      36.208  21.060  25.208  1.00  0.00     0.016 A 
ATOM     25  C   UNL A   1      38.292  19.726  24.908  1.00  0.00     0.048 C 
BRANCH  20  26
ATOM     26  O   UNL A   1      39.635  22.300  25.821  1.00  0.00    -0.496 OA
ATOM     27  C   UNL A   1      40.097  22.123  27.158  1.00  0.00     0.278 C 
ENDBRANCH  20  26
ENDBRANCH   9  19
BRANCH  18  28
ATOM     28  C   UNL A   1      30.698  25.799  25.268  1.00  0.00     0.429 C 
ATOM     29  F   UNL A   1      30.452  26.632  24.214  1.00  0.00    -0.167 F 
ATOM     30  F   UNL A   1      29.498  25.372  25.692  1.00  0.00    -0.167 F 
ATOM     31  F   UNL A   1      31.254  26.586  26.214  1.00  0.00    -0.167 F 
ENDBRANCH  18  28
ENDBRANCH   5   8
ENDBRANCH   3   4
ENDBRANCH   2   3
ENDBRANCH   1   2
BRANCH   1  32
ATOM     32  C   UNL A   1      33.469  29.842  27.661  1.00  0.00     0.116 C 
BRANCH  32  33
ATOM     33  N   UNL A   1      34.114  31.105  27.993  1.00  0.00    -0.352 N 
ATOM     34  C   UNL A   1      35.414  31.307  28.459  1.00  0.00     0.251 C 
ATOM     35  H   UNL A   1      33.566  31.915  27.874  1.00  0.00     0.163 HD
ATOM     36  O   UNL A   1      35.785  32.399  28.853  1.00  0.00    -0.269 OA
BRANCH  34  37
ATOM     37  C   UNL A   1      36.388  30.181  28.376  1.00  0.00     0.039 A 
ATOM     38  C   UNL A   1      36.585  29.391  29.515  1.00  0.00     0.014 A 
ATOM     39  C   UNL A   1      37.270  30.090  27.307  1.00  0.00     0.014 A 
ATOM     40  C   UNL A   1      37.804  28.733  29.687  1.00  0.00     0.010 A 
ATOM     41  C   UNL A   1      38.527  29.575  27.540  1.00  0.00     0.010 A 
ATOM     42  C   UNL A   1      38.816  28.943  28.753  1.00  0.00    -0.014 A 
BRANCH  42  43
ATOM     43  C   UNL A   1      40.231  28.689  29.013  1.00  0.00     0.031 A 
ATOM     44  C   UNL A   1      40.918  27.522  28.422  1.00  0.00     0.074 A 
ATOM     45  C   UNL A   1      40.959  29.604  29.692  1.00  0.00     0.049 A 
ATOM     46  N   UNL A   1      41.994  26.998  28.905  1.00  0.00    -0.248 NA
ATOM     47  C   UNL A   1      40.430  26.829  27.238  1.00  0.00     0.031 C 
ATOM     48  C   UNL A   1      42.415  29.693  29.777  1.00  0.00     0.029 A 
ATOM     49  N   UNL A   1      40.503  30.515  30.640  1.00  0.00    -0.354 N 
ATOM     50  C   UNL A   1      42.508  26.149  27.952  1.00  0.00     0.074 A 
ATOM     51  C   UNL A   1      41.458  26.020  26.968  1.00  0.00     0.031 C 
ATOM     52  C   UNL A   1      42.745  30.387  30.876  1.00  0.00     0.029 A 
ATOM     53  C   UNL A   1      41.519  30.649  31.604  1.00  0.00     0.049 A 
ATOM     54  H   UNL A   1      39.634  30.980  30.637  1.00  0.00     0.167 HD
ATOM     55  C   UNL A   1      43.816  25.771  28.025  1.00  0.00     0.034 A 
ATOM     56  C   UNL A   1      41.293  30.324  32.910  1.00  0.00     0.034 A 
ATOM     57  C   UNL A   1      44.473  26.326  29.211  1.00  0.00     0.049 A 
ATOM     58  C   UNL A   1      42.180  29.212  33.423  1.00  0.00     0.074 A 
ATOM     59  C   UNL A   1      45.372  27.364  29.398  1.00  0.00     0.029 A 
ATOM     60  N   UNL A   1      44.027  25.968  30.478  1.00  0.00    -0.354 N 
ATOM     61  N   UNL A   1      42.903  28.434  32.667  1.00  0.00    -0.248 NA
ATOM     62  C   UNL A   1      42.301  28.874  34.836  1.00  0.00     0.031 C 
ATOM     63  C   UNL A   1      45.456  27.632  30.790  1.00  0.00     0.029 A 
ATOM     64  C   UNL A   1      44.622  26.747  31.452  1.00  0.00     0.049 A 
ATOM     65  H   UNL A   1      43.373  25.255  30.658  1.00  0.00     0.167 HD
ATOM     66  C   UNL A   1      43.548  27.492  33.436  1.00  0.00     0.074 A 
ATOM     67  C   UNL A   1      43.145  27.829  34.791  1.00  0.00     0.031 C 
ATOM     68  C   UNL A   1      44.332  26.522  32.865  1.00  0.00     0.034 A 
BRANCH  55  69
ATOM     69  C   UNL A   1      44.583  25.147  26.876  1.00  0.00     0.023 A 
ATOM     70  C   UNL A   1      44.358  23.793  26.550  1.00  0.00     0.031 A 
ATOM     71  C   UNL A   1      45.558  25.795  26.093  1.00  0.00     0.131 A 
ATOM     72  C   UNL A   1      45.145  23.120  25.598  1.00  0.00     0.055 A 
ATOM     73  C   UNL A   1      46.384  25.115  25.187  1.00  0.00     0.041 A 
ATOM     74  F   UNL A   1      45.715  27.125  26.121  1.00  0.00    -0.206 F 
ATOM     75  C   UNL A   1      46.191  23.764  24.945  1.00  0.00     0.022 A 
BRANCH  72  76
ATOM     76  S   UNL A   1      44.773  21.387  25.214  1.00  0.00     0.124 S 
ATOM     77  O   UNL A   1      43.603  21.129  26.047  1.00  0.00    -0.237 OA
ATOM     78  O   UNL A   1      44.545  21.431  23.774  1.00  0.00    -0.237 OA
ATOM     79  O   UNL A   1      45.988  20.682  25.622  1.00  0.00    -0.744 OA
ENDBRANCH  72  76
ENDBRANCH  55  69
BRANCH  56  80
ATOM     80  C   UNL A   1      39.891  30.602  33.336  1.00  0.00     0.023 A 
ATOM     81  C   UNL A   1      39.547  31.959  33.530  1.00  0.00     0.031 A 
ATOM     82  C   UNL A   1      38.853  29.686  33.126  1.00  0.00     0.131 A 
ATOM     83  C   UNL A   1      38.229  32.387  33.324  1.00  0.00     0.055 A 
ATOM     84  C   UNL A   1      37.523  30.112  33.002  1.00  0.00     0.041 A 
ATOM     85  F   UNL A   1      39.120  28.391  32.898  1.00  0.00    -0.206 F 
ATOM     86  C   UNL A   1      37.211  31.472  33.054  1.00  0.00     0.022 A 
BRANCH  83  87
ATOM     87  S   UNL A   1      37.942  34.173  33.131  1.00  0.00     0.124 S 
ATOM     88  O   UNL A   1      39.299  34.683  32.969  1.00  0.00    -0.237 OA
ATOM     89  O   UNL A   1      37.091  34.225  31.941  1.00  0.00    -0.237 OA
ATOM     90  O   UNL A   1      37.272  34.553  34.371  1.00  0.00    -0.744 OA
ENDBRANCH  83  87
ENDBRANCH  56  80
BRANCH  68  91
ATOM     91  C   UNL A   1      44.964  25.310  33.546  1.00  0.00     0.023 A 
ATOM     92  C   UNL A   1      46.342  25.130  33.726  1.00  0.00     0.031 A 
ATOM     93  C   UNL A   1      44.159  24.266  34.079  1.00  0.00     0.131 A 
ATOM     94  C   UNL A   1      46.867  23.984  34.358  1.00  0.00     0.055 A 
ATOM     95  C   UNL A   1      44.676  23.146  34.741  1.00  0.00     0.041 A 
ATOM     96  F   UNL A   1      42.821  24.281  33.997  1.00  0.00    -0.206 F 
ATOM     97  C   UNL A   1      46.042  22.994  34.880  1.00  0.00     0.022 A 
BRANCH  94  98
ATOM     98  S   UNL A   1      48.669  23.803  34.448  1.00  0.00     0.124 S 
ATOM     99  O   UNL A   1      49.120  24.750  33.433  1.00  0.00    -0.237 OA
ATOM    100  O   UNL A   1      48.949  24.178  35.831  1.00  0.00    -0.237 OA
ATOM    101  O   UNL A   1      48.894  22.395  34.128  1.00  0.00    -0.744 OA
ENDBRANCH  94  98
ENDBRANCH  68  91
ENDBRANCH  42  43
ENDBRANCH  34  37
ENDBRANCH  32  33
ENDBRANCH   1  32
TORSDOF 17
ENDMDL
MODEL 2
REMARK VINA RESULT:     -13.1      3.608     10.044
REMARK SMILES COc1ccc(-c2cc(Cl)cc3c2O[C@@H](C(F)(F)F)C(C(=O)NCCCCNC(=O)c2ccc(-c4c5nc(c(-c6cc(S(=O)(=O)[O-])ccc6F)c6ccc([nH]6)c(-c6cc(S(=O)(=O)[O-])ccc6F)c6nc(c(-c7cc(S(=O)(=O)[O-])ccc7F)c7ccc4[nH]7)C=C6)C=C5)cc2)=C3)cc1C
REMARK SMILES IDX 26 1 25 2 24 3 23 4 21 5 22 6 20 8 7 9 8 10 13 11 9 12 12 13
REMARK SMILES IDX 14 14 10 15 11 16 94 17 15 18 6 19 3 20 4 21 96 22 5 23
REMARK SMILES IDX 95 24 97 25 2 26 1 27 16 28 17 29 18 30 19 31 27 32 28 33
REMARK SMILES IDX 29 34 30 36 31 37 32 38 93 39 33 40 92 41 34 42 35 43 36 44
REMARK SMILES IDX 86 45 37 46 91 47 85 48 87 49 38 50 90 51 84 52 83 53 39 55
REMARK SMILES IDX 71 56 51 57 70 58 52 59 55 60 69 61 88 62 53 63 54 64 68 66
REMARK SMILES IDX 89 67 56 68 40 69 41 70 49 71 42 72 48 73 50 74 47 75 43 76
REMARK SMILES IDX 44 77 45 78 46 79 72 80 73 81 81 82 74 83 80 84 82 85 79 86
REMARK SMILES IDX 75 87 76 88 77 89 78 90 57 91 58 92 66 93 59 94 65 95 67 96
REMARK SMILES IDX 64 97 60 98 61 99 62 100 63 101
REMARK H PARENT 23 7 28 35 87 54 55 65
REMARK Flexibility Score: inf
ROOT
ATOM      1  C   UNL A   1      36.771  22.337  25.909  1.00  0.00     0.023 C 
ENDROOT
BRANCH   1   2
ATOM      2  C   UNL A   1      35.849  23.543  26.101  1.00  0.00     0.023 C 
BRANCH   2   3
ATOM      3  C   UNL A   1      34.325  23.323  26.061  1.00  0.00     0.116 C 
BRANCH   3   4
ATOM      4  N   UNL A   1      33.522  24.511  26.339  1.00  0.00    -0.352 N 
ATOM      5  C   UNL A   1      32.207  24.804  26.095  1.00  0.00     0.251 C 
ATOM      6  O   UNL A   1      31.657  25.563  26.901  1.00  0.00    -0.270 OA
ATOM      7  H   UNL A   1      34.019  25.235  26.784  1.00  0.00     0.163 HD
BRANCH   5   8
ATOM      8  C   UNL A   1      31.458  24.381  24.825  1.00  0.00     0.067 C 
ATOM      9  C   UNL A   1      32.098  28.205  23.859  1.00  0.00     0.026 A 
ATOM     10  C   UNL A   1      31.161  28.939  23.108  1.00  0.00     0.033 A 
ATOM     11  C   UNL A   1      31.846  26.836  23.906  1.00  0.00     0.135 A 
ATOM     12  C   UNL A   1      29.893  28.401  22.853  1.00  0.00     0.042 A 
ATOM     13  C   UNL A   1      30.509  26.386  24.000  1.00  0.00     0.019 A 
ATOM     14  O   UNL A   1      32.873  25.899  23.649  1.00  0.00    -0.475 OA
ATOM     15  Cl  UNL A   1      28.733  29.346  22.003  1.00  0.00    -0.084 Cl
ATOM     16  C   UNL A   1      29.526  27.164  23.397  1.00  0.00     0.032 A 
ATOM     17  C   UNL A   1      30.281  25.053  24.666  1.00  0.00     0.025 C 
ATOM     18  C   UNL A   1      32.260  24.570  23.547  1.00  0.00     0.314 C 
BRANCH   9  19
ATOM     19  C   UNL A   1      32.495  28.896  25.131  1.00  0.00    -0.014 A 
ATOM     20  C   UNL A   1      33.287  30.543  27.312  1.00  0.00     0.121 A 
ATOM     21  C   UNL A   1      33.984  29.364  26.982  1.00  0.00     0.047 A 
ATOM     22  C   UNL A   1      32.174  30.916  26.559  1.00  0.00    -0.008 A 
ATOM     23  C   UNL A   1      33.596  28.547  25.905  1.00  0.00     0.013 A 
ATOM     24  C   UNL A   1      31.778  30.062  25.513  1.00  0.00     0.016 A 
ATOM     25  C   UNL A   1      31.403  32.190  26.757  1.00  0.00     0.048 C 
BRANCH  20  26
ATOM     26  O   UNL A   1      33.864  31.293  28.304  1.00  0.00    -0.496 OA
ATOM     27  C   UNL A   1      34.968  32.100  27.904  1.00  0.00     0.278 C 
ENDBRANCH  20  26
ENDBRANCH   9  19
BRANCH  18  28
ATOM     28  C   UNL A   1      32.991  23.340  22.992  1.00  0.00     0.429 C 
ATOM     29  F   UNL A   1      34.333  23.591  22.946  1.00  0.00    -0.167 F 
ATOM     30  F   UNL A   1      32.845  22.231  23.734  1.00  0.00    -0.167 F 
ATOM     31  F   UNL A   1      32.642  23.073  21.715  1.00  0.00    -0.167 F 
ENDBRANCH  18  28
ENDBRANCH   5   8
ENDBRANCH   3   4
ENDBRANCH   2   3
ENDBRANCH   1   2
BRANCH   1  32
ATOM     32  C   UNL A   1      38.165  22.614  25.368  1.00  0.00     0.116 C 
BRANCH  32  33
ATOM     33  N   UNL A   1      39.308  22.197  26.168  1.00  0.00    -0.352 N 
ATOM     34  C   UNL A   1      40.167  23.001  26.920  1.00  0.00     0.251 C 
ATOM     35  H   UNL A   1      39.499  21.231  26.180  1.00  0.00     0.163 HD
ATOM     36  O   UNL A   1      41.184  22.551  27.419  1.00  0.00    -0.269 OA
BRANCH  34  37
ATOM     37  C   UNL A   1      39.770  24.412  27.196  1.00  0.00     0.039 A 
ATOM     38  C   UNL A   1      40.265  25.415  26.354  1.00  0.00     0.014 A 
ATOM     39  C   UNL A   1      39.164  24.751  28.398  1.00  0.00     0.014 A 
ATOM     40  C   UNL A   1      40.401  26.713  26.847  1.00  0.00     0.010 A 
ATOM     41  C   UNL A   1      39.438  25.988  28.941  1.00  0.00     0.010 A 
ATOM     42  C   UNL A   1      40.108  26.956  28.187  1.00  0.00    -0.014 A 
BRANCH  42  43
ATOM     43  C   UNL A   1      40.598  28.112  28.932  1.00  0.00     0.031 A 
ATOM     44  C   UNL A   1      39.684  29.197  29.346  1.00  0.00     0.074 A 
ATOM     45  C   UNL A   1      41.877  28.132  29.369  1.00  0.00     0.049 A 
ATOM     46  N   UNL A   1      40.066  30.399  29.618  1.00  0.00    -0.248 NA
ATOM     47  C   UNL A   1      38.243  29.019  29.465  1.00  0.00     0.031 C 
ATOM     48  C   UNL A   1      42.458  29.017  30.376  1.00  0.00     0.029 A 
ATOM     49  N   UNL A   1      42.974  27.484  28.808  1.00  0.00    -0.354 N 
ATOM     50  C   UNL A   1      39.022  31.037  30.246  1.00  0.00     0.074 A 
ATOM     51  C   UNL A   1      37.888  30.164  30.056  1.00  0.00     0.031 C 
ATOM     52  C   UNL A   1      43.785  29.069  30.197  1.00  0.00     0.029 A 
ATOM     53  C   UNL A   1      44.086  28.327  28.988  1.00  0.00     0.049 A 
ATOM     54  H   UNL A   1      42.973  26.602  28.368  1.00  0.00     0.167 HD
ATOM     55  C   UNL A   1      39.266  32.158  30.983  1.00  0.00     0.034 A 
ATOM     56  C   UNL A   1      44.777  28.814  27.917  1.00  0.00     0.034 A 
ATOM     57  C   UNL A   1      40.680  32.542  30.931  1.00  0.00     0.049 A 
ATOM     58  C   UNL A   1      44.770  30.323  27.821  1.00  0.00     0.074 A 
ATOM     59  C   UNL A   1      41.727  32.431  31.833  1.00  0.00     0.029 A 
ATOM     60  N   UNL A   1      41.252  32.900  29.716  1.00  0.00    -0.354 N 
ATOM     61  N   UNL A   1      43.979  31.104  28.503  1.00  0.00    -0.248 NA
ATOM     62  C   UNL A   1      45.642  31.070  26.924  1.00  0.00     0.031 C 
ATOM     63  C   UNL A   1      42.935  32.718  31.146  1.00  0.00     0.029 A 
ATOM     64  C   UNL A   1      42.624  33.021  29.831  1.00  0.00     0.049 A 
ATOM     65  H   UNL A   1      40.747  33.047  28.884  1.00  0.00     0.167 HD
ATOM     66  C   UNL A   1      44.184  32.416  28.144  1.00  0.00     0.074 A 
ATOM     67  C   UNL A   1      45.252  32.335  27.162  1.00  0.00     0.031 C 
ATOM     68  C   UNL A   1      43.433  33.428  28.687  1.00  0.00     0.034 A 
BRANCH  55  69
ATOM     69  C   UNL A   1      38.294  32.736  31.992  1.00  0.00     0.023 A 
ATOM     70  C   UNL A   1      37.067  33.268  31.542  1.00  0.00     0.031 A 
ATOM     71  C   UNL A   1      38.512  32.833  33.381  1.00  0.00     0.131 A 
ATOM     72  C   UNL A   1      36.194  33.952  32.407  1.00  0.00     0.055 A 
ATOM     73  C   UNL A   1      37.675  33.565  34.235  1.00  0.00     0.041 A 
ATOM     74  F   UNL A   1      39.508  32.172  33.986  1.00  0.00    -0.206 F 
ATOM     75  C   UNL A   1      36.515  34.144  33.747  1.00  0.00     0.022 A 
BRANCH  72  76
ATOM     76  S   UNL A   1      34.621  34.580  31.757  1.00  0.00     0.124 S 
ATOM     77  O   UNL A   1      34.526  35.891  32.391  1.00  0.00    -0.237 OA
ATOM     78  O   UNL A   1      34.857  34.573  30.318  1.00  0.00    -0.237 OA
ATOM     79  O   UNL A   1      33.645  33.597  32.225  1.00  0.00    -0.744 OA
ENDBRANCH  72  76
ENDBRANCH  55  69
BRANCH  56  80
ATOM     80  C   UNL A   1      44.809  27.857  26.772  1.00  0.00     0.023 A 
ATOM     81  C   UNL A   1      45.704  26.770  26.883  1.00  0.00     0.031 A 
ATOM     82  C   UNL A   1      43.746  27.743  25.867  1.00  0.00     0.131 A 
ATOM     83  C   UNL A   1      45.417  25.554  26.249  1.00  0.00     0.055 A 
ATOM     84  C   UNL A   1      43.512  26.549  25.172  1.00  0.00     0.041 A 
ATOM     85  F   UNL A   1      42.843  28.726  25.746  1.00  0.00    -0.206 F 
ATOM     86  C   UNL A   1      44.320  25.432  25.396  1.00  0.00     0.022 A 
BRANCH  83  87
ATOM     87  S   UNL A   1      46.334  24.080  26.792  1.00  0.00     0.124 S 
ATOM     88  O   UNL A   1      46.413  23.301  25.562  1.00  0.00    -0.237 OA
ATOM     89  O   UNL A   1      47.592  24.655  27.270  1.00  0.00    -0.237 OA
ATOM     90  O   UNL A   1      45.491  23.514  27.842  1.00  0.00    -0.744 OA
ENDBRANCH  83  87
ENDBRANCH  56  80
BRANCH  68  91
ATOM     91  C   UNL A   1      43.408  34.898  28.273  1.00  0.00     0.023 A 
ATOM     92  C   UNL A   1      43.764  35.964  29.109  1.00  0.00     0.031 A 
ATOM     93  C   UNL A   1      43.029  35.282  26.957  1.00  0.00     0.131 A 
ATOM     94  C   UNL A   1      43.714  37.304  28.671  1.00  0.00     0.055 A 
ATOM     95  C   UNL A   1      43.015  36.609  26.508  1.00  0.00     0.041 A 
ATOM     96  F   UNL A   1      42.662  34.389  26.027  1.00  0.00    -0.206 F 
ATOM     97  C   UNL A   1      43.354  37.635  27.369  1.00  0.00     0.022 A 
BRANCH  94  98
ATOM     98  S   UNL A   1      44.100  38.612  29.865  1.00  0.00     0.124 S 
ATOM     99  O   UNL A   1      43.782  37.966  31.136  1.00  0.00    -0.237 OA
ATOM    100  O   UNL A   1      45.517  38.852  29.615  1.00  0.00    -0.237 OA
ATOM    101  O   UNL A   1      43.207  39.705  29.484  1.00  0.00    -0.744 OA
ENDBRANCH  94  98
ENDBRANCH  68  91
ENDBRANCH  42  43
ENDBRANCH  34  37
ENDBRANCH  32  33
ENDBRANCH   1  32
TORSDOF 17
ENDMDL
MODEL 3
REMARK VINA RESULT:     -12.8      3.780      9.671
REMARK SMILES COc1ccc(-c2cc(Cl)cc3c2O[C@@H](C(F)(F)F)C(C(=O)NCCCCNC(=O)c2ccc(-c4c5nc(c(-c6cc(S(=O)(=O)[O-])ccc6F)c6ccc([nH]6)c(-c6cc(S(=O)(=O)[O-])ccc6F)c6nc(c(-c7cc(S(=O)(=O)[O-])ccc7F)c7ccc4[nH]7)C=C6)C=C5)cc2)=C3)cc1C
REMARK SMILES IDX 26 1 25 2 24 3 23 4 21 5 22 6 20 8 7 9 8 10 13 11 9 12 12 13
REMARK SMILES IDX 14 14 10 15 11 16 94 17 15 18 6 19 3 20 4 21 96 22 5 23
REMARK SMILES IDX 95 24 97 25 2 26 1 27 16 28 17 29 18 30 19 31 27 32 28 33
REMARK SMILES IDX 29 34 30 36 31 37 32 38 93 39 33 40 92 41 34 42 35 43 36 44
REMARK SMILES IDX 86 45 37 46 91 47 85 48 87 49 38 50 90 51 84 52 83 53 39 55
REMARK SMILES IDX 71 56 51 57 70 58 52 59 55 60 69 61 88 62 53 63 54 64 68 66
REMARK SMILES IDX 89 67 56 68 40 69 41 70 49 71 42 72 48 73 50 74 47 75 43 76
REMARK SMILES IDX 44 77 45 78 46 79 72 80 73 81 81 82 74 83 80 84 82 85 79 86
REMARK SMILES IDX 75 87 76 88 77 89 78 90 57 91 58 92 66 93 59 94 65 95 67 96
REMARK SMILES IDX 64 97 60 98 61 99 62 100 63 101
REMARK H PARENT 23 7 28 35 87 54 55 65
REMARK Flexibility Score: inf
ROOT
ATOM      1  C   UNL A   1      37.706  23.591  25.783  1.00  0.00     0.023 C 
ENDROOT
BRANCH   1   2
ATOM      2  C   UNL A   1      36.457  22.749  26.054  1.00  0.00     0.023 C 
BRANCH   2   3
ATOM      3  C   UNL A   1      35.200  22.994  25.198  1.00  0.00     0.116 C 
BRANCH   3   4
ATOM      4  N   UNL A   1      34.420  24.172  25.568  1.00  0.00    -0.352 N 
ATOM      5  C   UNL A   1      33.072  24.407  25.591  1.00  0.00     0.251 C 
ATOM      6  O   UNL A   1      32.669  25.201  26.449  1.00  0.00    -0.270 OA
ATOM      7  H   UNL A   1      34.966  24.939  25.855  1.00  0.00     0.163 HD
BRANCH   5   8
ATOM      8  C   UNL A   1      32.094  23.877  24.534  1.00  0.00     0.067 C 
ATOM      9  C   UNL A   1      31.697  27.778  23.767  1.00  0.00     0.026 A 
ATOM     10  C   UNL A   1      30.466  28.325  23.359  1.00  0.00     0.033 A 
ATOM     11  C   UNL A   1      31.734  26.386  23.761  1.00  0.00     0.135 A 
ATOM     12  C   UNL A   1      29.304  27.543  23.405  1.00  0.00     0.042 A 
ATOM     13  C   UNL A   1      30.588  25.666  24.169  1.00  0.00     0.019 A 
ATOM     14  O   UNL A   1      32.809  25.691  23.160  1.00  0.00    -0.475 OA
ATOM     15  Cl  UNL A   1      27.795  28.252  22.980  1.00  0.00    -0.084 Cl
ATOM     16  C   UNL A   1      29.347  26.241  23.919  1.00  0.00     0.032 A 
ATOM     17  C   UNL A   1      30.814  24.295  24.754  1.00  0.00     0.025 C 
ATOM     18  C   UNL A   1      32.457  24.266  23.111  1.00  0.00     0.314 C 
BRANCH   9  19
ATOM     19  C   UNL A   1      32.293  28.497  24.942  1.00  0.00    -0.014 A 
ATOM     20  C   UNL A   1      33.418  30.194  26.930  1.00  0.00     0.121 A 
ATOM     21  C   UNL A   1      34.068  29.020  26.505  1.00  0.00     0.047 A 
ATOM     22  C   UNL A   1      32.187  30.538  26.371  1.00  0.00    -0.008 A 
ATOM     23  C   UNL A   1      33.516  28.177  25.522  1.00  0.00     0.013 A 
ATOM     24  C   UNL A   1      31.632  29.661  25.422  1.00  0.00     0.016 A 
ATOM     25  C   UNL A   1      31.439  31.805  26.678  1.00  0.00     0.048 C 
BRANCH  20  26
ATOM     26  O   UNL A   1      34.142  30.970  27.798  1.00  0.00    -0.496 OA
ATOM     27  C   UNL A   1      35.555  30.787  27.755  1.00  0.00     0.278 C 
ENDBRANCH  20  26
ENDBRANCH   9  19
BRANCH  18  28
ATOM     28  C   UNL A   1      33.226  23.232  22.276  1.00  0.00     0.429 C 
ATOM     29  F   UNL A   1      32.860  21.974  22.664  1.00  0.00    -0.167 F 
ATOM     30  F   UNL A   1      32.985  23.300  20.958  1.00  0.00    -0.167 F 
ATOM     31  F   UNL A   1      34.557  23.291  22.492  1.00  0.00    -0.167 F 
ENDBRANCH  18  28
ENDBRANCH   5   8
ENDBRANCH   3   4
ENDBRANCH   2   3
ENDBRANCH   1   2
BRANCH   1  32
ATOM     32  C   UNL A   1      38.985  23.176  26.493  1.00  0.00     0.116 C 
BRANCH  32  33
ATOM     33  N   UNL A   1      39.572  21.887  26.157  1.00  0.00    -0.352 N 
ATOM     34  C   UNL A   1      40.922  21.532  26.163  1.00  0.00     0.251 C 
ATOM     35  H   UNL A   1      38.939  21.179  25.892  1.00  0.00     0.163 HD
ATOM     36  O   UNL A   1      41.301  20.467  25.707  1.00  0.00    -0.269 OA
BRANCH  34  37
ATOM     37  C   UNL A   1      41.898  22.438  26.834  1.00  0.00     0.039 A 
ATOM     38  C   UNL A   1      42.075  22.311  28.217  1.00  0.00     0.014 A 
ATOM     39  C   UNL A   1      42.404  23.547  26.168  1.00  0.00     0.014 A 
ATOM     40  C   UNL A   1      42.504  23.416  28.954  1.00  0.00     0.010 A 
ATOM     41  C   UNL A   1      42.675  24.681  26.902  1.00  0.00     0.010 A 
ATOM     42  C   UNL A   1      42.672  24.634  28.300  1.00  0.00    -0.014 A 
BRANCH  42  43
ATOM     43  C   UNL A   1      42.688  25.928  28.977  1.00  0.00     0.031 A 
ATOM     44  C   UNL A   1      41.491  26.793  28.999  1.00  0.00     0.074 A 
ATOM     45  C   UNL A   1      43.767  26.285  29.709  1.00  0.00     0.049 A 
ATOM     46  N   UNL A   1      41.525  28.069  29.189  1.00  0.00    -0.248 NA
ATOM     47  C   UNL A   1      40.141  26.287  28.783  1.00  0.00     0.031 C 
ATOM     48  C   UNL A   1      43.854  27.358  30.697  1.00  0.00     0.029 A 
ATOM     49  N   UNL A   1      45.086  25.875  29.530  1.00  0.00    -0.354 N 
ATOM     50  C   UNL A   1      40.240  28.487  29.447  1.00  0.00     0.074 A 
ATOM     51  C   UNL A   1      39.408  27.356  29.105  1.00  0.00     0.031 C 
ATOM     52  C   UNL A   1      45.140  27.710  30.845  1.00  0.00     0.029 A 
ATOM     53  C   UNL A   1      45.905  26.970  29.861  1.00  0.00     0.049 A 
ATOM     54  H   UNL A   1      45.389  24.987  29.229  1.00  0.00     0.167 HD
ATOM     55  C   UNL A   1      40.035  29.687  30.061  1.00  0.00     0.034 A 
ATOM     56  C   UNL A   1      46.743  27.522  28.937  1.00  0.00     0.034 A 
ATOM     57  C   UNL A   1      41.296  30.391  30.306  1.00  0.00     0.049 A 
ATOM     58  C   UNL A   1      46.448  28.974  28.636  1.00  0.00     0.074 A 
ATOM     59  C   UNL A   1      42.058  30.603  31.445  1.00  0.00     0.029 A 
ATOM     60  N   UNL A   1      42.089  30.780  29.233  1.00  0.00    -0.354 N 
ATOM     61  N   UNL A   1      45.356  29.595  28.989  1.00  0.00    -0.248 NA
ATOM     62  C   UNL A   1      47.354  29.836  27.889  1.00  0.00     0.031 C 
ATOM     63  C   UNL A   1      43.320  31.115  31.044  1.00  0.00     0.029 A 
ATOM     64  C   UNL A   1      43.321  31.232  29.665  1.00  0.00     0.049 A 
ATOM     65  H   UNL A   1      41.810  30.737  28.290  1.00  0.00     0.167 HD
ATOM     66  C   UNL A   1      45.371  30.886  28.514  1.00  0.00     0.074 A 
ATOM     67  C   UNL A   1      46.658  30.986  27.846  1.00  0.00     0.031 C 
ATOM     68  C   UNL A   1      44.308  31.730  28.711  1.00  0.00     0.034 A 
BRANCH  55  69
ATOM     69  C   UNL A   1      38.727  30.094  30.709  1.00  0.00     0.023 A 
ATOM     70  C   UNL A   1      38.138  31.329  30.361  1.00  0.00     0.031 A 
ATOM     71  C   UNL A   1      38.029  29.355  31.684  1.00  0.00     0.131 A 
ATOM     72  C   UNL A   1      37.010  31.828  31.037  1.00  0.00     0.055 A 
ATOM     73  C   UNL A   1      36.941  29.874  32.401  1.00  0.00     0.041 A 
ATOM     74  F   UNL A   1      38.326  28.075  31.946  1.00  0.00    -0.206 F 
ATOM     75  C   UNL A   1      36.434  31.126  32.090  1.00  0.00     0.022 A 
BRANCH  72  76
ATOM     76  S   UNL A   1      36.296  33.410  30.510  1.00  0.00     0.124 S 
ATOM     77  O   UNL A   1      37.024  33.683  29.275  1.00  0.00    -0.237 OA
ATOM     78  O   UNL A   1      34.882  33.079  30.367  1.00  0.00    -0.237 OA
ATOM     79  O   UNL A   1      36.608  34.309  31.621  1.00  0.00    -0.744 OA
ENDBRANCH  72  76
ENDBRANCH  55  69
BRANCH  56  80
ATOM     80  C   UNL A   1      47.284  26.515  27.979  1.00  0.00     0.023 A 
ATOM     81  C   UNL A   1      47.082  26.777  26.606  1.00  0.00     0.031 A 
ATOM     82  C   UNL A   1      48.304  25.622  28.333  1.00  0.00     0.131 A 
ATOM     83  C   UNL A   1      47.999  26.306  25.656  1.00  0.00     0.055 A 
ATOM     84  C   UNL A   1      49.168  25.089  27.367  1.00  0.00     0.041 A 
ATOM     85  F   UNL A   1      48.569  25.364  29.622  1.00  0.00    -0.206 F 
ATOM     86  C   UNL A   1      49.048  25.467  26.028  1.00  0.00     0.022 A 
BRANCH  83  87
ATOM     87  S   UNL A   1      47.952  27.049  23.997  1.00  0.00     0.124 S 
ATOM     88  O   UNL A   1      48.270  25.909  23.145  1.00  0.00    -0.237 OA
ATOM     89  O   UNL A   1      46.578  27.547  23.917  1.00  0.00    -0.237 OA
ATOM     90  O   UNL A   1      48.971  28.093  24.054  1.00  0.00    -0.744 OA
ENDBRANCH  83  87
ENDBRANCH  56  80
BRANCH  68  91
ATOM     91  C   UNL A   1      44.089  33.115  28.105  1.00  0.00     0.023 A 
ATOM     92  C   UNL A   1      44.078  34.309  28.839  1.00  0.00     0.031 A 
ATOM     93  C   UNL A   1      43.900  33.282  26.705  1.00  0.00     0.131 A 
ATOM     94  C   UNL A   1      43.864  35.559  28.223  1.00  0.00     0.055 A 
ATOM     95  C   UNL A   1      43.725  34.526  26.087  1.00  0.00     0.041 A 
ATOM     96  F   UNL A   1      43.886  32.245  25.856  1.00  0.00    -0.206 F 
ATOM     97  C   UNL A   1      43.700  35.679  26.847  1.00  0.00     0.022 A 
BRANCH  94  98
ATOM     98  S   UNL A   1      43.768  37.030  29.279  1.00  0.00     0.124 S 
ATOM     99  O   UNL A   1      45.082  37.634  29.078  1.00  0.00    -0.237 OA
ATOM    100  O   UNL A   1      42.643  37.756  28.698  1.00  0.00    -0.237 OA
ATOM    101  O   UNL A   1      43.533  36.484  30.614  1.00  0.00    -0.744 OA
ENDBRANCH  94  98
ENDBRANCH  68  91
ENDBRANCH  42  43
ENDBRANCH  34  37
ENDBRANCH  32  33
ENDBRANCH   1  32
TORSDOF 17
ENDMDL
