MODEL 1
REMARK VINA RESULT:     -11.7      0.000      0.000
REMARK SMILES C=CCOc1ccccc1/C=C1\SC(=S)N(CC(=O)NCCCCNC(=O)c2ccc(-c3c4nc(c(-c5cc(S(=O)(=O)[O-])ccc5F)c5ccc([nH]5)c(-c5cc(S(=O)(=O)[O-])ccc5F)c5nc(c(-c6cc(S(=O)(=O)[O-])ccc6F)c6ccc3[nH]6)C=C5)C=C4)cc2)C1=O
REMARK SMILES IDX 21 1 20 2 18 3 19 4 17 6 16 7 11 8 12 9 13 10 91 11 14 12
REMARK SMILES IDX 92 13 15 14 10 15 5 16 6 17 7 18 9 19 8 20 4 21 3 22 2 23
REMARK SMILES IDX 1 24 22 25 23 26 24 27 25 28 26 29 27 31 28 32 29 33 90 34
REMARK SMILES IDX 30 35 89 36 31 37 32 38 33 39 83 40 34 41 88 42 82 43 84 44
REMARK SMILES IDX 35 45 87 46 81 47 80 48 36 50 68 51 48 52 67 53 49 54 52 55
REMARK SMILES IDX 66 56 85 57 50 58 51 59 65 61 86 62 53 63 37 64 38 65 46 66
REMARK SMILES IDX 39 67 45 68 47 69 44 70 40 71 41 72 42 73 43 74 69 75 70 76
REMARK SMILES IDX 78 77 71 78 77 79 79 80 76 81 72 82 73 83 74 84 75 85 54 86
REMARK SMILES IDX 55 87 63 88 56 89 62 90 64 91 61 92 57 93 58 94 59 95 60 96
REMARK H PARENT 20 5 25 30 84 49 52 60
REMARK Flexibility Score: inf
ROOT
ATOM      1  C   UNL A   1      34.119  21.462  26.866  1.00  0.00     0.116 C 
ENDROOT
BRANCH   1   2
ATOM      2  N   UNL A   1      33.531  20.470  25.991  1.00  0.00    -0.355 N 
ATOM      3  C   UNL A   1      32.385  20.511  25.255  1.00  0.00     0.240 C 
ATOM      4  O   UNL A   1      32.249  19.654  24.375  1.00  0.00    -0.273 OA
ATOM      5  H   UNL A   1      34.040  19.630  25.918  1.00  0.00     0.163 HD
BRANCH   3   6
ATOM      6  C   UNL A   1      31.390  21.674  25.350  1.00  0.00     0.227 C 
BRANCH   6   7
ATOM      7  N   UNL A   1      31.968  23.011  25.275  1.00  0.00    -0.283 N 
ATOM      8  C   UNL A   1      31.930  26.293  26.760  1.00  0.00     0.033 C 
ATOM      9  C   UNL A   1      32.244  25.229  26.009  1.00  0.00     0.081 C 
ATOM     10  S   UNL A   1      33.195  25.160  24.580  1.00  0.00    -0.054 SA
ATOM     11  C   UNL A   1      31.657  23.896  26.294  1.00  0.00     0.266 C 
ATOM     12  C   UNL A   1      32.670  23.527  24.207  1.00  0.00     0.148 C 
ATOM     13  O   UNL A   1      30.967  23.646  27.273  1.00  0.00    -0.268 OA
ATOM     14  S   UNL A   1      33.007  22.809  22.740  1.00  0.00    -0.052 S 
BRANCH   8  15
ATOM     15  C   UNL A   1      32.213  27.694  26.425  1.00  0.00     0.018 A 
ATOM     16  C   UNL A   1      31.486  28.395  25.444  1.00  0.00     0.127 A 
ATOM     17  C   UNL A   1      31.790  29.723  25.146  1.00  0.00     0.047 A 
ATOM     18  C   UNL A   1      32.777  30.388  25.872  1.00  0.00     0.004 A 
ATOM     19  C   UNL A   1      33.186  28.380  27.163  1.00  0.00     0.012 A 
ATOM     20  C   UNL A   1      33.466  29.721  26.886  1.00  0.00     0.001 A 
BRANCH  16  21
ATOM     21  O   UNL A   1      30.512  27.780  24.695  1.00  0.00    -0.489 OA
BRANCH  21  22
ATOM     22  C   UNL A   1      30.658  28.044  23.295  1.00  0.00     0.257 C 
BRANCH  22  23
ATOM     23  C   UNL A   1      29.325  28.423  22.715  1.00  0.00     0.006 C 
ATOM     24  C   UNL A   1      28.615  29.496  23.089  1.00  0.00     0.007 C 
ENDBRANCH  22  23
ENDBRANCH  21  22
ENDBRANCH  16  21
ENDBRANCH   8  15
ENDBRANCH   6   7
ENDBRANCH   3   6
ENDBRANCH   1   2
BRANCH   1  25
ATOM     25  C   UNL A   1      35.341  22.142  26.252  1.00  0.00     0.023 C 
BRANCH  25  26
ATOM     26  C   UNL A   1      36.011  21.371  25.117  1.00  0.00     0.023 C 
BRANCH  26  27
ATOM     27  C   UNL A   1      37.489  21.672  24.918  1.00  0.00     0.116 C 
BRANCH  27  28
ATOM     28  N   UNL A   1      38.361  20.614  25.405  1.00  0.00    -0.352 N 
ATOM     29  C   UNL A   1      39.506  20.729  26.161  1.00  0.00     0.251 C 
ATOM     30  H   UNL A   1      38.097  19.697  25.163  1.00  0.00     0.163 HD
ATOM     31  O   UNL A   1      40.188  19.742  26.393  1.00  0.00    -0.269 OA
BRANCH  29  32
ATOM     32  C   UNL A   1      39.917  22.066  26.639  1.00  0.00     0.039 A 
ATOM     33  C   UNL A   1      40.981  22.161  27.539  1.00  0.00     0.014 A 
ATOM     34  C   UNL A   1      39.289  23.219  26.161  1.00  0.00     0.014 A 
ATOM     35  C   UNL A   1      41.465  23.420  27.901  1.00  0.00     0.010 A 
ATOM     36  C   UNL A   1      39.821  24.468  26.463  1.00  0.00     0.010 A 
ATOM     37  C   UNL A   1      40.915  24.581  27.334  1.00  0.00    -0.014 A 
BRANCH  37  38
ATOM     38  C   UNL A   1      41.462  25.927  27.644  1.00  0.00     0.031 A 
ATOM     39  C   UNL A   1      42.853  26.287  27.200  1.00  0.00     0.074 A 
ATOM     40  C   UNL A   1      40.738  26.788  28.385  1.00  0.00     0.049 A 
ATOM     41  N   UNL A   1      43.552  27.363  27.456  1.00  0.00    -0.248 NA
ATOM     42  C   UNL A   1      43.563  25.286  26.390  1.00  0.00     0.031 C 
ATOM     43  C   UNL A   1      39.397  26.529  28.915  1.00  0.00     0.029 A 
ATOM     44  N   UNL A   1      41.034  28.050  28.836  1.00  0.00    -0.354 N 
ATOM     45  C   UNL A   1      44.786  27.165  26.847  1.00  0.00     0.074 A 
ATOM     46  C   UNL A   1      44.761  25.837  26.272  1.00  0.00     0.031 C 
ATOM     47  C   UNL A   1      38.981  27.604  29.604  1.00  0.00     0.029 A 
ATOM     48  C   UNL A   1      40.038  28.611  29.602  1.00  0.00     0.049 A 
ATOM     49  H   UNL A   1      41.878  28.512  28.629  1.00  0.00     0.167 HD
ATOM     50  C   UNL A   1      45.834  28.022  26.754  1.00  0.00     0.034 A 
ATOM     51  C   UNL A   1      39.988  29.796  30.242  1.00  0.00     0.034 A 
ATOM     52  C   UNL A   1      45.837  29.346  27.325  1.00  0.00     0.049 A 
ATOM     53  C   UNL A   1      41.167  30.730  30.132  1.00  0.00     0.074 A 
ATOM     54  C   UNL A   1      46.824  30.313  27.259  1.00  0.00     0.029 A 
ATOM     55  N   UNL A   1      44.799  29.890  28.073  1.00  0.00    -0.354 N 
ATOM     56  N   UNL A   1      42.312  30.545  29.516  1.00  0.00    -0.248 NA
ATOM     57  C   UNL A   1      41.040  32.037  30.790  1.00  0.00     0.031 C 
ATOM     58  C   UNL A   1      46.410  31.418  28.011  1.00  0.00     0.029 A 
ATOM     59  C   UNL A   1      45.133  31.170  28.490  1.00  0.00     0.049 A 
ATOM     60  H   UNL A   1      43.951  29.435  28.276  1.00  0.00     0.167 HD
ATOM     61  C   UNL A   1      43.031  31.724  29.691  1.00  0.00     0.074 A 
ATOM     62  C   UNL A   1      42.182  32.617  30.455  1.00  0.00     0.031 C 
ATOM     63  C   UNL A   1      44.277  32.043  29.259  1.00  0.00     0.034 A 
BRANCH  50  64
ATOM     64  C   UNL A   1      47.060  27.534  26.021  1.00  0.00     0.023 A 
ATOM     65  C   UNL A   1      47.305  27.890  24.683  1.00  0.00     0.031 A 
ATOM     66  C   UNL A   1      47.975  26.672  26.650  1.00  0.00     0.131 A 
ATOM     67  C   UNL A   1      48.387  27.323  23.993  1.00  0.00     0.055 A 
ATOM     68  C   UNL A   1      49.098  26.177  25.983  1.00  0.00     0.041 A 
ATOM     69  F   UNL A   1      47.784  26.279  27.920  1.00  0.00    -0.206 F 
ATOM     70  C   UNL A   1      49.301  26.489  24.641  1.00  0.00     0.022 A 
BRANCH  67  71
ATOM     71  S   UNL A   1      48.496  27.573  22.200  1.00  0.00     0.124 S 
ATOM     72  O   UNL A   1      48.658  26.203  21.721  1.00  0.00    -0.237 OA
ATOM     73  O   UNL A   1      47.221  28.211  21.892  1.00  0.00    -0.237 OA
ATOM     74  O   UNL A   1      49.674  28.424  22.044  1.00  0.00    -0.744 OA
ENDBRANCH  67  71
ENDBRANCH  50  64
BRANCH  51  75
ATOM     75  C   UNL A   1      38.794  30.167  31.055  1.00  0.00     0.023 A 
ATOM     76  C   UNL A   1      37.739  30.905  30.498  1.00  0.00     0.031 A 
ATOM     77  C   UNL A   1      38.711  29.820  32.415  1.00  0.00     0.131 A 
ATOM     78  C   UNL A   1      36.668  31.313  31.307  1.00  0.00     0.055 A 
ATOM     79  C   UNL A   1      37.619  30.185  33.204  1.00  0.00     0.041 A 
ATOM     80  F   UNL A   1      39.690  29.106  32.995  1.00  0.00    -0.206 F 
ATOM     81  C   UNL A   1      36.594  30.949  32.653  1.00  0.00     0.022 A 
BRANCH  78  82
ATOM     82  S   UNL A   1      35.405  32.402  30.591  1.00  0.00     0.124 S 
ATOM     83  O   UNL A   1      34.343  32.321  31.589  1.00  0.00    -0.237 OA
ATOM     84  O   UNL A   1      36.114  33.675  30.511  1.00  0.00    -0.237 OA
ATOM     85  O   UNL A   1      35.104  31.775  29.307  1.00  0.00    -0.744 OA
ENDBRANCH  78  82
ENDBRANCH  51  75
BRANCH  63  86
ATOM     86  C   UNL A   1      44.772  33.435  29.567  1.00  0.00     0.023 A 
ATOM     87  C   UNL A   1      44.573  34.504  28.678  1.00  0.00     0.031 A 
ATOM     88  C   UNL A   1      45.463  33.686  30.766  1.00  0.00     0.131 A 
ATOM     89  C   UNL A   1      45.108  35.767  28.976  1.00  0.00     0.055 A 
ATOM     90  C   UNL A   1      45.943  34.958  31.082  1.00  0.00     0.041 A 
ATOM     91  F   UNL A   1      45.681  32.700  31.650  1.00  0.00    -0.206 F 
ATOM     92  C   UNL A   1      45.778  36.003  30.179  1.00  0.00     0.022 A 
BRANCH  89  93
ATOM     93  S   UNL A   1      44.990  37.079  27.729  1.00  0.00     0.124 S 
ATOM     94  O   UNL A   1      45.173  36.334  26.487  1.00  0.00    -0.237 OA
ATOM     95  O   UNL A   1      43.651  37.610  27.961  1.00  0.00    -0.237 OA
ATOM     96  O   UNL A   1      46.084  37.983  28.078  1.00  0.00    -0.744 OA
ENDBRANCH  89  93
ENDBRANCH  63  86
ENDBRANCH  37  38
ENDBRANCH  29  32
ENDBRANCH  27  28
ENDBRANCH  26  27
ENDBRANCH  25  26
ENDBRANCH   1  25
TORSDOF 19
ENDMDL
MODEL 2
REMARK VINA RESULT:     -11.7      2.117      3.070
REMARK SMILES C=CCOc1ccccc1/C=C1\SC(=S)N(CC(=O)NCCCCNC(=O)c2ccc(-c3c4nc(c(-c5cc(S(=O)(=O)[O-])ccc5F)c5ccc([nH]5)c(-c5cc(S(=O)(=O)[O-])ccc5F)c5nc(c(-c6cc(S(=O)(=O)[O-])ccc6F)c6ccc3[nH]6)C=C5)C=C4)cc2)C1=O
REMARK SMILES IDX 21 1 20 2 18 3 19 4 17 6 16 7 11 8 12 9 13 10 91 11 14 12
REMARK SMILES IDX 92 13 15 14 10 15 5 16 6 17 7 18 9 19 8 20 4 21 3 22 2 23
REMARK SMILES IDX 1 24 22 25 23 26 24 27 25 28 26 29 27 31 28 32 29 33 90 34
REMARK SMILES IDX 30 35 89 36 31 37 32 38 33 39 83 40 34 41 88 42 82 43 84 44
REMARK SMILES IDX 35 45 87 46 81 47 80 48 36 50 68 51 48 52 67 53 49 54 52 55
REMARK SMILES IDX 66 56 85 57 50 58 51 59 65 61 86 62 53 63 37 64 38 65 46 66
REMARK SMILES IDX 39 67 45 68 47 69 44 70 40 71 41 72 42 73 43 74 69 75 70 76
REMARK SMILES IDX 78 77 71 78 77 79 79 80 76 81 72 82 73 83 74 84 75 85 54 86
REMARK SMILES IDX 55 87 63 88 56 89 62 90 64 91 61 92 57 93 58 94 59 95 60 96
REMARK H PARENT 20 5 25 30 84 49 52 60
REMARK Flexibility Score: inf
ROOT
ATOM      1  C   UNL A   1      34.481  22.275  27.227  1.00  0.00     0.116 C 
ENDROOT
BRANCH   1   2
ATOM      2  N   UNL A   1      34.367  21.048  26.468  1.00  0.00    -0.355 N 
ATOM      3  C   UNL A   1      33.320  20.546  25.754  1.00  0.00     0.240 C 
ATOM      4  O   UNL A   1      33.566  19.626  24.966  1.00  0.00    -0.273 OA
ATOM      5  H   UNL A   1      35.176  20.486  26.467  1.00  0.00     0.163 HD
BRANCH   3   6
ATOM      6  C   UNL A   1      31.936  21.205  25.753  1.00  0.00     0.227 C 
BRANCH   6   7
ATOM      7  N   UNL A   1      31.852  22.501  25.088  1.00  0.00    -0.283 N 
ATOM      8  C   UNL A   1      30.787  25.920  25.486  1.00  0.00     0.033 C 
ATOM      9  C   UNL A   1      31.329  24.793  25.004  1.00  0.00     0.081 C 
ATOM     10  S   UNL A   1      31.832  24.440  23.401  1.00  0.00    -0.054 SA
ATOM     11  C   UNL A   1      31.455  23.583  25.856  1.00  0.00     0.266 C 
ATOM     12  C   UNL A   1      31.979  22.722  23.734  1.00  0.00     0.148 C 
ATOM     13  O   UNL A   1      31.203  23.559  27.053  1.00  0.00    -0.268 OA
ATOM     14  S   UNL A   1      32.216  21.607  22.516  1.00  0.00    -0.052 S 
BRANCH   8  15
ATOM     15  C   UNL A   1      30.354  27.074  24.690  1.00  0.00     0.018 A 
ATOM     16  C   UNL A   1      31.099  28.267  24.626  1.00  0.00     0.127 A 
ATOM     17  C   UNL A   1      30.650  29.347  23.867  1.00  0.00     0.047 A 
ATOM     18  C   UNL A   1      29.487  29.225  23.109  1.00  0.00     0.004 A 
ATOM     19  C   UNL A   1      29.200  26.956  23.905  1.00  0.00     0.012 A 
ATOM     20  C   UNL A   1      28.769  28.028  23.118  1.00  0.00     0.001 A 
BRANCH  16  21
ATOM     21  O   UNL A   1      32.245  28.439  25.365  1.00  0.00    -0.489 OA
BRANCH  21  22
ATOM     22  C   UNL A   1      32.067  29.379  26.430  1.00  0.00     0.257 C 
BRANCH  22  23
ATOM     23  C   UNL A   1      33.336  29.477  27.228  1.00  0.00     0.006 C 
ATOM     24  C   UNL A   1      34.502  28.928  26.865  1.00  0.00     0.007 C 
ENDBRANCH  22  23
ENDBRANCH  21  22
ENDBRANCH  16  21
ENDBRANCH   8  15
ENDBRANCH   6   7
ENDBRANCH   3   6
ENDBRANCH   1   2
BRANCH   1  25
ATOM     25  C   UNL A   1      35.116  23.410  26.428  1.00  0.00     0.023 C 
BRANCH  25  26
ATOM     26  C   UNL A   1      35.696  23.004  25.074  1.00  0.00     0.023 C 
BRANCH  26  27
ATOM     27  C   UNL A   1      37.159  23.364  24.867  1.00  0.00     0.116 C 
BRANCH  27  28
ATOM     28  N   UNL A   1      38.076  22.398  25.451  1.00  0.00    -0.352 N 
ATOM     29  C   UNL A   1      39.143  22.629  26.290  1.00  0.00     0.251 C 
ATOM     30  H   UNL A   1      37.911  21.456  25.217  1.00  0.00     0.163 HD
ATOM     31  O   UNL A   1      39.887  21.711  26.604  1.00  0.00    -0.269 OA
BRANCH  29  32
ATOM     32  C   UNL A   1      39.399  24.008  26.759  1.00  0.00     0.039 A 
ATOM     33  C   UNL A   1      39.036  24.353  28.063  1.00  0.00     0.014 A 
ATOM     34  C   UNL A   1      40.042  24.934  25.934  1.00  0.00     0.014 A 
ATOM     35  C   UNL A   1      39.386  25.609  28.564  1.00  0.00     0.010 A 
ATOM     36  C   UNL A   1      40.456  26.153  26.460  1.00  0.00     0.010 A 
ATOM     37  C   UNL A   1      40.135  26.502  27.780  1.00  0.00    -0.014 A 
BRANCH  37  38
ATOM     38  C   UNL A   1      40.585  27.811  28.318  1.00  0.00     0.031 A 
ATOM     39  C   UNL A   1      42.055  28.100  28.447  1.00  0.00     0.074 A 
ATOM     40  C   UNL A   1      39.674  28.703  28.755  1.00  0.00     0.049 A 
ATOM     41  N   UNL A   1      42.653  29.132  28.983  1.00  0.00    -0.248 NA
ATOM     42  C   UNL A   1      42.972  27.070  27.937  1.00  0.00     0.031 C 
ATOM     43  C   UNL A   1      38.222  28.513  28.726  1.00  0.00     0.029 A 
ATOM     44  N   UNL A   1      39.834  29.942  29.323  1.00  0.00    -0.354 N 
ATOM     45  C   UNL A   1      44.015  28.873  28.884  1.00  0.00     0.074 A 
ATOM     46  C   UNL A   1      44.149  27.555  28.301  1.00  0.00     0.031 C 
ATOM     47  C   UNL A   1      37.626  29.601  29.239  1.00  0.00     0.029 A 
ATOM     48  C   UNL A   1      38.649  30.548  29.670  1.00  0.00     0.049 A 
ATOM     49  H   UNL A   1      40.714  30.358  29.468  1.00  0.00     0.167 HD
ATOM     50  C   UNL A   1      45.058  29.672  29.223  1.00  0.00     0.034 A 
ATOM     51  C   UNL A   1      38.414  31.727  30.281  1.00  0.00     0.034 A 
ATOM     52  C   UNL A   1      44.905  30.987  29.793  1.00  0.00     0.049 A 
ATOM     53  C   UNL A   1      39.588  32.595  30.657  1.00  0.00     0.074 A 
ATOM     54  C   UNL A   1      45.888  31.898  30.139  1.00  0.00     0.029 A 
ATOM     55  N   UNL A   1      43.688  31.579  30.108  1.00  0.00    -0.354 N 
ATOM     56  N   UNL A   1      40.872  32.354  30.517  1.00  0.00    -0.248 NA
ATOM     57  C   UNL A   1      39.281  33.899  31.258  1.00  0.00     0.031 C 
ATOM     58  C   UNL A   1      45.270  33.016  30.711  1.00  0.00     0.029 A 
ATOM     59  C   UNL A   1      43.897  32.834  30.660  1.00  0.00     0.049 A 
ATOM     60  H   UNL A   1      42.806  31.169  29.959  1.00  0.00     0.167 HD
ATOM     61  C   UNL A   1      41.524  33.489  30.989  1.00  0.00     0.074 A 
ATOM     62  C   UNL A   1      40.491  34.420  31.401  1.00  0.00     0.031 C 
ATOM     63  C   UNL A   1      42.854  33.744  31.073  1.00  0.00     0.034 A 
BRANCH  50  64
ATOM     64  C   UNL A   1      46.447  29.125  28.996  1.00  0.00     0.023 A 
ATOM     65  C   UNL A   1      47.008  29.058  27.708  1.00  0.00     0.031 A 
ATOM     66  C   UNL A   1      47.206  28.628  30.071  1.00  0.00     0.131 A 
ATOM     67  C   UNL A   1      48.249  28.433  27.516  1.00  0.00     0.055 A 
ATOM     68  C   UNL A   1      48.478  28.084  29.882  1.00  0.00     0.041 A 
ATOM     69  F   UNL A   1      46.716  28.645  31.320  1.00  0.00    -0.206 F 
ATOM     70  C   UNL A   1      49.001  27.968  28.597  1.00  0.00     0.022 A 
BRANCH  67  71
ATOM     71  S   UNL A   1      48.797  28.104  25.818  1.00  0.00     0.124 S 
ATOM     72  O   UNL A   1      49.963  28.978  25.711  1.00  0.00    -0.237 OA
ATOM     73  O   UNL A   1      49.072  26.672  25.846  1.00  0.00    -0.237 OA
ATOM     74  O   UNL A   1      47.650  28.505  25.005  1.00  0.00    -0.744 OA
ENDBRANCH  67  71
ENDBRANCH  50  64
BRANCH  51  75
ATOM     75  C   UNL A   1      37.020  32.154  30.590  1.00  0.00     0.023 A 
ATOM     76  C   UNL A   1      36.199  32.720  29.602  1.00  0.00     0.031 A 
ATOM     77  C   UNL A   1      36.501  32.037  31.892  1.00  0.00     0.131 A 
ATOM     78  C   UNL A   1      34.921  33.191  29.941  1.00  0.00     0.055 A 
ATOM     79  C   UNL A   1      35.210  32.460  32.213  1.00  0.00     0.041 A 
ATOM     80  F   UNL A   1      37.241  31.493  32.872  1.00  0.00    -0.206 F 
ATOM     81  C   UNL A   1      34.416  33.054  31.235  1.00  0.00     0.022 A 
BRANCH  78  82
ATOM     82  S   UNL A   1      33.954  34.062  28.677  1.00  0.00     0.124 S 
ATOM     83  O   UNL A   1      33.567  32.968  27.792  1.00  0.00    -0.237 OA
ATOM     84  O   UNL A   1      32.883  34.655  29.471  1.00  0.00    -0.237 OA
ATOM     85  O   UNL A   1      34.909  35.012  28.114  1.00  0.00    -0.744 OA
ENDBRANCH  78  82
ENDBRANCH  51  75
BRANCH  63  86
ATOM     86  C   UNL A   1      43.259  35.102  31.591  1.00  0.00     0.023 A 
ATOM     87  C   UNL A   1      43.511  36.179  30.723  1.00  0.00     0.031 A 
ATOM     88  C   UNL A   1      43.404  35.315  32.973  1.00  0.00     0.131 A 
ATOM     89  C   UNL A   1      43.949  37.406  31.244  1.00  0.00     0.055 A 
ATOM     90  C   UNL A   1      43.784  36.554  33.489  1.00  0.00     0.041 A 
ATOM     91  F   UNL A   1      43.176  34.320  33.845  1.00  0.00    -0.206 F 
ATOM     92  C   UNL A   1      44.071  37.604  32.622  1.00  0.00     0.022 A 
BRANCH  89  93
ATOM     93  S   UNL A   1      44.437  38.718  30.090  1.00  0.00     0.124 S 
ATOM     94  O   UNL A   1      43.149  39.306  29.738  1.00  0.00    -0.237 OA
ATOM     95  O   UNL A   1      45.313  39.546  30.912  1.00  0.00    -0.237 OA
ATOM     96  O   UNL A   1      45.104  37.993  29.010  1.00  0.00    -0.744 OA
ENDBRANCH  89  93
ENDBRANCH  63  86
ENDBRANCH  37  38
ENDBRANCH  29  32
ENDBRANCH  27  28
ENDBRANCH  26  27
ENDBRANCH  25  26
ENDBRANCH   1  25
TORSDOF 19
ENDMDL
MODEL 3
REMARK VINA RESULT:     -11.2      2.545      3.147
REMARK SMILES C=CCOc1ccccc1/C=C1\SC(=S)N(CC(=O)NCCCCNC(=O)c2ccc(-c3c4nc(c(-c5cc(S(=O)(=O)[O-])ccc5F)c5ccc([nH]5)c(-c5cc(S(=O)(=O)[O-])ccc5F)c5nc(c(-c6cc(S(=O)(=O)[O-])ccc6F)c6ccc3[nH]6)C=C5)C=C4)cc2)C1=O
REMARK SMILES IDX 21 1 20 2 18 3 19 4 17 6 16 7 11 8 12 9 13 10 91 11 14 12
REMARK SMILES IDX 92 13 15 14 10 15 5 16 6 17 7 18 9 19 8 20 4 21 3 22 2 23
REMARK SMILES IDX 1 24 22 25 23 26 24 27 25 28 26 29 27 31 28 32 29 33 90 34
REMARK SMILES IDX 30 35 89 36 31 37 32 38 33 39 83 40 34 41 88 42 82 43 84 44
REMARK SMILES IDX 35 45 87 46 81 47 80 48 36 50 68 51 48 52 67 53 49 54 52 55
REMARK SMILES IDX 66 56 85 57 50 58 51 59 65 61 86 62 53 63 37 64 38 65 46 66
REMARK SMILES IDX 39 67 45 68 47 69 44 70 40 71 41 72 42 73 43 74 69 75 70 76
REMARK SMILES IDX 78 77 71 78 77 79 79 80 76 81 72 82 73 83 74 84 75 85 54 86
REMARK SMILES IDX 55 87 63 88 56 89 62 90 64 91 61 92 57 93 58 94 59 95 60 96
REMARK H PARENT 20 5 25 30 84 49 52 60
REMARK Flexibility Score: inf
ROOT
ATOM      1  C   UNL A   1      33.681  21.403  25.780  1.00  0.00     0.116 C 
ENDROOT
BRANCH   1   2
ATOM      2  N   UNL A   1      33.175  20.989  24.489  1.00  0.00    -0.355 N 
ATOM      3  C   UNL A   1      32.230  21.557  23.687  1.00  0.00     0.240 C 
ATOM      4  O   UNL A   1      32.181  21.172  22.514  1.00  0.00    -0.273 OA
ATOM      5  H   UNL A   1      33.578  20.164  24.132  1.00  0.00     0.163 HD
BRANCH   3   6
ATOM      6  C   UNL A   1      31.392  22.762  24.133  1.00  0.00     0.227 C 
BRANCH   6   7
ATOM      7  N   UNL A   1      32.133  23.995  24.372  1.00  0.00    -0.283 N 
ATOM      8  C   UNL A   1      32.632  26.692  26.708  1.00  0.00     0.033 C 
ATOM      9  C   UNL A   1      32.749  25.864  25.661  1.00  0.00     0.081 C 
ATOM     10  S   UNL A   1      33.575  26.114  24.177  1.00  0.00    -0.054 SA
ATOM     11  C   UNL A   1      32.015  24.574  25.624  1.00  0.00     0.266 C 
ATOM     12  C   UNL A   1      32.816  24.722  23.422  1.00  0.00     0.148 C 
ATOM     13  O   UNL A   1      31.372  24.125  26.564  1.00  0.00    -0.268 OA
ATOM     14  S   UNL A   1      32.949  24.429  21.785  1.00  0.00    -0.052 S 
BRANCH   8  15
ATOM     15  C   UNL A   1      33.070  28.093  26.749  1.00  0.00     0.018 A 
ATOM     16  C   UNL A   1      32.290  29.140  26.223  1.00  0.00     0.127 A 
ATOM     17  C   UNL A   1      32.743  30.459  26.271  1.00  0.00     0.047 A 
ATOM     18  C   UNL A   1      33.949  30.754  26.905  1.00  0.00     0.004 A 
ATOM     19  C   UNL A   1      34.267  28.405  27.403  1.00  0.00     0.012 A 
ATOM     20  C   UNL A   1      34.705  29.731  27.480  1.00  0.00     0.001 A 
BRANCH  16  21
ATOM     21  O   UNL A   1      31.100  28.899  25.580  1.00  0.00    -0.489 OA
BRANCH  21  22
ATOM     22  C   UNL A   1      30.889  29.790  24.480  1.00  0.00     0.257 C 
BRANCH  22  23
ATOM     23  C   UNL A   1      30.959  29.021  23.191  1.00  0.00     0.006 C 
ATOM     24  C   UNL A   1      30.128  29.200  22.156  1.00  0.00     0.007 C 
ENDBRANCH  22  23
ENDBRANCH  21  22
ENDBRANCH  16  21
ENDBRANCH   8  15
ENDBRANCH   6   7
ENDBRANCH   3   6
ENDBRANCH   1   2
BRANCH   1  25
ATOM     25  C   UNL A   1      35.164  21.764  25.747  1.00  0.00     0.023 C 
BRANCH  25  26
ATOM     26  C   UNL A   1      35.466  23.255  25.614  1.00  0.00     0.023 C 
BRANCH  26  27
ATOM     27  C   UNL A   1      36.854  23.674  26.073  1.00  0.00     0.116 C 
BRANCH  27  28
ATOM     28  N   UNL A   1      37.810  22.577  26.086  1.00  0.00    -0.352 N 
ATOM     29  C   UNL A   1      39.151  22.614  26.396  1.00  0.00     0.251 C 
ATOM     30  H   UNL A   1      37.450  21.694  25.842  1.00  0.00     0.163 HD
ATOM     31  O   UNL A   1      39.842  21.616  26.249  1.00  0.00    -0.269 OA
BRANCH  29  32
ATOM     32  C   UNL A   1      39.744  23.887  26.859  1.00  0.00     0.039 A 
ATOM     33  C   UNL A   1      40.099  24.848  25.909  1.00  0.00     0.014 A 
ATOM     34  C   UNL A   1      39.897  24.148  28.222  1.00  0.00     0.014 A 
ATOM     35  C   UNL A   1      40.540  26.104  26.334  1.00  0.00     0.010 A 
ATOM     36  C   UNL A   1      40.263  25.423  28.642  1.00  0.00     0.010 A 
ATOM     37  C   UNL A   1      40.586  26.413  27.703  1.00  0.00    -0.014 A 
BRANCH  37  38
ATOM     38  C   UNL A   1      40.977  27.766  28.176  1.00  0.00     0.031 A 
ATOM     39  C   UNL A   1      42.433  28.116  28.312  1.00  0.00     0.074 A 
ATOM     40  C   UNL A   1      40.027  28.644  28.550  1.00  0.00     0.049 A 
ATOM     41  N   UNL A   1      42.983  29.197  28.801  1.00  0.00    -0.248 NA
ATOM     42  C   UNL A   1      43.397  27.096  27.873  1.00  0.00     0.031 C 
ATOM     43  C   UNL A   1      38.583  28.398  28.509  1.00  0.00     0.029 A 
ATOM     44  N   UNL A   1      40.131  29.917  29.054  1.00  0.00    -0.354 N 
ATOM     45  C   UNL A   1      44.355  28.985  28.737  1.00  0.00     0.074 A 
ATOM     46  C   UNL A   1      44.549  27.644  28.228  1.00  0.00     0.031 C 
ATOM     47  C   UNL A   1      37.939  29.489  28.953  1.00  0.00     0.029 A 
ATOM     48  C   UNL A   1      38.918  30.496  29.349  1.00  0.00     0.049 A 
ATOM     49  H   UNL A   1      40.992  30.373  29.189  1.00  0.00     0.167 HD
ATOM     50  C   UNL A   1      45.363  29.839  29.049  1.00  0.00     0.034 A 
ATOM     51  C   UNL A   1      38.630  31.695  29.891  1.00  0.00     0.034 A 
ATOM     52  C   UNL A   1      45.151  31.176  29.546  1.00  0.00     0.049 A 
ATOM     53  C   UNL A   1      39.764  32.626  30.238  1.00  0.00     0.074 A 
ATOM     54  C   UNL A   1      46.093  32.141  29.857  1.00  0.00     0.029 A 
ATOM     55  N   UNL A   1      43.907  31.738  29.808  1.00  0.00    -0.354 N 
ATOM     56  N   UNL A   1      41.058  32.427  30.132  1.00  0.00    -0.248 NA
ATOM     57  C   UNL A   1      39.399  33.948  30.764  1.00  0.00     0.031 C 
ATOM     58  C   UNL A   1      45.424  33.264  30.358  1.00  0.00     0.029 A 
ATOM     59  C   UNL A   1      44.060  33.027  30.296  1.00  0.00     0.049 A 
ATOM     60  H   UNL A   1      43.044  31.287  29.668  1.00  0.00     0.167 HD
ATOM     61  C   UNL A   1      41.659  33.609  30.552  1.00  0.00     0.074 A 
ATOM     62  C   UNL A   1      40.586  34.520  30.897  1.00  0.00     0.031 C 
ATOM     63  C   UNL A   1      42.977  33.918  30.643  1.00  0.00     0.034 A 
BRANCH  50  64
ATOM     64  C   UNL A   1      46.775  29.334  28.874  1.00  0.00     0.023 A 
ATOM     65  C   UNL A   1      47.332  29.141  27.597  1.00  0.00     0.031 A 
ATOM     66  C   UNL A   1      47.561  29.003  29.991  1.00  0.00     0.131 A 
ATOM     67  C   UNL A   1      48.600  28.555  27.466  1.00  0.00     0.055 A 
ATOM     68  C   UNL A   1      48.857  28.500  29.855  1.00  0.00     0.041 A 
ATOM     69  F   UNL A   1      47.077  29.146  31.235  1.00  0.00    -0.206 F 
ATOM     70  C   UNL A   1      49.378  28.257  28.587  1.00  0.00     0.022 A 
BRANCH  67  71
ATOM     71  S   UNL A   1      49.153  28.053  25.814  1.00  0.00     0.124 S 
ATOM     72  O   UNL A   1      47.955  28.301  25.015  1.00  0.00    -0.237 OA
ATOM     73  O   UNL A   1      50.279  28.949  25.572  1.00  0.00    -0.237 OA
ATOM     74  O   UNL A   1      49.501  26.644  25.982  1.00  0.00    -0.744 OA
ENDBRANCH  67  71
ENDBRANCH  50  64
BRANCH  51  75
ATOM     75  C   UNL A   1      37.215  32.085  30.155  1.00  0.00     0.023 A 
ATOM     76  C   UNL A   1      36.477  32.817  29.213  1.00  0.00     0.031 A 
ATOM     77  C   UNL A   1      36.593  31.762  31.375  1.00  0.00     0.131 A 
ATOM     78  C   UNL A   1      35.176  33.244  29.522  1.00  0.00     0.055 A 
ATOM     79  C   UNL A   1      35.281  32.145  31.658  1.00  0.00     0.041 A 
ATOM     80  F   UNL A   1      37.252  31.055  32.307  1.00  0.00    -0.206 F 
ATOM     81  C   UNL A   1      34.569  32.904  30.732  1.00  0.00     0.022 A 
BRANCH  78  82
ATOM     82  S   UNL A   1      34.315  34.325  28.347  1.00  0.00     0.124 S 
ATOM     83  O   UNL A   1      35.258  34.366  27.234  1.00  0.00    -0.237 OA
ATOM     84  O   UNL A   1      33.076  33.590  28.112  1.00  0.00    -0.237 OA
ATOM     85  O   UNL A   1      34.164  35.577  29.084  1.00  0.00    -0.744 OA
ENDBRANCH  78  82
ENDBRANCH  51  75
BRANCH  63  86
ATOM     86  C   UNL A   1      43.323  35.316  31.093  1.00  0.00     0.023 A 
ATOM     87  C   UNL A   1      43.333  35.675  32.452  1.00  0.00     0.031 A 
ATOM     88  C   UNL A   1      43.635  36.305  30.143  1.00  0.00     0.131 A 
ATOM     89  C   UNL A   1      43.596  37.003  32.820  1.00  0.00     0.055 A 
ATOM     90  C   UNL A   1      43.952  37.610  30.519  1.00  0.00     0.041 A 
ATOM     91  F   UNL A   1      43.639  36.016  28.832  1.00  0.00    -0.206 F 
ATOM     92  C   UNL A   1      43.921  37.968  31.864  1.00  0.00     0.022 A 
BRANCH  89  93
ATOM     93  S   UNL A   1      43.426  37.473  34.564  1.00  0.00     0.124 S 
ATOM     94  O   UNL A   1      42.276  36.676  34.982  1.00  0.00    -0.237 OA
ATOM     95  O   UNL A   1      44.714  37.074  35.122  1.00  0.00    -0.237 OA
ATOM     96  O   UNL A   1      43.194  38.915  34.510  1.00  0.00    -0.744 OA
ENDBRANCH  89  93
ENDBRANCH  63  86
ENDBRANCH  37  38
ENDBRANCH  29  32
ENDBRANCH  27  28
ENDBRANCH  26  27
ENDBRANCH  25  26
ENDBRANCH   1  25
TORSDOF 19
ENDMDL
