MODEL 1
REMARK VINA RESULT:     -10.7      0.000      0.000
REMARK SMILES CCc1cccc(-c2ccc([C@@H](C)C(=O)NCCCCNC(=O)c3ccc(-c4c5nc(c(-c6cc(S(=O)(=O)[O-])ccc6F)c6ccc([nH]6)c(-c6cc(S(=O)(=O)[O-])ccc6F)c6nc(c(-c7cc(S(=O)(=O)[O-])ccc7F)c7ccc4[nH]7)C=C6)C=C5)cc3)cc2)c1
REMARK SMILES IDX 18 1 17 2 16 3 14 4 15 5 12 7 13 8 11 9 8 10 9 11 88 12
REMARK SMILES IDX 10 13 87 14 7 15 3 16 4 17 89 18 5 19 6 20 2 21 1 22 19 23
REMARK SMILES IDX 20 24 21 25 22 26 23 28 24 29 25 30 86 31 26 32 85 33 27 34
REMARK SMILES IDX 28 35 29 36 79 37 30 38 84 39 78 40 80 41 31 42 83 43 77 44
REMARK SMILES IDX 76 45 32 47 64 48 44 49 63 50 45 51 48 52 62 53 81 54 46 55
REMARK SMILES IDX 47 56 61 58 82 59 49 60 33 61 34 62 42 63 35 64 41 65 43 66
REMARK SMILES IDX 40 67 36 68 37 69 38 70 39 71 65 72 66 73 74 74 67 75 73 76
REMARK SMILES IDX 75 77 72 78 68 79 69 80 70 81 71 82 50 83 51 84 59 85 52 86
REMARK SMILES IDX 58 87 60 88 57 89 53 90 54 91 55 92 56 93
REMARK H PARENT 16 6 21 27 80 46 48 57
REMARK Flexibility Score: inf
ROOT
ATOM      1  C   UNL A   1      42.358  19.528  26.669  1.00  0.00     0.023 C 
ENDROOT
BRANCH   1   2
ATOM      2  C   UNL A   1      43.098  19.281  25.354  1.00  0.00     0.116 C 
BRANCH   2   3
ATOM      3  N   UNL A   1      44.442  19.822  25.373  1.00  0.00    -0.356 N 
ATOM      4  C   UNL A   1      44.895  21.103  25.457  1.00  0.00     0.227 C 
ATOM      5  O   UNL A   1      46.119  21.265  25.377  1.00  0.00    -0.274 OA
ATOM      6  H   UNL A   1      45.153  19.144  25.315  1.00  0.00     0.163 HD
BRANCH   4   7
ATOM      7  C   UNL A   1      43.979  22.320  25.662  1.00  0.00     0.105 C 
ATOM      8  C   UNL A   1      44.009  23.318  24.504  1.00  0.00     0.023 C 
BRANCH   7   9
ATOM      9  C   UNL A   1      44.051  22.914  27.061  1.00  0.00    -0.036 A 
ATOM     10  C   UNL A   1      44.114  23.885  29.761  1.00  0.00    -0.018 A 
ATOM     11  C   UNL A   1      45.276  23.782  28.976  1.00  0.00     0.009 A 
ATOM     12  C   UNL A   1      42.913  23.509  29.140  1.00  0.00     0.009 A 
ATOM     13  C   UNL A   1      45.241  23.344  27.646  1.00  0.00     0.005 A 
ATOM     14  C   UNL A   1      42.882  23.012  27.828  1.00  0.00     0.005 A 
BRANCH  10  15
ATOM     15  C   UNL A   1      44.168  24.366  31.169  1.00  0.00    -0.018 A 
ATOM     16  C   UNL A   1      44.057  23.939  33.601  1.00  0.00    -0.048 A 
ATOM     17  C   UNL A   1      44.279  25.300  33.840  1.00  0.00     0.004 A 
ATOM     18  C   UNL A   1      44.010  23.492  32.267  1.00  0.00     0.012 A 
ATOM     19  C   UNL A   1      44.449  26.186  32.783  1.00  0.00     0.001 A 
ATOM     20  C   UNL A   1      44.382  25.725  31.468  1.00  0.00     0.009 A 
BRANCH  16  21
ATOM     21  C   UNL A   1      43.810  23.038  34.790  1.00  0.00     0.032 C 
ATOM     22  C   UNL A   1      45.016  22.297  35.352  1.00  0.00     0.009 C 
ENDBRANCH  16  21
ENDBRANCH  10  15
ENDBRANCH   7   9
ENDBRANCH   4   7
ENDBRANCH   2   3
ENDBRANCH   1   2
BRANCH   1  23
ATOM     23  C   UNL A   1      40.878  19.874  26.522  1.00  0.00     0.023 C 
BRANCH  23  24
ATOM     24  C   UNL A   1      40.576  21.335  26.208  1.00  0.00     0.116 C 
BRANCH  24  25
ATOM     25  N   UNL A   1      39.182  21.596  25.878  1.00  0.00    -0.352 N 
ATOM     26  C   UNL A   1      38.467  22.760  26.063  1.00  0.00     0.251 C 
ATOM     27  H   UNL A   1      38.689  20.848  25.470  1.00  0.00     0.163 HD
ATOM     28  O   UNL A   1      37.273  22.798  25.805  1.00  0.00    -0.269 OA
BRANCH  26  29
ATOM     29  C   UNL A   1      39.159  23.938  26.633  1.00  0.00     0.039 A 
ATOM     30  C   UNL A   1      39.886  24.771  25.780  1.00  0.00     0.014 A 
ATOM     31  C   UNL A   1      39.024  24.256  27.986  1.00  0.00     0.014 A 
ATOM     32  C   UNL A   1      40.408  25.970  26.269  1.00  0.00     0.010 A 
ATOM     33  C   UNL A   1      39.478  25.486  28.452  1.00  0.00     0.010 A 
ATOM     34  C   UNL A   1      40.167  26.359  27.596  1.00  0.00    -0.014 A 
BRANCH  34  35
ATOM     35  C   UNL A   1      40.624  27.674  28.116  1.00  0.00     0.031 A 
ATOM     36  C   UNL A   1      42.094  27.955  28.257  1.00  0.00     0.074 A 
ATOM     37  C   UNL A   1      39.717  28.577  28.541  1.00  0.00     0.049 A 
ATOM     38  N   UNL A   1      42.694  28.990  28.783  1.00  0.00    -0.248 NA
ATOM     39  C   UNL A   1      43.008  26.907  27.778  1.00  0.00     0.031 C 
ATOM     40  C   UNL A   1      38.263  28.397  28.508  1.00  0.00     0.029 A 
ATOM     41  N   UNL A   1      39.883  29.820  29.097  1.00  0.00    -0.354 N 
ATOM     42  C   UNL A   1      44.056  28.711  28.717  1.00  0.00     0.074 A 
ATOM     43  C   UNL A   1      44.183  27.380  28.162  1.00  0.00     0.031 C 
ATOM     44  C   UNL A   1      37.672  29.498  28.998  1.00  0.00     0.029 A 
ATOM     45  C   UNL A   1      38.700  30.444  29.419  1.00  0.00     0.049 A 
ATOM     46  H   UNL A   1      40.766  30.227  29.251  1.00  0.00     0.167 HD
ATOM     47  C   UNL A   1      45.103  29.502  29.063  1.00  0.00     0.034 A 
ATOM     48  C   UNL A   1      38.471  31.641  29.996  1.00  0.00     0.034 A 
ATOM     49  C   UNL A   1      44.957  30.835  29.596  1.00  0.00     0.049 A 
ATOM     50  C   UNL A   1      39.647  32.505  30.372  1.00  0.00     0.074 A 
ATOM     51  C   UNL A   1      45.943  31.749  29.921  1.00  0.00     0.029 A 
ATOM     52  N   UNL A   1      43.742  31.444  29.889  1.00  0.00    -0.354 N 
ATOM     53  N   UNL A   1      40.930  32.250  30.253  1.00  0.00    -0.248 NA
ATOM     54  C   UNL A   1      39.343  33.820  30.947  1.00  0.00     0.031 C 
ATOM     55  C   UNL A   1      45.330  32.885  30.461  1.00  0.00     0.029 A 
ATOM     56  C   UNL A   1      43.956  32.710  30.413  1.00  0.00     0.049 A 
ATOM     57  H   UNL A   1      42.857  31.035  29.745  1.00  0.00     0.167 HD
ATOM     58  C   UNL A   1      41.586  33.387  30.715  1.00  0.00     0.074 A 
ATOM     59  C   UNL A   1      40.556  34.331  31.102  1.00  0.00     0.031 C 
ATOM     60  C   UNL A   1      42.918  33.632  30.807  1.00  0.00     0.034 A 
BRANCH  47  61
ATOM     61  C   UNL A   1      46.488  28.924  28.891  1.00  0.00     0.023 A 
ATOM     62  C   UNL A   1      47.126  28.899  27.638  1.00  0.00     0.031 A 
ATOM     63  C   UNL A   1      47.159  28.339  29.980  1.00  0.00     0.131 A 
ATOM     64  C   UNL A   1      48.344  28.219  27.483  1.00  0.00     0.055 A 
ATOM     65  C   UNL A   1      48.414  27.743  29.837  1.00  0.00     0.041 A 
ATOM     66  F   UNL A   1      46.595  28.314  31.198  1.00  0.00    -0.206 F 
ATOM     67  C   UNL A   1      49.004  27.662  28.579  1.00  0.00     0.022 A 
BRANCH  64  68
ATOM     68  S   UNL A   1      48.960  27.927  25.803  1.00  0.00     0.124 S 
ATOM     69  O   UNL A   1      50.041  28.906  25.712  1.00  0.00    -0.237 OA
ATOM     70  O   UNL A   1      49.368  26.527  25.856  1.00  0.00    -0.237 OA
ATOM     71  O   UNL A   1      47.802  28.208  24.958  1.00  0.00    -0.744 OA
ENDBRANCH  64  68
ENDBRANCH  47  61
BRANCH  48  72
ATOM     72  C   UNL A   1      37.076  32.098  30.254  1.00  0.00     0.023 A 
ATOM     73  C   UNL A   1      36.354  32.795  29.274  1.00  0.00     0.031 A 
ATOM     74  C   UNL A   1      36.456  31.867  31.494  1.00  0.00     0.131 A 
ATOM     75  C   UNL A   1      35.066  33.274  29.562  1.00  0.00     0.055 A 
ATOM     76  C   UNL A   1      35.158  32.307  31.761  1.00  0.00     0.041 A 
ATOM     77  F   UNL A   1      37.102  31.196  32.462  1.00  0.00    -0.206 F 
ATOM     78  C   UNL A   1      34.460  33.025  30.796  1.00  0.00     0.022 A 
BRANCH  75  79
ATOM     79  S   UNL A   1      34.217  34.285  28.319  1.00  0.00     0.124 S 
ATOM     80  O   UNL A   1      33.982  35.524  29.052  1.00  0.00    -0.237 OA
ATOM     81  O   UNL A   1      35.209  34.349  27.251  1.00  0.00    -0.237 OA
ATOM     82  O   UNL A   1      33.020  33.506  28.007  1.00  0.00    -0.744 OA
ENDBRANCH  75  79
ENDBRANCH  48  72
BRANCH  60  83
ATOM     83  C   UNL A   1      43.327  34.994  31.308  1.00  0.00     0.023 A 
ATOM     84  C   UNL A   1      43.506  36.080  30.433  1.00  0.00     0.031 A 
ATOM     85  C   UNL A   1      43.552  35.203  32.680  1.00  0.00     0.131 A 
ATOM     86  C   UNL A   1      43.949  37.314  30.934  1.00  0.00     0.055 A 
ATOM     87  C   UNL A   1      43.939  36.448  33.179  1.00  0.00     0.041 A 
ATOM     88  F   UNL A   1      43.396  34.200  33.558  1.00  0.00    -0.206 F 
ATOM     89  C   UNL A   1      44.152  37.508  32.302  1.00  0.00     0.022 A 
BRANCH  86  90
ATOM     90  S   UNL A   1      44.338  38.642  29.761  1.00  0.00     0.124 S 
ATOM     91  O   UNL A   1      43.510  39.736  30.257  1.00  0.00    -0.237 OA
ATOM     92  O   UNL A   1      45.778  38.802  29.937  1.00  0.00    -0.237 OA
ATOM     93  O   UNL A   1      43.930  38.091  28.470  1.00  0.00    -0.744 OA
ENDBRANCH  86  90
ENDBRANCH  60  83
ENDBRANCH  34  35
ENDBRANCH  26  29
ENDBRANCH  24  25
ENDBRANCH  23  24
ENDBRANCH   1  23
TORSDOF 17
ENDMDL
MODEL 2
REMARK VINA RESULT:     -10.4      5.122     11.278
REMARK SMILES CCc1cccc(-c2ccc([C@@H](C)C(=O)NCCCCNC(=O)c3ccc(-c4c5nc(c(-c6cc(S(=O)(=O)[O-])ccc6F)c6ccc([nH]6)c(-c6cc(S(=O)(=O)[O-])ccc6F)c6nc(c(-c7cc(S(=O)(=O)[O-])ccc7F)c7ccc4[nH]7)C=C6)C=C5)cc3)cc2)c1
REMARK SMILES IDX 18 1 17 2 16 3 14 4 15 5 12 7 13 8 11 9 8 10 9 11 88 12
REMARK SMILES IDX 10 13 87 14 7 15 3 16 4 17 89 18 5 19 6 20 2 21 1 22 19 23
REMARK SMILES IDX 20 24 21 25 22 26 23 28 24 29 25 30 86 31 26 32 85 33 27 34
REMARK SMILES IDX 28 35 29 36 79 37 30 38 84 39 78 40 80 41 31 42 83 43 77 44
REMARK SMILES IDX 76 45 32 47 64 48 44 49 63 50 45 51 48 52 62 53 81 54 46 55
REMARK SMILES IDX 47 56 61 58 82 59 49 60 33 61 34 62 42 63 35 64 41 65 43 66
REMARK SMILES IDX 40 67 36 68 37 69 38 70 39 71 65 72 66 73 74 74 67 75 73 76
REMARK SMILES IDX 75 77 72 78 68 79 69 80 70 81 71 82 50 83 51 84 59 85 52 86
REMARK SMILES IDX 58 87 60 88 57 89 53 90 54 91 55 92 56 93
REMARK H PARENT 16 6 21 27 80 46 48 57
REMARK Flexibility Score: inf
ROOT
ATOM      1  C   UNL A   1      32.598  29.701  25.006  1.00  0.00     0.023 C 
ENDROOT
BRANCH   1   2
ATOM      2  C   UNL A   1      31.079  29.795  24.872  1.00  0.00     0.116 C 
BRANCH   2   3
ATOM      3  N   UNL A   1      30.664  30.048  23.507  1.00  0.00    -0.356 N 
ATOM      4  C   UNL A   1      30.067  29.245  22.585  1.00  0.00     0.227 C 
ATOM      5  O   UNL A   1      29.895  29.725  21.458  1.00  0.00    -0.274 OA
ATOM      6  H   UNL A   1      30.846  30.962  23.191  1.00  0.00     0.163 HD
BRANCH   4   7
ATOM      7  C   UNL A   1      29.590  27.813  22.881  1.00  0.00     0.105 C 
ATOM      8  C   UNL A   1      28.204  27.745  23.522  1.00  0.00     0.023 C 
BRANCH   7   9
ATOM      9  C   UNL A   1      30.660  26.926  23.499  1.00  0.00    -0.036 A 
ATOM     10  C   UNL A   1      32.558  25.121  24.672  1.00  0.00    -0.018 A 
ATOM     11  C   UNL A   1      32.787  25.746  23.434  1.00  0.00     0.009 A 
ATOM     12  C   UNL A   1      31.356  25.450  25.319  1.00  0.00     0.009 A 
ATOM     13  C   UNL A   1      31.879  26.656  22.878  1.00  0.00     0.005 A 
ATOM     14  C   UNL A   1      30.417  26.314  24.736  1.00  0.00     0.005 A 
BRANCH  10  15
ATOM     15  C   UNL A   1      33.542  24.167  25.255  1.00  0.00    -0.018 A 
ATOM     16  C   UNL A   1      35.683  22.937  25.140  1.00  0.00    -0.048 A 
ATOM     17  C   UNL A   1      35.404  22.355  26.382  1.00  0.00     0.004 A 
ATOM     18  C   UNL A   1      34.748  23.839  24.597  1.00  0.00     0.012 A 
ATOM     19  C   UNL A   1      34.231  22.663  27.060  1.00  0.00     0.001 A 
ATOM     20  C   UNL A   1      33.310  23.548  26.497  1.00  0.00     0.009 A 
BRANCH  16  21
ATOM     21  C   UNL A   1      36.941  22.508  24.418  1.00  0.00     0.032 C 
ATOM     22  C   UNL A   1      37.413  21.079  24.653  1.00  0.00     0.009 C 
ENDBRANCH  16  21
ENDBRANCH  10  15
ENDBRANCH   7   9
ENDBRANCH   4   7
ENDBRANCH   2   3
ENDBRANCH   1   2
BRANCH   1  23
ATOM     23  C   UNL A   1      33.099  28.577  25.911  1.00  0.00     0.023 C 
BRANCH  23  24
ATOM     24  C   UNL A   1      33.329  28.965  27.367  1.00  0.00     0.116 C 
BRANCH  24  25
ATOM     25  N   UNL A   1      33.457  30.398  27.588  1.00  0.00    -0.352 N 
ATOM     26  C   UNL A   1      34.538  31.088  28.094  1.00  0.00     0.251 C 
ATOM     27  H   UNL A   1      32.674  30.942  27.343  1.00  0.00     0.163 HD
ATOM     28  O   UNL A   1      34.462  32.292  28.294  1.00  0.00    -0.269 OA
BRANCH  26  29
ATOM     29  C   UNL A   1      35.764  30.336  28.442  1.00  0.00     0.039 A 
ATOM     30  C   UNL A   1      36.840  30.350  27.552  1.00  0.00     0.014 A 
ATOM     31  C   UNL A   1      35.874  29.687  29.674  1.00  0.00     0.014 A 
ATOM     32  C   UNL A   1      38.057  29.783  27.934  1.00  0.00     0.010 A 
ATOM     33  C   UNL A   1      37.108  29.192  30.082  1.00  0.00     0.010 A 
ATOM     34  C   UNL A   1      38.214  29.242  29.220  1.00  0.00    -0.014 A 
BRANCH  34  35
ATOM     35  C   UNL A   1      39.525  28.724  29.690  1.00  0.00     0.031 A 
ATOM     36  C   UNL A   1      40.270  29.445  30.778  1.00  0.00     0.074 A 
ATOM     37  C   UNL A   1      40.081  27.658  29.079  1.00  0.00     0.049 A 
ATOM     38  N   UNL A   1      41.466  29.219  31.256  1.00  0.00    -0.248 NA
ATOM     39  C   UNL A   1      39.591  30.604  31.378  1.00  0.00     0.031 C 
ATOM     40  C   UNL A   1      39.480  26.907  27.974  1.00  0.00     0.029 A 
ATOM     41  N   UNL A   1      41.281  27.029  29.291  1.00  0.00    -0.354 N 
ATOM     42  C   UNL A   1      41.692  30.217  32.198  1.00  0.00     0.074 A 
ATOM     43  C   UNL A   1      40.534  31.086  32.171  1.00  0.00     0.031 C 
ATOM     44  C   UNL A   1      40.304  25.907  27.622  1.00  0.00     0.029 A 
ATOM     45  C   UNL A   1      41.507  25.968  28.445  1.00  0.00     0.049 A 
ATOM     46  H   UNL A   1      41.922  27.311  29.984  1.00  0.00     0.167 HD
ATOM     47  C   UNL A   1      42.754  30.380  33.027  1.00  0.00     0.034 A 
ATOM     48  C   UNL A   1      42.568  25.144  28.339  1.00  0.00     0.034 A 
ATOM     49  C   UNL A   1      43.890  29.491  33.053  1.00  0.00     0.049 A 
ATOM     50  C   UNL A   1      43.737  25.339  29.269  1.00  0.00     0.074 A 
ATOM     51  C   UNL A   1      44.991  29.519  33.892  1.00  0.00     0.029 A 
ATOM     52  N   UNL A   1      44.075  28.413  32.196  1.00  0.00    -0.354 N 
ATOM     53  N   UNL A   1      43.913  26.256  30.193  1.00  0.00    -0.248 NA
ATOM     54  C   UNL A   1      44.844  24.383  29.149  1.00  0.00     0.031 C 
ATOM     55  C   UNL A   1      45.865  28.496  33.506  1.00  0.00     0.029 A 
ATOM     56  C   UNL A   1      45.281  27.786  32.469  1.00  0.00     0.049 A 
ATOM     57  H   UNL A   1      43.441  28.134  31.496  1.00  0.00     0.167 HD
ATOM     58  C   UNL A   1      45.140  25.968  30.783  1.00  0.00     0.074 A 
ATOM     59  C   UNL A   1      45.653  24.786  30.118  1.00  0.00     0.031 C 
ATOM     60  C   UNL A   1      45.784  26.617  31.787  1.00  0.00     0.034 A 
BRANCH  47  61
ATOM     61  C   UNL A   1      42.732  31.577  33.948  1.00  0.00     0.023 A 
ATOM     62  C   UNL A   1      42.248  31.484  35.266  1.00  0.00     0.031 A 
ATOM     63  C   UNL A   1      43.146  32.840  33.489  1.00  0.00     0.131 A 
ATOM     64  C   UNL A   1      42.098  32.643  36.042  1.00  0.00     0.055 A 
ATOM     65  C   UNL A   1      43.080  33.976  34.299  1.00  0.00     0.041 A 
ATOM     66  F   UNL A   1      43.601  32.998  32.235  1.00  0.00    -0.206 F 
ATOM     67  C   UNL A   1      42.534  33.885  35.577  1.00  0.00     0.022 A 
BRANCH  64  68
ATOM     68  S   UNL A   1      41.169  32.527  37.595  1.00  0.00     0.124 S 
ATOM     69  O   UNL A   1      42.031  31.655  38.388  1.00  0.00    -0.237 OA
ATOM     70  O   UNL A   1      41.098  33.919  38.025  1.00  0.00    -0.237 OA
ATOM     71  O   UNL A   1      39.897  31.933  37.190  1.00  0.00    -0.744 OA
ENDBRANCH  64  68
ENDBRANCH  47  61
BRANCH  48  72
ATOM     72  C   UNL A   1      42.579  24.058  27.318  1.00  0.00     0.023 A 
ATOM     73  C   UNL A   1      41.965  22.823  27.575  1.00  0.00     0.031 A 
ATOM     74  C   UNL A   1      43.227  24.230  26.083  1.00  0.00     0.131 A 
ATOM     75  C   UNL A   1      42.045  21.791  26.626  1.00  0.00     0.055 A 
ATOM     76  C   UNL A   1      43.265  23.216  25.124  1.00  0.00     0.041 A 
ATOM     77  F   UNL A   1      43.821  25.397  25.785  1.00  0.00    -0.206 F 
ATOM     78  C   UNL A   1      42.682  21.983  25.398  1.00  0.00     0.022 A 
BRANCH  75  79
ATOM     79  S   UNL A   1      41.355  20.167  27.048  1.00  0.00     0.124 S 
ATOM     80  O   UNL A   1      42.540  19.317  26.995  1.00  0.00    -0.237 OA
ATOM     81  O   UNL A   1      40.798  20.410  28.375  1.00  0.00    -0.237 OA
ATOM     82  O   UNL A   1      40.370  19.932  25.995  1.00  0.00    -0.744 OA
ENDBRANCH  75  79
ENDBRANCH  48  72
BRANCH  60  83
ATOM     83  C   UNL A   1      47.093  26.029  32.249  1.00  0.00     0.023 A 
ATOM     84  C   UNL A   1      48.305  26.326  31.604  1.00  0.00     0.031 A 
ATOM     85  C   UNL A   1      47.121  25.148  33.345  1.00  0.00     0.131 A 
ATOM     86  C   UNL A   1      49.492  25.705  32.027  1.00  0.00     0.055 A 
ATOM     87  C   UNL A   1      48.313  24.578  33.796  1.00  0.00     0.041 A 
ATOM     88  F   UNL A   1      45.992  24.831  33.996  1.00  0.00    -0.206 F 
ATOM     89  C   UNL A   1      49.504  24.846  33.129  1.00  0.00     0.022 A 
BRANCH  86  90
ATOM     90  S   UNL A   1      51.006  25.973  31.067  1.00  0.00     0.124 S 
ATOM     91  O   UNL A   1      50.568  25.652  29.712  1.00  0.00    -0.237 OA
ATOM     92  O   UNL A   1      51.296  27.380  31.326  1.00  0.00    -0.237 OA
ATOM     93  O   UNL A   1      51.955  25.028  31.651  1.00  0.00    -0.744 OA
ENDBRANCH  86  90
ENDBRANCH  60  83
ENDBRANCH  34  35
ENDBRANCH  26  29
ENDBRANCH  24  25
ENDBRANCH  23  24
ENDBRANCH   1  23
TORSDOF 17
ENDMDL
MODEL 3
REMARK VINA RESULT:     -10.1      3.614      7.164
REMARK SMILES CCc1cccc(-c2ccc([C@@H](C)C(=O)NCCCCNC(=O)c3ccc(-c4c5nc(c(-c6cc(S(=O)(=O)[O-])ccc6F)c6ccc([nH]6)c(-c6cc(S(=O)(=O)[O-])ccc6F)c6nc(c(-c7cc(S(=O)(=O)[O-])ccc7F)c7ccc4[nH]7)C=C6)C=C5)cc3)cc2)c1
REMARK SMILES IDX 18 1 17 2 16 3 14 4 15 5 12 7 13 8 11 9 8 10 9 11 88 12
REMARK SMILES IDX 10 13 87 14 7 15 3 16 4 17 89 18 5 19 6 20 2 21 1 22 19 23
REMARK SMILES IDX 20 24 21 25 22 26 23 28 24 29 25 30 86 31 26 32 85 33 27 34
REMARK SMILES IDX 28 35 29 36 79 37 30 38 84 39 78 40 80 41 31 42 83 43 77 44
REMARK SMILES IDX 76 45 32 47 64 48 44 49 63 50 45 51 48 52 62 53 81 54 46 55
REMARK SMILES IDX 47 56 61 58 82 59 49 60 33 61 34 62 42 63 35 64 41 65 43 66
REMARK SMILES IDX 40 67 36 68 37 69 38 70 39 71 65 72 66 73 74 74 67 75 73 76
REMARK SMILES IDX 75 77 72 78 68 79 69 80 70 81 71 82 50 83 51 84 59 85 52 86
REMARK SMILES IDX 58 87 60 88 57 89 53 90 54 91 55 92 56 93
REMARK H PARENT 16 6 21 27 80 46 48 57
REMARK Flexibility Score: inf
ROOT
ATOM      1  C   UNL A   1      36.175  22.599  23.870  1.00  0.00     0.023 C 
ENDROOT
BRANCH   1   2
ATOM      2  C   UNL A   1      34.714  22.698  23.433  1.00  0.00     0.116 C 
BRANCH   2   3
ATOM      3  N   UNL A   1      33.884  21.695  24.070  1.00  0.00    -0.356 N 
ATOM      4  C   UNL A   1      33.363  21.624  25.325  1.00  0.00     0.227 C 
ATOM      5  O   UNL A   1      32.740  20.594  25.610  1.00  0.00    -0.274 OA
ATOM      6  H   UNL A   1      33.656  20.931  23.493  1.00  0.00     0.163 HD
BRANCH   4   7
ATOM      7  C   UNL A   1      33.493  22.746  26.368  1.00  0.00     0.105 C 
ATOM      8  C   UNL A   1      33.277  22.278  27.808  1.00  0.00     0.023 C 
BRANCH   7   9
ATOM      9  C   UNL A   1      32.794  24.037  25.971  1.00  0.00    -0.036 A 
ATOM     10  C   UNL A   1      31.617  26.514  25.121  1.00  0.00    -0.018 A 
ATOM     11  C   UNL A   1      30.983  25.275  24.916  1.00  0.00     0.009 A 
ATOM     12  C   UNL A   1      32.851  26.474  25.790  1.00  0.00     0.009 A 
ATOM     13  C   UNL A   1      31.539  24.069  25.365  1.00  0.00     0.005 A 
ATOM     14  C   UNL A   1      33.439  25.263  26.185  1.00  0.00     0.005 A 
BRANCH  10  15
ATOM     15  C   UNL A   1      31.005  27.786  24.651  1.00  0.00    -0.018 A 
ATOM     16  C   UNL A   1      29.324  29.006  23.311  1.00  0.00    -0.048 A 
ATOM     17  C   UNL A   1      29.850  30.219  23.773  1.00  0.00     0.004 A 
ATOM     18  C   UNL A   1      29.908  27.807  23.762  1.00  0.00     0.012 A 
ATOM     19  C   UNL A   1      30.923  30.234  24.655  1.00  0.00     0.001 A 
ATOM     20  C   UNL A   1      31.497  29.034  25.078  1.00  0.00     0.009 A 
BRANCH  16  21
ATOM     21  C   UNL A   1      28.203  29.056  22.297  1.00  0.00     0.032 C 
ATOM     22  C   UNL A   1      28.056  30.345  21.499  1.00  0.00     0.009 C 
ENDBRANCH  16  21
ENDBRANCH  10  15
ENDBRANCH   7   9
ENDBRANCH   4   7
ENDBRANCH   2   3
ENDBRANCH   1   2
BRANCH   1  23
ATOM     23  C   UNL A   1      36.674  23.763  24.724  1.00  0.00     0.023 C 
BRANCH  23  24
ATOM     24  C   UNL A   1      37.153  23.388  26.123  1.00  0.00     0.116 C 
BRANCH  24  25
ATOM     25  N   UNL A   1      38.082  22.267  26.151  1.00  0.00    -0.352 N 
ATOM     26  C   UNL A   1      39.427  22.284  26.455  1.00  0.00     0.251 C 
ATOM     27  H   UNL A   1      37.702  21.387  25.926  1.00  0.00     0.163 HD
ATOM     28  O   UNL A   1      40.093  21.263  26.358  1.00  0.00    -0.269 OA
BRANCH  26  29
ATOM     29  C   UNL A   1      40.054  23.566  26.844  1.00  0.00     0.039 A 
ATOM     30  C   UNL A   1      40.121  24.597  25.903  1.00  0.00     0.014 A 
ATOM     31  C   UNL A   1      40.502  23.772  28.150  1.00  0.00     0.014 A 
ATOM     32  C   UNL A   1      40.560  25.862  26.298  1.00  0.00     0.010 A 
ATOM     33  C   UNL A   1      40.865  25.051  28.559  1.00  0.00     0.010 A 
ATOM     34  C   UNL A   1      40.890  26.110  27.640  1.00  0.00    -0.014 A 
BRANCH  34  35
ATOM     35  C   UNL A   1      41.264  27.470  28.109  1.00  0.00     0.031 A 
ATOM     36  C   UNL A   1      42.712  27.867  28.178  1.00  0.00     0.074 A 
ATOM     37  C   UNL A   1      40.309  28.311  28.553  1.00  0.00     0.049 A 
ATOM     38  N   UNL A   1      43.252  28.959  28.653  1.00  0.00    -0.248 NA
ATOM     39  C   UNL A   1      43.685  26.881  27.683  1.00  0.00     0.031 C 
ATOM     40  C   UNL A   1      38.873  28.019  28.587  1.00  0.00     0.029 A 
ATOM     41  N   UNL A   1      40.400  29.577  29.072  1.00  0.00    -0.354 N 
ATOM     42  C   UNL A   1      44.627  28.785  28.534  1.00  0.00     0.074 A 
ATOM     43  C   UNL A   1      44.834  27.453  28.004  1.00  0.00     0.031 C 
ATOM     44  C   UNL A   1      38.219  29.083  29.078  1.00  0.00     0.029 A 
ATOM     45  C   UNL A   1      39.186  30.116  29.432  1.00  0.00     0.049 A 
ATOM     46  H   UNL A   1      41.254  30.055  29.178  1.00  0.00     0.167 HD
ATOM     47  C   UNL A   1      45.622  29.662  28.816  1.00  0.00     0.034 A 
ATOM     48  C   UNL A   1      38.889  31.306  29.991  1.00  0.00     0.034 A 
ATOM     49  C   UNL A   1      45.395  30.993  29.324  1.00  0.00     0.049 A 
ATOM     50  C   UNL A   1      40.008  32.268  30.295  1.00  0.00     0.074 A 
ATOM     51  C   UNL A   1      46.320  31.989  29.584  1.00  0.00     0.029 A 
ATOM     52  N   UNL A   1      44.150  31.514  29.657  1.00  0.00    -0.354 N 
ATOM     53  N   UNL A   1      41.301  32.110  30.126  1.00  0.00    -0.248 NA
ATOM     54  C   UNL A   1      39.627  33.570  30.854  1.00  0.00     0.031 C 
ATOM     55  C   UNL A   1      45.643  33.088  30.125  1.00  0.00     0.029 A 
ATOM     56  C   UNL A   1      44.286  32.806  30.142  1.00  0.00     0.049 A 
ATOM     57  H   UNL A   1      43.294  31.035  29.561  1.00  0.00     0.167 HD
ATOM     58  C   UNL A   1      41.885  33.305  30.533  1.00  0.00     0.074 A 
ATOM     59  C   UNL A   1      40.802  34.177  30.943  1.00  0.00     0.031 C 
ATOM     60  C   UNL A   1      43.197  33.656  30.561  1.00  0.00     0.034 A 
BRANCH  47  61
ATOM     61  C   UNL A   1      47.040  29.188  28.596  1.00  0.00     0.023 A 
ATOM     62  C   UNL A   1      47.573  29.032  27.304  1.00  0.00     0.031 A 
ATOM     63  C   UNL A   1      47.853  28.835  29.688  1.00  0.00     0.131 A 
ATOM     64  C   UNL A   1      48.836  28.446  27.131  1.00  0.00     0.055 A 
ATOM     65  C   UNL A   1      49.146  28.336  29.512  1.00  0.00     0.041 A 
ATOM     66  F   UNL A   1      47.395  28.943  30.945  1.00  0.00    -0.206 F 
ATOM     67  C   UNL A   1      49.637  28.120  28.227  1.00  0.00     0.022 A 
BRANCH  64  68
ATOM     68  S   UNL A   1      49.340  27.960  25.458  1.00  0.00     0.124 S 
ATOM     69  O   UNL A   1      49.719  26.563  25.660  1.00  0.00    -0.237 OA
ATOM     70  O   UNL A   1      48.125  28.188  24.684  1.00  0.00    -0.237 OA
ATOM     71  O   UNL A   1      50.450  28.861  25.159  1.00  0.00    -0.744 OA
ENDBRANCH  64  68
ENDBRANCH  47  61
BRANCH  48  72
ATOM     72  C   UNL A   1      37.475  31.661  30.300  1.00  0.00     0.023 A 
ATOM     73  C   UNL A   1      36.618  32.143  29.299  1.00  0.00     0.031 A 
ATOM     74  C   UNL A   1      36.968  31.548  31.607  1.00  0.00     0.131 A 
ATOM     75  C   UNL A   1      35.310  32.534  29.627  1.00  0.00     0.055 A 
ATOM     76  C   UNL A   1      35.652  31.895  31.918  1.00  0.00     0.041 A 
ATOM     77  F   UNL A   1      37.745  31.082  32.598  1.00  0.00    -0.206 F 
ATOM     78  C   UNL A   1      34.818  32.403  30.927  1.00  0.00     0.022 A 
BRANCH  75  79
ATOM     79  S   UNL A   1      34.276  33.276  28.334  1.00  0.00     0.124 S 
ATOM     80  O   UNL A   1      33.588  32.108  27.796  1.00  0.00    -0.237 OA
ATOM     81  O   UNL A   1      33.456  34.209  29.101  1.00  0.00    -0.237 OA
ATOM     82  O   UNL A   1      35.248  33.898  27.437  1.00  0.00    -0.744 OA
ENDBRANCH  75  79
ENDBRANCH  48  72
BRANCH  60  83
ATOM     83  C   UNL A   1      43.518  35.058  31.011  1.00  0.00     0.023 A 
ATOM     84  C   UNL A   1      43.539  36.137  30.111  1.00  0.00     0.031 A 
ATOM     85  C   UNL A   1      43.820  35.312  32.361  1.00  0.00     0.131 A 
ATOM     86  C   UNL A   1      43.907  37.415  30.562  1.00  0.00     0.055 A 
ATOM     87  C   UNL A   1      44.131  36.596  32.813  1.00  0.00     0.041 A 
ATOM     88  F   UNL A   1      43.816  34.318  33.261  1.00  0.00    -0.206 F 
ATOM     89  C   UNL A   1      44.187  37.652  31.910  1.00  0.00     0.022 A 
BRANCH  86  90
ATOM     90  S   UNL A   1      44.093  38.747  29.346  1.00  0.00     0.124 S 
ATOM     91  O   UNL A   1      43.037  38.435  28.388  1.00  0.00    -0.237 OA
ATOM     92  O   UNL A   1      43.884  39.942  30.158  1.00  0.00    -0.237 OA
ATOM     93  O   UNL A   1      45.456  38.569  28.847  1.00  0.00    -0.744 OA
ENDBRANCH  86  90
ENDBRANCH  60  83
ENDBRANCH  34  35
ENDBRANCH  26  29
ENDBRANCH  24  25
ENDBRANCH  23  24
ENDBRANCH   1  23
TORSDOF 17
ENDMDL
