MODEL 1
REMARK VINA RESULT:     -11.7      0.000      0.000
REMARK SMILES CC1(C)CCC[C@@](C)(CCC(=O)NCCCCNC(=O)c2ccc(-c3c4nc(c(-c5cc(S(=O)(=O)[O-])ccc5F)c5ccc([nH]5)c(-c5cc(S(=O)(=O)[O-])ccc5F)c5nc(c(-c6cc(S(=O)(=O)[O-])ccc6F)c6ccc3[nH]6)C=C5)C=C4)cc2)C1=O
REMARK SMILES IDX 16 1 15 2 14 3 13 4 11 5 12 6 10 8 9 9 7 10 1 11 2 12 3 13
REMARK SMILES IDX 4 14 84 15 5 16 85 17 6 18 8 19 17 20 18 21 19 22 20 24
REMARK SMILES IDX 21 25 22 26 83 27 23 28 82 29 24 30 25 31 26 32 76 33 27 34
REMARK SMILES IDX 81 35 75 36 77 37 28 38 80 39 74 40 73 41 29 43 61 44 41 45
REMARK SMILES IDX 60 46 42 47 45 48 59 49 78 50 43 51 44 52 58 54 79 55 46 56
REMARK SMILES IDX 30 57 31 58 39 59 32 60 38 61 40 62 37 63 33 64 34 65 35 66
REMARK SMILES IDX 36 67 62 68 63 69 71 70 64 71 70 72 72 73 69 74 65 75 66 76
REMARK SMILES IDX 67 77 68 78 47 79 48 80 56 81 49 82 55 83 57 84 54 85 50 86
REMARK SMILES IDX 51 87 52 88 53 89
REMARK H PARENT 13 7 18 23 77 42 45 53
REMARK Flexibility Score: inf
ROOT
ATOM      1  C   UNL A   1      31.543  28.846  25.335  1.00  0.00     0.023 C 
ENDROOT
BRANCH   1   2
ATOM      2  C   UNL A   1      31.260  29.192  23.886  1.00  0.00     0.023 C 
BRANCH   2   3
ATOM      3  C   UNL A   1      30.814  28.016  23.002  1.00  0.00     0.116 C 
BRANCH   3   4
ATOM      4  N   UNL A   1      31.902  27.571  22.141  1.00  0.00    -0.356 N 
ATOM      5  C   UNL A   1      32.922  26.692  22.343  1.00  0.00     0.220 C 
ATOM      6  O   UNL A   1      33.816  26.638  21.494  1.00  0.00    -0.275 OA
ATOM      7  H   UNL A   1      31.898  27.982  21.247  1.00  0.00     0.163 HD
BRANCH   5   8
ATOM      8  C   UNL A   1      32.960  25.780  23.557  1.00  0.00     0.101 C 
BRANCH   8   9
ATOM      9  C   UNL A   1      34.312  25.076  23.813  1.00  0.00     0.024 C 
BRANCH   9  10
ATOM     10  C   UNL A   1      34.327  23.516  23.798  1.00  0.00     0.027 C 
ATOM     11  C   UNL A   1      37.386  23.623  25.524  1.00  0.00     0.019 C 
ATOM     12  C   UNL A   1      36.490  22.485  25.015  1.00  0.00     0.024 C 
ATOM     13  C   UNL A   1      37.365  21.277  24.631  1.00  0.00     0.019 C 
ATOM     14  C   UNL A   1      35.541  22.016  26.126  1.00  0.00     0.014 C 
ATOM     15  C   UNL A   1      35.783  23.001  23.744  1.00  0.00     0.144 C 
ATOM     16  C   UNL A   1      34.369  22.948  26.308  1.00  0.00     0.002 C 
ATOM     17  O   UNL A   1      36.424  23.094  22.689  1.00  0.00    -0.298 OA
ATOM     18  C   UNL A   1      33.587  22.958  25.014  1.00  0.00     0.014 C 
ATOM     19  C   UNL A   1      33.653  22.987  22.509  1.00  0.00     0.020 C 
ENDBRANCH   9  10
ENDBRANCH   8   9
ENDBRANCH   5   8
ENDBRANCH   3   4
ENDBRANCH   2   3
ENDBRANCH   1   2
BRANCH   1  20
ATOM     20  C   UNL A   1      32.739  29.580  25.910  1.00  0.00     0.116 C 
BRANCH  20  21
ATOM     21  N   UNL A   1      32.403  30.870  26.508  1.00  0.00    -0.352 N 
ATOM     22  C   UNL A   1      33.171  31.704  27.296  1.00  0.00     0.251 C 
ATOM     23  H   UNL A   1      31.492  31.194  26.321  1.00  0.00     0.163 HD
ATOM     24  O   UNL A   1      32.679  32.718  27.785  1.00  0.00    -0.269 OA
BRANCH  22  25
ATOM     25  C   UNL A   1      34.567  31.325  27.599  1.00  0.00     0.039 A 
ATOM     26  C   UNL A   1      35.540  32.318  27.725  1.00  0.00     0.014 A 
ATOM     27  C   UNL A   1      34.876  30.000  27.897  1.00  0.00     0.014 A 
ATOM     28  C   UNL A   1      36.775  31.998  28.296  1.00  0.00     0.010 A 
ATOM     29  C   UNL A   1      36.036  29.721  28.605  1.00  0.00     0.010 A 
ATOM     30  C   UNL A   1      37.001  30.716  28.823  1.00  0.00    -0.014 A 
BRANCH  30  31
ATOM     31  C   UNL A   1      38.221  30.378  29.611  1.00  0.00     0.031 A 
ATOM     32  C   UNL A   1      39.222  29.401  29.048  1.00  0.00     0.074 A 
ATOM     33  C   UNL A   1      38.371  30.846  30.868  1.00  0.00     0.049 A 
ATOM     34  N   UNL A   1      40.239  28.821  29.632  1.00  0.00    -0.248 NA
ATOM     35  C   UNL A   1      39.004  28.965  27.659  1.00  0.00     0.031 C 
ATOM     36  C   UNL A   1      37.437  31.735  31.566  1.00  0.00     0.029 A 
ATOM     37  N   UNL A   1      39.363  30.629  31.793  1.00  0.00    -0.354 N 
ATOM     38  C   UNL A   1      40.743  27.918  28.702  1.00  0.00     0.074 A 
ATOM     39  C   UNL A   1      39.868  27.970  27.551  1.00  0.00     0.031 C 
ATOM     40  C   UNL A   1      37.923  32.021  32.785  1.00  0.00     0.029 A 
ATOM     41  C   UNL A   1      39.172  31.297  32.982  1.00  0.00     0.049 A 
ATOM     42  H   UNL A   1      40.140  30.050  31.620  1.00  0.00     0.167 HD
ATOM     43  C   UNL A   1      41.854  27.145  28.782  1.00  0.00     0.034 A 
ATOM     44  C   UNL A   1      39.916  31.316  34.107  1.00  0.00     0.034 A 
ATOM     45  C   UNL A   1      42.754  27.161  29.906  1.00  0.00     0.049 A 
ATOM     46  C   UNL A   1      41.178  30.492  34.153  1.00  0.00     0.074 A 
ATOM     47  C   UNL A   1      43.956  26.494  30.059  1.00  0.00     0.029 A 
ATOM     48  N   UNL A   1      42.556  27.894  31.068  1.00  0.00    -0.354 N 
ATOM     49  N   UNL A   1      41.669  29.681  33.244  1.00  0.00    -0.248 NA
ATOM     50  C   UNL A   1      41.989  30.591  35.374  1.00  0.00     0.031 C 
ATOM     51  C   UNL A   1      44.461  26.787  31.331  1.00  0.00     0.029 A 
ATOM     52  C   UNL A   1      43.605  27.684  31.949  1.00  0.00     0.049 A 
ATOM     53  H   UNL A   1      41.783  28.478  31.241  1.00  0.00     0.167 HD
ATOM     54  C   UNL A   1      42.859  29.193  33.776  1.00  0.00     0.074 A 
ATOM     55  C   UNL A   1      43.019  29.814  35.075  1.00  0.00     0.031 C 
ATOM     56  C   UNL A   1      43.740  28.310  33.242  1.00  0.00     0.034 A 
BRANCH  43  57
ATOM     57  C   UNL A   1      42.142  26.225  27.617  1.00  0.00     0.023 A 
ATOM     58  C   UNL A   1      41.680  24.897  27.596  1.00  0.00     0.031 A 
ATOM     59  C   UNL A   1      42.936  26.660  26.543  1.00  0.00     0.131 A 
ATOM     60  C   UNL A   1      42.101  24.024  26.582  1.00  0.00     0.055 A 
ATOM     61  C   UNL A   1      43.273  25.811  25.485  1.00  0.00     0.041 A 
ATOM     62  F   UNL A   1      43.422  27.912  26.513  1.00  0.00    -0.206 F 
ATOM     63  C   UNL A   1      42.872  24.479  25.511  1.00  0.00     0.022 A 
BRANCH  60  64
ATOM     64  S   UNL A   1      41.768  22.252  26.779  1.00  0.00     0.124 S 
ATOM     65  O   UNL A   1      42.454  21.964  28.037  1.00  0.00    -0.237 OA
ATOM     66  O   UNL A   1      40.311  22.208  26.822  1.00  0.00    -0.237 OA
ATOM     67  O   UNL A   1      42.377  21.654  25.593  1.00  0.00    -0.744 OA
ENDBRANCH  60  64
ENDBRANCH  43  57
BRANCH  44  68
ATOM     68  C   UNL A   1      39.504  32.139  35.279  1.00  0.00     0.023 A 
ATOM     69  C   UNL A   1      38.777  31.570  36.338  1.00  0.00     0.031 A 
ATOM     70  C   UNL A   1      39.791  33.514  35.342  1.00  0.00     0.131 A 
ATOM     71  C   UNL A   1      38.322  32.380  37.390  1.00  0.00     0.055 A 
ATOM     72  C   UNL A   1      39.377  34.306  36.415  1.00  0.00     0.041 A 
ATOM     73  F   UNL A   1      40.492  34.106  34.361  1.00  0.00    -0.206 F 
ATOM     74  C   UNL A   1      38.626  33.741  37.441  1.00  0.00     0.022 A 
BRANCH  71  75
ATOM     75  S   UNL A   1      37.255  31.639  38.657  1.00  0.00     0.124 S 
ATOM     76  O   UNL A   1      37.075  30.286  38.141  1.00  0.00    -0.237 OA
ATOM     77  O   UNL A   1      38.079  31.763  39.856  1.00  0.00    -0.237 OA
ATOM     78  O   UNL A   1      36.062  32.481  38.634  1.00  0.00    -0.744 OA
ENDBRANCH  71  75
ENDBRANCH  44  68
BRANCH  56  79
ATOM     79  C   UNL A   1      44.972  28.003  34.053  1.00  0.00     0.023 A 
ATOM     80  C   UNL A   1      44.996  26.954  34.986  1.00  0.00     0.031 A 
ATOM     81  C   UNL A   1      46.133  28.780  33.894  1.00  0.00     0.131 A 
ATOM     82  C   UNL A   1      46.142  26.739  35.764  1.00  0.00     0.055 A 
ATOM     83  C   UNL A   1      47.290  28.527  34.631  1.00  0.00     0.041 A 
ATOM     84  F   UNL A   1      46.162  29.795  33.016  1.00  0.00    -0.206 F 
ATOM     85  C   UNL A   1      47.295  27.509  35.582  1.00  0.00     0.022 A 
BRANCH  82  86
ATOM     86  S   UNL A   1      46.082  25.489  37.076  1.00  0.00     0.124 S 
ATOM     87  O   UNL A   1      47.360  25.697  37.751  1.00  0.00    -0.237 OA
ATOM     88  O   UNL A   1      44.894  25.880  37.826  1.00  0.00    -0.237 OA
ATOM     89  O   UNL A   1      45.965  24.228  36.344  1.00  0.00    -0.744 OA
ENDBRANCH  82  86
ENDBRANCH  56  79
ENDBRANCH  30  31
ENDBRANCH  22  25
ENDBRANCH  20  21
ENDBRANCH   1  20
TORSDOF 16
ENDMDL
MODEL 2
REMARK VINA RESULT:     -11.7      5.278      7.832
REMARK SMILES CC1(C)CCC[C@@](C)(CCC(=O)NCCCCNC(=O)c2ccc(-c3c4nc(c(-c5cc(S(=O)(=O)[O-])ccc5F)c5ccc([nH]5)c(-c5cc(S(=O)(=O)[O-])ccc5F)c5nc(c(-c6cc(S(=O)(=O)[O-])ccc6F)c6ccc3[nH]6)C=C5)C=C4)cc2)C1=O
REMARK SMILES IDX 16 1 15 2 14 3 13 4 11 5 12 6 10 8 9 9 7 10 1 11 2 12 3 13
REMARK SMILES IDX 4 14 84 15 5 16 85 17 6 18 8 19 17 20 18 21 19 22 20 24
REMARK SMILES IDX 21 25 22 26 83 27 23 28 82 29 24 30 25 31 26 32 76 33 27 34
REMARK SMILES IDX 81 35 75 36 77 37 28 38 80 39 74 40 73 41 29 43 61 44 41 45
REMARK SMILES IDX 60 46 42 47 45 48 59 49 78 50 43 51 44 52 58 54 79 55 46 56
REMARK SMILES IDX 30 57 31 58 39 59 32 60 38 61 40 62 37 63 33 64 34 65 35 66
REMARK SMILES IDX 36 67 62 68 63 69 71 70 64 71 70 72 72 73 69 74 65 75 66 76
REMARK SMILES IDX 67 77 68 78 47 79 48 80 56 81 49 82 55 83 57 84 54 85 50 86
REMARK SMILES IDX 51 87 52 88 53 89
REMARK H PARENT 13 7 18 23 77 42 45 53
REMARK Flexibility Score: inf
ROOT
ATOM      1  C   UNL A   1      35.958  21.577  25.714  1.00  0.00     0.023 C 
ENDROOT
BRANCH   1   2
ATOM      2  C   UNL A   1      35.036  20.592  25.022  1.00  0.00     0.023 C 
BRANCH   2   3
ATOM      3  C   UNL A   1      33.534  20.808  25.270  1.00  0.00     0.116 C 
BRANCH   3   4
ATOM      4  N   UNL A   1      33.291  21.241  26.640  1.00  0.00    -0.356 N 
ATOM      5  C   UNL A   1      32.745  22.378  27.154  1.00  0.00     0.220 C 
ATOM      6  O   UNL A   1      32.826  22.561  28.371  1.00  0.00    -0.275 OA
ATOM      7  H   UNL A   1      33.572  20.589  27.322  1.00  0.00     0.163 HD
BRANCH   5   8
ATOM      8  C   UNL A   1      32.032  23.388  26.271  1.00  0.00     0.101 C 
BRANCH   8   9
ATOM      9  C   UNL A   1      32.395  24.868  26.534  1.00  0.00     0.024 C 
BRANCH   9  10
ATOM     10  C   UNL A   1      31.567  25.957  25.785  1.00  0.00     0.027 C 
ATOM     11  C   UNL A   1      33.907  28.344  26.867  1.00  0.00     0.019 C 
ATOM     12  C   UNL A   1      32.637  28.413  26.008  1.00  0.00     0.024 C 
ATOM     13  C   UNL A   1      31.956  29.779  26.208  1.00  0.00     0.019 C 
ATOM     14  C   UNL A   1      32.994  28.304  24.519  1.00  0.00     0.014 C 
ATOM     15  C   UNL A   1      31.686  27.312  26.520  1.00  0.00     0.144 C 
ATOM     16  C   UNL A   1      33.282  26.882  24.102  1.00  0.00     0.002 C 
ATOM     17  O   UNL A   1      31.084  27.479  27.589  1.00  0.00    -0.298 OA
ATOM     18  C   UNL A   1      32.023  26.076  24.330  1.00  0.00     0.014 C 
ATOM     19  C   UNL A   1      30.062  25.600  25.815  1.00  0.00     0.020 C 
ENDBRANCH   9  10
ENDBRANCH   8   9
ENDBRANCH   5   8
ENDBRANCH   3   4
ENDBRANCH   2   3
ENDBRANCH   1   2
BRANCH   1  20
ATOM     20  C   UNL A   1      37.257  21.815  24.969  1.00  0.00     0.116 C 
BRANCH  20  21
ATOM     21  N   UNL A   1      38.301  20.844  25.287  1.00  0.00    -0.352 N 
ATOM     22  C   UNL A   1      39.444  20.993  26.048  1.00  0.00     0.251 C 
ATOM     23  H   UNL A   1      38.171  19.948  24.901  1.00  0.00     0.163 HD
ATOM     24  O   UNL A   1      40.257  20.076  26.128  1.00  0.00    -0.269 OA
BRANCH  22  25
ATOM     25  C   UNL A   1      39.707  22.291  26.704  1.00  0.00     0.039 A 
ATOM     26  C   UNL A   1      40.733  22.393  27.646  1.00  0.00     0.014 A 
ATOM     27  C   UNL A   1      39.032  23.432  26.279  1.00  0.00     0.014 A 
ATOM     28  C   UNL A   1      41.177  23.658  28.041  1.00  0.00     0.010 A 
ATOM     29  C   UNL A   1      39.576  24.679  26.550  1.00  0.00     0.010 A 
ATOM     30  C   UNL A   1      40.663  24.812  27.429  1.00  0.00    -0.014 A 
BRANCH  30  31
ATOM     31  C   UNL A   1      41.232  26.168  27.672  1.00  0.00     0.031 A 
ATOM     32  C   UNL A   1      42.605  26.504  27.145  1.00  0.00     0.074 A 
ATOM     33  C   UNL A   1      40.581  27.048  28.461  1.00  0.00     0.049 A 
ATOM     34  N   UNL A   1      43.365  27.537  27.400  1.00  0.00    -0.248 NA
ATOM     35  C   UNL A   1      43.232  25.504  26.265  1.00  0.00     0.031 C 
ATOM     36  C   UNL A   1      39.282  26.822  29.104  1.00  0.00     0.029 A 
ATOM     37  N   UNL A   1      40.928  28.313  28.870  1.00  0.00    -0.354 N 
ATOM     38  C   UNL A   1      44.573  27.283  26.759  1.00  0.00     0.074 A 
ATOM     39  C   UNL A   1      44.469  25.964  26.176  1.00  0.00     0.031 C 
ATOM     40  C   UNL A   1      38.925  27.924  29.783  1.00  0.00     0.029 A 
ATOM     41  C   UNL A   1      39.987  28.916  29.675  1.00  0.00     0.049 A 
ATOM     42  H   UNL A   1      41.771  28.749  28.609  1.00  0.00     0.167 HD
ATOM     43  C   UNL A   1      45.656  28.089  26.634  1.00  0.00     0.034 A 
ATOM     44  C   UNL A   1      39.986  30.128  30.267  1.00  0.00     0.034 A 
ATOM     45  C   UNL A   1      45.715  29.430  27.158  1.00  0.00     0.049 A 
ATOM     46  C   UNL A   1      41.176  31.031  30.068  1.00  0.00     0.074 A 
ATOM     47  C   UNL A   1      46.717  30.371  27.013  1.00  0.00     0.029 A 
ATOM     48  N   UNL A   1      44.718  30.025  27.920  1.00  0.00    -0.354 N 
ATOM     49  N   UNL A   1      42.292  30.796  29.415  1.00  0.00    -0.248 NA
ATOM     50  C   UNL A   1      41.105  32.365  30.679  1.00  0.00     0.031 C 
ATOM     51  C   UNL A   1      46.349  31.518  27.726  1.00  0.00     0.029 A 
ATOM     52  C   UNL A   1      45.089  31.314  28.266  1.00  0.00     0.049 A 
ATOM     53  H   UNL A   1      43.871  29.594  28.178  1.00  0.00     0.167 HD
ATOM     54  C   UNL A   1      43.043  31.962  29.519  1.00  0.00     0.074 A 
ATOM     55  C   UNL A   1      42.248  32.903  30.279  1.00  0.00     0.031 C 
ATOM     56  C   UNL A   1      44.281  32.233  29.031  1.00  0.00     0.034 A 
BRANCH  43  57
ATOM     57  C   UNL A   1      46.855  27.530  25.901  1.00  0.00     0.023 A 
ATOM     58  C   UNL A   1      47.179  27.943  24.597  1.00  0.00     0.031 A 
ATOM     59  C   UNL A   1      47.648  26.530  26.489  1.00  0.00     0.131 A 
ATOM     60  C   UNL A   1      48.196  27.289  23.886  1.00  0.00     0.055 A 
ATOM     61  C   UNL A   1      48.722  25.948  25.810  1.00  0.00     0.041 A 
ATOM     62  F   UNL A   1      47.379  26.080  27.725  1.00  0.00    -0.206 F 
ATOM     63  C   UNL A   1      48.988  26.313  24.493  1.00  0.00     0.022 A 
BRANCH  60  64
ATOM     64  S   UNL A   1      48.349  27.613  22.109  1.00  0.00     0.124 S 
ATOM     65  O   UNL A   1      47.058  28.229  21.812  1.00  0.00    -0.237 OA
ATOM     66  O   UNL A   1      49.508  28.497  22.048  1.00  0.00    -0.237 OA
ATOM     67  O   UNL A   1      48.546  26.285  21.533  1.00  0.00    -0.744 OA
ENDBRANCH  60  64
ENDBRANCH  43  57
BRANCH  44  68
ATOM     68  C   UNL A   1      38.829  30.569  31.096  1.00  0.00     0.023 A 
ATOM     69  C   UNL A   1      37.719  31.196  30.507  1.00  0.00     0.031 A 
ATOM     70  C   UNL A   1      38.830  30.410  32.494  1.00  0.00     0.131 A 
ATOM     71  C   UNL A   1      36.679  31.684  31.314  1.00  0.00     0.055 A 
ATOM     72  C   UNL A   1      37.770  30.854  33.288  1.00  0.00     0.041 A 
ATOM     73  F   UNL A   1      39.861  29.807  33.107  1.00  0.00    -0.206 F 
ATOM     74  C   UNL A   1      36.692  31.508  32.699  1.00  0.00     0.022 A 
BRANCH  71  75
ATOM     75  S   UNL A   1      35.340  32.625  30.530  1.00  0.00     0.124 S 
ATOM     76  O   UNL A   1      34.289  32.543  31.538  1.00  0.00    -0.237 OA
ATOM     77  O   UNL A   1      35.957  33.936  30.351  1.00  0.00    -0.237 OA
ATOM     78  O   UNL A   1      35.081  31.886  29.296  1.00  0.00    -0.744 OA
ENDBRANCH  71  75
ENDBRANCH  44  68
BRANCH  56  79
ATOM     79  C   UNL A   1      44.821  33.618  29.277  1.00  0.00     0.023 A 
ATOM     80  C   UNL A   1      44.653  34.651  28.339  1.00  0.00     0.031 A 
ATOM     81  C   UNL A   1      45.519  33.903  30.463  1.00  0.00     0.131 A 
ATOM     82  C   UNL A   1      45.222  35.908  28.579  1.00  0.00     0.055 A 
ATOM     83  C   UNL A   1      46.037  35.172  30.721  1.00  0.00     0.041 A 
ATOM     84  F   UNL A   1      45.707  32.951  31.391  1.00  0.00    -0.206 F 
ATOM     85  C   UNL A   1      45.901  36.181  29.771  1.00  0.00     0.022 A 
BRANCH  82  86
ATOM     86  S   UNL A   1      45.135  37.166  27.275  1.00  0.00     0.124 S 
ATOM     87  O   UNL A   1      45.989  36.589  26.241  1.00  0.00    -0.237 OA
ATOM     88  O   UNL A   1      43.708  37.205  26.974  1.00  0.00    -0.237 OA
ATOM     89  O   UNL A   1      45.665  38.366  27.920  1.00  0.00    -0.744 OA
ENDBRANCH  82  86
ENDBRANCH  56  79
ENDBRANCH  30  31
ENDBRANCH  22  25
ENDBRANCH  20  21
ENDBRANCH   1  20
TORSDOF 16
ENDMDL
MODEL 3
REMARK VINA RESULT:     -11.6      1.563      7.847
REMARK SMILES CC1(C)CCC[C@@](C)(CCC(=O)NCCCCNC(=O)c2ccc(-c3c4nc(c(-c5cc(S(=O)(=O)[O-])ccc5F)c5ccc([nH]5)c(-c5cc(S(=O)(=O)[O-])ccc5F)c5nc(c(-c6cc(S(=O)(=O)[O-])ccc6F)c6ccc3[nH]6)C=C5)C=C4)cc2)C1=O
REMARK SMILES IDX 16 1 15 2 14 3 13 4 11 5 12 6 10 8 9 9 7 10 1 11 2 12 3 13
REMARK SMILES IDX 4 14 84 15 5 16 85 17 6 18 8 19 17 20 18 21 19 22 20 24
REMARK SMILES IDX 21 25 22 26 83 27 23 28 82 29 24 30 25 31 26 32 76 33 27 34
REMARK SMILES IDX 81 35 75 36 77 37 28 38 80 39 74 40 73 41 29 43 61 44 41 45
REMARK SMILES IDX 60 46 42 47 45 48 59 49 78 50 43 51 44 52 58 54 79 55 46 56
REMARK SMILES IDX 30 57 31 58 39 59 32 60 38 61 40 62 37 63 33 64 34 65 35 66
REMARK SMILES IDX 36 67 62 68 63 69 71 70 64 71 70 72 72 73 69 74 65 75 66 76
REMARK SMILES IDX 67 77 68 78 47 79 48 80 56 81 49 82 55 83 57 84 54 85 50 86
REMARK SMILES IDX 51 87 52 88 53 89
REMARK H PARENT 13 7 18 23 77 42 45 53
REMARK Flexibility Score: inf
ROOT
ATOM      1  C   UNL A   1      31.751  29.927  25.500  1.00  0.00     0.023 C 
ENDROOT
BRANCH   1   2
ATOM      2  C   UNL A   1      32.807  29.350  24.577  1.00  0.00     0.023 C 
BRANCH   2   3
ATOM      3  C   UNL A   1      32.278  28.738  23.271  1.00  0.00     0.116 C 
BRANCH   3   4
ATOM      4  N   UNL A   1      31.595  27.476  23.527  1.00  0.00    -0.356 N 
ATOM      5  C   UNL A   1      31.919  26.187  23.227  1.00  0.00     0.220 C 
ATOM      6  O   UNL A   1      31.062  25.318  23.406  1.00  0.00    -0.275 OA
ATOM      7  H   UNL A   1      30.742  27.573  24.007  1.00  0.00     0.163 HD
BRANCH   5   8
ATOM      8  C   UNL A   1      33.298  25.812  22.713  1.00  0.00     0.101 C 
BRANCH   8   9
ATOM      9  C   UNL A   1      34.216  25.106  23.738  1.00  0.00     0.024 C 
BRANCH   9  10
ATOM     10  C   UNL A   1      34.245  23.547  23.725  1.00  0.00     0.027 C 
ATOM     11  C   UNL A   1      37.278  23.685  25.494  1.00  0.00     0.019 C 
ATOM     12  C   UNL A   1      36.401  22.538  24.974  1.00  0.00     0.024 C 
ATOM     13  C   UNL A   1      37.292  21.337  24.605  1.00  0.00     0.019 C 
ATOM     14  C   UNL A   1      35.440  22.061  26.073  1.00  0.00     0.014 C 
ATOM     15  C   UNL A   1      35.707  23.045  23.693  1.00  0.00     0.144 C 
ATOM     16  C   UNL A   1      34.257  22.983  26.237  1.00  0.00     0.002 C 
ATOM     17  O   UNL A   1      36.361  23.143  22.647  1.00  0.00    -0.298 OA
ATOM     18  C   UNL A   1      33.494  22.983  24.931  1.00  0.00     0.014 C 
ATOM     19  C   UNL A   1      33.594  23.010  22.428  1.00  0.00     0.020 C 
ENDBRANCH   9  10
ENDBRANCH   8   9
ENDBRANCH   5   8
ENDBRANCH   3   4
ENDBRANCH   2   3
ENDBRANCH   1   2
BRANCH   1  20
ATOM     20  C   UNL A   1      32.288  30.320  26.863  1.00  0.00     0.116 C 
BRANCH  20  21
ATOM     21  N   UNL A   1      32.322  31.763  27.085  1.00  0.00    -0.352 N 
ATOM     22  C   UNL A   1      33.352  32.563  27.541  1.00  0.00     0.251 C 
ATOM     23  H   UNL A   1      31.485  32.239  26.878  1.00  0.00     0.163 HD
ATOM     24  O   UNL A   1      33.160  33.758  27.750  1.00  0.00    -0.269 OA
BRANCH  22  25
ATOM     25  C   UNL A   1      34.662  31.947  27.840  1.00  0.00     0.039 A 
ATOM     26  C   UNL A   1      35.770  32.764  28.076  1.00  0.00     0.014 A 
ATOM     27  C   UNL A   1      34.755  30.570  28.025  1.00  0.00     0.014 A 
ATOM     28  C   UNL A   1      36.920  32.210  28.644  1.00  0.00     0.010 A 
ATOM     29  C   UNL A   1      35.832  30.056  28.731  1.00  0.00     0.010 A 
ATOM     30  C   UNL A   1      36.929  30.869  29.059  1.00  0.00    -0.014 A 
BRANCH  30  31
ATOM     31  C   UNL A   1      38.054  30.280  29.840  1.00  0.00     0.031 A 
ATOM     32  C   UNL A   1      38.268  30.704  31.272  1.00  0.00     0.074 A 
ATOM     33  C   UNL A   1      38.950  29.469  29.238  1.00  0.00     0.049 A 
ATOM     34  N   UNL A   1      39.281  30.473  32.066  1.00  0.00    -0.248 NA
ATOM     35  C   UNL A   1      37.228  31.562  31.864  1.00  0.00     0.031 C 
ATOM     36  C   UNL A   1      38.910  29.043  27.836  1.00  0.00     0.029 A 
ATOM     37  N   UNL A   1      40.082  28.863  29.728  1.00  0.00    -0.354 N 
ATOM     38  C   UNL A   1      39.025  31.201  33.224  1.00  0.00     0.074 A 
ATOM     39  C   UNL A   1      37.804  31.942  32.992  1.00  0.00     0.031 C 
ATOM     40  C   UNL A   1      39.938  28.214  27.594  1.00  0.00     0.029 A 
ATOM     41  C   UNL A   1      40.744  28.088  28.802  1.00  0.00     0.049 A 
ATOM     42  H   UNL A   1      40.390  28.972  30.656  1.00  0.00     0.167 HD
ATOM     43  C   UNL A   1      39.719  31.221  34.389  1.00  0.00     0.034 A 
ATOM     44  C   UNL A   1      41.877  27.366  28.912  1.00  0.00     0.034 A 
ATOM     45  C   UNL A   1      40.891  30.419  34.629  1.00  0.00     0.049 A 
ATOM     46  C   UNL A   1      42.603  27.356  30.233  1.00  0.00     0.074 A 
ATOM     47  C   UNL A   1      41.622  30.284  35.795  1.00  0.00     0.029 A 
ATOM     48  N   UNL A   1      41.498  29.603  33.683  1.00  0.00    -0.354 N 
ATOM     49  N   UNL A   1      42.319  28.011  31.337  1.00  0.00    -0.248 NA
ATOM     50  C   UNL A   1      43.798  26.507  30.326  1.00  0.00     0.031 C 
ATOM     51  C   UNL A   1      42.697  29.424  35.543  1.00  0.00     0.029 A 
ATOM     52  C   UNL A   1      42.603  28.974  34.235  1.00  0.00     0.049 A 
ATOM     53  H   UNL A   1      41.189  29.487  32.756  1.00  0.00     0.167 HD
ATOM     54  C   UNL A   1      43.288  27.631  32.260  1.00  0.00     0.074 A 
ATOM     55  C   UNL A   1      44.151  26.680  31.591  1.00  0.00     0.031 C 
ATOM     56  C   UNL A   1      43.453  28.033  33.546  1.00  0.00     0.034 A 
BRANCH  43  57
ATOM     57  C   UNL A   1      39.218  32.141  35.478  1.00  0.00     0.023 A 
ATOM     58  C   UNL A   1      39.592  33.495  35.529  1.00  0.00     0.031 A 
ATOM     59  C   UNL A   1      38.404  31.647  36.512  1.00  0.00     0.131 A 
ATOM     60  C   UNL A   1      39.244  34.278  36.638  1.00  0.00     0.055 A 
ATOM     61  C   UNL A   1      37.980  32.458  37.567  1.00  0.00     0.041 A 
ATOM     62  F   UNL A   1      38.027  30.358  36.531  1.00  0.00    -0.206 F 
ATOM     63  C   UNL A   1      38.417  33.778  37.645  1.00  0.00     0.022 A 
BRANCH  60  64
ATOM     64  S   UNL A   1      40.030  35.902  36.826  1.00  0.00     0.124 S 
ATOM     65  O   UNL A   1      39.337  36.427  38.001  1.00  0.00    -0.237 OA
ATOM     66  O   UNL A   1      41.433  35.554  37.015  1.00  0.00    -0.237 OA
ATOM     67  O   UNL A   1      39.717  36.582  35.571  1.00  0.00    -0.744 OA
ENDBRANCH  60  64
ENDBRANCH  43  57
BRANCH  44  68
ATOM     68  C   UNL A   1      42.399  26.586  27.754  1.00  0.00     0.023 A 
ATOM     69  C   UNL A   1      41.991  25.260  27.537  1.00  0.00     0.031 A 
ATOM     70  C   UNL A   1      43.343  27.138  26.870  1.00  0.00     0.131 A 
ATOM     71  C   UNL A   1      42.560  24.513  26.493  1.00  0.00     0.055 A 
ATOM     72  C   UNL A   1      43.871  26.406  25.803  1.00  0.00     0.041 A 
ATOM     73  F   UNL A   1      43.759  28.405  27.025  1.00  0.00    -0.206 F 
ATOM     74  C   UNL A   1      43.489  25.081  25.618  1.00  0.00     0.022 A 
BRANCH  71  75
ATOM     75  S   UNL A   1      42.123  22.759  26.341  1.00  0.00     0.124 S 
ATOM     76  O   UNL A   1      40.673  22.798  26.493  1.00  0.00    -0.237 OA
ATOM     77  O   UNL A   1      42.620  22.438  25.007  1.00  0.00    -0.237 OA
ATOM     78  O   UNL A   1      42.850  22.130  27.443  1.00  0.00    -0.744 OA
ENDBRANCH  71  75
ENDBRANCH  44  68
BRANCH  56  79
ATOM     79  C   UNL A   1      44.587  27.407  34.315  1.00  0.00     0.023 A 
ATOM     80  C   UNL A   1      44.429  26.191  35.001  1.00  0.00     0.031 A 
ATOM     81  C   UNL A   1      45.840  28.042  34.367  1.00  0.00     0.131 A 
ATOM     82  C   UNL A   1      45.491  25.672  35.753  1.00  0.00     0.055 A 
ATOM     83  C   UNL A   1      46.911  27.493  35.072  1.00  0.00     0.041 A 
ATOM     84  F   UNL A   1      46.043  29.206  33.729  1.00  0.00    -0.206 F 
ATOM     85  C   UNL A   1      46.736  26.307  35.781  1.00  0.00     0.022 A 
BRANCH  82  86
ATOM     86  S   UNL A   1      45.201  24.193  36.763  1.00  0.00     0.124 S 
ATOM     87  O   UNL A   1      44.293  23.423  35.918  1.00  0.00    -0.237 OA
ATOM     88  O   UNL A   1      46.547  23.649  36.913  1.00  0.00    -0.237 OA
ATOM     89  O   UNL A   1      44.608  24.726  37.988  1.00  0.00    -0.744 OA
ENDBRANCH  82  86
ENDBRANCH  56  79
ENDBRANCH  30  31
ENDBRANCH  22  25
ENDBRANCH  20  21
ENDBRANCH   1  20
TORSDOF 16
ENDMDL
