MODEL 1
REMARK VINA RESULT:     -11.3      0.000      0.000
REMARK SMILES COC(=O)[C@@H]1C[C@@H](C(=O)NCCCCNC(=O)c2ccc(-c3c4nc(c(-c5cc(S(=O)(=O)[O-])ccc5F)c5ccc([nH]5)c(-c5cc(S(=O)(=O)[O-])ccc5F)c5nc(c(-c6cc(S(=O)(=O)[O-])ccc6F)c6ccc3[nH]6)C=C5)C=C4)cc2)[C@@H](c2cccc(F)c2F)[N@H+]1C
REMARK SMILES IDX 13 1 12 2 11 3 10 4 8 5 9 6 7 8 5 9 6 10 90 11 81 12 91 13
REMARK SMILES IDX 3 15 4 16 2 17 1 18 82 19 83 20 88 21 84 22 86 23 89 24
REMARK SMILES IDX 85 25 87 26 14 27 15 28 16 29 17 31 18 32 19 33 80 34 20 35
REMARK SMILES IDX 79 36 21 37 22 38 23 39 73 40 24 41 78 42 72 43 74 44 25 45
REMARK SMILES IDX 77 46 71 47 70 48 26 50 58 51 38 52 57 53 39 54 42 55 56 56
REMARK SMILES IDX 75 57 40 58 41 59 55 61 76 62 43 63 27 64 28 65 36 66 29 67
REMARK SMILES IDX 35 68 37 69 34 70 30 71 31 72 32 73 33 74 59 75 60 76 68 77
REMARK SMILES IDX 61 78 67 79 69 80 66 81 62 82 63 83 64 84 65 85 44 86 45 87
REMARK SMILES IDX 53 88 46 89 52 90 54 91 51 92 47 93 48 94 49 95 50 96
REMARK H PARENT 10 7 90 14 15 30 74 49 42 60
REMARK Flexibility Score: inf
ROOT
ATOM      1  C   UNL A   1      39.407  21.585  25.806  1.00  0.00     0.023 C 
ENDROOT
BRANCH   1   2
ATOM      2  C   UNL A   1      39.235  22.941  26.487  1.00  0.00     0.023 C 
BRANCH   2   3
ATOM      3  C   UNL A   1      37.936  23.647  26.130  1.00  0.00     0.116 C 
BRANCH   3   4
ATOM      4  N   UNL A   1      37.483  23.354  24.784  1.00  0.00    -0.356 N 
ATOM      5  C   UNL A   1      36.349  22.818  24.273  1.00  0.00     0.229 C 
ATOM      6  O   UNL A   1      36.290  22.755  23.038  1.00  0.00    -0.275 OA
ATOM      7  H   UNL A   1      38.140  23.599  24.093  1.00  0.00     0.163 HD
BRANCH   5   8
ATOM      8  C   UNL A   1      35.173  22.294  25.093  1.00  0.00     0.148 C 
ATOM      9  C   UNL A   1      33.272  21.070  24.259  1.00  0.00     0.296 C 
ATOM     10  C   UNL A   1      34.734  20.907  24.629  1.00  0.00     0.097 C 
ATOM     11  N   UNL A   1      32.852  22.051  25.268  1.00  0.00    -0.319 N 
ATOM     12  C   UNL A   1      33.870  23.129  25.392  1.00  0.00     0.231 C 
ATOM     13  C   UNL A   1      31.437  22.302  25.343  1.00  0.00     0.333 C 
ATOM     14  H   UNL A   1      32.874  21.658  26.208  1.00  0.00     0.349 HD
BRANCH   9  15
ATOM     15  C   UNL A   1      32.555  19.715  24.335  1.00  0.00     0.364 C 
ATOM     16  O   UNL A   1      32.395  19.048  25.349  1.00  0.00    -0.245 OA
BRANCH  15  17
ATOM     17  O   UNL A   1      32.154  19.320  23.089  1.00  0.00    -0.465 OA
ATOM     18  C   UNL A   1      32.529  17.984  22.750  1.00  0.00     0.282 C 
ENDBRANCH  15  17
ENDBRANCH   9  15
BRANCH  12  19
ATOM     19  C   UNL A   1      33.729  24.522  24.754  1.00  0.00     0.049 A 
ATOM     20  C   UNL A   1      33.706  25.663  25.595  1.00  0.00     0.013 A 
ATOM     21  C   UNL A   1      33.500  24.818  23.398  1.00  0.00     0.167 A 
ATOM     22  C   UNL A   1      33.705  26.982  25.108  1.00  0.00     0.004 A 
ATOM     23  C   UNL A   1      33.480  26.131  22.907  1.00  0.00     0.159 A 
ATOM     24  F   UNL A   1      33.238  23.876  22.492  1.00  0.00    -0.203 F 
ATOM     25  C   UNL A   1      33.627  27.217  23.747  1.00  0.00     0.042 A 
ATOM     26  F   UNL A   1      33.308  26.342  21.594  1.00  0.00    -0.204 F 
ENDBRANCH  12  19
ENDBRANCH   5   8
ENDBRANCH   3   4
ENDBRANCH   2   3
ENDBRANCH   1   2
BRANCH   1  27
ATOM     27  C   UNL A   1      39.978  20.528  26.733  1.00  0.00     0.116 C 
BRANCH  27  28
ATOM     28  N   UNL A   1      41.189  19.937  26.185  1.00  0.00    -0.352 N 
ATOM     29  C   UNL A   1      42.377  20.543  25.865  1.00  0.00     0.251 C 
ATOM     30  H   UNL A   1      41.151  18.967  26.021  1.00  0.00     0.163 HD
ATOM     31  O   UNL A   1      43.206  19.941  25.195  1.00  0.00    -0.269 OA
BRANCH  29  32
ATOM     32  C   UNL A   1      42.623  21.925  26.319  1.00  0.00     0.039 A 
ATOM     33  C   UNL A   1      42.663  22.951  25.375  1.00  0.00     0.014 A 
ATOM     34  C   UNL A   1      42.806  22.203  27.678  1.00  0.00     0.014 A 
ATOM     35  C   UNL A   1      42.860  24.263  25.802  1.00  0.00     0.010 A 
ATOM     36  C   UNL A   1      42.884  23.517  28.109  1.00  0.00     0.010 A 
ATOM     37  C   UNL A   1      42.947  24.557  27.173  1.00  0.00    -0.014 A 
BRANCH  37  38
ATOM     38  C   UNL A   1      43.167  25.944  27.643  1.00  0.00     0.031 A 
ATOM     39  C   UNL A   1      44.545  26.546  27.561  1.00  0.00     0.074 A 
ATOM     40  C   UNL A   1      42.139  26.635  28.171  1.00  0.00     0.049 A 
ATOM     41  N   UNL A   1      44.958  27.725  27.947  1.00  0.00    -0.248 NA
ATOM     42  C   UNL A   1      45.610  25.692  27.010  1.00  0.00     0.031 C 
ATOM     43  C   UNL A   1      40.778  26.123  28.346  1.00  0.00     0.029 A 
ATOM     44  N   UNL A   1      42.075  27.917  28.651  1.00  0.00    -0.354 N 
ATOM     45  C   UNL A   1      46.326  27.746  27.697  1.00  0.00     0.074 A 
ATOM     46  C   UNL A   1      46.687  26.434  27.211  1.00  0.00     0.031 C 
ATOM     47  C   UNL A   1      40.002  27.096  28.848  1.00  0.00     0.029 A 
ATOM     48  C   UNL A   1      40.818  28.284  29.076  1.00  0.00     0.049 A 
ATOM     49  H   UNL A   1      42.852  28.519  28.689  1.00  0.00     0.167 HD
ATOM     50  C   UNL A   1      47.194  28.778  27.829  1.00  0.00     0.034 A 
ATOM     51  C   UNL A   1      40.380  29.448  29.590  1.00  0.00     0.034 A 
ATOM     52  C   UNL A   1      46.802  30.083  28.297  1.00  0.00     0.049 A 
ATOM     53  C   UNL A   1      41.364  30.581  29.730  1.00  0.00     0.074 A 
ATOM     54  C   UNL A   1      47.574  31.224  28.425  1.00  0.00     0.029 A 
ATOM     55  N   UNL A   1      45.520  30.422  28.716  1.00  0.00    -0.354 N 
ATOM     56  N   UNL A   1      42.645  30.605  29.438  1.00  0.00    -0.248 NA
ATOM     57  C   UNL A   1      40.841  31.848  30.252  1.00  0.00     0.031 C 
ATOM     58  C   UNL A   1      46.779  32.228  28.989  1.00  0.00     0.029 A 
ATOM     59  C   UNL A   1      45.488  31.744  29.131  1.00  0.00     0.049 A 
ATOM     60  H   UNL A   1      44.748  29.811  28.717  1.00  0.00     0.167 HD
ATOM     61  C   UNL A   1      43.073  31.901  29.711  1.00  0.00     0.074 A 
ATOM     62  C   UNL A   1      41.906  32.630  30.169  1.00  0.00     0.031 C 
ATOM     63  C   UNL A   1      44.313  32.444  29.596  1.00  0.00     0.034 A 
BRANCH  50  64
ATOM     64  C   UNL A   1      48.642  28.520  27.479  1.00  0.00     0.023 A 
ATOM     65  C   UNL A   1      49.112  28.603  26.154  1.00  0.00     0.031 A 
ATOM     66  C   UNL A   1      49.562  28.145  28.475  1.00  0.00     0.131 A 
ATOM     67  C   UNL A   1      50.430  28.234  25.851  1.00  0.00     0.055 A 
ATOM     68  C   UNL A   1      50.898  27.867  28.178  1.00  0.00     0.041 A 
ATOM     69  F   UNL A   1      49.172  28.022  29.753  1.00  0.00    -0.206 F 
ATOM     70  C   UNL A   1      51.336  27.894  26.857  1.00  0.00     0.022 A 
BRANCH  67  71
ATOM     71  S   UNL A   1      50.898  28.049  24.108  1.00  0.00     0.124 S 
ATOM     72  O   UNL A   1      49.599  27.826  23.476  1.00  0.00    -0.237 OA
ATOM     73  O   UNL A   1      51.540  29.326  23.816  1.00  0.00    -0.237 OA
ATOM     74  O   UNL A   1      51.789  26.891  24.113  1.00  0.00    -0.744 OA
ENDBRANCH  67  71
ENDBRANCH  50  64
BRANCH  51  75
ATOM     75  C   UNL A   1      38.954  29.608  29.997  1.00  0.00     0.023 A 
ATOM     76  C   UNL A   1      38.029  30.251  29.159  1.00  0.00     0.031 A 
ATOM     77  C   UNL A   1      38.501  29.152  31.248  1.00  0.00     0.131 A 
ATOM     78  C   UNL A   1      36.715  30.467  29.600  1.00  0.00     0.055 A 
ATOM     79  C   UNL A   1      37.177  29.316  31.659  1.00  0.00     0.041 A 
ATOM     80  F   UNL A   1      39.340  28.523  32.087  1.00  0.00    -0.206 F 
ATOM     81  C   UNL A   1      36.278  29.991  30.839  1.00  0.00     0.022 A 
BRANCH  78  82
ATOM     82  S   UNL A   1      35.605  31.464  28.568  1.00  0.00     0.124 S 
ATOM     83  O   UNL A   1      35.108  30.472  27.622  1.00  0.00    -0.237 OA
ATOM     84  O   UNL A   1      34.643  31.957  29.548  1.00  0.00    -0.237 OA
ATOM     85  O   UNL A   1      36.490  32.480  28.002  1.00  0.00    -0.744 OA
ENDBRANCH  78  82
ENDBRANCH  51  75
BRANCH  63  86
ATOM     86  C   UNL A   1      44.448  33.908  29.935  1.00  0.00     0.023 A 
ATOM     87  C   UNL A   1      44.227  34.912  28.977  1.00  0.00     0.031 A 
ATOM     88  C   UNL A   1      44.828  34.302  31.230  1.00  0.00     0.131 A 
ATOM     89  C   UNL A   1      44.457  36.255  29.307  1.00  0.00     0.055 A 
ATOM     90  C   UNL A   1      44.983  35.645  31.574  1.00  0.00     0.041 A 
ATOM     91  F   UNL A   1      45.055  33.386  32.185  1.00  0.00    -0.206 F 
ATOM     92  C   UNL A   1      44.815  36.629  30.605  1.00  0.00     0.022 A 
BRANCH  89  93
ATOM     93  S   UNL A   1      44.402  37.494  27.985  1.00  0.00     0.124 S 
ATOM     94  O   UNL A   1      43.694  36.777  26.928  1.00  0.00    -0.237 OA
ATOM     95  O   UNL A   1      43.669  38.588  28.613  1.00  0.00    -0.237 OA
ATOM     96  O   UNL A   1      45.812  37.768  27.712  1.00  0.00    -0.744 OA
ENDBRANCH  89  93
ENDBRANCH  63  86
ENDBRANCH  37  38
ENDBRANCH  29  32
ENDBRANCH  27  28
ENDBRANCH   1  27
TORSDOF 17
ENDMDL
MODEL 2
REMARK VINA RESULT:     -11.3      1.928      7.741
REMARK SMILES COC(=O)[C@@H]1C[C@@H](C(=O)NCCCCNC(=O)c2ccc(-c3c4nc(c(-c5cc(S(=O)(=O)[O-])ccc5F)c5ccc([nH]5)c(-c5cc(S(=O)(=O)[O-])ccc5F)c5nc(c(-c6cc(S(=O)(=O)[O-])ccc6F)c6ccc3[nH]6)C=C5)C=C4)cc2)[C@@H](c2cccc(F)c2F)[N@H+]1C
REMARK SMILES IDX 13 1 12 2 11 3 10 4 8 5 9 6 7 8 5 9 6 10 90 11 81 12 91 13
REMARK SMILES IDX 3 15 4 16 2 17 1 18 82 19 83 20 88 21 84 22 86 23 89 24
REMARK SMILES IDX 85 25 87 26 14 27 15 28 16 29 17 31 18 32 19 33 80 34 20 35
REMARK SMILES IDX 79 36 21 37 22 38 23 39 73 40 24 41 78 42 72 43 74 44 25 45
REMARK SMILES IDX 77 46 71 47 70 48 26 50 58 51 38 52 57 53 39 54 42 55 56 56
REMARK SMILES IDX 75 57 40 58 41 59 55 61 76 62 43 63 27 64 28 65 36 66 29 67
REMARK SMILES IDX 35 68 37 69 34 70 30 71 31 72 32 73 33 74 59 75 60 76 68 77
REMARK SMILES IDX 61 78 67 79 69 80 66 81 62 82 63 83 64 84 65 85 44 86 45 87
REMARK SMILES IDX 53 88 46 89 52 90 54 91 51 92 47 93 48 94 49 95 50 96
REMARK H PARENT 10 7 90 14 15 30 74 49 42 60
REMARK Flexibility Score: inf
ROOT
ATOM      1  C   UNL A   1      39.534  21.129  25.891  1.00  0.00     0.023 C 
ENDROOT
BRANCH   1   2
ATOM      2  C   UNL A   1      39.499  22.516  26.529  1.00  0.00     0.023 C 
BRANCH   2   3
ATOM      3  C   UNL A   1      38.239  23.305  26.212  1.00  0.00     0.116 C 
BRANCH   3   4
ATOM      4  N   UNL A   1      37.735  23.057  24.875  1.00  0.00    -0.356 N 
ATOM      5  C   UNL A   1      36.575  22.555  24.389  1.00  0.00     0.229 C 
ATOM      6  O   UNL A   1      36.474  22.527  23.156  1.00  0.00    -0.275 OA
ATOM      7  H   UNL A   1      38.374  23.309  24.169  1.00  0.00     0.163 HD
BRANCH   5   8
ATOM      8  C   UNL A   1      35.417  22.030  25.234  1.00  0.00     0.148 C 
ATOM      9  C   UNL A   1      33.549  20.722  24.457  1.00  0.00     0.296 C 
ATOM     10  C   UNL A   1      35.016  20.614  24.825  1.00  0.00     0.097 C 
ATOM     11  N   UNL A   1      33.105  21.729  25.429  1.00  0.00    -0.319 N 
ATOM     12  C   UNL A   1      34.093  22.839  25.507  1.00  0.00     0.231 C 
ATOM     13  C   UNL A   1      31.684  21.942  25.502  1.00  0.00     0.333 C 
ATOM     14  H   UNL A   1      33.142  21.373  26.384  1.00  0.00     0.349 HD
BRANCH   9  15
ATOM     15  C   UNL A   1      32.870  19.351  24.588  1.00  0.00     0.364 C 
ATOM     16  O   UNL A   1      32.529  18.822  25.637  1.00  0.00    -0.245 OA
BRANCH  15  17
ATOM     17  O   UNL A   1      32.739  18.768  23.358  1.00  0.00    -0.465 OA
ATOM     18  C   UNL A   1      33.034  17.370  23.340  1.00  0.00     0.282 C 
ENDBRANCH  15  17
ENDBRANCH   9  15
BRANCH  12  19
ATOM     19  C   UNL A   1      33.910  24.202  24.817  1.00  0.00     0.049 A 
ATOM     20  C   UNL A   1      33.892  25.376  25.612  1.00  0.00     0.013 A 
ATOM     21  C   UNL A   1      33.637  24.438  23.458  1.00  0.00     0.167 A 
ATOM     22  C   UNL A   1      33.855  26.674  25.072  1.00  0.00     0.004 A 
ATOM     23  C   UNL A   1      33.580  25.729  22.915  1.00  0.00     0.159 A 
ATOM     24  F   UNL A   1      33.364  23.456  22.599  1.00  0.00    -0.203 F 
ATOM     25  C   UNL A   1      33.734  26.851  23.705  1.00  0.00     0.042 A 
ATOM     26  F   UNL A   1      33.367  25.883  21.600  1.00  0.00    -0.204 F 
ENDBRANCH  12  19
ENDBRANCH   5   8
ENDBRANCH   3   4
ENDBRANCH   2   3
ENDBRANCH   1   2
BRANCH   1  27
ATOM     27  C   UNL A   1      40.083  20.065  26.823  1.00  0.00     0.116 C 
BRANCH  27  28
ATOM     28  N   UNL A   1      41.168  19.320  26.202  1.00  0.00    -0.352 N 
ATOM     29  C   UNL A   1      42.364  19.782  25.718  1.00  0.00     0.251 C 
ATOM     30  H   UNL A   1      41.022  18.350  26.119  1.00  0.00     0.163 HD
ATOM     31  O   UNL A   1      43.056  19.055  25.015  1.00  0.00    -0.269 OA
BRANCH  29  32
ATOM     32  C   UNL A   1      42.785  21.160  26.035  1.00  0.00     0.039 A 
ATOM     33  C   UNL A   1      43.084  21.489  27.356  1.00  0.00     0.014 A 
ATOM     34  C   UNL A   1      42.889  22.120  25.023  1.00  0.00     0.014 A 
ATOM     35  C   UNL A   1      43.516  22.779  27.657  1.00  0.00     0.010 A 
ATOM     36  C   UNL A   1      43.429  23.364  25.305  1.00  0.00     0.010 A 
ATOM     37  C   UNL A   1      43.715  23.717  26.630  1.00  0.00    -0.014 A 
BRANCH  37  38
ATOM     38  C   UNL A   1      44.163  25.096  26.932  1.00  0.00     0.031 A 
ATOM     39  C   UNL A   1      43.191  26.077  27.533  1.00  0.00     0.074 A 
ATOM     40  C   UNL A   1      45.423  25.464  26.631  1.00  0.00     0.049 A 
ATOM     41  N   UNL A   1      43.369  27.335  27.842  1.00  0.00    -0.248 NA
ATOM     42  C   UNL A   1      41.825  25.590  27.782  1.00  0.00     0.031 C 
ATOM     43  C   UNL A   1      46.425  24.604  25.996  1.00  0.00     0.029 A 
ATOM     44  N   UNL A   1      46.079  26.651  26.824  1.00  0.00    -0.354 N 
ATOM     45  C   UNL A   1      42.139  27.788  28.306  1.00  0.00     0.074 A 
ATOM     46  C   UNL A   1      41.203  26.697  28.156  1.00  0.00     0.031 C 
ATOM     47  C   UNL A   1      47.582  25.276  25.897  1.00  0.00     0.029 A 
ATOM     48  C   UNL A   1      47.393  26.627  26.416  1.00  0.00     0.049 A 
ATOM     49  H   UNL A   1      45.653  27.446  27.218  1.00  0.00     0.167 HD
ATOM     50  C   UNL A   1      41.828  28.993  28.842  1.00  0.00     0.034 A 
ATOM     51  C   UNL A   1      48.334  27.588  26.459  1.00  0.00     0.034 A 
ATOM     52  C   UNL A   1      42.788  30.056  29.000  1.00  0.00     0.049 A 
ATOM     53  C   UNL A   1      47.965  28.922  27.056  1.00  0.00     0.074 A 
ATOM     54  C   UNL A   1      42.610  31.302  29.573  1.00  0.00     0.029 A 
ATOM     55  N   UNL A   1      44.111  29.998  28.578  1.00  0.00    -0.354 N 
ATOM     56  N   UNL A   1      46.811  29.319  27.543  1.00  0.00    -0.248 NA
ATOM     57  C   UNL A   1      49.028  29.930  27.125  1.00  0.00     0.031 C 
ATOM     58  C   UNL A   1      43.803  32.021  29.433  1.00  0.00     0.029 A 
ATOM     59  C   UNL A   1      44.753  31.196  28.852  1.00  0.00     0.049 A 
ATOM     60  H   UNL A   1      44.532  29.218  28.148  1.00  0.00     0.167 HD
ATOM     61  C   UNL A   1      47.020  30.615  28.007  1.00  0.00     0.074 A 
ATOM     62  C   UNL A   1      48.416  30.919  27.760  1.00  0.00     0.031 C 
ATOM     63  C   UNL A   1      46.144  31.477  28.584  1.00  0.00     0.034 A 
BRANCH  50  64
ATOM     64  C   UNL A   1      40.395  29.216  29.272  1.00  0.00     0.023 A 
ATOM     65  C   UNL A   1      40.003  29.122  30.620  1.00  0.00     0.031 A 
ATOM     66  C   UNL A   1      39.398  29.487  28.318  1.00  0.00     0.131 A 
ATOM     67  C   UNL A   1      38.646  29.210  30.965  1.00  0.00     0.055 A 
ATOM     68  C   UNL A   1      38.061  29.665  28.680  1.00  0.00     0.041 A 
ATOM     69  F   UNL A   1      39.702  29.564  27.014  1.00  0.00    -0.206 F 
ATOM     70  C   UNL A   1      37.675  29.510  30.008  1.00  0.00     0.022 A 
BRANCH  67  71
ATOM     71  S   UNL A   1      38.151  28.768  32.654  1.00  0.00     0.124 S 
ATOM     72  O   UNL A   1      36.799  29.319  32.718  1.00  0.00    -0.237 OA
ATOM     73  O   UNL A   1      38.249  27.313  32.641  1.00  0.00    -0.237 OA
ATOM     74  O   UNL A   1      39.136  29.452  33.489  1.00  0.00    -0.744 OA
ENDBRANCH  67  71
ENDBRANCH  50  64
BRANCH  51  75
ATOM     75  C   UNL A   1      49.707  27.329  25.936  1.00  0.00     0.023 A 
ATOM     76  C   UNL A   1      50.016  27.531  24.582  1.00  0.00     0.031 A 
ATOM     77  C   UNL A   1      50.724  26.842  26.777  1.00  0.00     0.131 A 
ATOM     78  C   UNL A   1      51.290  27.198  24.096  1.00  0.00     0.055 A 
ATOM     79  C   UNL A   1      52.008  26.568  26.301  1.00  0.00     0.041 A 
ATOM     80  F   UNL A   1      50.487  26.638  28.083  1.00  0.00    -0.206 F 
ATOM     81  C   UNL A   1      52.293  26.732  24.950  1.00  0.00     0.022 A 
BRANCH  78  82
ATOM     82  S   UNL A   1      51.591  27.296  22.310  1.00  0.00     0.124 S 
ATOM     83  O   UNL A   1      50.301  26.884  21.769  1.00  0.00    -0.237 OA
ATOM     84  O   UNL A   1      51.942  28.701  22.139  1.00  0.00    -0.237 OA
ATOM     85  O   UNL A   1      52.687  26.352  22.099  1.00  0.00    -0.744 OA
ENDBRANCH  78  82
ENDBRANCH  51  75
BRANCH  63  86
ATOM     86  C   UNL A   1      46.693  32.813  29.021  1.00  0.00     0.023 A 
ATOM     87  C   UNL A   1      46.682  33.932  28.171  1.00  0.00     0.031 A 
ATOM     88  C   UNL A   1      47.260  32.960  30.301  1.00  0.00     0.131 A 
ATOM     89  C   UNL A   1      47.290  35.126  28.581  1.00  0.00     0.055 A 
ATOM     90  C   UNL A   1      47.796  34.173  30.731  1.00  0.00     0.041 A 
ATOM     91  F   UNL A   1      47.300  31.924  31.154  1.00  0.00    -0.206 F 
ATOM     92  C   UNL A   1      47.830  35.260  29.863  1.00  0.00     0.022 A 
BRANCH  89  93
ATOM     93  S   UNL A   1      47.474  36.464  27.372  1.00  0.00     0.124 S 
ATOM     94  O   UNL A   1      47.576  35.725  26.117  1.00  0.00    -0.237 OA
ATOM     95  O   UNL A   1      46.247  37.229  27.563  1.00  0.00    -0.237 OA
ATOM     96  O   UNL A   1      48.700  37.141  27.794  1.00  0.00    -0.744 OA
ENDBRANCH  89  93
ENDBRANCH  63  86
ENDBRANCH  37  38
ENDBRANCH  29  32
ENDBRANCH  27  28
ENDBRANCH   1  27
TORSDOF 17
ENDMDL
MODEL 3
REMARK VINA RESULT:     -11.3      6.263      9.441
REMARK SMILES COC(=O)[C@@H]1C[C@@H](C(=O)NCCCCNC(=O)c2ccc(-c3c4nc(c(-c5cc(S(=O)(=O)[O-])ccc5F)c5ccc([nH]5)c(-c5cc(S(=O)(=O)[O-])ccc5F)c5nc(c(-c6cc(S(=O)(=O)[O-])ccc6F)c6ccc3[nH]6)C=C5)C=C4)cc2)[C@@H](c2cccc(F)c2F)[N@H+]1C
REMARK SMILES IDX 13 1 12 2 11 3 10 4 8 5 9 6 7 8 5 9 6 10 90 11 81 12 91 13
REMARK SMILES IDX 3 15 4 16 2 17 1 18 82 19 83 20 88 21 84 22 86 23 89 24
REMARK SMILES IDX 85 25 87 26 14 27 15 28 16 29 17 31 18 32 19 33 80 34 20 35
REMARK SMILES IDX 79 36 21 37 22 38 23 39 73 40 24 41 78 42 72 43 74 44 25 45
REMARK SMILES IDX 77 46 71 47 70 48 26 50 58 51 38 52 57 53 39 54 42 55 56 56
REMARK SMILES IDX 75 57 40 58 41 59 55 61 76 62 43 63 27 64 28 65 36 66 29 67
REMARK SMILES IDX 35 68 37 69 34 70 30 71 31 72 32 73 33 74 59 75 60 76 68 77
REMARK SMILES IDX 61 78 67 79 69 80 66 81 62 82 63 83 64 84 65 85 44 86 45 87
REMARK SMILES IDX 53 88 46 89 52 90 54 91 51 92 47 93 48 94 49 95 50 96
REMARK H PARENT 10 7 90 14 15 30 74 49 42 60
REMARK Flexibility Score: inf
ROOT
ATOM      1  C   UNL A   1      31.424  31.892  26.651  1.00  0.00     0.023 C 
ENDROOT
BRANCH   1   2
ATOM      2  C   UNL A   1      31.528  30.446  26.173  1.00  0.00     0.023 C 
BRANCH   2   3
ATOM      3  C   UNL A   1      32.956  29.938  26.059  1.00  0.00     0.116 C 
BRANCH   3   4
ATOM      4  N   UNL A   1      33.380  29.741  24.687  1.00  0.00    -0.356 N 
ATOM      5  C   UNL A   1      33.383  28.676  23.850  1.00  0.00     0.229 C 
ATOM      6  O   UNL A   1      33.793  28.892  22.702  1.00  0.00    -0.275 OA
ATOM      7  H   UNL A   1      33.745  30.557  24.274  1.00  0.00     0.163 HD
BRANCH   5   8
ATOM      8  C   UNL A   1      32.932  27.264  24.216  1.00  0.00     0.148 C 
ATOM      9  C   UNL A   1      32.890  25.346  22.759  1.00  0.00     0.296 C 
ATOM     10  C   UNL A   1      33.830  26.202  23.586  1.00  0.00     0.097 C 
ATOM     11  N   UNL A   1      31.691  25.377  23.606  1.00  0.00    -0.319 N 
ATOM     12  C   UNL A   1      31.444  26.760  24.097  1.00  0.00     0.231 C 
ATOM     13  C   UNL A   1      30.630  24.485  23.218  1.00  0.00     0.333 C 
ATOM     14  H   UNL A   1      31.838  24.885  24.487  1.00  0.00     0.349 HD
BRANCH   9  15
ATOM     15  C   UNL A   1      33.497  23.952  22.547  1.00  0.00     0.364 C 
ATOM     16  O   UNL A   1      33.540  23.346  21.484  1.00  0.00    -0.245 OA
BRANCH  15  17
ATOM     17  O   UNL A   1      33.949  23.446  23.735  1.00  0.00    -0.465 OA
ATOM     18  C   UNL A   1      35.294  22.966  23.692  1.00  0.00     0.282 C 
ENDBRANCH  15  17
ENDBRANCH   9  15
BRANCH  12  19
ATOM     19  C   UNL A   1      30.393  27.710  23.496  1.00  0.00     0.049 A 
ATOM     20  C   UNL A   1      30.829  28.882  22.828  1.00  0.00     0.013 A 
ATOM     21  C   UNL A   1      28.995  27.623  23.625  1.00  0.00     0.167 A 
ATOM     22  C   UNL A   1      29.960  29.748  22.141  1.00  0.00     0.004 A 
ATOM     23  C   UNL A   1      28.122  28.494  22.958  1.00  0.00     0.159 A 
ATOM     24  F   UNL A   1      28.401  26.739  24.427  1.00  0.00    -0.203 F 
ATOM     25  C   UNL A   1      28.595  29.530  22.177  1.00  0.00     0.042 A 
ATOM     26  F   UNL A   1      26.797  28.324  23.082  1.00  0.00    -0.204 F 
ENDBRANCH  12  19
ENDBRANCH   5   8
ENDBRANCH   3   4
ENDBRANCH   2   3
ENDBRANCH   1   2
BRANCH   1  27
ATOM     27  C   UNL A   1      32.740  32.435  27.177  1.00  0.00     0.116 C 
BRANCH  27  28
ATOM     28  N   UNL A   1      32.625  33.833  27.563  1.00  0.00    -0.352 N 
ATOM     29  C   UNL A   1      33.255  34.501  28.581  1.00  0.00     0.251 C 
ATOM     30  H   UNL A   1      32.009  34.374  27.018  1.00  0.00     0.163 HD
ATOM     31  O   UNL A   1      32.863  35.614  28.912  1.00  0.00    -0.269 OA
BRANCH  29  32
ATOM     32  C   UNL A   1      34.384  33.854  29.276  1.00  0.00     0.039 A 
ATOM     33  C   UNL A   1      35.683  34.276  28.996  1.00  0.00     0.014 A 
ATOM     34  C   UNL A   1      34.153  32.837  30.208  1.00  0.00     0.014 A 
ATOM     35  C   UNL A   1      36.750  33.693  29.676  1.00  0.00     0.010 A 
ATOM     36  C   UNL A   1      35.203  32.343  30.965  1.00  0.00     0.010 A 
ATOM     37  C   UNL A   1      36.516  32.740  30.681  1.00  0.00    -0.014 A 
BRANCH  37  38
ATOM     38  C   UNL A   1      37.639  32.102  31.406  1.00  0.00     0.031 A 
ATOM     39  C   UNL A   1      38.419  30.999  30.741  1.00  0.00     0.074 A 
ATOM     40  C   UNL A   1      37.923  32.492  32.663  1.00  0.00     0.049 A 
ATOM     41  N   UNL A   1      39.412  30.288  31.210  1.00  0.00    -0.248 NA
ATOM     42  C   UNL A   1      38.001  30.615  29.383  1.00  0.00     0.031 C 
ATOM     43  C   UNL A   1      37.192  33.514  33.416  1.00  0.00     0.029 A 
ATOM     44  N   UNL A   1      38.905  32.084  33.526  1.00  0.00    -0.354 N 
ATOM     45  C   UNL A   1      39.723  29.370  30.212  1.00  0.00     0.074 A 
ATOM     46  C   UNL A   1      38.759  29.556  29.152  1.00  0.00     0.031 C 
ATOM     47  C   UNL A   1      37.780  33.686  34.609  1.00  0.00     0.029 A 
ATOM     48  C   UNL A   1      38.899  32.758  34.726  1.00  0.00     0.049 A 
ATOM     49  H   UNL A   1      39.554  31.376  33.310  1.00  0.00     0.167 HD
ATOM     50  C   UNL A   1      40.744  28.480  30.171  1.00  0.00     0.034 A 
ATOM     51  C   UNL A   1      39.707  32.636  35.796  1.00  0.00     0.034 A 
ATOM     52  C   UNL A   1      41.705  28.332  31.235  1.00  0.00     0.049 A 
ATOM     53  C   UNL A   1      40.833  31.635  35.729  1.00  0.00     0.074 A 
ATOM     54  C   UNL A   1      42.811  27.504  31.291  1.00  0.00     0.029 A 
ATOM     55  N   UNL A   1      41.671  29.032  32.435  1.00  0.00    -0.354 N 
ATOM     56  N   UNL A   1      41.150  30.811  34.755  1.00  0.00    -0.248 NA
ATOM     57  C   UNL A   1      41.719  31.561  36.895  1.00  0.00     0.031 C 
ATOM     58  C   UNL A   1      43.402  27.650  32.551  1.00  0.00     0.029 A 
ATOM     59  C   UNL A   1      42.719  28.633  33.250  1.00  0.00     0.049 A 
ATOM     60  H   UNL A   1      41.000  29.713  32.672  1.00  0.00     0.167 HD
ATOM     61  C   UNL A   1      42.294  30.143  35.182  1.00  0.00     0.074 A 
ATOM     62  C   UNL A   1      42.620  30.679  36.489  1.00  0.00     0.031 C 
ATOM     63  C   UNL A   1      43.014  29.176  34.555  1.00  0.00     0.034 A 
BRANCH  50  64
ATOM     64  C   UNL A   1      40.849  27.597  28.948  1.00  0.00     0.023 A 
ATOM     65  C   UNL A   1      41.801  27.837  27.939  1.00  0.00     0.031 A 
ATOM     66  C   UNL A   1      39.960  26.522  28.764  1.00  0.00     0.131 A 
ATOM     67  C   UNL A   1      41.785  27.074  26.762  1.00  0.00     0.055 A 
ATOM     68  C   UNL A   1      40.010  25.710  27.630  1.00  0.00     0.041 A 
ATOM     69  F   UNL A   1      39.012  26.256  29.676  1.00  0.00    -0.206 F 
ATOM     70  C   UNL A   1      40.915  25.993  26.612  1.00  0.00     0.022 A 
BRANCH  67  71
ATOM     71  S   UNL A   1      42.809  27.617  25.366  1.00  0.00     0.124 S 
ATOM     72  O   UNL A   1      42.958  26.376  24.609  1.00  0.00    -0.237 OA
ATOM     73  O   UNL A   1      41.980  28.647  24.748  1.00  0.00    -0.237 OA
ATOM     74  O   UNL A   1      44.031  28.101  26.003  1.00  0.00    -0.744 OA
ENDBRANCH  67  71
ENDBRANCH  50  64
BRANCH  51  75
ATOM     75  C   UNL A   1      39.494  33.478  37.007  1.00  0.00     0.023 A 
ATOM     76  C   UNL A   1      38.951  32.934  38.182  1.00  0.00     0.031 A 
ATOM     77  C   UNL A   1      39.797  34.852  36.999  1.00  0.00     0.131 A 
ATOM     78  C   UNL A   1      38.679  33.764  39.280  1.00  0.00     0.055 A 
ATOM     79  C   UNL A   1      39.580  35.663  38.114  1.00  0.00     0.041 A 
ATOM     80  F   UNL A   1      40.325  35.425  35.905  1.00  0.00    -0.206 F 
ATOM     81  C   UNL A   1      39.003  35.123  39.259  1.00  0.00     0.022 A 
BRANCH  78  82
ATOM     82  S   UNL A   1      37.807  33.061  40.706  1.00  0.00     0.124 S 
ATOM     83  O   UNL A   1      36.415  33.164  40.284  1.00  0.00    -0.237 OA
ATOM     84  O   UNL A   1      38.363  31.713  40.766  1.00  0.00    -0.237 OA
ATOM     85  O   UNL A   1      38.193  33.941  41.808  1.00  0.00    -0.744 OA
ENDBRANCH  78  82
ENDBRANCH  51  75
BRANCH  63  86
ATOM     86  C   UNL A   1      44.245  28.675  35.270  1.00  0.00     0.023 A 
ATOM     87  C   UNL A   1      44.179  27.645  36.224  1.00  0.00     0.031 A 
ATOM     88  C   UNL A   1      45.500  29.255  35.008  1.00  0.00     0.131 A 
ATOM     89  C   UNL A   1      45.330  27.277  36.934  1.00  0.00     0.055 A 
ATOM     90  C   UNL A   1      46.655  28.832  35.664  1.00  0.00     0.041 A 
ATOM     91  F   UNL A   1      45.622  30.243  34.108  1.00  0.00    -0.206 F 
ATOM     92  C   UNL A   1      46.571  27.850  36.646  1.00  0.00     0.022 A 
BRANCH  89  93
ATOM     93  S   UNL A   1      45.159  26.125  38.324  1.00  0.00     0.124 S 
ATOM     94  O   UNL A   1      44.210  26.827  39.183  1.00  0.00    -0.237 OA
ATOM     95  O   UNL A   1      44.656  24.921  37.671  1.00  0.00    -0.237 OA
ATOM     96  O   UNL A   1      46.518  26.023  38.854  1.00  0.00    -0.744 OA
ENDBRANCH  89  93
ENDBRANCH  63  86
ENDBRANCH  37  38
ENDBRANCH  29  32
ENDBRANCH  27  28
ENDBRANCH   1  27
TORSDOF 17
ENDMDL
