MODEL 1
REMARK VINA RESULT:     -12.0      0.000      0.000
REMARK SMILES CNC(=O)NC1=[NH+]N=CN[C@@H]1C(=O)NCCCCNC(=O)c1ccc(-c2c3nc(c(-c4cc(S(=O)(=O)[O-])ccc4F)c4ccc([nH]4)c(-c4cc(S(=O)(=O)[O-])ccc4F)c4nc(c(-c5cc(S(=O)(=O)[O-])ccc5F)c5ccc2[nH]5)C=C4)C=C3)cc1
REMARK SMILES IDX 18 1 17 2 16 3 15 4 14 5 12 6 13 7 11 9 1 10 2 11 3 12 4 14
REMARK SMILES IDX 5 15 6 16 7 18 8 19 10 21 9 22 19 24 20 25 21 27 22 28 23 29
REMARK SMILES IDX 84 30 24 31 83 32 25 33 26 34 27 35 77 36 28 37 82 38 76 39
REMARK SMILES IDX 78 40 29 41 81 42 75 43 74 44 30 46 62 47 42 48 61 49 43 50
REMARK SMILES IDX 46 51 60 52 79 53 44 54 45 55 59 57 80 58 47 59 31 60 32 61
REMARK SMILES IDX 40 62 33 63 39 64 41 65 38 66 34 67 35 68 36 69 37 70 63 71
REMARK SMILES IDX 64 72 72 73 65 74 71 75 73 76 70 77 66 78 67 79 68 80 69 81
REMARK SMILES IDX 48 82 49 83 57 84 50 85 56 86 58 87 55 88 51 89 52 90 53 91
REMARK SMILES IDX 54 92
REMARK H PARENT 14 8 2 13 5 17 7 20 10 23 19 26 78 45 46 56
REMARK Flexibility Score: inf
ROOT
ATOM      1  C   UNL A   1      37.806  21.444  25.072  1.00  0.00     0.116 C 
ENDROOT
BRANCH   1   2
ATOM      2  C   UNL A   1      36.416  21.384  25.696  1.00  0.00     0.023 C 
BRANCH   2   3
ATOM      3  C   UNL A   1      35.289  20.967  24.747  1.00  0.00     0.023 C 
BRANCH   3   4
ATOM      4  C   UNL A   1      34.051  20.399  25.438  1.00  0.00     0.116 C 
BRANCH   4   5
ATOM      5  N   UNL A   1      33.851  20.972  26.755  1.00  0.00    -0.354 N 
ATOM      6  C   UNL A   1      32.977  21.932  27.175  1.00  0.00     0.255 C 
ATOM      7  O   UNL A   1      33.050  22.276  28.361  1.00  0.00    -0.272 OA
ATOM      8  H   UNL A   1      34.438  20.612  27.458  1.00  0.00     0.163 HD
BRANCH   6   9
ATOM      9  C   UNL A   1      31.973  22.625  26.238  1.00  0.00     0.287 C 
ATOM     10  C   UNL A   1      32.453  24.063  23.214  1.00  0.00     0.147 C 
ATOM     11  N   UNL A   1      33.727  24.037  23.907  1.00  0.00    -0.321 N 
ATOM     12  C   UNL A   1      34.043  24.568  25.119  1.00  0.00     0.406 C 
ATOM     13  H   UNL A   1      34.459  23.576  23.438  1.00  0.00     0.167 HD
ATOM     14  O   UNL A   1      35.213  24.788  25.412  1.00  0.00    -0.221 OA
ATOM     15  N   UNL A   1      33.016  24.898  25.955  1.00  0.00    -0.191 N 
ATOM     16  C   UNL A   1      31.943  24.146  26.361  1.00  0.00     0.309 C 
ATOM     17  H   UNL A   1      33.050  25.812  26.320  1.00  0.00     0.317 HD
ATOM     18  N   UNL A   1      30.930  24.833  26.801  1.00  0.00    -0.148 N 
ATOM     19  N   UNL A   1      29.717  24.170  27.071  1.00  0.00    -0.077 NA
ATOM     20  H   UNL A   1      31.011  25.804  26.942  1.00  0.00     0.342 HD
ATOM     21  N   UNL A   1      30.634  22.083  26.411  1.00  0.00    -0.352 N 
ATOM     22  C   UNL A   1      29.642  22.902  26.839  1.00  0.00     0.241 C 
ATOM     23  H   UNL A   1      30.451  21.136  26.219  1.00  0.00     0.163 HD
ENDBRANCH   6   9
ENDBRANCH   4   5
ENDBRANCH   3   4
ENDBRANCH   2   3
ENDBRANCH   1   2
BRANCH   1  24
ATOM     24  N   UNL A   1      38.721  20.447  25.603  1.00  0.00    -0.352 N 
ATOM     25  C   UNL A   1      39.853  20.648  26.363  1.00  0.00     0.251 C 
ATOM     26  H   UNL A   1      38.504  19.510  25.393  1.00  0.00     0.163 HD
ATOM     27  O   UNL A   1      40.582  19.711  26.645  1.00  0.00    -0.269 OA
BRANCH  25  28
ATOM     28  C   UNL A   1      40.188  22.025  26.787  1.00  0.00     0.039 A 
ATOM     29  C   UNL A   1      41.107  22.205  27.822  1.00  0.00     0.014 A 
ATOM     30  C   UNL A   1      39.636  23.126  26.128  1.00  0.00     0.014 A 
ATOM     31  C   UNL A   1      41.532  23.495  28.147  1.00  0.00     0.010 A 
ATOM     32  C   UNL A   1      40.109  24.404  26.409  1.00  0.00     0.010 A 
ATOM     33  C   UNL A   1      41.066  24.601  27.417  1.00  0.00    -0.014 A 
BRANCH  33  34
ATOM     34  C   UNL A   1      41.564  25.973  27.695  1.00  0.00     0.031 A 
ATOM     35  C   UNL A   1      42.948  26.368  27.258  1.00  0.00     0.074 A 
ATOM     36  C   UNL A   1      40.796  26.836  28.390  1.00  0.00     0.049 A 
ATOM     37  N   UNL A   1      43.604  27.475  27.491  1.00  0.00    -0.248 NA
ATOM     38  C   UNL A   1      43.701  25.372  26.482  1.00  0.00     0.031 C 
ATOM     39  C   UNL A   1      39.452  26.552  28.898  1.00  0.00     0.029 A 
ATOM     40  N   UNL A   1      41.038  28.122  28.802  1.00  0.00    -0.354 N 
ATOM     41  C   UNL A   1      44.848  27.309  26.891  1.00  0.00     0.074 A 
ATOM     42  C   UNL A   1      44.875  25.969  26.345  1.00  0.00     0.031 C 
ATOM     43  C   UNL A   1      38.986  27.636  29.541  1.00  0.00     0.029 A 
ATOM     44  C   UNL A   1      40.009  28.677  29.529  1.00  0.00     0.049 A 
ATOM     45  H   UNL A   1      41.872  28.605  28.598  1.00  0.00     0.167 HD
ATOM     46  C   UNL A   1      45.863  28.202  26.780  1.00  0.00     0.034 A 
ATOM     47  C   UNL A   1      39.909  29.880  30.129  1.00  0.00     0.034 A 
ATOM     48  C   UNL A   1      45.819  29.537  27.324  1.00  0.00     0.049 A 
ATOM     49  C   UNL A   1      41.062  30.847  30.012  1.00  0.00     0.074 A 
ATOM     50  C   UNL A   1      46.784  30.528  27.259  1.00  0.00     0.029 A 
ATOM     51  N   UNL A   1      44.750  30.071  28.031  1.00  0.00    -0.354 N 
ATOM     52  N   UNL A   1      42.220  30.683  29.414  1.00  0.00    -0.248 NA
ATOM     53  C   UNL A   1      40.890  32.166  30.635  1.00  0.00     0.031 C 
ATOM     54  C   UNL A   1      46.319  31.642  27.966  1.00  0.00     0.029 A 
ATOM     55  C   UNL A   1      45.036  31.371  28.417  1.00  0.00     0.049 A 
ATOM     56  H   UNL A   1      43.911  29.596  28.229  1.00  0.00     0.167 HD
ATOM     57  C   UNL A   1      42.897  31.892  29.562  1.00  0.00     0.074 A 
ATOM     58  C   UNL A   1      42.011  32.778  30.286  1.00  0.00     0.031 C 
ATOM     59  C   UNL A   1      44.137  32.240  29.136  1.00  0.00     0.034 A 
BRANCH  46  60
ATOM     60  C   UNL A   1      47.103  27.752  26.050  1.00  0.00     0.023 A 
ATOM     61  C   UNL A   1      47.270  27.995  24.675  1.00  0.00     0.031 A 
ATOM     62  C   UNL A   1      48.121  27.057  26.724  1.00  0.00     0.131 A 
ATOM     63  C   UNL A   1      48.393  27.490  24.005  1.00  0.00     0.055 A 
ATOM     64  C   UNL A   1      49.275  26.624  26.066  1.00  0.00     0.041 A 
ATOM     65  F   UNL A   1      48.009  26.778  28.033  1.00  0.00    -0.206 F 
ATOM     66  C   UNL A   1      49.410  26.828  24.696  1.00  0.00     0.022 A 
BRANCH  63  67
ATOM     67  S   UNL A   1      48.446  27.605  22.197  1.00  0.00     0.124 S 
ATOM     68  O   UNL A   1      48.629  26.206  21.818  1.00  0.00    -0.237 OA
ATOM     69  O   UNL A   1      47.147  28.187  21.878  1.00  0.00    -0.237 OA
ATOM     70  O   UNL A   1      49.596  28.470  21.941  1.00  0.00    -0.744 OA
ENDBRANCH  63  67
ENDBRANCH  46  60
BRANCH  47  71
ATOM     71  C   UNL A   1      38.692  30.246  30.911  1.00  0.00     0.023 A 
ATOM     72  C   UNL A   1      37.622  30.926  30.309  1.00  0.00     0.031 A 
ATOM     73  C   UNL A   1      38.613  29.986  32.292  1.00  0.00     0.131 A 
ATOM     74  C   UNL A   1      36.552  31.383  31.093  1.00  0.00     0.055 A 
ATOM     75  C   UNL A   1      37.517  30.390  33.057  1.00  0.00     0.041 A 
ATOM     76  F   UNL A   1      39.604  29.334  32.919  1.00  0.00    -0.206 F 
ATOM     77  C   UNL A   1      36.486  31.110  32.461  1.00  0.00     0.022 A 
BRANCH  74  78
ATOM     78  S   UNL A   1      35.303  32.447  30.319  1.00  0.00     0.124 S 
ATOM     79  O   UNL A   1      34.926  31.662  29.149  1.00  0.00    -0.237 OA
ATOM     80  O   UNL A   1      34.299  32.550  31.374  1.00  0.00    -0.237 OA
ATOM     81  O   UNL A   1      36.036  33.679  30.035  1.00  0.00    -0.744 OA
ENDBRANCH  74  78
ENDBRANCH  47  71
BRANCH  59  82
ATOM     82  C   UNL A   1      44.576  33.659  29.398  1.00  0.00     0.023 A 
ATOM     83  C   UNL A   1      44.379  34.681  28.453  1.00  0.00     0.031 A 
ATOM     84  C   UNL A   1      45.215  33.986  30.606  1.00  0.00     0.131 A 
ATOM     85  C   UNL A   1      44.866  35.972  28.710  1.00  0.00     0.055 A 
ATOM     86  C   UNL A   1      45.646  35.285  30.881  1.00  0.00     0.041 A 
ATOM     87  F   UNL A   1      45.429  33.048  31.543  1.00  0.00    -0.206 F 
ATOM     88  C   UNL A   1      45.484  36.283  29.923  1.00  0.00     0.022 A 
BRANCH  85  89
ATOM     89  S   UNL A   1      44.754  37.221  27.400  1.00  0.00     0.124 S 
ATOM     90  O   UNL A   1      43.445  36.937  26.819  1.00  0.00    -0.237 OA
ATOM     91  O   UNL A   1      44.859  38.469  28.150  1.00  0.00    -0.237 OA
ATOM     92  O   UNL A   1      45.895  36.919  26.538  1.00  0.00    -0.744 OA
ENDBRANCH  85  89
ENDBRANCH  59  82
ENDBRANCH  33  34
ENDBRANCH  25  28
ENDBRANCH   1  24
TORSDOF 14
ENDMDL
MODEL 2
REMARK VINA RESULT:     -11.8      0.983      1.832
REMARK SMILES CNC(=O)NC1=[NH+]N=CN[C@@H]1C(=O)NCCCCNC(=O)c1ccc(-c2c3nc(c(-c4cc(S(=O)(=O)[O-])ccc4F)c4ccc([nH]4)c(-c4cc(S(=O)(=O)[O-])ccc4F)c4nc(c(-c5cc(S(=O)(=O)[O-])ccc5F)c5ccc2[nH]5)C=C4)C=C3)cc1
REMARK SMILES IDX 18 1 17 2 16 3 15 4 14 5 12 6 13 7 11 9 1 10 2 11 3 12 4 14
REMARK SMILES IDX 5 15 6 16 7 18 8 19 10 21 9 22 19 24 20 25 21 27 22 28 23 29
REMARK SMILES IDX 84 30 24 31 83 32 25 33 26 34 27 35 77 36 28 37 82 38 76 39
REMARK SMILES IDX 78 40 29 41 81 42 75 43 74 44 30 46 62 47 42 48 61 49 43 50
REMARK SMILES IDX 46 51 60 52 79 53 44 54 45 55 59 57 80 58 47 59 31 60 32 61
REMARK SMILES IDX 40 62 33 63 39 64 41 65 38 66 34 67 35 68 36 69 37 70 63 71
REMARK SMILES IDX 64 72 72 73 65 74 71 75 73 76 70 77 66 78 67 79 68 80 69 81
REMARK SMILES IDX 48 82 49 83 57 84 50 85 56 86 58 87 55 88 51 89 52 90 53 91
REMARK SMILES IDX 54 92
REMARK H PARENT 14 8 2 13 5 17 7 20 10 23 19 26 78 45 46 56
REMARK Flexibility Score: inf
ROOT
ATOM      1  C   UNL A   1      37.548  21.330  25.111  1.00  0.00     0.116 C 
ENDROOT
BRANCH   1   2
ATOM      2  C   UNL A   1      36.127  21.071  25.599  1.00  0.00     0.023 C 
BRANCH   2   3
ATOM      3  C   UNL A   1      35.530  22.164  26.491  1.00  0.00     0.023 C 
BRANCH   3   4
ATOM      4  C   UNL A   1      34.325  21.723  27.319  1.00  0.00     0.116 C 
BRANCH   4   5
ATOM      5  N   UNL A   1      33.380  20.948  26.538  1.00  0.00    -0.354 N 
ATOM      6  C   UNL A   1      32.623  21.306  25.462  1.00  0.00     0.255 C 
ATOM      7  O   UNL A   1      31.852  20.451  25.009  1.00  0.00    -0.272 OA
ATOM      8  H   UNL A   1      33.266  20.015  26.832  1.00  0.00     0.163 HD
BRANCH   6   9
ATOM      9  C   UNL A   1      32.649  22.715  24.844  1.00  0.00     0.287 C 
ATOM     10  C   UNL A   1      31.970  25.718  26.247  1.00  0.00     0.147 C 
ATOM     11  N   UNL A   1      31.311  24.694  27.035  1.00  0.00    -0.321 N 
ATOM     12  C   UNL A   1      30.407  23.763  26.629  1.00  0.00     0.406 C 
ATOM     13  H   UNL A   1      31.550  24.671  27.990  1.00  0.00     0.167 HD
ATOM     14  O   UNL A   1      29.675  23.213  27.445  1.00  0.00    -0.221 OA
ATOM     15  N   UNL A   1      30.305  23.517  25.291  1.00  0.00    -0.191 N 
ATOM     16  C   UNL A   1      31.287  23.224  24.379  1.00  0.00     0.309 C 
ATOM     17  H   UNL A   1      29.392  23.556  24.926  1.00  0.00     0.317 HD
ATOM     18  N   UNL A   1      30.968  23.455  23.140  1.00  0.00    -0.148 N 
ATOM     19  N   UNL A   1      31.962  23.360  22.146  1.00  0.00    -0.077 NA
ATOM     20  H   UNL A   1      30.044  23.694  22.900  1.00  0.00     0.342 HD
ATOM     21  N   UNL A   1      33.611  22.793  23.756  1.00  0.00    -0.352 N 
ATOM     22  C   UNL A   1      33.171  23.080  22.507  1.00  0.00     0.241 C 
ATOM     23  H   UNL A   1      34.568  22.641  23.925  1.00  0.00     0.163 HD
ENDBRANCH   6   9
ENDBRANCH   4   5
ENDBRANCH   3   4
ENDBRANCH   2   3
ENDBRANCH   1   2
BRANCH   1  24
ATOM     24  N   UNL A   1      38.498  20.316  25.537  1.00  0.00    -0.352 N 
ATOM     25  C   UNL A   1      39.686  20.492  26.213  1.00  0.00     0.251 C 
ATOM     26  H   UNL A   1      38.264  19.386  25.314  1.00  0.00     0.163 HD
ATOM     27  O   UNL A   1      40.433  19.547  26.407  1.00  0.00    -0.269 OA
BRANCH  25  28
ATOM     28  C   UNL A   1      40.057  21.855  26.654  1.00  0.00     0.039 A 
ATOM     29  C   UNL A   1      41.077  22.003  27.595  1.00  0.00     0.014 A 
ATOM     30  C   UNL A   1      39.435  22.976  26.097  1.00  0.00     0.014 A 
ATOM     31  C   UNL A   1      41.527  23.284  27.924  1.00  0.00     0.010 A 
ATOM     32  C   UNL A   1      39.929  24.247  26.378  1.00  0.00     0.010 A 
ATOM     33  C   UNL A   1      40.983  24.413  27.289  1.00  0.00    -0.014 A 
BRANCH  33  34
ATOM     34  C   UNL A   1      41.501  25.778  27.568  1.00  0.00     0.031 A 
ATOM     35  C   UNL A   1      42.879  26.163  27.105  1.00  0.00     0.074 A 
ATOM     36  C   UNL A   1      40.756  26.643  28.287  1.00  0.00     0.049 A 
ATOM     37  N   UNL A   1      43.551  27.261  27.333  1.00  0.00    -0.248 NA
ATOM     38  C   UNL A   1      43.606  25.165  26.305  1.00  0.00     0.031 C 
ATOM     39  C   UNL A   1      39.420  26.367  28.821  1.00  0.00     0.029 A 
ATOM     40  N   UNL A   1      41.020  27.923  28.704  1.00  0.00    -0.354 N 
ATOM     41  C   UNL A   1      44.780  27.088  26.706  1.00  0.00     0.074 A 
ATOM     42  C   UNL A   1      44.782  25.753  26.148  1.00  0.00     0.031 C 
ATOM     43  C   UNL A   1      38.979  27.451  29.482  1.00  0.00     0.029 A 
ATOM     44  C   UNL A   1      40.012  28.481  29.457  1.00  0.00     0.049 A 
ATOM     45  H   UNL A   1      41.854  28.399  28.486  1.00  0.00     0.167 HD
ATOM     46  C   UNL A   1      45.802  27.972  26.581  1.00  0.00     0.034 A 
ATOM     47  C   UNL A   1      39.937  29.680  30.069  1.00  0.00     0.034 A 
ATOM     48  C   UNL A   1      45.783  29.302  27.136  1.00  0.00     0.049 A 
ATOM     49  C   UNL A   1      41.097  30.637  29.935  1.00  0.00     0.074 A 
ATOM     50  C   UNL A   1      46.756  30.285  27.059  1.00  0.00     0.029 A 
ATOM     51  N   UNL A   1      44.734  29.841  27.871  1.00  0.00    -0.354 N 
ATOM     52  N   UNL A   1      42.240  30.466  29.312  1.00  0.00    -0.248 NA
ATOM     53  C   UNL A   1      40.951  31.952  30.572  1.00  0.00     0.031 C 
ATOM     54  C   UNL A   1      46.317  31.397  27.785  1.00  0.00     0.029 A 
ATOM     55  C   UNL A   1      45.041  31.135  28.261  1.00  0.00     0.049 A 
ATOM     56  H   UNL A   1      43.894  29.373  28.082  1.00  0.00     0.167 HD
ATOM     57  C   UNL A   1      42.932  31.667  29.455  1.00  0.00     0.074 A 
ATOM     58  C   UNL A   1      42.071  32.555  30.205  1.00  0.00     0.031 C 
ATOM     59  C   UNL A   1      44.166  32.007  29.006  1.00  0.00     0.034 A 
BRANCH  46  60
ATOM     60  C   UNL A   1      47.021  27.516  25.821  1.00  0.00     0.023 A 
ATOM     61  C   UNL A   1      47.221  27.876  24.476  1.00  0.00     0.031 A 
ATOM     62  C   UNL A   1      47.986  26.698  26.434  1.00  0.00     0.131 A 
ATOM     63  C   UNL A   1      48.321  27.367  23.770  1.00  0.00     0.055 A 
ATOM     64  C   UNL A   1      49.120  26.257  25.747  1.00  0.00     0.041 A 
ATOM     65  F   UNL A   1      47.839  26.305  27.710  1.00  0.00    -0.206 F 
ATOM     66  C   UNL A   1      49.285  26.580  24.403  1.00  0.00     0.022 A 
BRANCH  63  67
ATOM     67  S   UNL A   1      48.405  27.648  21.981  1.00  0.00     0.124 S 
ATOM     68  O   UNL A   1      49.532  28.573  21.882  1.00  0.00    -0.237 OA
ATOM     69  O   UNL A   1      48.633  26.306  21.460  1.00  0.00    -0.237 OA
ATOM     70  O   UNL A   1      47.102  28.227  21.663  1.00  0.00    -0.744 OA
ENDBRANCH  63  67
ENDBRANCH  46  60
BRANCH  47  71
ATOM     71  C   UNL A   1      38.740  30.051  30.879  1.00  0.00     0.023 A 
ATOM     72  C   UNL A   1      37.685  30.786  30.317  1.00  0.00     0.031 A 
ATOM     73  C   UNL A   1      38.669  29.740  32.250  1.00  0.00     0.131 A 
ATOM     74  C   UNL A   1      36.638  31.244  31.132  1.00  0.00     0.055 A 
ATOM     75  C   UNL A   1      37.594  30.147  33.044  1.00  0.00     0.041 A 
ATOM     76  F   UNL A   1      39.647  29.035  32.839  1.00  0.00    -0.206 F 
ATOM     77  C   UNL A   1      36.579  30.920  32.488  1.00  0.00     0.022 A 
BRANCH  74  78
ATOM     78  S   UNL A   1      35.413  32.374  30.415  1.00  0.00     0.124 S 
ATOM     79  O   UNL A   1      34.386  32.398  31.451  1.00  0.00    -0.237 OA
ATOM     80  O   UNL A   1      36.191  33.598  30.254  1.00  0.00    -0.237 OA
ATOM     81  O   UNL A   1      35.029  31.713  29.169  1.00  0.00    -0.744 OA
ENDBRANCH  74  78
ENDBRANCH  47  71
BRANCH  59  82
ATOM     82  C   UNL A   1      44.625  33.419  29.270  1.00  0.00     0.023 A 
ATOM     83  C   UNL A   1      44.354  34.465  28.371  1.00  0.00     0.031 A 
ATOM     84  C   UNL A   1      45.358  33.715  30.432  1.00  0.00     0.131 A 
ATOM     85  C   UNL A   1      44.860  35.749  28.623  1.00  0.00     0.055 A 
ATOM     86  C   UNL A   1      45.809  35.006  30.706  1.00  0.00     0.041 A 
ATOM     87  F   UNL A   1      45.644  32.753  31.324  1.00  0.00    -0.206 F 
ATOM     88  C   UNL A   1      45.572  36.030  29.792  1.00  0.00     0.022 A 
BRANCH  85  89
ATOM     89  S   UNL A   1      44.645  37.033  27.361  1.00  0.00     0.124 S 
ATOM     90  O   UNL A   1      45.814  36.824  26.512  1.00  0.00    -0.237 OA
ATOM     91  O   UNL A   1      43.358  36.678  26.770  1.00  0.00    -0.237 OA
ATOM     92  O   UNL A   1      44.651  38.277  28.129  1.00  0.00    -0.744 OA
ENDBRANCH  85  89
ENDBRANCH  59  82
ENDBRANCH  33  34
ENDBRANCH  25  28
ENDBRANCH   1  24
TORSDOF 14
ENDMDL
MODEL 3
REMARK VINA RESULT:     -11.8      1.148      2.008
REMARK SMILES CNC(=O)NC1=[NH+]N=CN[C@@H]1C(=O)NCCCCNC(=O)c1ccc(-c2c3nc(c(-c4cc(S(=O)(=O)[O-])ccc4F)c4ccc([nH]4)c(-c4cc(S(=O)(=O)[O-])ccc4F)c4nc(c(-c5cc(S(=O)(=O)[O-])ccc5F)c5ccc2[nH]5)C=C4)C=C3)cc1
REMARK SMILES IDX 18 1 17 2 16 3 15 4 14 5 12 6 13 7 11 9 1 10 2 11 3 12 4 14
REMARK SMILES IDX 5 15 6 16 7 18 8 19 10 21 9 22 19 24 20 25 21 27 22 28 23 29
REMARK SMILES IDX 84 30 24 31 83 32 25 33 26 34 27 35 77 36 28 37 82 38 76 39
REMARK SMILES IDX 78 40 29 41 81 42 75 43 74 44 30 46 62 47 42 48 61 49 43 50
REMARK SMILES IDX 46 51 60 52 79 53 44 54 45 55 59 57 80 58 47 59 31 60 32 61
REMARK SMILES IDX 40 62 33 63 39 64 41 65 38 66 34 67 35 68 36 69 37 70 63 71
REMARK SMILES IDX 64 72 72 73 65 74 71 75 73 76 70 77 66 78 67 79 68 80 69 81
REMARK SMILES IDX 48 82 49 83 57 84 50 85 56 86 58 87 55 88 51 89 52 90 53 91
REMARK SMILES IDX 54 92
REMARK H PARENT 14 8 2 13 5 17 7 20 10 23 19 26 78 45 46 56
REMARK Flexibility Score: inf
ROOT
ATOM      1  C   UNL A   1      37.127  22.052  25.552  1.00  0.00     0.116 C 
ENDROOT
BRANCH   1   2
ATOM      2  C   UNL A   1      36.348  21.828  24.260  1.00  0.00     0.023 C 
BRANCH   2   3
ATOM      3  C   UNL A   1      36.356  23.002  23.277  1.00  0.00     0.023 C 
BRANCH   3   4
ATOM      4  C   UNL A   1      35.221  24.005  23.474  1.00  0.00     0.116 C 
BRANCH   4   5
ATOM      5  N   UNL A   1      33.959  23.510  22.958  1.00  0.00    -0.354 N 
ATOM      6  C   UNL A   1      32.805  23.189  23.611  1.00  0.00     0.255 C 
ATOM      7  O   UNL A   1      31.880  22.737  22.925  1.00  0.00    -0.272 OA
ATOM      8  H   UNL A   1      33.930  23.385  21.983  1.00  0.00     0.163 HD
BRANCH   6   9
ATOM      9  C   UNL A   1      32.637  23.309  25.135  1.00  0.00     0.287 C 
ATOM     10  C   UNL A   1      33.970  21.447  27.625  1.00  0.00     0.147 C 
ATOM     11  N   UNL A   1      33.981  20.651  26.412  1.00  0.00    -0.321 N 
ATOM     12  C   UNL A   1      32.935  20.310  25.612  1.00  0.00     0.406 C 
ATOM     13  H   UNL A   1      34.862  20.312  26.132  1.00  0.00     0.167 HD
ATOM     14  O   UNL A   1      33.026  19.357  24.847  1.00  0.00    -0.221 OA
ATOM     15  N   UNL A   1      31.779  21.022  25.742  1.00  0.00    -0.191 N 
ATOM     16  C   UNL A   1      31.581  22.380  25.728  1.00  0.00     0.309 C 
ATOM     17  H   UNL A   1      30.965  20.481  25.864  1.00  0.00     0.317 HD
ATOM     18  N   UNL A   1      30.475  22.776  26.284  1.00  0.00    -0.148 N 
ATOM     19  N   UNL A   1      30.263  24.155  26.484  1.00  0.00    -0.077 NA
ATOM     20  H   UNL A   1      29.795  22.121  26.563  1.00  0.00     0.342 HD
ATOM     21  N   UNL A   1      32.369  24.684  25.527  1.00  0.00    -0.352 N 
ATOM     22  C   UNL A   1      31.195  24.979  26.137  1.00  0.00     0.241 C 
ATOM     23  H   UNL A   1      33.031  25.391  25.351  1.00  0.00     0.163 HD
ENDBRANCH   6   9
ENDBRANCH   4   5
ENDBRANCH   3   4
ENDBRANCH   2   3
ENDBRANCH   1   2
BRANCH   1  24
ATOM     24  N   UNL A   1      38.188  21.082  25.762  1.00  0.00    -0.352 N 
ATOM     25  C   UNL A   1      39.450  21.297  26.272  1.00  0.00     0.251 C 
ATOM     26  H   UNL A   1      37.979  20.154  25.508  1.00  0.00     0.163 HD
ATOM     27  O   UNL A   1      40.273  20.395  26.287  1.00  0.00    -0.269 OA
BRANCH  25  28
ATOM     28  C   UNL A   1      39.800  22.651  26.754  1.00  0.00     0.039 A 
ATOM     29  C   UNL A   1      40.743  22.779  27.776  1.00  0.00     0.014 A 
ATOM     30  C   UNL A   1      39.238  23.784  26.160  1.00  0.00     0.014 A 
ATOM     31  C   UNL A   1      41.180  24.050  28.152  1.00  0.00     0.010 A 
ATOM     32  C   UNL A   1      39.722  25.046  26.491  1.00  0.00     0.010 A 
ATOM     33  C   UNL A   1      40.702  25.191  27.486  1.00  0.00    -0.014 A 
BRANCH  33  34
ATOM     34  C   UNL A   1      41.211  26.548  27.818  1.00  0.00     0.031 A 
ATOM     35  C   UNL A   1      42.636  26.909  27.501  1.00  0.00     0.074 A 
ATOM     36  C   UNL A   1      40.411  27.426  28.457  1.00  0.00     0.049 A 
ATOM     37  N   UNL A   1      43.300  27.995  27.798  1.00  0.00    -0.248 NA
ATOM     38  C   UNL A   1      43.424  25.898  26.779  1.00  0.00     0.031 C 
ATOM     39  C   UNL A   1      39.023  27.174  28.850  1.00  0.00     0.029 A 
ATOM     40  N   UNL A   1      40.653  28.701  28.901  1.00  0.00    -0.354 N 
ATOM     41  C   UNL A   1      44.584  27.801  27.301  1.00  0.00     0.074 A 
ATOM     42  C   UNL A   1      44.621  26.465  26.745  1.00  0.00     0.031 C 
ATOM     43  C   UNL A   1      38.534  28.265  29.463  1.00  0.00     0.029 A 
ATOM     44  C   UNL A   1      39.582  29.277  29.546  1.00  0.00     0.049 A 
ATOM     45  H   UNL A   1      41.513  29.163  28.770  1.00  0.00     0.167 HD
ATOM     46  C   UNL A   1      45.628  28.667  27.284  1.00  0.00     0.034 A 
ATOM     47  C   UNL A   1      39.464  30.478  30.148  1.00  0.00     0.034 A 
ATOM     48  C   UNL A   1      45.574  29.998  27.835  1.00  0.00     0.049 A 
ATOM     49  C   UNL A   1      40.648  31.414  30.136  1.00  0.00     0.074 A 
ATOM     50  C   UNL A   1      46.567  30.963  27.860  1.00  0.00     0.029 A 
ATOM     51  N   UNL A   1      44.465  30.555  28.458  1.00  0.00    -0.354 N 
ATOM     52  N   UNL A   1      41.847  31.224  29.634  1.00  0.00    -0.248 NA
ATOM     53  C   UNL A   1      40.459  32.732  30.756  1.00  0.00     0.031 C 
ATOM     54  C   UNL A   1      46.075  32.083  28.538  1.00  0.00     0.029 A 
ATOM     55  C   UNL A   1      44.752  31.844  28.879  1.00  0.00     0.049 A 
ATOM     56  H   UNL A   1      43.600  30.101  28.581  1.00  0.00     0.167 HD
ATOM     57  C   UNL A   1      42.540  32.412  29.849  1.00  0.00     0.074 A 
ATOM     58  C   UNL A   1      41.621  33.316  30.507  1.00  0.00     0.031 C 
ATOM     59  C   UNL A   1      43.820  32.731  29.530  1.00  0.00     0.034 A 
BRANCH  46  60
ATOM     60  C   UNL A   1      46.911  28.189  26.653  1.00  0.00     0.023 A 
ATOM     61  C   UNL A   1      47.089  28.201  25.258  1.00  0.00     0.031 A 
ATOM     62  C   UNL A   1      47.963  27.699  27.447  1.00  0.00     0.131 A 
ATOM     63  C   UNL A   1      48.260  27.672  24.696  1.00  0.00     0.055 A 
ATOM     64  C   UNL A   1      49.158  27.244  26.884  1.00  0.00     0.041 A 
ATOM     65  F   UNL A   1      47.844  27.644  28.783  1.00  0.00    -0.206 F 
ATOM     66  C   UNL A   1      49.306  27.217  25.500  1.00  0.00     0.022 A 
BRANCH  63  67
ATOM     67  S   UNL A   1      48.341  27.474  22.896  1.00  0.00     0.124 S 
ATOM     68  O   UNL A   1      47.148  28.200  22.466  1.00  0.00    -0.237 OA
ATOM     69  O   UNL A   1      49.618  28.095  22.566  1.00  0.00    -0.237 OA
ATOM     70  O   UNL A   1      48.284  26.027  22.706  1.00  0.00    -0.744 OA
ENDBRANCH  63  67
ENDBRANCH  46  60
BRANCH  47  71
ATOM     71  C   UNL A   1      38.197  30.870  30.831  1.00  0.00     0.023 A 
ATOM     72  C   UNL A   1      37.190  31.567  30.144  1.00  0.00     0.031 A 
ATOM     73  C   UNL A   1      38.005  30.619  32.202  1.00  0.00     0.131 A 
ATOM     74  C   UNL A   1      36.071  32.047  30.840  1.00  0.00     0.055 A 
ATOM     75  C   UNL A   1      36.860  31.047  32.877  1.00  0.00     0.041 A 
ATOM     76  F   UNL A   1      38.932  29.952  32.907  1.00  0.00    -0.206 F 
ATOM     77  C   UNL A   1      35.893  31.783  32.199  1.00  0.00     0.022 A 
BRANCH  74  78
ATOM     78  S   UNL A   1      34.906  33.130  29.966  1.00  0.00     0.124 S 
ATOM     79  O   UNL A   1      34.027  33.558  31.049  1.00  0.00    -0.237 OA
ATOM     80  O   UNL A   1      35.796  34.150  29.420  1.00  0.00    -0.237 OA
ATOM     81  O   UNL A   1      34.295  32.244  28.978  1.00  0.00    -0.744 OA
ENDBRANCH  74  78
ENDBRANCH  47  71
BRANCH  59  82
ATOM     82  C   UNL A   1      44.273  34.135  29.842  1.00  0.00     0.023 A 
ATOM     83  C   UNL A   1      44.116  35.185  28.921  1.00  0.00     0.031 A 
ATOM     84  C   UNL A   1      44.886  34.420  31.075  1.00  0.00     0.131 A 
ATOM     85  C   UNL A   1      44.614  36.461  29.225  1.00  0.00     0.055 A 
ATOM     86  C   UNL A   1      45.329  35.703  31.395  1.00  0.00     0.041 A 
ATOM     87  F   UNL A   1      45.061  33.454  31.990  1.00  0.00    -0.206 F 
ATOM     88  C   UNL A   1      45.206  36.730  30.462  1.00  0.00     0.022 A 
BRANCH  85  89
ATOM     89  S   UNL A   1      44.555  37.747  27.948  1.00  0.00     0.124 S 
ATOM     90  O   UNL A   1      45.605  37.315  27.032  1.00  0.00    -0.237 OA
ATOM     91  O   UNL A   1      43.188  37.628  27.449  1.00  0.00    -0.237 OA
ATOM     92  O   UNL A   1      44.840  38.977  28.685  1.00  0.00    -0.744 OA
ENDBRANCH  85  89
ENDBRANCH  59  82
ENDBRANCH  33  34
ENDBRANCH  25  28
ENDBRANCH   1  24
TORSDOF 14
ENDMDL
