MODEL 1
REMARK VINA RESULT:     -12.7      0.000      0.000
REMARK SMILES O=C(CN1C(=O)c2ccccc2C1=O)Nc1c(Br)cc(Br)cc1C(=O)NCCCCNC(=O)c1ccc(-c2c3nc(c(-c4cc(S(=O)(=O)[O-])ccc4F)c4ccc([nH]4)c(-c4cc(S(=O)(=O)[O-])ccc4F)c4nc(c(-c5cc(S(=O)(=O)[O-])ccc5F)c5ccc2[nH]5)C=C4)C=C3)cc1
REMARK SMILES IDX 28 1 27 2 26 3 24 4 25 5 23 7 16 8 17 9 18 10 19 11 22 12
REMARK SMILES IDX 20 13 21 14 15 15 1 16 2 17 3 19 4 20 5 21 13 22 6 23 7 24
REMARK SMILES IDX 12 25 14 26 8 27 11 28 9 29 10 30 29 31 30 32 31 33 32 34
REMARK SMILES IDX 33 36 34 37 35 38 96 39 36 40 95 41 37 42 38 43 39 44 89 45
REMARK SMILES IDX 40 46 94 47 88 48 90 49 41 50 93 51 87 52 86 53 42 55 74 56
REMARK SMILES IDX 54 57 73 58 55 59 58 60 72 61 91 62 56 63 57 64 71 66 92 67
REMARK SMILES IDX 59 68 43 69 44 70 52 71 45 72 51 73 53 74 50 75 46 76 47 77
REMARK SMILES IDX 48 78 49 79 75 80 76 81 84 82 77 83 83 84 85 85 82 86 78 87
REMARK SMILES IDX 79 88 80 89 81 90 60 91 61 92 69 93 62 94 68 95 70 96 67 97
REMARK SMILES IDX 63 98 64 99 65 100 66 101
REMARK H PARENT 26 6 15 18 31 35 90 54 58 65
REMARK Flexibility Score: inf
ROOT
ATOM      1  C   UNL A   1      36.912  22.045  24.413  1.00  0.00     0.023 C 
ENDROOT
BRANCH   1   2
ATOM      2  C   UNL A   1      36.084  22.905  25.342  1.00  0.00     0.116 C 
BRANCH   2   3
ATOM      3  N   UNL A   1      35.573  22.185  26.451  1.00  0.00    -0.352 N 
ATOM      4  C   UNL A   1      34.390  21.533  26.577  1.00  0.00     0.253 C 
ATOM      5  O   UNL A   1      34.021  21.440  27.754  1.00  0.00    -0.269 OA
ATOM      6  H   UNL A   1      36.159  22.155  27.242  1.00  0.00     0.163 HD
BRANCH   4   7
ATOM      7  C   UNL A   1      33.572  20.869  25.477  1.00  0.00     0.065 A 
ATOM      8  C   UNL A   1      32.845  21.331  24.335  1.00  0.00     0.068 A 
ATOM      9  C   UNL A   1      32.397  20.344  23.399  1.00  0.00     0.043 A 
ATOM     10  Br  UNL A   1      31.732  20.809  21.661  1.00  0.00    -0.048 Br
ATOM     11  C   UNL A   1      32.541  18.968  23.614  1.00  0.00     0.033 A 
ATOM     12  C   UNL A   1      33.633  19.454  25.678  1.00  0.00     0.031 A 
ATOM     13  C   UNL A   1      33.126  18.529  24.779  1.00  0.00     0.020 A 
ATOM     14  Br  UNL A   1      33.303  16.680  25.127  1.00  0.00    -0.051 Br
BRANCH   8  15
ATOM     15  N   UNL A   1      32.506  22.692  24.003  1.00  0.00    -0.323 N 
ATOM     16  O   UNL A   1      30.751  22.815  25.501  1.00  0.00    -0.273 OA
ATOM     17  C   UNL A   1      31.351  23.300  24.538  1.00  0.00     0.244 C 
ATOM     18  H   UNL A   1      33.088  23.202  23.395  1.00  0.00     0.170 HD
BRANCH  17  19
ATOM     19  C   UNL A   1      30.891  24.653  23.921  1.00  0.00     0.229 C 
BRANCH  19  20
ATOM     20  N   UNL A   1      31.294  25.818  24.704  1.00  0.00    -0.265 N 
ATOM     21  C   UNL A   1      30.833  26.284  25.901  1.00  0.00     0.262 C 
ATOM     22  C   UNL A   1      32.188  26.684  24.165  1.00  0.00     0.262 C 
ATOM     23  O   UNL A   1      29.915  25.867  26.582  1.00  0.00    -0.269 OA
ATOM     24  C   UNL A   1      31.635  27.480  26.237  1.00  0.00     0.053 A 
ATOM     25  C   UNL A   1      32.460  27.731  25.163  1.00  0.00     0.053 A 
ATOM     26  O   UNL A   1      32.678  26.520  23.073  1.00  0.00    -0.269 OA
ATOM     27  C   UNL A   1      31.704  28.259  27.383  1.00  0.00     0.015 A 
ATOM     28  C   UNL A   1      33.397  28.755  25.197  1.00  0.00     0.015 A 
ATOM     29  C   UNL A   1      32.666  29.283  27.439  1.00  0.00     0.001 A 
ATOM     30  C   UNL A   1      33.513  29.526  26.352  1.00  0.00     0.001 A 
ENDBRANCH  19  20
ENDBRANCH  17  19
ENDBRANCH   8  15
ENDBRANCH   4   7
ENDBRANCH   2   3
ENDBRANCH   1   2
BRANCH   1  31
ATOM     31  C   UNL A   1      37.672  20.879  25.029  1.00  0.00     0.023 C 
BRANCH  31  32
ATOM     32  C   UNL A   1      38.953  21.094  25.861  1.00  0.00     0.116 C 
BRANCH  32  33
ATOM     33  N   UNL A   1      39.999  20.068  25.865  1.00  0.00    -0.352 N 
ATOM     34  C   UNL A   1      41.352  20.000  26.126  1.00  0.00     0.251 C 
ATOM     35  H   UNL A   1      39.638  19.187  25.614  1.00  0.00     0.163 HD
ATOM     36  O   UNL A   1      41.948  18.930  26.003  1.00  0.00    -0.269 OA
BRANCH  34  37
ATOM     37  C   UNL A   1      42.131  21.208  26.417  1.00  0.00     0.039 A 
ATOM     38  C   UNL A   1      42.374  22.147  25.400  1.00  0.00     0.014 A 
ATOM     39  C   UNL A   1      42.561  21.445  27.709  1.00  0.00     0.014 A 
ATOM     40  C   UNL A   1      42.962  23.372  25.717  1.00  0.00     0.010 A 
ATOM     41  C   UNL A   1      43.005  22.704  28.049  1.00  0.00     0.010 A 
ATOM     42  C   UNL A   1      43.232  23.671  27.057  1.00  0.00    -0.014 A 
BRANCH  42  43
ATOM     43  C   UNL A   1      43.815  24.950  27.515  1.00  0.00     0.031 A 
ATOM     44  C   UNL A   1      42.878  25.990  28.060  1.00  0.00     0.074 A 
ATOM     45  C   UNL A   1      45.102  25.234  27.247  1.00  0.00     0.049 A 
ATOM     46  N   UNL A   1      43.057  27.275  28.205  1.00  0.00    -0.248 NA
ATOM     47  C   UNL A   1      41.523  25.524  28.407  1.00  0.00     0.031 C 
ATOM     48  C   UNL A   1      46.079  24.300  26.682  1.00  0.00     0.029 A 
ATOM     49  N   UNL A   1      45.795  26.409  27.366  1.00  0.00    -0.354 N 
ATOM     50  C   UNL A   1      41.824  27.776  28.610  1.00  0.00     0.074 A 
ATOM     51  C   UNL A   1      40.894  26.669  28.609  1.00  0.00     0.031 C 
ATOM     52  C   UNL A   1      47.244  24.941  26.503  1.00  0.00     0.029 A 
ATOM     53  C   UNL A   1      47.079  26.341  26.879  1.00  0.00     0.049 A 
ATOM     54  H   UNL A   1      45.411  27.224  27.764  1.00  0.00     0.167 HD
ATOM     55  C   UNL A   1      41.509  29.045  28.964  1.00  0.00     0.034 A 
ATOM     56  C   UNL A   1      48.001  27.310  26.723  1.00  0.00     0.034 A 
ATOM     57  C   UNL A   1      42.477  30.113  28.974  1.00  0.00     0.049 A 
ATOM     58  C   UNL A   1      47.637  28.715  27.129  1.00  0.00     0.074 A 
ATOM     59  C   UNL A   1      42.315  31.419  29.396  1.00  0.00     0.029 A 
ATOM     60  N   UNL A   1      43.790  29.995  28.533  1.00  0.00    -0.354 N 
ATOM     61  N   UNL A   1      46.487  29.175  27.570  1.00  0.00    -0.248 NA
ATOM     62  C   UNL A   1      48.694  29.727  27.027  1.00  0.00     0.031 C 
ATOM     63  C   UNL A   1      43.503  32.109  29.134  1.00  0.00     0.029 A 
ATOM     64  C   UNL A   1      44.438  31.215  28.636  1.00  0.00     0.049 A 
ATOM     65  H   UNL A   1      44.199  29.166  28.196  1.00  0.00     0.167 HD
ATOM     66  C   UNL A   1      46.693  30.528  27.827  1.00  0.00     0.074 A 
ATOM     67  C   UNL A   1      48.080  30.801  27.504  1.00  0.00     0.031 C 
ATOM     68  C   UNL A   1      45.821  31.460  28.291  1.00  0.00     0.034 A 
BRANCH  55  69
ATOM     69  C   UNL A   1      40.072  29.332  29.335  1.00  0.00     0.023 A 
ATOM     70  C   UNL A   1      39.657  29.432  30.676  1.00  0.00     0.031 A 
ATOM     71  C   UNL A   1      39.090  29.455  28.338  1.00  0.00     0.131 A 
ATOM     72  C   UNL A   1      38.293  29.547  30.983  1.00  0.00     0.055 A 
ATOM     73  C   UNL A   1      37.745  29.671  28.648  1.00  0.00     0.041 A 
ATOM     74  F   UNL A   1      39.414  29.342  27.039  1.00  0.00    -0.206 F 
ATOM     75  C   UNL A   1      37.336  29.698  29.979  1.00  0.00     0.022 A 
BRANCH  72  76
ATOM     76  S   UNL A   1      37.776  29.313  32.706  1.00  0.00     0.124 S 
ATOM     77  O   UNL A   1      38.897  29.904  33.433  1.00  0.00    -0.237 OA
ATOM     78  O   UNL A   1      36.520  30.053  32.761  1.00  0.00    -0.237 OA
ATOM     79  O   UNL A   1      37.655  27.863  32.833  1.00  0.00    -0.744 OA
ENDBRANCH  72  76
ENDBRANCH  55  69
BRANCH  56  80
ATOM     80  C   UNL A   1      49.343  26.985  26.160  1.00  0.00     0.023 A 
ATOM     81  C   UNL A   1      50.440  26.766  27.006  1.00  0.00     0.031 A 
ATOM     82  C   UNL A   1      49.549  26.884  24.773  1.00  0.00     0.131 A 
ATOM     83  C   UNL A   1      51.703  26.495  26.458  1.00  0.00     0.055 A 
ATOM     84  C   UNL A   1      50.796  26.561  24.233  1.00  0.00     0.041 A 
ATOM     85  F   UNL A   1      48.530  27.071  23.919  1.00  0.00    -0.206 F 
ATOM     86  C   UNL A   1      51.886  26.374  25.079  1.00  0.00     0.022 A 
BRANCH  83  87
ATOM     87  S   UNL A   1      53.123  26.365  27.578  1.00  0.00     0.124 S 
ATOM     88  O   UNL A   1      53.779  27.651  27.375  1.00  0.00    -0.237 OA
ATOM     89  O   UNL A   1      52.472  26.172  28.870  1.00  0.00    -0.237 OA
ATOM     90  O   UNL A   1      53.851  25.204  27.070  1.00  0.00    -0.744 OA
ENDBRANCH  83  87
ENDBRANCH  56  80
BRANCH  68  91
ATOM     91  C   UNL A   1      46.362  32.850  28.517  1.00  0.00     0.023 A 
ATOM     92  C   UNL A   1      46.545  33.754  27.457  1.00  0.00     0.031 A 
ATOM     93  C   UNL A   1      46.693  33.276  29.817  1.00  0.00     0.131 A 
ATOM     94  C   UNL A   1      47.101  35.017  27.707  1.00  0.00     0.055 A 
ATOM     95  C   UNL A   1      47.176  34.560  30.067  1.00  0.00     0.041 A 
ATOM     96  F   UNL A   1      46.542  32.452  30.865  1.00  0.00    -0.206 F 
ATOM     97  C   UNL A   1      47.396  35.434  29.007  1.00  0.00     0.022 A 
BRANCH  94  98
ATOM     98  S   UNL A   1      47.530  36.070  26.295  1.00  0.00     0.124 S 
ATOM     99  O   UNL A   1      46.288  36.805  26.080  1.00  0.00    -0.237 OA
ATOM    100  O   UNL A   1      48.650  36.848  26.813  1.00  0.00    -0.237 OA
ATOM    101  O   UNL A   1      47.873  35.112  25.246  1.00  0.00    -0.744 OA
ENDBRANCH  94  98
ENDBRANCH  68  91
ENDBRANCH  42  43
ENDBRANCH  34  37
ENDBRANCH  32  33
ENDBRANCH  31  32
ENDBRANCH   1  31
TORSDOF 17
ENDMDL
MODEL 2
REMARK VINA RESULT:     -12.7      5.532     11.333
REMARK SMILES O=C(CN1C(=O)c2ccccc2C1=O)Nc1c(Br)cc(Br)cc1C(=O)NCCCCNC(=O)c1ccc(-c2c3nc(c(-c4cc(S(=O)(=O)[O-])ccc4F)c4ccc([nH]4)c(-c4cc(S(=O)(=O)[O-])ccc4F)c4nc(c(-c5cc(S(=O)(=O)[O-])ccc5F)c5ccc2[nH]5)C=C4)C=C3)cc1
REMARK SMILES IDX 28 1 27 2 26 3 24 4 25 5 23 7 16 8 17 9 18 10 19 11 22 12
REMARK SMILES IDX 20 13 21 14 15 15 1 16 2 17 3 19 4 20 5 21 13 22 6 23 7 24
REMARK SMILES IDX 12 25 14 26 8 27 11 28 9 29 10 30 29 31 30 32 31 33 32 34
REMARK SMILES IDX 33 36 34 37 35 38 96 39 36 40 95 41 37 42 38 43 39 44 89 45
REMARK SMILES IDX 40 46 94 47 88 48 90 49 41 50 93 51 87 52 86 53 42 55 74 56
REMARK SMILES IDX 54 57 73 58 55 59 58 60 72 61 91 62 56 63 57 64 71 66 92 67
REMARK SMILES IDX 59 68 43 69 44 70 52 71 45 72 51 73 53 74 50 75 46 76 47 77
REMARK SMILES IDX 48 78 49 79 75 80 76 81 84 82 77 83 83 84 85 85 82 86 78 87
REMARK SMILES IDX 79 88 80 89 81 90 60 91 61 92 69 93 62 94 68 95 70 96 67 97
REMARK SMILES IDX 63 98 64 99 65 100 66 101
REMARK H PARENT 26 6 15 18 31 35 90 54 58 65
REMARK Flexibility Score: inf
ROOT
ATOM      1  C   UNL A   1      32.834  29.237  27.088  1.00  0.00     0.023 C 
ENDROOT
BRANCH   1   2
ATOM      2  C   UNL A   1      34.116  28.827  26.396  1.00  0.00     0.116 C 
BRANCH   2   3
ATOM      3  N   UNL A   1      34.048  28.959  24.987  1.00  0.00    -0.352 N 
ATOM      4  C   UNL A   1      33.501  28.118  24.073  1.00  0.00     0.253 C 
ATOM      5  O   UNL A   1      34.011  28.237  22.952  1.00  0.00    -0.269 OA
ATOM      6  H   UNL A   1      34.456  29.776  24.619  1.00  0.00     0.163 HD
BRANCH   4   7
ATOM      7  C   UNL A   1      32.329  27.167  24.269  1.00  0.00     0.065 A 
ATOM      8  C   UNL A   1      32.154  25.885  24.881  1.00  0.00     0.068 A 
ATOM      9  C   UNL A   1      30.812  25.422  25.063  1.00  0.00     0.043 A 
ATOM     10  Br  UNL A   1      30.389  23.915  26.172  1.00  0.00    -0.048 Br
ATOM     11  C   UNL A   1      29.695  26.108  24.570  1.00  0.00     0.033 A 
ATOM     12  C   UNL A   1      31.160  27.791  23.729  1.00  0.00     0.031 A 
ATOM     13  C   UNL A   1      29.881  27.276  23.867  1.00  0.00     0.020 A 
ATOM     14  Br  UNL A   1      28.404  28.212  23.151  1.00  0.00    -0.051 Br
BRANCH   8  15
ATOM     15  N   UNL A   1      33.182  24.991  25.351  1.00  0.00    -0.323 N 
ATOM     16  O   UNL A   1      34.165  24.735  23.275  1.00  0.00    -0.273 OA
ATOM     17  C   UNL A   1      34.056  24.355  24.443  1.00  0.00     0.244 C 
ATOM     18  H   UNL A   1      33.275  24.822  26.316  1.00  0.00     0.170 HD
BRANCH  17  19
ATOM     19  C   UNL A   1      34.942  23.194  24.981  1.00  0.00     0.229 C 
BRANCH  19  20
ATOM     20  N   UNL A   1      34.412  21.867  24.676  1.00  0.00    -0.265 N 
ATOM     21  C   UNL A   1      33.202  21.491  24.171  1.00  0.00     0.262 C 
ATOM     22  C   UNL A   1      35.142  20.780  25.030  1.00  0.00     0.262 C 
ATOM     23  O   UNL A   1      32.234  22.181  23.908  1.00  0.00    -0.269 OA
ATOM     24  C   UNL A   1      33.229  20.019  24.033  1.00  0.00     0.053 A 
ATOM     25  C   UNL A   1      34.419  19.582  24.573  1.00  0.00     0.053 A 
ATOM     26  O   UNL A   1      36.220  20.866  25.568  1.00  0.00    -0.269 OA
ATOM     27  C   UNL A   1      32.345  19.126  23.445  1.00  0.00     0.015 A 
ATOM     28  C   UNL A   1      34.781  18.243  24.531  1.00  0.00     0.015 A 
ATOM     29  C   UNL A   1      32.713  17.770  23.375  1.00  0.00     0.001 A 
ATOM     30  C   UNL A   1      33.929  17.332  23.910  1.00  0.00     0.001 A 
ENDBRANCH  19  20
ENDBRANCH  17  19
ENDBRANCH   8  15
ENDBRANCH   4   7
ENDBRANCH   2   3
ENDBRANCH   1   2
BRANCH   1  31
ATOM     31  C   UNL A   1      32.404  30.692  26.960  1.00  0.00     0.023 C 
BRANCH  31  32
ATOM     32  C   UNL A   1      33.408  31.852  27.118  1.00  0.00     0.116 C 
BRANCH  32  33
ATOM     33  N   UNL A   1      32.968  33.122  27.701  1.00  0.00    -0.352 N 
ATOM     34  C   UNL A   1      33.402  33.993  28.678  1.00  0.00     0.251 C 
ATOM     35  H   UNL A   1      32.137  33.441  27.280  1.00  0.00     0.163 HD
ATOM     36  O   UNL A   1      32.744  35.001  28.938  1.00  0.00    -0.269 OA
BRANCH  34  37
ATOM     37  C   UNL A   1      34.563  33.677  29.518  1.00  0.00     0.039 A 
ATOM     38  C   UNL A   1      34.441  32.738  30.556  1.00  0.00     0.014 A 
ATOM     39  C   UNL A   1      35.785  34.256  29.233  1.00  0.00     0.014 A 
ATOM     40  C   UNL A   1      35.582  32.311  31.237  1.00  0.00     0.010 A 
ATOM     41  C   UNL A   1      36.925  33.732  29.801  1.00  0.00     0.010 A 
ATOM     42  C   UNL A   1      36.836  32.773  30.823  1.00  0.00    -0.014 A 
BRANCH  42  43
ATOM     43  C   UNL A   1      38.113  32.360  31.442  1.00  0.00     0.031 A 
ATOM     44  C   UNL A   1      38.888  31.258  30.776  1.00  0.00     0.074 A 
ATOM     45  C   UNL A   1      38.442  32.812  32.665  1.00  0.00     0.049 A 
ATOM     46  N   UNL A   1      39.823  30.489  31.263  1.00  0.00    -0.248 NA
ATOM     47  C   UNL A   1      38.488  30.927  29.396  1.00  0.00     0.031 C 
ATOM     48  C   UNL A   1      37.728  33.853  33.407  1.00  0.00     0.029 A 
ATOM     49  N   UNL A   1      39.435  32.413  33.520  1.00  0.00    -0.354 N 
ATOM     50  C   UNL A   1      40.085  29.551  30.270  1.00  0.00     0.074 A 
ATOM     51  C   UNL A   1      39.157  29.805  29.190  1.00  0.00     0.031 C 
ATOM     52  C   UNL A   1      38.305  34.008  34.609  1.00  0.00     0.029 A 
ATOM     53  C   UNL A   1      39.387  33.037  34.745  1.00  0.00     0.049 A 
ATOM     54  H   UNL A   1      40.117  31.745  33.282  1.00  0.00     0.167 HD
ATOM     55  C   UNL A   1      41.030  28.580  30.260  1.00  0.00     0.034 A 
ATOM     56  C   UNL A   1      40.112  32.822  35.859  1.00  0.00     0.034 A 
ATOM     57  C   UNL A   1      41.952  28.381  31.350  1.00  0.00     0.049 A 
ATOM     58  C   UNL A   1      41.164  31.742  35.829  1.00  0.00     0.074 A 
ATOM     59  C   UNL A   1      43.011  27.497  31.431  1.00  0.00     0.029 A 
ATOM     60  N   UNL A   1      41.916  29.074  32.554  1.00  0.00    -0.354 N 
ATOM     61  N   UNL A   1      41.451  30.897  34.864  1.00  0.00    -0.248 NA
ATOM     62  C   UNL A   1      41.993  31.594  37.029  1.00  0.00     0.031 C 
ATOM     63  C   UNL A   1      43.563  27.599  32.712  1.00  0.00     0.029 A 
ATOM     64  C   UNL A   1      42.911  28.611  33.400  1.00  0.00     0.049 A 
ATOM     65  H   UNL A   1      41.277  29.790  32.774  1.00  0.00     0.167 HD
ATOM     66  C   UNL A   1      42.518  30.134  35.333  1.00  0.00     0.074 A 
ATOM     67  C   UNL A   1      42.827  30.634  36.659  1.00  0.00     0.031 C 
ATOM     68  C   UNL A   1      43.186  29.120  34.725  1.00  0.00     0.034 A 
BRANCH  55  69
ATOM     69  C   UNL A   1      41.081  27.666  29.057  1.00  0.00     0.023 A 
ATOM     70  C   UNL A   1      42.088  27.778  28.081  1.00  0.00     0.031 A 
ATOM     71  C   UNL A   1      40.078  26.701  28.853  1.00  0.00     0.131 A 
ATOM     72  C   UNL A   1      42.016  27.015  26.907  1.00  0.00     0.055 A 
ATOM     73  C   UNL A   1      40.069  25.874  27.727  1.00  0.00     0.041 A 
ATOM     74  F   UNL A   1      39.073  26.562  29.732  1.00  0.00    -0.206 F 
ATOM     75  C   UNL A   1      41.031  26.041  26.735  1.00  0.00     0.022 A 
BRANCH  72  76
ATOM     76  S   UNL A   1      43.121  27.444  25.532  1.00  0.00     0.124 S 
ATOM     77  O   UNL A   1      42.247  28.266  24.698  1.00  0.00    -0.237 OA
ATOM     78  O   UNL A   1      44.204  28.149  26.208  1.00  0.00    -0.237 OA
ATOM     79  O   UNL A   1      43.476  26.147  24.961  1.00  0.00    -0.744 OA
ENDBRANCH  72  76
ENDBRANCH  55  69
BRANCH  56  80
ATOM     80  C   UNL A   1      39.869  33.638  37.082  1.00  0.00     0.023 A 
ATOM     81  C   UNL A   1      39.176  33.098  38.176  1.00  0.00     0.031 A 
ATOM     82  C   UNL A   1      40.326  34.964  37.181  1.00  0.00     0.131 A 
ATOM     83  C   UNL A   1      38.926  33.891  39.306  1.00  0.00     0.055 A 
ATOM     84  C   UNL A   1      40.122  35.732  38.329  1.00  0.00     0.041 A 
ATOM     85  F   UNL A   1      41.007  35.525  36.168  1.00  0.00    -0.206 F 
ATOM     86  C   UNL A   1      39.409  35.199  39.398  1.00  0.00     0.022 A 
BRANCH  83  87
ATOM     87  S   UNL A   1      37.901  33.205  40.635  1.00  0.00     0.124 S 
ATOM     88  O   UNL A   1      36.617  33.040  39.963  1.00  0.00    -0.237 OA
ATOM     89  O   UNL A   1      38.615  31.977  40.965  1.00  0.00    -0.237 OA
ATOM     90  O   UNL A   1      37.940  34.242  41.664  1.00  0.00    -0.744 OA
ENDBRANCH  83  87
ENDBRANCH  56  80
BRANCH  68  91
ATOM     91  C   UNL A   1      44.346  28.516  35.478  1.00  0.00     0.023 A 
ATOM     92  C   UNL A   1      44.162  27.489  36.418  1.00  0.00     0.031 A 
ATOM     93  C   UNL A   1      45.655  28.976  35.245  1.00  0.00     0.131 A 
ATOM     94  C   UNL A   1      45.262  26.994  37.133  1.00  0.00     0.055 A 
ATOM     95  C   UNL A   1      46.754  28.429  35.907  1.00  0.00     0.041 A 
ATOM     96  F   UNL A   1      45.886  29.959  34.361  1.00  0.00    -0.206 F 
ATOM     97  C   UNL A   1      46.559  27.441  36.867  1.00  0.00     0.022 A 
BRANCH  94  98
ATOM     98  S   UNL A   1      44.962  25.831  38.491  1.00  0.00     0.124 S 
ATOM     99  O   UNL A   1      44.497  24.647  37.776  1.00  0.00    -0.237 OA
ATOM    100  O   UNL A   1      46.279  25.726  39.110  1.00  0.00    -0.237 OA
ATOM    101  O   UNL A   1      43.949  26.504  39.300  1.00  0.00    -0.744 OA
ENDBRANCH  94  98
ENDBRANCH  68  91
ENDBRANCH  42  43
ENDBRANCH  34  37
ENDBRANCH  32  33
ENDBRANCH  31  32
ENDBRANCH   1  31
TORSDOF 17
ENDMDL
MODEL 3
REMARK VINA RESULT:     -12.7      1.762      2.050
REMARK SMILES O=C(CN1C(=O)c2ccccc2C1=O)Nc1c(Br)cc(Br)cc1C(=O)NCCCCNC(=O)c1ccc(-c2c3nc(c(-c4cc(S(=O)(=O)[O-])ccc4F)c4ccc([nH]4)c(-c4cc(S(=O)(=O)[O-])ccc4F)c4nc(c(-c5cc(S(=O)(=O)[O-])ccc5F)c5ccc2[nH]5)C=C4)C=C3)cc1
REMARK SMILES IDX 28 1 27 2 26 3 24 4 25 5 23 7 16 8 17 9 18 10 19 11 22 12
REMARK SMILES IDX 20 13 21 14 15 15 1 16 2 17 3 19 4 20 5 21 13 22 6 23 7 24
REMARK SMILES IDX 12 25 14 26 8 27 11 28 9 29 10 30 29 31 30 32 31 33 32 34
REMARK SMILES IDX 33 36 34 37 35 38 96 39 36 40 95 41 37 42 38 43 39 44 89 45
REMARK SMILES IDX 40 46 94 47 88 48 90 49 41 50 93 51 87 52 86 53 42 55 74 56
REMARK SMILES IDX 54 57 73 58 55 59 58 60 72 61 91 62 56 63 57 64 71 66 92 67
REMARK SMILES IDX 59 68 43 69 44 70 52 71 45 72 51 73 53 74 50 75 46 76 47 77
REMARK SMILES IDX 48 78 49 79 75 80 76 81 84 82 77 83 83 84 85 85 82 86 78 87
REMARK SMILES IDX 79 88 80 89 81 90 60 91 61 92 69 93 62 94 68 95 70 96 67 97
REMARK SMILES IDX 63 98 64 99 65 100 66 101
REMARK H PARENT 26 6 15 18 31 35 90 54 58 65
REMARK Flexibility Score: inf
ROOT
ATOM      1  C   UNL A   1      36.698  21.907  24.468  1.00  0.00     0.023 C 
ENDROOT
BRANCH   1   2
ATOM      2  C   UNL A   1      36.024  22.814  25.474  1.00  0.00     0.116 C 
BRANCH   2   3
ATOM      3  N   UNL A   1      35.445  22.103  26.555  1.00  0.00    -0.352 N 
ATOM      4  C   UNL A   1      34.248  21.468  26.619  1.00  0.00     0.253 C 
ATOM      5  O   UNL A   1      33.816  21.383  27.776  1.00  0.00    -0.269 OA
ATOM      6  H   UNL A   1      35.988  22.066  27.375  1.00  0.00     0.163 HD
BRANCH   4   7
ATOM      7  C   UNL A   1      33.479  20.814  25.480  1.00  0.00     0.065 A 
ATOM      8  C   UNL A   1      32.790  21.286  24.318  1.00  0.00     0.068 A 
ATOM      9  C   UNL A   1      32.389  20.311  23.350  1.00  0.00     0.043 A 
ATOM     10  Br  UNL A   1      31.785  20.796  21.596  1.00  0.00    -0.048 Br
ATOM     11  C   UNL A   1      32.540  18.933  23.549  1.00  0.00     0.033 A 
ATOM     12  C   UNL A   1      33.547  19.396  25.660  1.00  0.00     0.031 A 
ATOM     13  C   UNL A   1      33.085  18.481  24.728  1.00  0.00     0.020 A 
ATOM     14  Br  UNL A   1      33.269  16.628  25.054  1.00  0.00    -0.051 Br
BRANCH   8  15
ATOM     15  N   UNL A   1      32.449  22.649  23.995  1.00  0.00    -0.323 N 
ATOM     16  O   UNL A   1      30.684  22.755  25.482  1.00  0.00    -0.273 OA
ATOM     17  C   UNL A   1      31.289  23.249  24.528  1.00  0.00     0.244 C 
ATOM     18  H   UNL A   1      33.033  23.166  23.395  1.00  0.00     0.170 HD
BRANCH  17  19
ATOM     19  C   UNL A   1      30.829  24.606  23.918  1.00  0.00     0.229 C 
BRANCH  19  20
ATOM     20  N   UNL A   1      31.254  25.768  24.695  1.00  0.00    -0.265 N 
ATOM     21  C   UNL A   1      30.790  26.257  25.881  1.00  0.00     0.262 C 
ATOM     22  C   UNL A   1      32.177  26.604  24.160  1.00  0.00     0.262 C 
ATOM     23  O   UNL A   1      29.852  25.873  26.555  1.00  0.00    -0.269 OA
ATOM     24  C   UNL A   1      31.619  27.435  26.216  1.00  0.00     0.053 A 
ATOM     25  C   UNL A   1      32.465  27.653  25.151  1.00  0.00     0.053 A 
ATOM     26  O   UNL A   1      32.676  26.415  23.076  1.00  0.00    -0.269 OA
ATOM     27  C   UNL A   1      31.694  28.223  27.355  1.00  0.00     0.015 A 
ATOM     28  C   UNL A   1      33.428  28.652  25.187  1.00  0.00     0.015 A 
ATOM     29  C   UNL A   1      32.683  29.222  27.414  1.00  0.00     0.001 A 
ATOM     30  C   UNL A   1      33.550  29.431  26.336  1.00  0.00     0.001 A 
ENDBRANCH  19  20
ENDBRANCH  17  19
ENDBRANCH   8  15
ENDBRANCH   4   7
ENDBRANCH   2   3
ENDBRANCH   1   2
BRANCH   1  31
ATOM     31  C   UNL A   1      37.570  20.783  25.012  1.00  0.00     0.023 C 
BRANCH  31  32
ATOM     32  C   UNL A   1      38.898  21.068  25.742  1.00  0.00     0.116 C 
BRANCH  32  33
ATOM     33  N   UNL A   1      39.926  20.026  25.816  1.00  0.00    -0.352 N 
ATOM     34  C   UNL A   1      41.266  19.944  26.133  1.00  0.00     0.251 C 
ATOM     35  H   UNL A   1      39.561  19.144  25.576  1.00  0.00     0.163 HD
ATOM     36  O   UNL A   1      41.849  18.862  26.062  1.00  0.00    -0.269 OA
BRANCH  34  37
ATOM     37  C   UNL A   1      42.054  21.148  26.420  1.00  0.00     0.039 A 
ATOM     38  C   UNL A   1      42.306  22.081  25.400  1.00  0.00     0.014 A 
ATOM     39  C   UNL A   1      42.482  21.387  27.713  1.00  0.00     0.014 A 
ATOM     40  C   UNL A   1      42.902  23.303  25.714  1.00  0.00     0.010 A 
ATOM     41  C   UNL A   1      42.935  22.643  28.048  1.00  0.00     0.010 A 
ATOM     42  C   UNL A   1      43.172  23.605  27.053  1.00  0.00    -0.014 A 
BRANCH  42  43
ATOM     43  C   UNL A   1      43.763  24.881  27.508  1.00  0.00     0.031 A 
ATOM     44  C   UNL A   1      42.833  25.928  28.053  1.00  0.00     0.074 A 
ATOM     45  C   UNL A   1      45.050  25.157  27.236  1.00  0.00     0.049 A 
ATOM     46  N   UNL A   1      43.019  27.212  28.196  1.00  0.00    -0.248 NA
ATOM     47  C   UNL A   1      41.476  25.470  28.404  1.00  0.00     0.031 C 
ATOM     48  C   UNL A   1      46.021  24.217  26.671  1.00  0.00     0.029 A 
ATOM     49  N   UNL A   1      45.750  26.329  27.352  1.00  0.00    -0.354 N 
ATOM     50  C   UNL A   1      41.790  27.720  28.603  1.00  0.00     0.074 A 
ATOM     51  C   UNL A   1      40.854  26.619  28.607  1.00  0.00     0.031 C 
ATOM     52  C   UNL A   1      47.189  24.851  26.487  1.00  0.00     0.029 A 
ATOM     53  C   UNL A   1      47.032  26.253  26.861  1.00  0.00     0.049 A 
ATOM     54  H   UNL A   1      45.372  27.147  27.749  1.00  0.00     0.167 HD
ATOM     55  C   UNL A   1      41.483  28.992  28.956  1.00  0.00     0.034 A 
ATOM     56  C   UNL A   1      47.960  27.217  26.701  1.00  0.00     0.034 A 
ATOM     57  C   UNL A   1      42.457  30.054  28.962  1.00  0.00     0.049 A 
ATOM     58  C   UNL A   1      47.604  28.625  27.106  1.00  0.00     0.074 A 
ATOM     59  C   UNL A   1      42.304  31.362  29.382  1.00  0.00     0.029 A 
ATOM     60  N   UNL A   1      43.769  29.928  28.517  1.00  0.00    -0.354 N 
ATOM     61  N   UNL A   1      46.459  29.092  27.549  1.00  0.00    -0.248 NA
ATOM     62  C   UNL A   1      48.667  29.631  27.000  1.00  0.00     0.031 C 
ATOM     63  C   UNL A   1      43.494  32.045  29.116  1.00  0.00     0.029 A 
ATOM     64  C   UNL A   1      44.424  31.145  28.617  1.00  0.00     0.049 A 
ATOM     65  H   UNL A   1      44.172  29.096  28.181  1.00  0.00     0.167 HD
ATOM     66  C   UNL A   1      46.672  30.444  27.803  1.00  0.00     0.074 A 
ATOM     67  C   UNL A   1      48.060  30.708  27.476  1.00  0.00     0.031 C 
ATOM     68  C   UNL A   1      45.807  31.381  28.269  1.00  0.00     0.034 A 
BRANCH  55  69
ATOM     69  C   UNL A   1      40.049  29.287  29.331  1.00  0.00     0.023 A 
ATOM     70  C   UNL A   1      39.640  29.403  30.672  1.00  0.00     0.031 A 
ATOM     71  C   UNL A   1      39.062  29.403  28.336  1.00  0.00     0.131 A 
ATOM     72  C   UNL A   1      38.278  29.526  30.983  1.00  0.00     0.055 A 
ATOM     73  C   UNL A   1      37.720  29.626  28.650  1.00  0.00     0.041 A 
ATOM     74  F   UNL A   1      39.380  29.274  27.038  1.00  0.00    -0.206 F 
ATOM     75  C   UNL A   1      37.317  29.670  29.982  1.00  0.00     0.022 A 
BRANCH  72  76
ATOM     76  S   UNL A   1      37.767  29.312  32.712  1.00  0.00     0.124 S 
ATOM     77  O   UNL A   1      37.718  27.856  32.826  1.00  0.00    -0.237 OA
ATOM     78  O   UNL A   1      38.843  29.973  33.442  1.00  0.00    -0.237 OA
ATOM     79  O   UNL A   1      36.469  29.978  32.769  1.00  0.00    -0.744 OA
ENDBRANCH  72  76
ENDBRANCH  55  69
BRANCH  56  80
ATOM     80  C   UNL A   1      49.298  26.883  26.136  1.00  0.00     0.023 A 
ATOM     81  C   UNL A   1      49.648  27.289  24.839  1.00  0.00     0.031 A 
ATOM     82  C   UNL A   1      50.247  26.161  26.880  1.00  0.00     0.131 A 
ATOM     83  C   UNL A   1      50.899  26.937  24.310  1.00  0.00     0.055 A 
ATOM     84  C   UNL A   1      51.512  25.859  26.369  1.00  0.00     0.041 A 
ATOM     85  F   UNL A   1      49.969  25.760  28.131  1.00  0.00    -0.206 F 
ATOM     86  C   UNL A   1      51.840  26.240  25.072  1.00  0.00     0.022 A 
BRANCH  83  87
ATOM     87  S   UNL A   1      51.256  27.352  22.582  1.00  0.00     0.124 S 
ATOM     88  O   UNL A   1      51.180  28.808  22.605  1.00  0.00    -0.237 OA
ATOM     89  O   UNL A   1      52.586  26.781  22.402  1.00  0.00    -0.237 OA
ATOM     90  O   UNL A   1      50.186  26.682  21.844  1.00  0.00    -0.744 OA
ENDBRANCH  83  87
ENDBRANCH  56  80
BRANCH  68  91
ATOM     91  C   UNL A   1      46.356  32.769  28.491  1.00  0.00     0.023 A 
ATOM     92  C   UNL A   1      46.883  33.166  29.732  1.00  0.00     0.031 A 
ATOM     93  C   UNL A   1      46.356  33.705  27.441  1.00  0.00     0.131 A 
ATOM     94  C   UNL A   1      47.334  34.482  29.908  1.00  0.00     0.055 A 
ATOM     95  C   UNL A   1      46.874  34.990  27.602  1.00  0.00     0.041 A 
ATOM     96  F   UNL A   1      45.861  33.380  26.236  1.00  0.00    -0.206 F 
ATOM     97  C   UNL A   1      47.355  35.389  28.846  1.00  0.00     0.022 A 
BRANCH  94  98
ATOM     98  S   UNL A   1      47.798  35.023  31.575  1.00  0.00     0.124 S 
ATOM     99  O   UNL A   1      48.926  34.145  31.873  1.00  0.00    -0.237 OA
ATOM    100  O   UNL A   1      48.122  36.430  31.368  1.00  0.00    -0.237 OA
ATOM    101  O   UNL A   1      46.594  34.773  32.363  1.00  0.00    -0.744 OA
ENDBRANCH  94  98
ENDBRANCH  68  91
ENDBRANCH  42  43
ENDBRANCH  34  37
ENDBRANCH  32  33
ENDBRANCH  31  32
ENDBRANCH   1  31
TORSDOF 17
ENDMDL
