MODEL 1
REMARK VINA RESULT:     -11.1      0.000      0.000
REMARK SMILES CC(C)[C@@H]([NH2+][C@@H]1CSCC(C)(C)C1)C(=O)NCCCCNC(=O)c1ccc(-c2c3nc(c(-c4cc(S(=O)(=O)[O-])ccc4F)c4ccc([nH]4)c(-c4cc(S(=O)(=O)[O-])ccc4F)c4nc(c(-c5cc(S(=O)(=O)[O-])ccc5F)c5ccc2[nH]5)C=C4)C=C3)cc1
REMARK SMILES IDX 19 1 18 2 17 3 16 4 14 5 15 6 4 8 2 9 1 10 3 11 5 12 6 15
REMARK SMILES IDX 7 16 13 17 8 18 10 19 9 20 11 21 12 22 20 23 21 24 22 25
REMARK SMILES IDX 23 27 24 28 25 29 86 30 26 31 85 32 27 33 28 34 29 35 79 36
REMARK SMILES IDX 30 37 84 38 78 39 80 40 31 41 83 42 77 43 76 44 32 46 64 47
REMARK SMILES IDX 44 48 63 49 45 50 48 51 62 52 81 53 46 54 47 55 61 57 82 58
REMARK SMILES IDX 49 59 33 60 34 61 42 62 35 63 41 64 43 65 40 66 36 67 37 68
REMARK SMILES IDX 38 69 39 70 65 71 66 72 74 73 67 74 73 75 75 76 72 77 68 78
REMARK SMILES IDX 69 79 70 80 71 81 50 82 51 83 59 84 52 85 58 86 60 87 57 88
REMARK SMILES IDX 53 89 54 90 55 91 56 92
REMARK H PARENT 16 7 5 13 5 14 21 26 80 45 48 56
REMARK Flexibility Score: inf
ROOT
ATOM      1  C   UNL A   1      31.373  31.636  26.425  1.00  0.00     0.023 C 
ENDROOT
BRANCH   1   2
ATOM      2  C   UNL A   1      31.590  30.340  25.649  1.00  0.00     0.023 C 
BRANCH   2   3
ATOM      3  C   UNL A   1      32.932  29.674  25.924  1.00  0.00     0.116 C 
BRANCH   3   4
ATOM      4  N   UNL A   1      33.721  29.488  24.725  1.00  0.00    -0.351 N 
ATOM      5  C   UNL A   1      33.576  28.535  23.754  1.00  0.00     0.278 C 
ATOM      6  O   UNL A   1      34.266  28.626  22.733  1.00  0.00    -0.268 OA
ATOM      7  H   UNL A   1      34.455  30.128  24.590  1.00  0.00     0.163 HD
BRANCH   5   8
ATOM      8  C   UNL A   1      32.649  27.309  23.959  1.00  0.00     0.275 C 
BRANCH   8   9
ATOM      9  C   UNL A   1      31.482  27.372  22.916  1.00  0.00     0.051 C 
ATOM     10  C   UNL A   1      31.626  26.324  21.808  1.00  0.00     0.014 C 
ATOM     11  C   UNL A   1      30.105  27.193  23.580  1.00  0.00     0.014 C 
ENDBRANCH   8   9
BRANCH   8  12
ATOM     12  N   UNL A   1      33.414  26.031  23.911  1.00  0.00    -0.333 N 
ATOM     13  H   UNL A   1      34.197  26.163  23.268  1.00  0.00     0.347 HD
ATOM     14  H   UNL A   1      32.737  25.325  23.620  1.00  0.00     0.347 HD
BRANCH  12  15
ATOM     15  C   UNL A   1      33.966  25.534  25.192  1.00  0.00     0.193 C 
ATOM     16  C   UNL A   1      35.108  24.503  25.153  1.00  0.00     0.134 C 
ATOM     17  C   UNL A   1      32.833  24.975  26.097  1.00  0.00     0.073 C 
ATOM     18  S   UNL A   1      34.639  22.944  24.351  1.00  0.00    -0.155 SA
ATOM     19  C   UNL A   1      32.164  23.635  25.676  1.00  0.00    -0.021 C 
ATOM     20  C   UNL A   1      33.175  22.518  25.322  1.00  0.00     0.076 C 
ATOM     21  C   UNL A   1      31.146  23.864  24.543  1.00  0.00     0.012 C 
ATOM     22  C   UNL A   1      31.334  23.101  26.871  1.00  0.00     0.012 C 
ENDBRANCH  12  15
ENDBRANCH   8  12
ENDBRANCH   5   8
ENDBRANCH   3   4
ENDBRANCH   2   3
ENDBRANCH   1   2
BRANCH   1  23
ATOM     23  C   UNL A   1      32.594  32.153  27.185  1.00  0.00     0.116 C 
BRANCH  23  24
ATOM     24  N   UNL A   1      32.461  33.538  27.617  1.00  0.00    -0.352 N 
ATOM     25  C   UNL A   1      33.266  34.243  28.486  1.00  0.00     0.251 C 
ATOM     26  H   UNL A   1      31.699  34.035  27.239  1.00  0.00     0.163 HD
ATOM     27  O   UNL A   1      32.958  35.373  28.840  1.00  0.00    -0.269 OA
BRANCH  25  28
ATOM     28  C   UNL A   1      34.485  33.591  29.009  1.00  0.00     0.039 A 
ATOM     29  C   UNL A   1      35.721  34.216  28.829  1.00  0.00     0.014 A 
ATOM     30  C   UNL A   1      34.387  32.405  29.741  1.00  0.00     0.014 A 
ATOM     31  C   UNL A   1      36.854  33.691  29.457  1.00  0.00     0.010 A 
ATOM     32  C   UNL A   1      35.503  31.925  30.419  1.00  0.00     0.010 A 
ATOM     33  C   UNL A   1      36.745  32.567  30.292  1.00  0.00    -0.014 A 
BRANCH  33  34
ATOM     34  C   UNL A   1      37.913  32.031  31.038  1.00  0.00     0.031 A 
ATOM     35  C   UNL A   1      38.732  30.923  30.436  1.00  0.00     0.074 A 
ATOM     36  C   UNL A   1      38.186  32.479  32.280  1.00  0.00     0.049 A 
ATOM     37  N   UNL A   1      39.692  30.214  30.972  1.00  0.00    -0.248 NA
ATOM     38  C   UNL A   1      38.399  30.541  29.055  1.00  0.00     0.031 C 
ATOM     39  C   UNL A   1      37.450  33.531  32.984  1.00  0.00     0.029 A 
ATOM     40  N   UNL A   1      39.149  32.092  33.181  1.00  0.00    -0.354 N 
ATOM     41  C   UNL A   1      40.066  29.291  30.001  1.00  0.00     0.074 A 
ATOM     42  C   UNL A   1      39.188  29.494  28.868  1.00  0.00     0.031 C 
ATOM     43  C   UNL A   1      37.997  33.717  34.196  1.00  0.00     0.029 A 
ATOM     44  C   UNL A   1      39.090  32.767  34.379  1.00  0.00     0.049 A 
ATOM     45  H   UNL A   1      39.818  31.398  32.987  1.00  0.00     0.167 HD
ATOM     46  C   UNL A   1      41.064  28.373  30.043  1.00  0.00     0.034 A 
ATOM     47  C   UNL A   1      39.822  32.622  35.503  1.00  0.00     0.034 A 
ATOM     48  C   UNL A   1      41.941  28.193  31.172  1.00  0.00     0.049 A 
ATOM     49  C   UNL A   1      40.911  31.577  35.534  1.00  0.00     0.074 A 
ATOM     50  C   UNL A   1      43.000  27.312  31.312  1.00  0.00     0.029 A 
ATOM     51  N   UNL A   1      41.864  28.910  32.359  1.00  0.00    -0.354 N 
ATOM     52  N   UNL A   1      41.264  30.724  34.599  1.00  0.00    -0.248 NA
ATOM     53  C   UNL A   1      41.704  31.481  36.767  1.00  0.00     0.031 C 
ATOM     54  C   UNL A   1      43.530  27.461  32.598  1.00  0.00     0.029 A 
ATOM     55  C   UNL A   1      42.847  28.482  33.239  1.00  0.00     0.049 A 
ATOM     56  H   UNL A   1      41.208  29.618  32.549  1.00  0.00     0.167 HD
ATOM     57  C   UNL A   1      42.349  30.022  35.120  1.00  0.00     0.074 A 
ATOM     58  C   UNL A   1      42.593  30.554  36.445  1.00  0.00     0.031 C 
ATOM     59  C   UNL A   1      43.083  29.032  34.552  1.00  0.00     0.034 A 
BRANCH  46  60
ATOM     60  C   UNL A   1      41.237  27.487  28.833  1.00  0.00     0.023 A 
ATOM     61  C   UNL A   1      42.260  27.715  27.896  1.00  0.00     0.031 A 
ATOM     62  C   UNL A   1      40.349  26.424  28.594  1.00  0.00     0.131 A 
ATOM     63  C   UNL A   1      42.324  26.942  26.727  1.00  0.00     0.055 A 
ATOM     64  C   UNL A   1      40.470  25.605  27.468  1.00  0.00     0.041 A 
ATOM     65  F   UNL A   1      39.340  26.171  29.441  1.00  0.00    -0.206 F 
ATOM     66  C   UNL A   1      41.452  25.872  26.519  1.00  0.00     0.022 A 
BRANCH  63  67
ATOM     67  S   UNL A   1      43.474  27.447  25.419  1.00  0.00     0.124 S 
ATOM     68  O   UNL A   1      42.554  27.837  24.353  1.00  0.00    -0.237 OA
ATOM     69  O   UNL A   1      44.216  28.533  26.051  1.00  0.00    -0.237 OA
ATOM     70  O   UNL A   1      44.246  26.235  25.155  1.00  0.00    -0.744 OA
ENDBRANCH  63  67
ENDBRANCH  46  60
BRANCH  47  71
ATOM     71  C   UNL A   1      39.558  33.471  36.700  1.00  0.00     0.023 A 
ATOM     72  C   UNL A   1      38.906  32.941  37.826  1.00  0.00     0.031 A 
ATOM     73  C   UNL A   1      39.894  34.836  36.716  1.00  0.00     0.131 A 
ATOM     74  C   UNL A   1      38.557  33.783  38.894  1.00  0.00     0.055 A 
ATOM     75  C   UNL A   1      39.594  35.657  37.804  1.00  0.00     0.041 A 
ATOM     76  F   UNL A   1      40.523  35.391  35.668  1.00  0.00    -0.206 F 
ATOM     77  C   UNL A   1      38.907  35.135  38.895  1.00  0.00     0.022 A 
BRANCH  74  78
ATOM     78  S   UNL A   1      37.546  33.103  40.238  1.00  0.00     0.124 S 
ATOM     79  O   UNL A   1      36.313  32.763  39.540  1.00  0.00    -0.237 OA
ATOM     80  O   UNL A   1      38.360  31.979  40.688  1.00  0.00    -0.237 OA
ATOM     81  O   UNL A   1      37.445  34.215  41.182  1.00  0.00    -0.744 OA
ENDBRANCH  74  78
ENDBRANCH  47  71
BRANCH  59  82
ATOM     82  C   UNL A   1      44.264  28.517  35.334  1.00  0.00     0.023 A 
ATOM     83  C   UNL A   1      44.134  27.503  36.298  1.00  0.00     0.031 A 
ATOM     84  C   UNL A   1      45.543  29.057  35.104  1.00  0.00     0.131 A 
ATOM     85  C   UNL A   1      45.258  27.093  37.033  1.00  0.00     0.055 A 
ATOM     86  C   UNL A   1      46.665  28.608  35.801  1.00  0.00     0.041 A 
ATOM     87  F   UNL A   1      45.721  30.027  34.194  1.00  0.00    -0.206 F 
ATOM     88  C   UNL A   1      46.524  27.629  36.780  1.00  0.00     0.022 A 
BRANCH  85  89
ATOM     89  S   UNL A   1      45.032  25.897  38.378  1.00  0.00     0.124 S 
ATOM     90  O   UNL A   1      46.408  25.627  38.779  1.00  0.00    -0.237 OA
ATOM     91  O   UNL A   1      44.226  26.651  39.333  1.00  0.00    -0.237 OA
ATOM     92  O   UNL A   1      44.343  24.781  37.734  1.00  0.00    -0.744 OA
ENDBRANCH  85  89
ENDBRANCH  59  82
ENDBRANCH  33  34
ENDBRANCH  25  28
ENDBRANCH  23  24
ENDBRANCH   1  23
TORSDOF 17
ENDMDL
MODEL 2
REMARK VINA RESULT:     -11.0      1.614      7.848
REMARK SMILES CC(C)[C@@H]([NH2+][C@@H]1CSCC(C)(C)C1)C(=O)NCCCCNC(=O)c1ccc(-c2c3nc(c(-c4cc(S(=O)(=O)[O-])ccc4F)c4ccc([nH]4)c(-c4cc(S(=O)(=O)[O-])ccc4F)c4nc(c(-c5cc(S(=O)(=O)[O-])ccc5F)c5ccc2[nH]5)C=C4)C=C3)cc1
REMARK SMILES IDX 19 1 18 2 17 3 16 4 14 5 15 6 4 8 2 9 1 10 3 11 5 12 6 15
REMARK SMILES IDX 7 16 13 17 8 18 10 19 9 20 11 21 12 22 20 23 21 24 22 25
REMARK SMILES IDX 23 27 24 28 25 29 86 30 26 31 85 32 27 33 28 34 29 35 79 36
REMARK SMILES IDX 30 37 84 38 78 39 80 40 31 41 83 42 77 43 76 44 32 46 64 47
REMARK SMILES IDX 44 48 63 49 45 50 48 51 62 52 81 53 46 54 47 55 61 57 82 58
REMARK SMILES IDX 49 59 33 60 34 61 42 62 35 63 41 64 43 65 40 66 36 67 37 68
REMARK SMILES IDX 38 69 39 70 65 71 66 72 74 73 67 74 73 75 75 76 72 77 68 78
REMARK SMILES IDX 69 79 70 80 71 81 50 82 51 83 59 84 52 85 58 86 60 87 57 88
REMARK SMILES IDX 53 89 54 90 55 91 56 92
REMARK H PARENT 16 7 5 13 5 14 21 26 80 45 48 56
REMARK Flexibility Score: inf
ROOT
ATOM      1  C   UNL A   1      31.210  32.246  26.338  1.00  0.00     0.023 C 
ENDROOT
BRANCH   1   2
ATOM      2  C   UNL A   1      31.107  30.887  25.651  1.00  0.00     0.023 C 
BRANCH   2   3
ATOM      3  C   UNL A   1      32.268  29.951  25.959  1.00  0.00     0.116 C 
BRANCH   3   4
ATOM      4  N   UNL A   1      33.145  29.756  24.824  1.00  0.00    -0.351 N 
ATOM      5  C   UNL A   1      33.144  28.732  23.917  1.00  0.00     0.278 C 
ATOM      6  O   UNL A   1      33.888  28.816  22.934  1.00  0.00    -0.268 OA
ATOM      7  H   UNL A   1      33.830  30.449  24.687  1.00  0.00     0.163 HD
BRANCH   5   8
ATOM      8  C   UNL A   1      32.312  27.446  24.154  1.00  0.00     0.275 C 
BRANCH   8   9
ATOM      9  C   UNL A   1      31.014  27.508  23.279  1.00  0.00     0.051 C 
ATOM     10  C   UNL A   1      31.171  26.780  21.941  1.00  0.00     0.014 C 
ATOM     11  C   UNL A   1      29.795  26.922  24.013  1.00  0.00     0.014 C 
ENDBRANCH   8   9
BRANCH   8  12
ATOM     12  N   UNL A   1      33.124  26.218  23.917  1.00  0.00    -0.333 N 
ATOM     13  H   UNL A   1      33.942  26.489  23.371  1.00  0.00     0.347 HD
ATOM     14  H   UNL A   1      32.494  25.567  23.449  1.00  0.00     0.347 HD
BRANCH  12  15
ATOM     15  C   UNL A   1      33.606  25.495  25.117  1.00  0.00     0.193 C 
ATOM     16  C   UNL A   1      34.924  24.706  25.021  1.00  0.00     0.134 C 
ATOM     17  C   UNL A   1      32.505  24.544  25.663  1.00  0.00     0.073 C 
ATOM     18  S   UNL A   1      34.868  23.360  23.805  1.00  0.00    -0.155 SA
ATOM     19  C   UNL A   1      32.166  23.274  24.831  1.00  0.00    -0.021 C 
ATOM     20  C   UNL A   1      33.411  22.465  24.392  1.00  0.00     0.076 C 
ATOM     21  C   UNL A   1      31.265  23.629  23.634  1.00  0.00     0.012 C 
ATOM     22  C   UNL A   1      31.322  22.318  25.711  1.00  0.00     0.012 C 
ENDBRANCH  12  15
ENDBRANCH   8  12
ENDBRANCH   5   8
ENDBRANCH   3   4
ENDBRANCH   2   3
ENDBRANCH   1   2
BRANCH   1  23
ATOM     23  C   UNL A   1      32.525  32.508  27.071  1.00  0.00     0.116 C 
BRANCH  23  24
ATOM     24  N   UNL A   1      32.646  33.870  27.571  1.00  0.00    -0.352 N 
ATOM     25  C   UNL A   1      33.608  34.391  28.410  1.00  0.00     0.251 C 
ATOM     26  H   UNL A   1      31.952  34.501  27.271  1.00  0.00     0.163 HD
ATOM     27  O   UNL A   1      33.511  35.535  28.834  1.00  0.00    -0.269 OA
BRANCH  25  28
ATOM     28  C   UNL A   1      34.738  33.527  28.814  1.00  0.00     0.039 A 
ATOM     29  C   UNL A   1      36.044  33.974  28.606  1.00  0.00     0.014 A 
ATOM     30  C   UNL A   1      34.494  32.315  29.465  1.00  0.00     0.014 A 
ATOM     31  C   UNL A   1      37.112  33.240  29.129  1.00  0.00     0.010 A 
ATOM     32  C   UNL A   1      35.555  31.624  30.042  1.00  0.00     0.010 A 
ATOM     33  C   UNL A   1      36.873  32.083  29.888  1.00  0.00    -0.014 A 
BRANCH  33  34
ATOM     34  C   UNL A   1      37.980  31.323  30.526  1.00  0.00     0.031 A 
ATOM     35  C   UNL A   1      38.406  31.671  31.926  1.00  0.00     0.074 A 
ATOM     36  C   UNL A   1      38.651  30.388  29.825  1.00  0.00     0.049 A 
ATOM     37  N   UNL A   1      39.434  31.242  32.613  1.00  0.00    -0.248 NA
ATOM     38  C   UNL A   1      37.579  32.660  32.633  1.00  0.00     0.031 C 
ATOM     39  C   UNL A   1      38.351  29.980  28.451  1.00  0.00     0.029 A 
ATOM     40  N   UNL A   1      39.738  29.619  30.167  1.00  0.00    -0.354 N 
ATOM     41  C   UNL A   1      39.388  31.921  33.825  1.00  0.00     0.074 A 
ATOM     42  C   UNL A   1      38.265  32.833  33.753  1.00  0.00     0.031 C 
ATOM     43  C   UNL A   1      39.220  29.026  28.075  1.00  0.00     0.029 A 
ATOM     44  C   UNL A   1      40.169  28.788  29.158  1.00  0.00     0.049 A 
ATOM     45  H   UNL A   1      40.167  29.659  31.051  1.00  0.00     0.167 HD
ATOM     46  C   UNL A   1      40.195  31.783  34.906  1.00  0.00     0.034 A 
ATOM     47  C   UNL A   1      41.221  27.946  29.107  1.00  0.00     0.034 A 
ATOM     48  C   UNL A   1      41.300  30.860  34.969  1.00  0.00     0.049 A 
ATOM     49  C   UNL A   1      42.119  27.827  30.314  1.00  0.00     0.074 A 
ATOM     50  C   UNL A   1      42.166  30.619  36.022  1.00  0.00     0.029 A 
ATOM     51  N   UNL A   1      41.692  30.020  33.935  1.00  0.00    -0.354 N 
ATOM     52  N   UNL A   1      42.051  28.464  31.460  1.00  0.00    -0.248 NA
ATOM     53  C   UNL A   1      43.230  26.870  30.223  1.00  0.00     0.031 C 
ATOM     54  C   UNL A   1      43.110  29.672  35.608  1.00  0.00     0.029 A 
ATOM     55  C   UNL A   1      42.794  29.271  34.321  1.00  0.00     0.049 A 
ATOM     56  H   UNL A   1      41.253  29.964  33.056  1.00  0.00     0.167 HD
ATOM     57  C   UNL A   1      43.085  27.951  32.240  1.00  0.00     0.074 A 
ATOM     58  C   UNL A   1      43.757  26.951  31.435  1.00  0.00     0.031 C 
ATOM     59  C   UNL A   1      43.443  28.271  33.509  1.00  0.00     0.034 A 
BRANCH  46  60
ATOM     60  C   UNL A   1      39.914  32.669  36.094  1.00  0.00     0.023 A 
ATOM     61  C   UNL A   1      39.065  32.254  37.136  1.00  0.00     0.031 A 
ATOM     62  C   UNL A   1      40.471  33.957  36.173  1.00  0.00     0.131 A 
ATOM     63  C   UNL A   1      38.737  33.144  38.169  1.00  0.00     0.055 A 
ATOM     64  C   UNL A   1      40.205  34.809  37.249  1.00  0.00     0.041 A 
ATOM     65  F   UNL A   1      41.272  34.417  35.199  1.00  0.00    -0.206 F 
ATOM     66  C   UNL A   1      39.322  34.410  38.247  1.00  0.00     0.022 A 
BRANCH  63  67
ATOM     67  S   UNL A   1      37.427  32.674  39.331  1.00  0.00     0.124 S 
ATOM     68  O   UNL A   1      37.579  33.688  40.373  1.00  0.00    -0.237 OA
ATOM     69  O   UNL A   1      36.225  32.775  38.512  1.00  0.00    -0.237 OA
ATOM     70  O   UNL A   1      37.796  31.318  39.733  1.00  0.00    -0.744 OA
ENDBRANCH  63  67
ENDBRANCH  46  60
BRANCH  47  71
ATOM     71  C   UNL A   1      41.502  27.150  27.877  1.00  0.00     0.023 A 
ATOM     72  C   UNL A   1      41.157  25.790  27.807  1.00  0.00     0.031 A 
ATOM     73  C   UNL A   1      42.174  27.716  26.780  1.00  0.00     0.131 A 
ATOM     74  C   UNL A   1      41.538  25.028  26.691  1.00  0.00     0.055 A 
ATOM     75  C   UNL A   1      42.502  26.967  25.648  1.00  0.00     0.041 A 
ATOM     76  F   UNL A   1      42.522  29.013  26.793  1.00  0.00    -0.206 F 
ATOM     77  C   UNL A   1      42.198  25.609  25.607  1.00  0.00     0.022 A 
BRANCH  74  78
ATOM     78  S   UNL A   1      41.247  23.237  26.726  1.00  0.00     0.124 S 
ATOM     79  O   UNL A   1      41.666  22.894  28.079  1.00  0.00    -0.237 OA
ATOM     80  O   UNL A   1      39.815  23.159  26.458  1.00  0.00    -0.237 OA
ATOM     81  O   UNL A   1      42.108  22.733  25.658  1.00  0.00    -0.744 OA
ENDBRANCH  74  78
ENDBRANCH  47  71
BRANCH  59  82
ATOM     82  C   UNL A   1      44.565  27.475  34.127  1.00  0.00     0.023 A 
ATOM     83  C   UNL A   1      44.326  26.312  34.878  1.00  0.00     0.031 A 
ATOM     84  C   UNL A   1      45.896  27.896  33.957  1.00  0.00     0.131 A 
ATOM     85  C   UNL A   1      45.403  25.634  35.473  1.00  0.00     0.055 A 
ATOM     86  C   UNL A   1      46.965  27.189  34.507  1.00  0.00     0.041 A 
ATOM     87  F   UNL A   1      46.178  29.000  33.248  1.00  0.00    -0.206 F 
ATOM     88  C   UNL A   1      46.721  26.057  35.280  1.00  0.00     0.022 A 
BRANCH  85  89
ATOM     89  S   UNL A   1      45.053  24.229  36.566  1.00  0.00     0.124 S 
ATOM     90  O   UNL A   1      44.349  23.316  35.672  1.00  0.00    -0.237 OA
ATOM     91  O   UNL A   1      46.389  23.814  36.979  1.00  0.00    -0.237 OA
ATOM     92  O   UNL A   1      44.232  24.814  37.625  1.00  0.00    -0.744 OA
ENDBRANCH  85  89
ENDBRANCH  59  82
ENDBRANCH  33  34
ENDBRANCH  25  28
ENDBRANCH  23  24
ENDBRANCH   1  23
TORSDOF 17
ENDMDL
MODEL 3
REMARK VINA RESULT:     -10.9      5.607      8.387
REMARK SMILES CC(C)[C@@H]([NH2+][C@@H]1CSCC(C)(C)C1)C(=O)NCCCCNC(=O)c1ccc(-c2c3nc(c(-c4cc(S(=O)(=O)[O-])ccc4F)c4ccc([nH]4)c(-c4cc(S(=O)(=O)[O-])ccc4F)c4nc(c(-c5cc(S(=O)(=O)[O-])ccc5F)c5ccc2[nH]5)C=C4)C=C3)cc1
REMARK SMILES IDX 19 1 18 2 17 3 16 4 14 5 15 6 4 8 2 9 1 10 3 11 5 12 6 15
REMARK SMILES IDX 7 16 13 17 8 18 10 19 9 20 11 21 12 22 20 23 21 24 22 25
REMARK SMILES IDX 23 27 24 28 25 29 86 30 26 31 85 32 27 33 28 34 29 35 79 36
REMARK SMILES IDX 30 37 84 38 78 39 80 40 31 41 83 42 77 43 76 44 32 46 64 47
REMARK SMILES IDX 44 48 63 49 45 50 48 51 62 52 81 53 46 54 47 55 61 57 82 58
REMARK SMILES IDX 49 59 33 60 34 61 42 62 35 63 41 64 43 65 40 66 36 67 37 68
REMARK SMILES IDX 38 69 39 70 65 71 66 72 74 73 67 74 73 75 75 76 72 77 68 78
REMARK SMILES IDX 69 79 70 80 71 81 50 82 51 83 59 84 52 85 58 86 60 87 57 88
REMARK SMILES IDX 53 89 54 90 55 91 56 92
REMARK H PARENT 16 7 5 13 5 14 21 26 80 45 48 56
REMARK Flexibility Score: inf
ROOT
ATOM      1  C   UNL A   1      35.844  21.566  25.593  1.00  0.00     0.023 C 
ENDROOT
BRANCH   1   2
ATOM      2  C   UNL A   1      34.848  22.185  26.571  1.00  0.00     0.023 C 
BRANCH   2   3
ATOM      3  C   UNL A   1      33.658  21.290  26.888  1.00  0.00     0.116 C 
BRANCH   3   4
ATOM      4  N   UNL A   1      32.534  22.024  27.430  1.00  0.00    -0.351 N 
ATOM      5  C   UNL A   1      31.844  23.060  26.862  1.00  0.00     0.278 C 
ATOM      6  O   UNL A   1      30.822  23.466  27.426  1.00  0.00    -0.268 OA
ATOM      7  H   UNL A   1      32.225  21.742  28.320  1.00  0.00     0.163 HD
BRANCH   5   8
ATOM      8  C   UNL A   1      32.374  23.785  25.598  1.00  0.00     0.275 C 
BRANCH   8   9
ATOM      9  C   UNL A   1      31.915  22.994  24.326  1.00  0.00     0.051 C 
ATOM     10  C   UNL A   1      30.759  23.680  23.591  1.00  0.00     0.014 C 
ATOM     11  C   UNL A   1      33.069  22.784  23.329  1.00  0.00     0.014 C 
ENDBRANCH   8   9
BRANCH   8  12
ATOM     12  N   UNL A   1      31.968  25.219  25.578  1.00  0.00    -0.333 N 
ATOM     13  H   UNL A   1      31.636  25.458  26.514  1.00  0.00     0.347 HD
ATOM     14  H   UNL A   1      31.263  25.287  24.845  1.00  0.00     0.347 HD
BRANCH  12  15
ATOM     15  C   UNL A   1      33.010  26.203  25.208  1.00  0.00     0.193 C 
ATOM     16  C   UNL A   1      33.462  27.230  26.261  1.00  0.00     0.134 C 
ATOM     17  C   UNL A   1      32.606  26.970  23.918  1.00  0.00     0.073 C 
ATOM     18  S   UNL A   1      32.128  28.330  26.810  1.00  0.00    -0.155 SA
ATOM     19  C   UNL A   1      31.440  27.996  24.021  1.00  0.00    -0.021 C 
ATOM     20  C   UNL A   1      31.574  28.974  25.214  1.00  0.00     0.076 C 
ATOM     21  C   UNL A   1      30.078  27.278  24.020  1.00  0.00     0.012 C 
ATOM     22  C   UNL A   1      31.442  28.874  22.744  1.00  0.00     0.012 C 
ENDBRANCH  12  15
ENDBRANCH   8  12
ENDBRANCH   5   8
ENDBRANCH   3   4
ENDBRANCH   2   3
ENDBRANCH   1   2
BRANCH   1  23
ATOM     23  C   UNL A   1      37.220  22.230  25.558  1.00  0.00     0.116 C 
BRANCH  23  24
ATOM     24  N   UNL A   1      38.318  21.291  25.744  1.00  0.00    -0.352 N 
ATOM     25  C   UNL A   1      39.577  21.537  26.251  1.00  0.00     0.251 C 
ATOM     26  H   UNL A   1      38.139  20.361  25.475  1.00  0.00     0.163 HD
ATOM     27  O   UNL A   1      40.433  20.664  26.240  1.00  0.00    -0.269 OA
BRANCH  25  28
ATOM     28  C   UNL A   1      39.879  22.888  26.771  1.00  0.00     0.039 A 
ATOM     29  C   UNL A   1      40.744  23.020  27.858  1.00  0.00     0.014 A 
ATOM     30  C   UNL A   1      39.363  24.017  26.129  1.00  0.00     0.014 A 
ATOM     31  C   UNL A   1      41.161  24.294  28.253  1.00  0.00     0.010 A 
ATOM     32  C   UNL A   1      39.833  25.278  26.482  1.00  0.00     0.010 A 
ATOM     33  C   UNL A   1      40.743  25.429  27.540  1.00  0.00    -0.014 A 
BRANCH  33  34
ATOM     34  C   UNL A   1      41.231  26.791  27.883  1.00  0.00     0.031 A 
ATOM     35  C   UNL A   1      42.660  27.160  27.594  1.00  0.00     0.074 A 
ATOM     36  C   UNL A   1      40.422  27.659  28.522  1.00  0.00     0.049 A 
ATOM     37  N   UNL A   1      43.328  28.230  27.941  1.00  0.00    -0.248 NA
ATOM     38  C   UNL A   1      43.450  26.174  26.842  1.00  0.00     0.031 C 
ATOM     39  C   UNL A   1      39.024  27.409  28.881  1.00  0.00     0.029 A 
ATOM     40  N   UNL A   1      40.663  28.925  29.000  1.00  0.00    -0.354 N 
ATOM     41  C   UNL A   1      44.621  28.039  27.466  1.00  0.00     0.074 A 
ATOM     42  C   UNL A   1      44.655  26.725  26.859  1.00  0.00     0.031 C 
ATOM     43  C   UNL A   1      38.529  28.491  29.505  1.00  0.00     0.029 A 
ATOM     44  C   UNL A   1      39.583  29.493  29.636  1.00  0.00     0.049 A 
ATOM     45  H   UNL A   1      41.527  29.382  28.896  1.00  0.00     0.167 HD
ATOM     46  C   UNL A   1      45.677  28.889  27.513  1.00  0.00     0.034 A 
ATOM     47  C   UNL A   1      39.463  30.677  30.270  1.00  0.00     0.034 A 
ATOM     48  C   UNL A   1      45.624  30.201  28.107  1.00  0.00     0.049 A 
ATOM     49  C   UNL A   1      40.659  31.596  30.330  1.00  0.00     0.074 A 
ATOM     50  C   UNL A   1      46.625  31.154  28.186  1.00  0.00     0.029 A 
ATOM     51  N   UNL A   1      44.506  30.749  28.723  1.00  0.00    -0.354 N 
ATOM     52  N   UNL A   1      41.871  31.407  29.859  1.00  0.00    -0.248 NA
ATOM     53  C   UNL A   1      40.469  32.889  31.000  1.00  0.00     0.031 C 
ATOM     54  C   UNL A   1      46.129  32.256  28.892  1.00  0.00     0.029 A 
ATOM     55  C   UNL A   1      44.797  32.020  29.195  1.00  0.00     0.049 A 
ATOM     56  H   UNL A   1      43.635  30.301  28.811  1.00  0.00     0.167 HD
ATOM     57  C   UNL A   1      42.571  32.578  30.139  1.00  0.00     0.074 A 
ATOM     58  C   UNL A   1      41.647  33.465  30.814  1.00  0.00     0.031 C 
ATOM     59  C   UNL A   1      43.860  32.895  29.856  1.00  0.00     0.034 A 
BRANCH  46  60
ATOM     60  C   UNL A   1      46.977  28.406  26.919  1.00  0.00     0.023 A 
ATOM     61  C   UNL A   1      47.164  28.323  25.527  1.00  0.00     0.031 A 
ATOM     62  C   UNL A   1      48.033  27.992  27.750  1.00  0.00     0.131 A 
ATOM     63  C   UNL A   1      48.342  27.766  25.010  1.00  0.00     0.055 A 
ATOM     64  C   UNL A   1      49.237  27.515  27.227  1.00  0.00     0.041 A 
ATOM     65  F   UNL A   1      47.906  28.029  29.085  1.00  0.00    -0.206 F 
ATOM     66  C   UNL A   1      49.391  27.386  25.850  1.00  0.00     0.022 A 
BRANCH  63  67
ATOM     67  S   UNL A   1      48.426  27.416  23.233  1.00  0.00     0.124 S 
ATOM     68  O   UNL A   1      49.738  27.958  22.888  1.00  0.00    -0.237 OA
ATOM     69  O   UNL A   1      48.303  25.963  23.190  1.00  0.00    -0.237 OA
ATOM     70  O   UNL A   1      47.290  28.154  22.685  1.00  0.00    -0.744 OA
ENDBRANCH  63  67
ENDBRANCH  46  60
BRANCH  47  71
ATOM     71  C   UNL A   1      38.176  31.073  30.910  1.00  0.00     0.023 A 
ATOM     72  C   UNL A   1      37.175  31.723  30.170  1.00  0.00     0.031 A 
ATOM     73  C   UNL A   1      37.951  30.867  32.283  1.00  0.00     0.131 A 
ATOM     74  C   UNL A   1      36.022  32.196  30.816  1.00  0.00     0.055 A 
ATOM     75  C   UNL A   1      36.777  31.291  32.910  1.00  0.00     0.041 A 
ATOM     76  F   UNL A   1      38.872  30.246  33.036  1.00  0.00    -0.206 F 
ATOM     77  C   UNL A   1      35.811  31.974  32.178  1.00  0.00     0.022 A 
BRANCH  74  78
ATOM     78  S   UNL A   1      34.847  33.199  29.865  1.00  0.00     0.124 S 
ATOM     79  O   UNL A   1      34.234  32.200  28.999  1.00  0.00    -0.237 OA
ATOM     80  O   UNL A   1      33.996  33.745  30.917  1.00  0.00    -0.237 OA
ATOM     81  O   UNL A   1      35.702  34.173  29.189  1.00  0.00    -0.744 OA
ENDBRANCH  74  78
ENDBRANCH  47  71
BRANCH  59  82
ATOM     82  C   UNL A   1      44.319  34.287  30.210  1.00  0.00     0.023 A 
ATOM     83  C   UNL A   1      44.133  35.375  29.341  1.00  0.00     0.031 A 
ATOM     84  C   UNL A   1      44.953  34.521  31.444  1.00  0.00     0.131 A 
ATOM     85  C   UNL A   1      44.621  36.642  29.698  1.00  0.00     0.055 A 
ATOM     86  C   UNL A   1      45.389  35.792  31.815  1.00  0.00     0.041 A 
ATOM     87  F   UNL A   1      45.154  33.515  32.310  1.00  0.00    -0.206 F 
ATOM     88  C   UNL A   1      45.235  36.860  30.935  1.00  0.00     0.022 A 
BRANCH  85  89
ATOM     89  S   UNL A   1      44.509  37.993  28.492  1.00  0.00     0.124 S 
ATOM     90  O   UNL A   1      44.098  37.287  27.283  1.00  0.00    -0.237 OA
ATOM     91  O   UNL A   1      43.506  38.865  29.092  1.00  0.00    -0.237 OA
ATOM     92  O   UNL A   1      45.865  38.538  28.460  1.00  0.00    -0.744 OA
ENDBRANCH  85  89
ENDBRANCH  59  82
ENDBRANCH  33  34
ENDBRANCH  25  28
ENDBRANCH  23  24
ENDBRANCH   1  23
TORSDOF 17
ENDMDL
