MODEL 1
REMARK VINA RESULT:     -13.4      0.000      0.000
REMARK SMILES Cc1cccc(-n2c(C)cc(/C=N\c3ccc(O)c(C(=O)NCCCCNC(=O)c4ccc(-c5c6nc(c(-c7cc(S(=O)(=O)[O-])ccc7F)c7ccc([nH]7)c(-c7cc(S(=O)(=O)[O-])ccc7F)c7nc(c(-c8cc(S(=O)(=O)[O-])ccc8F)c8ccc5[nH]8)C=C7)C=C6)cc4)c3)c2C)c1
REMARK SMILES IDX 24 1 23 2 22 3 20 4 21 5 19 7 14 8 15 9 93 10 16 11 17 12
REMARK SMILES IDX 13 13 12 14 11 15 7 16 8 17 94 18 9 19 10 20 95 21 6 22 1 23
REMARK SMILES IDX 2 24 3 25 96 26 4 27 5 28 18 29 25 31 26 32 27 33 28 34
REMARK SMILES IDX 29 36 30 37 31 38 92 39 32 40 91 41 33 42 34 43 35 44 85 45
REMARK SMILES IDX 36 46 90 47 84 48 86 49 37 50 89 51 83 52 82 53 38 55 70 56
REMARK SMILES IDX 50 57 69 58 51 59 54 60 68 61 87 62 52 63 53 64 67 66 88 67
REMARK SMILES IDX 55 68 39 69 40 70 48 71 41 72 47 73 49 74 46 75 42 76 43 77
REMARK SMILES IDX 44 78 45 79 71 80 72 81 80 82 73 83 79 84 81 85 78 86 74 87
REMARK SMILES IDX 75 88 76 89 77 90 56 91 57 92 65 93 58 94 64 95 66 96 63 97
REMARK SMILES IDX 59 98 60 99 61 100 62 101
REMARK H PARENT 22 6 18 30 27 35 86 54 54 65
REMARK Flexibility Score: inf
ROOT
ATOM      1  C   UNL A   1      37.987  21.312  25.201  1.00  0.00     0.023 C 
ENDROOT
BRANCH   1   2
ATOM      2  C   UNL A   1      36.503  21.013  25.378  1.00  0.00     0.116 C 
BRANCH   2   3
ATOM      3  N   UNL A   1      35.748  21.972  26.174  1.00  0.00    -0.352 N 
ATOM      4  C   UNL A   1      34.491  22.514  26.012  1.00  0.00     0.255 C 
ATOM      5  O   UNL A   1      34.100  23.283  26.895  1.00  0.00    -0.269 OA
ATOM      6  H   UNL A   1      36.222  22.291  26.974  1.00  0.00     0.163 HD
BRANCH   4   7
ATOM      7  C   UNL A   1      33.613  22.287  24.821  1.00  0.00     0.083 A 
ATOM      8  C   UNL A   1      33.187  22.875  22.475  1.00  0.00     0.064 A 
ATOM      9  C   UNL A   1      32.198  21.901  22.405  1.00  0.00     0.032 A 
ATOM     10  C   UNL A   1      33.974  22.964  23.636  1.00  0.00     0.046 A 
ATOM     11  C   UNL A   1      31.804  21.252  23.565  1.00  0.00     0.049 A 
ATOM     12  C   UNL A   1      32.426  21.553  24.779  1.00  0.00     0.128 A 
BRANCH   8  13
ATOM     13  N   UNL A   1      33.380  23.792  21.437  1.00  0.00    -0.256 NA
ATOM     14  C   UNL A   1      33.174  25.072  21.592  1.00  0.00     0.121 C 
BRANCH  14  15
ATOM     15  C   UNL A   1      32.729  25.845  22.757  1.00  0.00     0.014 A 
ATOM     16  N   UNL A   1      32.448  27.356  24.427  1.00  0.00    -0.318 N 
ATOM     17  C   UNL A   1      31.535  26.334  24.645  1.00  0.00     0.021 A 
ATOM     18  C   UNL A   1      33.044  27.139  23.179  1.00  0.00     0.029 A 
ATOM     19  C   UNL A   1      30.506  26.370  25.723  1.00  0.00     0.065 C 
ATOM     20  C   UNL A   1      31.720  25.389  23.657  1.00  0.00     0.033 A 
ATOM     21  C   UNL A   1      33.920  28.165  22.544  1.00  0.00     0.065 C 
BRANCH  16  22
ATOM     22  C   UNL A   1      32.769  28.395  25.351  1.00  0.00     0.046 A 
ATOM     23  C   UNL A   1      31.305  31.741  26.466  1.00  0.00     0.044 C 
ATOM     24  C   UNL A   1      32.174  30.522  26.375  1.00  0.00    -0.049 A 
ATOM     25  C   UNL A   1      33.144  30.300  27.362  1.00  0.00     0.003 A 
ATOM     26  C   UNL A   1      31.991  29.564  25.364  1.00  0.00     0.030 A 
ATOM     27  C   UNL A   1      33.948  29.164  27.320  1.00  0.00     0.002 A 
ATOM     28  C   UNL A   1      33.772  28.221  26.308  1.00  0.00     0.026 A 
ENDBRANCH  16  22
ENDBRANCH  14  15
ENDBRANCH   8  13
BRANCH  12  29
ATOM     29  O   UNL A   1      31.679  21.189  25.860  1.00  0.00    -0.507 OA
ATOM     30  H   UNL A   1      30.888  20.701  25.740  1.00  0.00     0.293 HD
ENDBRANCH  12  29
ENDBRANCH   4   7
ENDBRANCH   2   3
ENDBRANCH   1   2
BRANCH   1  31
ATOM     31  C   UNL A   1      38.487  22.672  25.647  1.00  0.00     0.023 C 
BRANCH  31  32
ATOM     32  C   UNL A   1      39.471  22.680  26.805  1.00  0.00     0.116 C 
BRANCH  32  33
ATOM     33  N   UNL A   1      40.849  23.010  26.478  1.00  0.00    -0.352 N 
ATOM     34  C   UNL A   1      41.446  24.257  26.376  1.00  0.00     0.251 C 
ATOM     35  H   UNL A   1      41.439  22.242  26.304  1.00  0.00     0.163 HD
ATOM     36  O   UNL A   1      42.601  24.351  25.953  1.00  0.00    -0.269 OA
BRANCH  34  37
ATOM     37  C   UNL A   1      40.749  25.479  26.865  1.00  0.00     0.039 A 
ATOM     38  C   UNL A   1      40.849  26.655  26.107  1.00  0.00     0.014 A 
ATOM     39  C   UNL A   1      40.152  25.535  28.120  1.00  0.00     0.014 A 
ATOM     40  C   UNL A   1      40.569  27.891  26.696  1.00  0.00     0.010 A 
ATOM     41  C   UNL A   1      39.995  26.752  28.746  1.00  0.00     0.010 A 
ATOM     42  C   UNL A   1      40.243  27.932  28.050  1.00  0.00    -0.014 A 
BRANCH  42  43
ATOM     43  C   UNL A   1      40.273  29.137  28.867  1.00  0.00     0.031 A 
ATOM     44  C   UNL A   1      39.163  30.105  28.854  1.00  0.00     0.074 A 
ATOM     45  C   UNL A   1      41.274  29.301  29.758  1.00  0.00     0.049 A 
ATOM     46  N   UNL A   1      39.308  31.362  29.109  1.00  0.00    -0.248 NA
ATOM     47  C   UNL A   1      37.786  29.731  28.551  1.00  0.00     0.031 C 
ATOM     48  C   UNL A   1      41.352  30.273  30.843  1.00  0.00     0.029 A 
ATOM     49  N   UNL A   1      42.548  28.748  29.696  1.00  0.00    -0.354 N 
ATOM     50  C   UNL A   1      38.053  31.875  29.329  1.00  0.00     0.074 A 
ATOM     51  C   UNL A   1      37.136  30.849  28.888  1.00  0.00     0.031 C 
ATOM     52  C   UNL A   1      42.641  30.459  31.164  1.00  0.00     0.029 A 
ATOM     53  C   UNL A   1      43.437  29.707  30.211  1.00  0.00     0.049 A 
ATOM     54  H   UNL A   1      42.783  27.853  29.358  1.00  0.00     0.167 HD
ATOM     55  C   UNL A   1      37.903  33.040  30.020  1.00  0.00     0.034 A 
ATOM     56  C   UNL A   1      44.433  30.213  29.427  1.00  0.00     0.034 A 
ATOM     57  C   UNL A   1      39.183  33.585  30.468  1.00  0.00     0.049 A 
ATOM     58  C   UNL A   1      44.320  31.706  29.208  1.00  0.00     0.074 A 
ATOM     59  C   UNL A   1      39.819  33.608  31.700  1.00  0.00     0.029 A 
ATOM     60  N   UNL A   1      40.138  33.970  29.533  1.00  0.00    -0.354 N 
ATOM     61  N   UNL A   1      43.261  32.414  29.492  1.00  0.00    -0.248 NA
ATOM     62  C   UNL A   1      45.390  32.522  28.647  1.00  0.00     0.031 C 
ATOM     63  C   UNL A   1      41.171  33.985  31.494  1.00  0.00     0.029 A 
ATOM     64  C   UNL A   1      41.354  34.213  30.142  1.00  0.00     0.049 A 
ATOM     65  H   UNL A   1      39.970  34.057  28.567  1.00  0.00     0.167 HD
ATOM     66  C   UNL A   1      43.472  33.732  29.170  1.00  0.00     0.074 A 
ATOM     67  C   UNL A   1      44.832  33.745  28.656  1.00  0.00     0.031 C 
ATOM     68  C   UNL A   1      42.496  34.678  29.362  1.00  0.00     0.034 A 
BRANCH  55  69
ATOM     69  C   UNL A   1      36.564  33.487  30.553  1.00  0.00     0.023 A 
ATOM     70  C   UNL A   1      35.664  34.172  29.714  1.00  0.00     0.031 A 
ATOM     71  C   UNL A   1      36.135  33.292  31.881  1.00  0.00     0.131 A 
ATOM     72  C   UNL A   1      34.471  34.722  30.215  1.00  0.00     0.055 A 
ATOM     73  C   UNL A   1      34.976  33.888  32.396  1.00  0.00     0.041 A 
ATOM     74  F   UNL A   1      36.812  32.494  32.720  1.00  0.00    -0.206 F 
ATOM     75  C   UNL A   1      34.142  34.623  31.564  1.00  0.00     0.022 A 
BRANCH  72  76
ATOM     76  S   UNL A   1      33.344  35.562  29.067  1.00  0.00     0.124 S 
ATOM     77  O   UNL A   1      34.268  36.252  28.174  1.00  0.00    -0.237 OA
ATOM     78  O   UNL A   1      32.603  34.444  28.491  1.00  0.00    -0.237 OA
ATOM     79  O   UNL A   1      32.560  36.435  29.940  1.00  0.00    -0.744 OA
ENDBRANCH  72  76
ENDBRANCH  55  69
BRANCH  56  80
ATOM     80  C   UNL A   1      44.973  29.200  28.471  1.00  0.00     0.023 A 
ATOM     81  C   UNL A   1      45.832  28.222  29.026  1.00  0.00     0.031 A 
ATOM     82  C   UNL A   1      44.356  28.907  27.250  1.00  0.00     0.131 A 
ATOM     83  C   UNL A   1      45.868  26.929  28.492  1.00  0.00     0.055 A 
ATOM     84  C   UNL A   1      44.489  27.643  26.656  1.00  0.00     0.041 A 
ATOM     85  F   UNL A   1      43.508  29.780  26.684  1.00  0.00    -0.206 F 
ATOM     86  C   UNL A   1      45.202  26.630  27.304  1.00  0.00     0.022 A 
BRANCH  83  87
ATOM     87  S   UNL A   1      46.508  25.591  29.552  1.00  0.00     0.124 S 
ATOM     88  O   UNL A   1      45.451  24.592  29.445  1.00  0.00    -0.237 OA
ATOM     89  O   UNL A   1      47.780  25.254  28.909  1.00  0.00    -0.237 OA
ATOM     90  O   UNL A   1      46.652  26.223  30.860  1.00  0.00    -0.744 OA
ENDBRANCH  83  87
ENDBRANCH  56  80
BRANCH  68  91
ATOM     91  C   UNL A   1      42.519  36.142  28.937  1.00  0.00     0.023 A 
ATOM     92  C   UNL A   1      43.227  37.149  29.605  1.00  0.00     0.031 A 
ATOM     93  C   UNL A   1      41.824  36.575  27.773  1.00  0.00     0.131 A 
ATOM     94  C   UNL A   1      43.194  38.490  29.169  1.00  0.00     0.055 A 
ATOM     95  C   UNL A   1      41.836  37.894  27.309  1.00  0.00     0.041 A 
ATOM     96  F   UNL A   1      41.102  35.734  27.017  1.00  0.00    -0.206 F 
ATOM     97  C   UNL A   1      42.517  38.867  28.014  1.00  0.00     0.022 A 
BRANCH  94  98
ATOM     98  S   UNL A   1      44.028  39.741  30.181  1.00  0.00     0.124 S 
ATOM     99  O   UNL A   1      43.960  40.919  29.321  1.00  0.00    -0.237 OA
ATOM    100  O   UNL A   1      43.192  39.782  31.376  1.00  0.00    -0.237 OA
ATOM    101  O   UNL A   1      45.368  39.190  30.377  1.00  0.00    -0.744 OA
ENDBRANCH  94  98
ENDBRANCH  68  91
ENDBRANCH  42  43
ENDBRANCH  34  37
ENDBRANCH  32  33
ENDBRANCH  31  32
ENDBRANCH   1  31
TORSDOF 18
ENDMDL
MODEL 2
REMARK VINA RESULT:     -13.3      3.946     10.532
REMARK SMILES Cc1cccc(-n2c(C)cc(/C=N\c3ccc(O)c(C(=O)NCCCCNC(=O)c4ccc(-c5c6nc(c(-c7cc(S(=O)(=O)[O-])ccc7F)c7ccc([nH]7)c(-c7cc(S(=O)(=O)[O-])ccc7F)c7nc(c(-c8cc(S(=O)(=O)[O-])ccc8F)c8ccc5[nH]8)C=C7)C=C6)cc4)c3)c2C)c1
REMARK SMILES IDX 24 1 23 2 22 3 20 4 21 5 19 7 14 8 15 9 93 10 16 11 17 12
REMARK SMILES IDX 13 13 12 14 11 15 7 16 8 17 94 18 9 19 10 20 95 21 6 22 1 23
REMARK SMILES IDX 2 24 3 25 96 26 4 27 5 28 18 29 25 31 26 32 27 33 28 34
REMARK SMILES IDX 29 36 30 37 31 38 92 39 32 40 91 41 33 42 34 43 35 44 85 45
REMARK SMILES IDX 36 46 90 47 84 48 86 49 37 50 89 51 83 52 82 53 38 55 70 56
REMARK SMILES IDX 50 57 69 58 51 59 54 60 68 61 87 62 52 63 53 64 67 66 88 67
REMARK SMILES IDX 55 68 39 69 40 70 48 71 41 72 47 73 49 74 46 75 42 76 43 77
REMARK SMILES IDX 44 78 45 79 71 80 72 81 80 82 73 83 79 84 81 85 78 86 74 87
REMARK SMILES IDX 75 88 76 89 77 90 56 91 57 92 65 93 58 94 64 95 66 96 63 97
REMARK SMILES IDX 59 98 60 99 61 100 62 101
REMARK H PARENT 22 6 18 30 27 35 86 54 54 65
REMARK Flexibility Score: inf
ROOT
ATOM      1  C   UNL A   1      33.002  31.716  27.162  1.00  0.00     0.023 C 
ENDROOT
BRANCH   1   2
ATOM      2  C   UNL A   1      31.904  30.833  26.580  1.00  0.00     0.116 C 
BRANCH   2   3
ATOM      3  N   UNL A   1      31.678  29.563  27.258  1.00  0.00    -0.352 N 
ATOM      4  C   UNL A   1      31.731  28.261  26.811  1.00  0.00     0.255 C 
ATOM      5  O   UNL A   1      31.530  27.378  27.650  1.00  0.00    -0.269 OA
ATOM      6  H   UNL A   1      31.445  29.652  28.209  1.00  0.00     0.163 HD
BRANCH   4   7
ATOM      7  C   UNL A   1      31.946  27.857  25.385  1.00  0.00     0.083 A 
ATOM      8  C   UNL A   1      31.242  26.355  23.576  1.00  0.00     0.064 A 
ATOM      9  C   UNL A   1      32.061  27.037  22.683  1.00  0.00     0.032 A 
ATOM     10  C   UNL A   1      31.090  26.855  24.879  1.00  0.00     0.046 A 
ATOM     11  C   UNL A   1      32.936  27.998  23.167  1.00  0.00     0.049 A 
ATOM     12  C   UNL A   1      32.959  28.297  24.531  1.00  0.00     0.128 A 
BRANCH   8  13
ATOM     13  N   UNL A   1      30.608  25.161  23.215  1.00  0.00    -0.256 NA
ATOM     14  C   UNL A   1      31.000  24.002  23.667  1.00  0.00     0.121 C 
BRANCH  14  15
ATOM     15  C   UNL A   1      32.093  23.637  24.577  1.00  0.00     0.014 A 
ATOM     16  N   UNL A   1      34.082  23.141  25.549  1.00  0.00    -0.318 N 
ATOM     17  C   UNL A   1      33.096  22.905  26.496  1.00  0.00     0.021 A 
ATOM     18  C   UNL A   1      33.479  23.758  24.447  1.00  0.00     0.029 A 
ATOM     19  C   UNL A   1      33.389  22.526  27.907  1.00  0.00     0.065 C 
ATOM     20  C   UNL A   1      31.877  23.166  25.906  1.00  0.00     0.033 A 
ATOM     21  C   UNL A   1      34.288  24.338  23.337  1.00  0.00     0.065 C 
BRANCH  16  22
ATOM     22  C   UNL A   1      35.451  22.753  25.659  1.00  0.00     0.046 A 
ATOM     23  C   UNL A   1      37.618  19.741  24.756  1.00  0.00     0.044 C 
ATOM     24  C   UNL A   1      37.183  21.098  25.224  1.00  0.00    -0.049 A 
ATOM     25  C   UNL A   1      38.156  22.059  25.532  1.00  0.00     0.003 A 
ATOM     26  C   UNL A   1      35.825  21.450  25.292  1.00  0.00     0.030 A 
ATOM     27  C   UNL A   1      37.783  23.336  25.943  1.00  0.00     0.002 A 
ATOM     28  C   UNL A   1      36.434  23.678  26.021  1.00  0.00     0.026 A 
ENDBRANCH  16  22
ENDBRANCH  14  15
ENDBRANCH   8  13
BRANCH  12  29
ATOM     29  O   UNL A   1      34.116  28.907  24.918  1.00  0.00    -0.507 OA
ATOM     30  H   UNL A   1      34.185  29.281  25.774  1.00  0.00     0.293 HD
ENDBRANCH  12  29
ENDBRANCH   4   7
ENDBRANCH   2   3
ENDBRANCH   1   2
BRANCH   1  31
ATOM     31  C   UNL A   1      34.293  31.044  27.587  1.00  0.00     0.023 C 
BRANCH  31  32
ATOM     32  C   UNL A   1      35.443  31.967  27.954  1.00  0.00     0.116 C 
BRANCH  32  33
ATOM     33  N   UNL A   1      35.668  32.182  29.374  1.00  0.00    -0.352 N 
ATOM     34  C   UNL A   1      36.373  31.397  30.273  1.00  0.00     0.251 C 
ATOM     35  H   UNL A   1      35.263  32.997  29.749  1.00  0.00     0.163 HD
ATOM     36  O   UNL A   1      36.345  31.667  31.477  1.00  0.00    -0.269 OA
BRANCH  34  37
ATOM     37  C   UNL A   1      37.248  30.290  29.797  1.00  0.00     0.039 A 
ATOM     38  C   UNL A   1      37.288  29.101  30.541  1.00  0.00     0.014 A 
ATOM     39  C   UNL A   1      38.145  30.458  28.747  1.00  0.00     0.014 A 
ATOM     40  C   UNL A   1      38.354  28.213  30.380  1.00  0.00     0.010 A 
ATOM     41  C   UNL A   1      39.261  29.655  28.669  1.00  0.00     0.010 A 
ATOM     42  C   UNL A   1      39.391  28.556  29.514  1.00  0.00    -0.014 A 
BRANCH  42  43
ATOM     43  C   UNL A   1      40.702  27.923  29.508  1.00  0.00     0.031 A 
ATOM     44  C   UNL A   1      40.901  26.567  28.967  1.00  0.00     0.074 A 
ATOM     45  C   UNL A   1      41.781  28.645  29.877  1.00  0.00     0.049 A 
ATOM     46  N   UNL A   1      41.835  25.769  29.364  1.00  0.00    -0.248 NA
ATOM     47  C   UNL A   1      40.056  25.995  27.924  1.00  0.00     0.031 C 
ATOM     48  C   UNL A   1      43.187  28.305  29.691  1.00  0.00     0.029 A 
ATOM     49  N   UNL A   1      41.800  29.748  30.723  1.00  0.00    -0.354 N 
ATOM     50  C   UNL A   1      41.924  24.760  28.437  1.00  0.00     0.074 A 
ATOM     51  C   UNL A   1      40.745  24.895  27.610  1.00  0.00     0.031 C 
ATOM     52  C   UNL A   1      43.917  28.979  30.593  1.00  0.00     0.029 A 
ATOM     53  C   UNL A   1      42.989  29.673  31.467  1.00  0.00     0.049 A 
ATOM     54  H   UNL A   1      41.111  30.449  30.789  1.00  0.00     0.167 HD
ATOM     55  C   UNL A   1      43.061  24.017  28.343  1.00  0.00     0.034 A 
ATOM     56  C   UNL A   1      42.946  29.571  32.827  1.00  0.00     0.034 A 
ATOM     57  C   UNL A   1      44.085  24.452  29.291  1.00  0.00     0.049 A 
ATOM     58  C   UNL A   1      43.564  28.293  33.351  1.00  0.00     0.074 A 
ATOM     59  C   UNL A   1      45.246  25.196  29.149  1.00  0.00     0.029 A 
ATOM     60  N   UNL A   1      43.844  24.370  30.658  1.00  0.00    -0.354 N 
ATOM     61  N   UNL A   1      43.866  27.264  32.607  1.00  0.00    -0.248 NA
ATOM     62  C   UNL A   1      43.886  28.069  34.754  1.00  0.00     0.031 C 
ATOM     63  C   UNL A   1      45.688  25.581  30.441  1.00  0.00     0.029 A 
ATOM     64  C   UNL A   1      44.809  25.055  31.371  1.00  0.00     0.049 A 
ATOM     65  H   UNL A   1      43.087  23.888  31.063  1.00  0.00     0.167 HD
ATOM     66  C   UNL A   1      44.402  26.262  33.380  1.00  0.00     0.074 A 
ATOM     67  C   UNL A   1      44.403  26.829  34.719  1.00  0.00     0.031 C 
ATOM     68  C   UNL A   1      44.789  25.067  32.830  1.00  0.00     0.034 A 
BRANCH  55  69
ATOM     69  C   UNL A   1      43.334  23.117  27.163  1.00  0.00     0.023 A 
ATOM     70  C   UNL A   1      42.836  21.800  27.151  1.00  0.00     0.031 A 
ATOM     71  C   UNL A   1      44.099  23.491  26.041  1.00  0.00     0.131 A 
ATOM     72  C   UNL A   1      43.186  20.894  26.134  1.00  0.00     0.055 A 
ATOM     73  C   UNL A   1      44.497  22.576  25.058  1.00  0.00     0.041 A 
ATOM     74  F   UNL A   1      44.467  24.766  25.845  1.00  0.00    -0.206 F 
ATOM     75  C   UNL A   1      44.053  21.262  25.109  1.00  0.00     0.022 A 
BRANCH  72  76
ATOM     76  S   UNL A   1      42.478  19.224  26.166  1.00  0.00     0.124 S 
ATOM     77  O   UNL A   1      41.235  19.399  25.421  1.00  0.00    -0.237 OA
ATOM     78  O   UNL A   1      43.517  18.436  25.510  1.00  0.00    -0.237 OA
ATOM     79  O   UNL A   1      42.310  18.954  27.593  1.00  0.00    -0.744 OA
ENDBRANCH  72  76
ENDBRANCH  55  69
BRANCH  56  80
ATOM     80  C   UNL A   1      41.798  30.325  33.417  1.00  0.00     0.023 A 
ATOM     81  C   UNL A   1      41.962  31.726  33.512  1.00  0.00     0.031 A 
ATOM     82  C   UNL A   1      40.493  29.818  33.442  1.00  0.00     0.131 A 
ATOM     83  C   UNL A   1      40.856  32.576  33.395  1.00  0.00     0.055 A 
ATOM     84  C   UNL A   1      39.383  30.676  33.441  1.00  0.00     0.041 A 
ATOM     85  F   UNL A   1      40.268  28.501  33.327  1.00  0.00    -0.206 F 
ATOM     86  C   UNL A   1      39.561  32.061  33.362  1.00  0.00     0.022 A 
BRANCH  83  87
ATOM     87  S   UNL A   1      41.168  34.316  32.945  1.00  0.00     0.124 S 
ATOM     88  O   UNL A   1      42.496  34.537  33.506  1.00  0.00    -0.237 OA
ATOM     89  O   UNL A   1      41.083  34.288  31.482  1.00  0.00    -0.237 OA
ATOM     90  O   UNL A   1      40.078  35.043  33.589  1.00  0.00    -0.744 OA
ENDBRANCH  83  87
ENDBRANCH  56  80
BRANCH  68  91
ATOM     91  C   UNL A   1      45.268  23.816  33.558  1.00  0.00     0.023 A 
ATOM     92  C   UNL A   1      46.573  23.628  34.031  1.00  0.00     0.031 A 
ATOM     93  C   UNL A   1      44.373  22.745  33.837  1.00  0.00     0.131 A 
ATOM     94  C   UNL A   1      46.958  22.439  34.684  1.00  0.00     0.055 A 
ATOM     95  C   UNL A   1      44.742  21.590  34.533  1.00  0.00     0.041 A 
ATOM     96  F   UNL A   1      43.088  22.770  33.457  1.00  0.00    -0.206 F 
ATOM     97  C   UNL A   1      46.047  21.424  34.954  1.00  0.00     0.022 A 
BRANCH  94  98
ATOM     98  S   UNL A   1      48.702  22.234  35.134  1.00  0.00     0.124 S 
ATOM     99  O   UNL A   1      48.793  23.025  36.358  1.00  0.00    -0.237 OA
ATOM    100  O   UNL A   1      48.812  20.789  35.306  1.00  0.00    -0.237 OA
ATOM    101  O   UNL A   1      49.422  22.780  33.985  1.00  0.00    -0.744 OA
ENDBRANCH  94  98
ENDBRANCH  68  91
ENDBRANCH  42  43
ENDBRANCH  34  37
ENDBRANCH  32  33
ENDBRANCH  31  32
ENDBRANCH   1  31
TORSDOF 18
ENDMDL
MODEL 3
REMARK VINA RESULT:     -13.1      4.333     10.588
REMARK SMILES Cc1cccc(-n2c(C)cc(/C=N\c3ccc(O)c(C(=O)NCCCCNC(=O)c4ccc(-c5c6nc(c(-c7cc(S(=O)(=O)[O-])ccc7F)c7ccc([nH]7)c(-c7cc(S(=O)(=O)[O-])ccc7F)c7nc(c(-c8cc(S(=O)(=O)[O-])ccc8F)c8ccc5[nH]8)C=C7)C=C6)cc4)c3)c2C)c1
REMARK SMILES IDX 24 1 23 2 22 3 20 4 21 5 19 7 14 8 15 9 93 10 16 11 17 12
REMARK SMILES IDX 13 13 12 14 11 15 7 16 8 17 94 18 9 19 10 20 95 21 6 22 1 23
REMARK SMILES IDX 2 24 3 25 96 26 4 27 5 28 18 29 25 31 26 32 27 33 28 34
REMARK SMILES IDX 29 36 30 37 31 38 92 39 32 40 91 41 33 42 34 43 35 44 85 45
REMARK SMILES IDX 36 46 90 47 84 48 86 49 37 50 89 51 83 52 82 53 38 55 70 56
REMARK SMILES IDX 50 57 69 58 51 59 54 60 68 61 87 62 52 63 53 64 67 66 88 67
REMARK SMILES IDX 55 68 39 69 40 70 48 71 41 72 47 73 49 74 46 75 42 76 43 77
REMARK SMILES IDX 44 78 45 79 71 80 72 81 80 82 73 83 79 84 81 85 78 86 74 87
REMARK SMILES IDX 75 88 76 89 77 90 56 91 57 92 65 93 58 94 64 95 66 96 63 97
REMARK SMILES IDX 59 98 60 99 61 100 62 101
REMARK H PARENT 22 6 18 30 27 35 86 54 54 65
REMARK Flexibility Score: inf
ROOT
ATOM      1  C   UNL A   1      32.771  30.234  25.729  1.00  0.00     0.023 C 
ENDROOT
BRANCH   1   2
ATOM      2  C   UNL A   1      31.375  29.802  25.295  1.00  0.00     0.116 C 
BRANCH   2   3
ATOM      3  N   UNL A   1      31.062  29.972  23.882  1.00  0.00    -0.352 N 
ATOM      4  C   UNL A   1      30.705  29.069  22.904  1.00  0.00     0.255 C 
ATOM      5  O   UNL A   1      30.455  29.531  21.787  1.00  0.00    -0.269 OA
ATOM      6  H   UNL A   1      31.117  30.903  23.569  1.00  0.00     0.163 HD
BRANCH   4   7
ATOM      7  C   UNL A   1      30.665  27.584  23.090  1.00  0.00     0.083 A 
ATOM      8  C   UNL A   1      29.864  25.738  24.496  1.00  0.00     0.064 A 
ATOM      9  C   UNL A   1      30.320  24.818  23.559  1.00  0.00     0.032 A 
ATOM     10  C   UNL A   1      29.918  27.108  24.189  1.00  0.00     0.046 A 
ATOM     11  C   UNL A   1      31.087  25.264  22.493  1.00  0.00     0.049 A 
ATOM     12  C   UNL A   1      31.360  26.626  22.350  1.00  0.00     0.128 A 
BRANCH   8  13
ATOM     13  N   UNL A   1      29.397  25.329  25.750  1.00  0.00    -0.256 NA
ATOM     14  C   UNL A   1      30.064  24.495  26.501  1.00  0.00     0.121 C 
BRANCH  14  15
ATOM     15  C   UNL A   1      31.345  23.812  26.286  1.00  0.00     0.014 A 
ATOM     16  N   UNL A   1      33.490  23.242  25.815  1.00  0.00    -0.318 N 
ATOM     17  C   UNL A   1      32.810  22.066  26.098  1.00  0.00     0.021 A 
ATOM     18  C   UNL A   1      32.637  24.312  26.109  1.00  0.00     0.029 A 
ATOM     19  C   UNL A   1      33.474  20.735  26.184  1.00  0.00     0.065 C 
ATOM     20  C   UNL A   1      31.493  22.394  26.349  1.00  0.00     0.033 A 
ATOM     21  C   UNL A   1      33.126  25.721  26.117  1.00  0.00     0.065 C 
BRANCH  16  22
ATOM     22  C   UNL A   1      34.800  23.330  25.253  1.00  0.00     0.046 A 
ATOM     23  C   UNL A   1      38.390  23.721  26.495  1.00  0.00     0.044 C 
ATOM     24  C   UNL A   1      37.201  23.520  25.602  1.00  0.00    -0.049 A 
ATOM     25  C   UNL A   1      37.407  23.173  24.260  1.00  0.00     0.003 A 
ATOM     26  C   UNL A   1      35.889  23.601  26.097  1.00  0.00     0.030 A 
ATOM     27  C   UNL A   1      36.325  22.954  23.412  1.00  0.00     0.002 A 
ATOM     28  C   UNL A   1      35.023  23.047  23.904  1.00  0.00     0.026 A 
ENDBRANCH  16  22
ENDBRANCH  14  15
ENDBRANCH   8  13
BRANCH  12  29
ATOM     29  O   UNL A   1      32.441  26.866  21.553  1.00  0.00    -0.507 OA
ATOM     30  H   UNL A   1      32.954  27.639  21.682  1.00  0.00     0.293 HD
ENDBRANCH  12  29
ENDBRANCH   4   7
ENDBRANCH   2   3
ENDBRANCH   1   2
BRANCH   1  31
ATOM     31  C   UNL A   1      33.117  30.118  27.201  1.00  0.00     0.023 C 
BRANCH  31  32
ATOM     32  C   UNL A   1      34.596  30.046  27.540  1.00  0.00     0.116 C 
BRANCH  32  33
ATOM     33  N   UNL A   1      35.074  30.985  28.542  1.00  0.00    -0.352 N 
ATOM     34  C   UNL A   1      36.203  30.905  29.343  1.00  0.00     0.251 C 
ATOM     35  H   UNL A   1      34.520  31.788  28.669  1.00  0.00     0.163 HD
ATOM     36  O   UNL A   1      36.380  31.736  30.239  1.00  0.00    -0.269 OA
BRANCH  34  37
ATOM     37  C   UNL A   1      37.260  29.890  29.074  1.00  0.00     0.039 A 
ATOM     38  C   UNL A   1      37.358  28.784  29.930  1.00  0.00     0.014 A 
ATOM     39  C   UNL A   1      38.247  30.090  28.115  1.00  0.00     0.014 A 
ATOM     40  C   UNL A   1      38.538  28.036  29.973  1.00  0.00     0.010 A 
ATOM     41  C   UNL A   1      39.456  29.441  28.236  1.00  0.00     0.010 A 
ATOM     42  C   UNL A   1      39.619  28.443  29.193  1.00  0.00    -0.014 A 
BRANCH  42  43
ATOM     43  C   UNL A   1      40.990  27.993  29.390  1.00  0.00     0.031 A 
ATOM     44  C   UNL A   1      41.517  26.803  28.702  1.00  0.00     0.074 A 
ATOM     45  C   UNL A   1      41.836  28.762  30.108  1.00  0.00     0.049 A 
ATOM     46  N   UNL A   1      42.469  26.068  29.172  1.00  0.00    -0.248 NA
ATOM     47  C   UNL A   1      41.011  26.339  27.415  1.00  0.00     0.031 C 
ATOM     48  C   UNL A   1      43.287  28.645  30.201  1.00  0.00     0.029 A 
ATOM     49  N   UNL A   1      41.498  29.676  31.100  1.00  0.00    -0.354 N 
ATOM     50  C   UNL A   1      42.912  25.275  28.142  1.00  0.00     0.074 A 
ATOM     51  C   UNL A   1      41.923  25.415  27.098  1.00  0.00     0.031 C 
ATOM     52  C   UNL A   1      43.694  29.221  31.342  1.00  0.00     0.029 A 
ATOM     53  C   UNL A   1      42.505  29.612  32.077  1.00  0.00     0.049 A 
ATOM     54  H   UNL A   1      40.704  30.259  31.114  1.00  0.00     0.167 HD
ATOM     55  C   UNL A   1      44.152  24.713  28.197  1.00  0.00     0.034 A 
ATOM     56  C   UNL A   1      42.202  29.247  33.356  1.00  0.00     0.034 A 
ATOM     57  C   UNL A   1      44.873  25.085  29.413  1.00  0.00     0.049 A 
ATOM     58  C   UNL A   1      42.903  27.981  33.799  1.00  0.00     0.074 A 
ATOM     59  C   UNL A   1      45.900  25.984  29.662  1.00  0.00     0.029 A 
ATOM     60  N   UNL A   1      44.375  24.713  30.656  1.00  0.00    -0.354 N 
ATOM     61  N   UNL A   1      43.517  27.160  32.992  1.00  0.00    -0.248 NA
ATOM     62  C   UNL A   1      42.963  27.536  35.185  1.00  0.00     0.031 C 
ATOM     63  C   UNL A   1      45.997  26.167  31.066  1.00  0.00     0.029 A 
ATOM     64  C   UNL A   1      45.046  25.366  31.672  1.00  0.00     0.049 A 
ATOM     65  H   UNL A   1      43.641  24.071  30.794  1.00  0.00     0.167 HD
ATOM     66  C   UNL A   1      44.042  26.105  33.698  1.00  0.00     0.074 A 
ATOM     67  C   UNL A   1      43.675  26.400  35.074  1.00  0.00     0.031 C 
ATOM     68  C   UNL A   1      44.725  25.095  33.070  1.00  0.00     0.034 A 
BRANCH  55  69
ATOM     69  C   UNL A   1      44.806  24.097  26.985  1.00  0.00     0.023 A 
ATOM     70  C   UNL A   1      44.471  22.787  26.592  1.00  0.00     0.031 A 
ATOM     71  C   UNL A   1      45.782  24.741  26.199  1.00  0.00     0.131 A 
ATOM     72  C   UNL A   1      45.159  22.136  25.553  1.00  0.00     0.055 A 
ATOM     73  C   UNL A   1      46.510  24.075  25.203  1.00  0.00     0.041 A 
ATOM     74  F   UNL A   1      46.049  26.046  26.353  1.00  0.00    -0.206 F 
ATOM     75  C   UNL A   1      46.210  22.758  24.885  1.00  0.00     0.022 A 
BRANCH  72  76
ATOM     76  S   UNL A   1      44.649  20.461  25.079  1.00  0.00     0.124 S 
ATOM     77  O   UNL A   1      44.528  20.571  23.629  1.00  0.00    -0.237 OA
ATOM     78  O   UNL A   1      45.756  19.650  25.574  1.00  0.00    -0.237 OA
ATOM     79  O   UNL A   1      43.385  20.277  25.791  1.00  0.00    -0.744 OA
ENDBRANCH  72  76
ENDBRANCH  55  69
BRANCH  56  80
ATOM     80  C   UNL A   1      40.849  29.722  33.776  1.00  0.00     0.023 A 
ATOM     81  C   UNL A   1      40.766  31.077  34.176  1.00  0.00     0.031 A 
ATOM     82  C   UNL A   1      39.667  29.086  33.380  1.00  0.00     0.131 A 
ATOM     83  C   UNL A   1      39.593  31.808  33.954  1.00  0.00     0.055 A 
ATOM     84  C   UNL A   1      38.463  29.799  33.269  1.00  0.00     0.041 A 
ATOM     85  F   UNL A   1      39.682  27.811  32.963  1.00  0.00    -0.206 F 
ATOM     86  C   UNL A   1      38.434  31.177  33.503  1.00  0.00     0.022 A 
BRANCH  83  87
ATOM     87  S   UNL A   1      39.718  33.627  33.937  1.00  0.00     0.124 S 
ATOM     88  O   UNL A   1      39.389  33.937  32.550  1.00  0.00    -0.237 OA
ATOM     89  O   UNL A   1      38.726  34.025  34.939  1.00  0.00    -0.237 OA
ATOM     90  O   UNL A   1      41.100  33.884  34.334  1.00  0.00    -0.744 OA
ENDBRANCH  83  87
ENDBRANCH  56  80
BRANCH  68  91
ATOM     91  C   UNL A   1      45.246  23.799  33.681  1.00  0.00     0.023 A 
ATOM     92  C   UNL A   1      46.537  23.632  34.200  1.00  0.00     0.031 A 
ATOM     93  C   UNL A   1      44.406  22.656  33.794  1.00  0.00     0.131 A 
ATOM     94  C   UNL A   1      46.963  22.400  34.738  1.00  0.00     0.055 A 
ATOM     95  C   UNL A   1      44.812  21.452  34.378  1.00  0.00     0.041 A 
ATOM     96  F   UNL A   1      43.141  22.652  33.351  1.00  0.00    -0.206 F 
ATOM     97  C   UNL A   1      46.104  21.313  34.847  1.00  0.00     0.022 A 
BRANCH  94  98
ATOM     98  S   UNL A   1      48.693  22.244  35.254  1.00  0.00     0.124 S 
ATOM     99  O   UNL A   1      48.721  20.896  35.815  1.00  0.00    -0.237 OA
ATOM    100  O   UNL A   1      49.411  22.420  33.996  1.00  0.00    -0.237 OA
ATOM    101  O   UNL A   1      48.864  23.324  36.224  1.00  0.00    -0.744 OA
ENDBRANCH  94  98
ENDBRANCH  68  91
ENDBRANCH  42  43
ENDBRANCH  34  37
ENDBRANCH  32  33
ENDBRANCH  31  32
ENDBRANCH   1  31
TORSDOF 18
ENDMDL
