MODEL 1
REMARK VINA RESULT:     -12.9      0.000      0.000
REMARK SMILES O=C1Nc2c(Cl)cccc2/C1=N/c1ccc(C(=O)NCCCCNC(=O)c2ccc(-c3c4nc(c(-c5cc(S(=O)(=O)[O-])ccc5F)c5ccc([nH]5)c(-c5cc(S(=O)(=O)[O-])ccc5F)c5nc(c(-c6cc(S(=O)(=O)[O-])ccc6F)c6ccc3[nH]6)C=C5)C=C4)cc2)cc1
REMARK SMILES IDX 22 1 21 2 20 3 19 4 17 5 18 6 16 8 13 9 14 10 91 11 15 12
REMARK SMILES IDX 90 13 12 14 1 15 2 16 3 17 11 18 4 19 10 21 5 22 9 23 6 24
REMARK SMILES IDX 7 25 8 26 23 27 24 28 25 29 26 31 27 32 28 33 89 34 29 35
REMARK SMILES IDX 88 36 30 37 31 38 32 39 82 40 33 41 87 42 81 43 83 44 34 45
REMARK SMILES IDX 86 46 80 47 79 48 35 50 67 51 47 52 66 53 48 54 51 55 65 56
REMARK SMILES IDX 84 57 49 58 50 59 64 61 85 62 52 63 36 64 37 65 45 66 38 67
REMARK SMILES IDX 44 68 46 69 43 70 39 71 40 72 41 73 42 74 68 75 69 76 77 77
REMARK SMILES IDX 70 78 76 79 78 80 75 81 71 82 72 83 73 84 74 85 53 86 54 87
REMARK SMILES IDX 62 88 55 89 61 90 63 91 60 92 56 93 57 94 58 95 59 96
REMARK H PARENT 19 7 3 20 24 30 83 49 51 60
REMARK Flexibility Score: inf
ROOT
ATOM      1  C   UNL A   1      31.824  31.598  26.754  1.00  0.00     0.023 C 
ENDROOT
BRANCH   1   2
ATOM      2  C   UNL A   1      32.094  30.099  26.596  1.00  0.00     0.023 C 
BRANCH   2   3
ATOM      3  C   UNL A   1      32.386  29.688  25.151  1.00  0.00     0.116 C 
BRANCH   3   4
ATOM      4  N   UNL A   1      31.188  29.757  24.345  1.00  0.00    -0.352 N 
ATOM      5  C   UNL A   1      30.406  28.819  23.727  1.00  0.00     0.251 C 
ATOM      6  O   UNL A   1      29.427  29.246  23.109  1.00  0.00    -0.269 OA
ATOM      7  H   UNL A   1      30.865  30.678  24.213  1.00  0.00     0.163 HD
BRANCH   5   8
ATOM      8  C   UNL A   1      30.633  27.340  23.774  1.00  0.00     0.039 A 
ATOM      9  C   UNL A   1      31.138  24.579  24.140  1.00  0.00     0.064 A 
ATOM     10  C   UNL A   1      30.672  25.349  25.199  1.00  0.00     0.029 A 
ATOM     11  C   UNL A   1      31.273  25.172  22.885  1.00  0.00     0.029 A 
ATOM     12  C   UNL A   1      30.433  26.716  25.021  1.00  0.00     0.016 A 
ATOM     13  C   UNL A   1      31.009  26.532  22.701  1.00  0.00     0.016 A 
BRANCH   9  14
ATOM     14  N   UNL A   1      31.371  23.212  24.296  1.00  0.00    -0.243 NA
ATOM     15  O   UNL A   1      34.064  24.775  24.708  1.00  0.00    -0.267 OA
ATOM     16  C   UNL A   1      33.904  23.574  24.680  1.00  0.00     0.275 C 
ATOM     17  N   UNL A   1      34.875  22.601  24.806  1.00  0.00    -0.319 N 
ATOM     18  C   UNL A   1      32.582  22.799  24.493  1.00  0.00     0.138 C 
ATOM     19  C   UNL A   1      34.323  21.323  24.722  1.00  0.00     0.070 A 
ATOM     20  H   UNL A   1      35.833  22.786  24.939  1.00  0.00     0.170 HD
ATOM     21  C   UNL A   1      32.946  21.387  24.541  1.00  0.00     0.031 A 
ATOM     22  C   UNL A   1      34.963  20.100  24.774  1.00  0.00     0.065 A 
ATOM     23  C   UNL A   1      32.155  20.266  24.384  1.00  0.00     0.013 A 
ATOM     24  Cl  UNL A   1      36.660  19.980  25.002  1.00  0.00    -0.082 Cl
ATOM     25  C   UNL A   1      34.188  18.942  24.625  1.00  0.00     0.023 A 
ATOM     26  C   UNL A   1      32.793  19.026  24.427  1.00  0.00     0.002 A 
ENDBRANCH   9  14
ENDBRANCH   5   8
ENDBRANCH   3   4
ENDBRANCH   2   3
ENDBRANCH   1   2
BRANCH   1  27
ATOM     27  C   UNL A   1      33.016  32.404  27.252  1.00  0.00     0.116 C 
BRANCH  27  28
ATOM     28  N   UNL A   1      32.668  33.770  27.626  1.00  0.00    -0.352 N 
ATOM     29  C   UNL A   1      33.253  34.534  28.606  1.00  0.00     0.251 C 
ATOM     30  H   UNL A   1      31.933  34.189  27.122  1.00  0.00     0.163 HD
ATOM     31  O   UNL A   1      32.817  35.639  28.905  1.00  0.00    -0.269 OA
BRANCH  29  32
ATOM     32  C   UNL A   1      34.412  33.955  29.303  1.00  0.00     0.039 A 
ATOM     33  C   UNL A   1      34.195  33.002  30.299  1.00  0.00     0.014 A 
ATOM     34  C   UNL A   1      35.700  34.254  28.848  1.00  0.00     0.014 A 
ATOM     35  C   UNL A   1      35.285  32.306  30.814  1.00  0.00     0.010 A 
ATOM     36  C   UNL A   1      36.773  33.511  29.315  1.00  0.00     0.010 A 
ATOM     37  C   UNL A   1      36.576  32.541  30.311  1.00  0.00    -0.014 A 
BRANCH  37  38
ATOM     38  C   UNL A   1      37.747  31.822  30.859  1.00  0.00     0.031 A 
ATOM     39  C   UNL A   1      38.233  32.165  32.236  1.00  0.00     0.074 A 
ATOM     40  C   UNL A   1      38.390  30.904  30.113  1.00  0.00     0.049 A 
ATOM     41  N   UNL A   1      39.243  31.668  32.896  1.00  0.00    -0.248 NA
ATOM     42  C   UNL A   1      37.500  33.218  32.961  1.00  0.00     0.031 C 
ATOM     43  C   UNL A   1      38.029  30.523  28.748  1.00  0.00     0.029 A 
ATOM     44  N   UNL A   1      39.487  30.129  30.398  1.00  0.00    -0.354 N 
ATOM     45  C   UNL A   1      39.268  32.345  34.108  1.00  0.00     0.074 A 
ATOM     46  C   UNL A   1      38.215  33.333  34.069  1.00  0.00     0.031 C 
ATOM     47  C   UNL A   1      38.880  29.576  28.319  1.00  0.00     0.029 A 
ATOM     48  C   UNL A   1      39.864  29.303  29.366  1.00  0.00     0.049 A 
ATOM     49  H   UNL A   1      39.960  30.162  31.261  1.00  0.00     0.167 HD
ATOM     50  C   UNL A   1      40.077  32.137  35.168  1.00  0.00     0.034 A 
ATOM     51  C   UNL A   1      40.887  28.428  29.272  1.00  0.00     0.034 A 
ATOM     52  C   UNL A   1      41.109  31.137  35.202  1.00  0.00     0.049 A 
ATOM     53  C   UNL A   1      41.785  28.220  30.465  1.00  0.00     0.074 A 
ATOM     54  C   UNL A   1      41.942  30.812  36.257  1.00  0.00     0.029 A 
ATOM     55  N   UNL A   1      41.450  30.306  34.147  1.00  0.00    -0.354 N 
ATOM     56  N   UNL A   1      41.735  28.800  31.642  1.00  0.00    -0.248 NA
ATOM     57  C   UNL A   1      42.869  27.236  30.330  1.00  0.00     0.031 C 
ATOM     58  C   UNL A   1      42.829  29.831  35.819  1.00  0.00     0.029 A 
ATOM     59  C   UNL A   1      42.501  29.487  34.516  1.00  0.00     0.049 A 
ATOM     60  H   UNL A   1      41.009  30.300  33.266  1.00  0.00     0.167 HD
ATOM     61  C   UNL A   1      42.755  28.227  32.396  1.00  0.00     0.074 A 
ATOM     62  C   UNL A   1      43.399  27.247  31.547  1.00  0.00     0.031 C 
ATOM     63  C   UNL A   1      43.119  28.491  33.675  1.00  0.00     0.034 A 
BRANCH  50  64
ATOM     64  C   UNL A   1      39.878  32.978  36.399  1.00  0.00     0.023 A 
ATOM     65  C   UNL A   1      39.047  32.514  37.434  1.00  0.00     0.031 A 
ATOM     66  C   UNL A   1      40.394  34.283  36.485  1.00  0.00     0.131 A 
ATOM     67  C   UNL A   1      38.717  33.369  38.491  1.00  0.00     0.055 A 
ATOM     68  C   UNL A   1      40.094  35.115  37.563  1.00  0.00     0.041 A 
ATOM     69  F   UNL A   1      41.198  34.764  35.523  1.00  0.00    -0.206 F 
ATOM     70  C   UNL A   1      39.240  34.664  38.565  1.00  0.00     0.022 A 
BRANCH  67  71
ATOM     71  S   UNL A   1      37.553  32.849  39.778  1.00  0.00     0.124 S 
ATOM     72  O   UNL A   1      36.311  32.702  39.022  1.00  0.00    -0.237 OA
ATOM     73  O   UNL A   1      38.152  31.602  40.243  1.00  0.00    -0.237 OA
ATOM     74  O   UNL A   1      37.568  33.953  40.731  1.00  0.00    -0.744 OA
ENDBRANCH  67  71
ENDBRANCH  50  64
BRANCH  51  75
ATOM     75  C   UNL A   1      41.057  27.644  28.017  1.00  0.00     0.023 A 
ATOM     76  C   UNL A   1      40.751  26.272  27.976  1.00  0.00     0.031 A 
ATOM     77  C   UNL A   1      41.623  28.231  26.872  1.00  0.00     0.131 A 
ATOM     78  C   UNL A   1      41.070  25.522  26.836  1.00  0.00     0.055 A 
ATOM     79  C   UNL A   1      41.881  27.492  25.716  1.00  0.00     0.041 A 
ATOM     80  F   UNL A   1      41.939  29.536  26.869  1.00  0.00    -0.206 F 
ATOM     81  C   UNL A   1      41.617  26.126  25.700  1.00  0.00     0.022 A 
BRANCH  78  82
ATOM     82  S   UNL A   1      40.874  23.719  26.829  1.00  0.00     0.124 S 
ATOM     83  O   UNL A   1      39.467  23.564  26.472  1.00  0.00    -0.237 OA
ATOM     84  O   UNL A   1      41.833  23.323  25.801  1.00  0.00    -0.237 OA
ATOM     85  O   UNL A   1      41.223  23.329  28.191  1.00  0.00    -0.744 OA
ENDBRANCH  78  82
ENDBRANCH  51  75
BRANCH  63  86
ATOM     86  C   UNL A   1      44.252  27.709  34.291  1.00  0.00     0.023 A 
ATOM     87  C   UNL A   1      43.973  26.514  34.984  1.00  0.00     0.031 A 
ATOM     88  C   UNL A   1      45.553  28.231  34.359  1.00  0.00     0.131 A 
ATOM     89  C   UNL A   1      44.969  25.912  35.762  1.00  0.00     0.055 A 
ATOM     90  C   UNL A   1      46.556  27.600  35.097  1.00  0.00     0.041 A 
ATOM     91  F   UNL A   1      45.862  29.373  33.723  1.00  0.00    -0.206 F 
ATOM     92  C   UNL A   1      46.261  26.444  35.816  1.00  0.00     0.022 A 
BRANCH  89  93
ATOM     93  S   UNL A   1      44.600  24.467  36.796  1.00  0.00     0.124 S 
ATOM     94  O   UNL A   1      45.934  24.051  37.223  1.00  0.00    -0.237 OA
ATOM     95  O   UNL A   1      43.763  25.046  37.841  1.00  0.00    -0.237 OA
ATOM     96  O   UNL A   1      43.927  23.546  35.886  1.00  0.00    -0.744 OA
ENDBRANCH  89  93
ENDBRANCH  63  86
ENDBRANCH  37  38
ENDBRANCH  29  32
ENDBRANCH  27  28
ENDBRANCH   1  27
TORSDOF 15
ENDMDL
MODEL 2
REMARK VINA RESULT:     -12.8      1.909      7.719
REMARK SMILES O=C1Nc2c(Cl)cccc2/C1=N/c1ccc(C(=O)NCCCCNC(=O)c2ccc(-c3c4nc(c(-c5cc(S(=O)(=O)[O-])ccc5F)c5ccc([nH]5)c(-c5cc(S(=O)(=O)[O-])ccc5F)c5nc(c(-c6cc(S(=O)(=O)[O-])ccc6F)c6ccc3[nH]6)C=C5)C=C4)cc2)cc1
REMARK SMILES IDX 22 1 21 2 20 3 19 4 17 5 18 6 16 8 13 9 14 10 91 11 15 12
REMARK SMILES IDX 90 13 12 14 1 15 2 16 3 17 11 18 4 19 10 21 5 22 9 23 6 24
REMARK SMILES IDX 7 25 8 26 23 27 24 28 25 29 26 31 27 32 28 33 89 34 29 35
REMARK SMILES IDX 88 36 30 37 31 38 32 39 82 40 33 41 87 42 81 43 83 44 34 45
REMARK SMILES IDX 86 46 80 47 79 48 35 50 67 51 47 52 66 53 48 54 51 55 65 56
REMARK SMILES IDX 84 57 49 58 50 59 64 61 85 62 52 63 36 64 37 65 45 66 38 67
REMARK SMILES IDX 44 68 46 69 43 70 39 71 40 72 41 73 42 74 68 75 69 76 77 77
REMARK SMILES IDX 70 78 76 79 78 80 75 81 71 82 72 83 73 84 74 85 53 86 54 87
REMARK SMILES IDX 62 88 55 89 61 90 63 91 60 92 56 93 57 94 58 95 59 96
REMARK H PARENT 19 7 3 20 24 30 83 49 51 60
REMARK Flexibility Score: inf
ROOT
ATOM      1  C   UNL A   1      31.713  31.905  27.048  1.00  0.00     0.023 C 
ENDROOT
BRANCH   1   2
ATOM      2  C   UNL A   1      31.987  30.401  26.961  1.00  0.00     0.023 C 
BRANCH   2   3
ATOM      3  C   UNL A   1      32.374  29.939  25.555  1.00  0.00     0.116 C 
BRANCH   3   4
ATOM      4  N   UNL A   1      31.246  30.037  24.655  1.00  0.00    -0.352 N 
ATOM      5  C   UNL A   1      30.512  29.120  23.952  1.00  0.00     0.251 C 
ATOM      6  O   UNL A   1      29.590  29.569  23.267  1.00  0.00    -0.269 OA
ATOM      7  H   UNL A   1      30.941  30.963  24.518  1.00  0.00     0.163 HD
BRANCH   5   8
ATOM      8  C   UNL A   1      30.725  27.638  23.983  1.00  0.00     0.039 A 
ATOM      9  C   UNL A   1      31.228  24.872  24.310  1.00  0.00     0.064 A 
ATOM     10  C   UNL A   1      30.862  25.647  25.403  1.00  0.00     0.029 A 
ATOM     11  C   UNL A   1      31.263  25.461  23.047  1.00  0.00     0.029 A 
ATOM     12  C   UNL A   1      30.624  27.018  25.243  1.00  0.00     0.016 A 
ATOM     13  C   UNL A   1      31.000  26.825  22.884  1.00  0.00     0.016 A 
BRANCH   9  14
ATOM     14  N   UNL A   1      31.457  23.502  24.449  1.00  0.00    -0.243 NA
ATOM     15  O   UNL A   1      34.164  25.049  24.824  1.00  0.00    -0.267 OA
ATOM     16  C   UNL A   1      33.999  23.849  24.788  1.00  0.00     0.275 C 
ATOM     17  N   UNL A   1      34.967  22.871  24.886  1.00  0.00    -0.319 N 
ATOM     18  C   UNL A   1      32.669  23.081  24.618  1.00  0.00     0.138 C 
ATOM     19  C   UNL A   1      34.408  21.596  24.800  1.00  0.00     0.070 A 
ATOM     20  H   UNL A   1      35.928  23.051  25.002  1.00  0.00     0.170 HD
ATOM     21  C   UNL A   1      33.028  21.668  24.646  1.00  0.00     0.031 A 
ATOM     22  C   UNL A   1      35.043  20.370  24.828  1.00  0.00     0.065 A 
ATOM     23  C   UNL A   1      32.229  20.552  24.493  1.00  0.00     0.013 A 
ATOM     24  Cl  UNL A   1      36.744  20.241  25.022  1.00  0.00    -0.082 Cl
ATOM     25  C   UNL A   1      34.260  19.217  24.683  1.00  0.00     0.023 A 
ATOM     26  C   UNL A   1      32.862  19.309  24.513  1.00  0.00     0.002 A 
ENDBRANCH   9  14
ENDBRANCH   5   8
ENDBRANCH   3   4
ENDBRANCH   2   3
ENDBRANCH   1   2
BRANCH   1  27
ATOM     27  C   UNL A   1      32.963  32.771  27.127  1.00  0.00     0.116 C 
BRANCH  27  28
ATOM     28  N   UNL A   1      32.716  34.080  27.720  1.00  0.00    -0.352 N 
ATOM     29  C   UNL A   1      33.372  34.641  28.789  1.00  0.00     0.251 C 
ATOM     30  H   UNL A   1      32.003  34.621  27.310  1.00  0.00     0.163 HD
ATOM     31  O   UNL A   1      33.019  35.710  29.270  1.00  0.00    -0.269 OA
BRANCH  29  32
ATOM     32  C   UNL A   1      34.501  33.885  29.352  1.00  0.00     0.039 A 
ATOM     33  C   UNL A   1      35.802  34.273  29.031  1.00  0.00     0.014 A 
ATOM     34  C   UNL A   1      34.250  32.902  30.315  1.00  0.00     0.014 A 
ATOM     35  C   UNL A   1      36.867  33.697  29.719  1.00  0.00     0.010 A 
ATOM     36  C   UNL A   1      35.309  32.382  31.044  1.00  0.00     0.010 A 
ATOM     37  C   UNL A   1      36.625  32.765  30.742  1.00  0.00    -0.014 A 
BRANCH  37  38
ATOM     38  C   UNL A   1      37.745  32.130  31.471  1.00  0.00     0.031 A 
ATOM     39  C   UNL A   1      38.493  31.004  30.821  1.00  0.00     0.074 A 
ATOM     40  C   UNL A   1      38.060  32.533  32.717  1.00  0.00     0.049 A 
ATOM     41  N   UNL A   1      39.492  30.306  31.288  1.00  0.00    -0.248 NA
ATOM     42  C   UNL A   1      38.049  30.596  29.476  1.00  0.00     0.031 C 
ATOM     43  C   UNL A   1      37.372  33.589  33.460  1.00  0.00     0.029 A 
ATOM     44  N   UNL A   1      39.034  32.095  33.580  1.00  0.00    -0.354 N 
ATOM     45  C   UNL A   1      39.793  29.378  30.300  1.00  0.00     0.074 A 
ATOM     46  C   UNL A   1      38.834  29.557  29.235  1.00  0.00     0.031 C 
ATOM     47  C   UNL A   1      37.956  33.727  34.662  1.00  0.00     0.029 A 
ATOM     48  C   UNL A   1      39.039  32.752  34.788  1.00  0.00     0.049 A 
ATOM     49  H   UNL A   1      39.669  31.377  33.355  1.00  0.00     0.167 HD
ATOM     50  C   UNL A   1      40.802  28.481  30.271  1.00  0.00     0.034 A 
ATOM     51  C   UNL A   1      39.824  32.586  35.873  1.00  0.00     0.034 A 
ATOM     52  C   UNL A   1      41.763  28.326  31.328  1.00  0.00     0.049 A 
ATOM     53  C   UNL A   1      40.937  31.570  35.823  1.00  0.00     0.074 A 
ATOM     54  C   UNL A   1      42.858  27.483  31.364  1.00  0.00     0.029 A 
ATOM     55  N   UNL A   1      41.750  29.021  32.527  1.00  0.00    -0.354 N 
ATOM     56  N   UNL A   1      41.272  30.766  34.841  1.00  0.00    -0.248 NA
ATOM     57  C   UNL A   1      41.787  31.443  37.016  1.00  0.00     0.031 C 
ATOM     58  C   UNL A   1      43.469  27.620  32.609  1.00  0.00     0.029 A 
ATOM     59  C   UNL A   1      42.802  28.605  33.322  1.00  0.00     0.049 A 
ATOM     60  H   UNL A   1      41.090  29.709  32.776  1.00  0.00     0.167 HD
ATOM     61  C   UNL A   1      42.390  30.064  35.283  1.00  0.00     0.074 A 
ATOM     62  C   UNL A   1      42.681  30.545  36.617  1.00  0.00     0.031 C 
ATOM     63  C   UNL A   1      43.106  29.111  34.639  1.00  0.00     0.034 A 
BRANCH  50  64
ATOM     64  C   UNL A   1      40.952  27.607  29.057  1.00  0.00     0.023 A 
ATOM     65  C   UNL A   1      41.925  27.916  28.091  1.00  0.00     0.031 A 
ATOM     66  C   UNL A   1      40.049  26.562  28.792  1.00  0.00     0.131 A 
ATOM     67  C   UNL A   1      41.943  27.216  26.880  1.00  0.00     0.055 A 
ATOM     68  C   UNL A   1      40.100  25.840  27.600  1.00  0.00     0.041 A 
ATOM     69  F   UNL A   1      39.109  26.228  29.691  1.00  0.00    -0.206 F 
ATOM     70  C   UNL A   1      41.040  26.176  26.631  1.00  0.00     0.022 A 
BRANCH  67  71
ATOM     71  S   UNL A   1      43.103  27.666  25.563  1.00  0.00     0.124 S 
ATOM     72  O   UNL A   1      42.224  28.326  24.599  1.00  0.00    -0.237 OA
ATOM     73  O   UNL A   1      44.033  28.545  26.265  1.00  0.00    -0.237 OA
ATOM     74  O   UNL A   1      43.649  26.386  25.124  1.00  0.00    -0.744 OA
ENDBRANCH  67  71
ENDBRANCH  50  64
BRANCH  51  75
ATOM     75  C   UNL A   1      39.611  33.458  37.061  1.00  0.00     0.023 A 
ATOM     76  C   UNL A   1      40.394  34.609  37.261  1.00  0.00     0.031 A 
ATOM     77  C   UNL A   1      38.694  33.098  38.063  1.00  0.00     0.131 A 
ATOM     78  C   UNL A   1      40.287  35.323  38.462  1.00  0.00     0.055 A 
ATOM     79  C   UNL A   1      38.547  33.849  39.231  1.00  0.00     0.041 A 
ATOM     80  F   UNL A   1      37.932  32.003  37.920  1.00  0.00    -0.206 F 
ATOM     81  C   UNL A   1      39.358  34.961  39.441  1.00  0.00     0.022 A 
BRANCH  78  82
ATOM     82  S   UNL A   1      41.422  36.689  38.832  1.00  0.00     0.124 S 
ATOM     83  O   UNL A   1      40.503  37.760  39.204  1.00  0.00    -0.237 OA
ATOM     84  O   UNL A   1      42.212  36.126  39.923  1.00  0.00    -0.237 OA
ATOM     85  O   UNL A   1      42.142  36.887  37.578  1.00  0.00    -0.744 OA
ENDBRANCH  78  82
ENDBRANCH  51  75
BRANCH  63  86
ATOM     86  C   UNL A   1      44.309  28.510  35.322  1.00  0.00     0.023 A 
ATOM     87  C   UNL A   1      44.125  27.503  36.290  1.00  0.00     0.031 A 
ATOM     88  C   UNL A   1      45.593  29.056  35.162  1.00  0.00     0.131 A 
ATOM     89  C   UNL A   1      45.198  27.113  37.101  1.00  0.00     0.055 A 
ATOM     90  C   UNL A   1      46.670  28.628  35.941  1.00  0.00     0.041 A 
ATOM     91  F   UNL A   1      45.813  30.026  34.260  1.00  0.00    -0.206 F 
ATOM     92  C   UNL A   1      46.470  27.664  36.926  1.00  0.00     0.022 A 
BRANCH  89  93
ATOM     93  S   UNL A   1      44.958  25.939  38.464  1.00  0.00     0.124 S 
ATOM     94  O   UNL A   1      43.865  26.558  39.208  1.00  0.00    -0.237 OA
ATOM     95  O   UNL A   1      44.613  24.712  37.752  1.00  0.00    -0.237 OA
ATOM     96  O   UNL A   1      46.246  25.929  39.150  1.00  0.00    -0.744 OA
ENDBRANCH  89  93
ENDBRANCH  63  86
ENDBRANCH  37  38
ENDBRANCH  29  32
ENDBRANCH  27  28
ENDBRANCH   1  27
TORSDOF 15
ENDMDL
MODEL 3
REMARK VINA RESULT:     -12.7      5.672     11.176
REMARK SMILES O=C1Nc2c(Cl)cccc2/C1=N/c1ccc(C(=O)NCCCCNC(=O)c2ccc(-c3c4nc(c(-c5cc(S(=O)(=O)[O-])ccc5F)c5ccc([nH]5)c(-c5cc(S(=O)(=O)[O-])ccc5F)c5nc(c(-c6cc(S(=O)(=O)[O-])ccc6F)c6ccc3[nH]6)C=C5)C=C4)cc2)cc1
REMARK SMILES IDX 22 1 21 2 20 3 19 4 17 5 18 6 16 8 13 9 14 10 91 11 15 12
REMARK SMILES IDX 90 13 12 14 1 15 2 16 3 17 11 18 4 19 10 21 5 22 9 23 6 24
REMARK SMILES IDX 7 25 8 26 23 27 24 28 25 29 26 31 27 32 28 33 89 34 29 35
REMARK SMILES IDX 88 36 30 37 31 38 32 39 82 40 33 41 87 42 81 43 83 44 34 45
REMARK SMILES IDX 86 46 80 47 79 48 35 50 67 51 47 52 66 53 48 54 51 55 65 56
REMARK SMILES IDX 84 57 49 58 50 59 64 61 85 62 52 63 36 64 37 65 45 66 38 67
REMARK SMILES IDX 44 68 46 69 43 70 39 71 40 72 41 73 42 74 68 75 69 76 77 77
REMARK SMILES IDX 70 78 76 79 78 80 75 81 71 82 72 83 73 84 74 85 53 86 54 87
REMARK SMILES IDX 62 88 55 89 61 90 63 91 60 92 56 93 57 94 58 95 59 96
REMARK H PARENT 19 7 3 20 24 30 83 49 51 60
REMARK Flexibility Score: inf
ROOT
ATOM      1  C   UNL A   1      37.977  20.088  25.024  1.00  0.00     0.023 C 
ENDROOT
BRANCH   1   2
ATOM      2  C   UNL A   1      36.979  21.234  24.839  1.00  0.00     0.023 C 
BRANCH   2   3
ATOM      3  C   UNL A   1      35.745  21.110  25.735  1.00  0.00     0.116 C 
BRANCH   3   4
ATOM      4  N   UNL A   1      34.829  20.122  25.211  1.00  0.00    -0.352 N 
ATOM      5  C   UNL A   1      33.608  20.193  24.595  1.00  0.00     0.251 C 
ATOM      6  O   UNL A   1      33.099  19.119  24.268  1.00  0.00    -0.269 OA
ATOM      7  H   UNL A   1      35.152  19.198  25.323  1.00  0.00     0.163 HD
BRANCH   5   8
ATOM      8  C   UNL A   1      32.880  21.460  24.268  1.00  0.00     0.039 A 
ATOM      9  C   UNL A   1      31.757  23.960  23.561  1.00  0.00     0.064 A 
ATOM     10  C   UNL A   1      32.836  23.454  22.846  1.00  0.00     0.029 A 
ATOM     11  C   UNL A   1      31.193  23.182  24.572  1.00  0.00     0.029 A 
ATOM     12  C   UNL A   1      33.398  22.223  23.204  1.00  0.00     0.016 A 
ATOM     13  C   UNL A   1      31.740  21.941  24.911  1.00  0.00     0.016 A 
BRANCH   9  14
ATOM     14  N   UNL A   1      31.176  25.180  23.211  1.00  0.00    -0.243 NA
ATOM     15  O   UNL A   1      33.237  25.642  25.536  1.00  0.00    -0.267 OA
ATOM     16  C   UNL A   1      32.485  26.455  25.044  1.00  0.00     0.275 C 
ATOM     17  N   UNL A   1      32.341  27.780  25.401  1.00  0.00    -0.319 N 
ATOM     18  C   UNL A   1      31.480  26.239  23.891  1.00  0.00     0.138 C 
ATOM     19  C   UNL A   1      31.376  28.412  24.617  1.00  0.00     0.070 A 
ATOM     20  H   UNL A   1      32.854  28.221  26.117  1.00  0.00     0.170 HD
ATOM     21  C   UNL A   1      30.834  27.531  23.689  1.00  0.00     0.031 A 
ATOM     22  C   UNL A   1      30.929  29.718  24.683  1.00  0.00     0.065 A 
ATOM     23  C   UNL A   1      29.826  27.886  22.813  1.00  0.00     0.013 A 
ATOM     24  Cl  UNL A   1      31.578  30.837  25.811  1.00  0.00    -0.082 Cl
ATOM     25  C   UNL A   1      29.912  30.112  23.803  1.00  0.00     0.023 A 
ATOM     26  C   UNL A   1      29.362  29.200  22.878  1.00  0.00     0.002 A 
ENDBRANCH   9  14
ENDBRANCH   5   8
ENDBRANCH   3   4
ENDBRANCH   2   3
ENDBRANCH   1   2
BRANCH   1  27
ATOM     27  C   UNL A   1      39.245  20.471  25.776  1.00  0.00     0.116 C 
BRANCH  27  28
ATOM     28  N   UNL A   1      40.209  19.379  25.866  1.00  0.00    -0.352 N 
ATOM     29  C   UNL A   1      41.549  19.481  26.148  1.00  0.00     0.251 C 
ATOM     30  H   UNL A   1      39.861  18.472  25.707  1.00  0.00     0.163 HD
ATOM     31  O   UNL A   1      42.291  18.507  26.103  1.00  0.00    -0.269 OA
BRANCH  29  32
ATOM     32  C   UNL A   1      42.064  20.819  26.479  1.00  0.00     0.039 A 
ATOM     33  C   UNL A   1      42.286  21.732  25.448  1.00  0.00     0.014 A 
ATOM     34  C   UNL A   1      42.169  21.195  27.822  1.00  0.00     0.014 A 
ATOM     35  C   UNL A   1      42.574  23.056  25.770  1.00  0.00     0.010 A 
ATOM     36  C   UNL A   1      42.388  22.527  28.137  1.00  0.00     0.010 A 
ATOM     37  C   UNL A   1      42.606  23.465  27.114  1.00  0.00    -0.014 A 
BRANCH  37  38
ATOM     38  C   UNL A   1      42.928  24.863  27.475  1.00  0.00     0.031 A 
ATOM     39  C   UNL A   1      44.328  25.362  27.279  1.00  0.00     0.074 A 
ATOM     40  C   UNL A   1      41.983  25.661  28.009  1.00  0.00     0.049 A 
ATOM     41  N   UNL A   1      44.822  26.542  27.541  1.00  0.00    -0.248 NA
ATOM     42  C   UNL A   1      45.309  24.406  26.736  1.00  0.00     0.031 C 
ATOM     43  C   UNL A   1      40.601  25.266  28.281  1.00  0.00     0.029 A 
ATOM     44  N   UNL A   1      42.046  26.968  28.425  1.00  0.00    -0.354 N 
ATOM     45  C   UNL A   1      46.165  26.469  27.197  1.00  0.00     0.074 A 
ATOM     46  C   UNL A   1      46.426  25.115  26.769  1.00  0.00     0.031 C 
ATOM     47  C   UNL A   1      39.943  26.313  28.805  1.00  0.00     0.029 A 
ATOM     48  C   UNL A   1      40.861  27.444  28.934  1.00  0.00     0.049 A 
ATOM     49  H   UNL A   1      42.865  27.512  28.365  1.00  0.00     0.167 HD
ATOM     50  C   UNL A   1      47.088  27.455  27.207  1.00  0.00     0.034 A 
ATOM     51  C   UNL A   1      40.551  28.653  29.447  1.00  0.00     0.034 A 
ATOM     52  C   UNL A   1      46.810  28.805  27.615  1.00  0.00     0.049 A 
ATOM     53  C   UNL A   1      41.600  29.735  29.459  1.00  0.00     0.074 A 
ATOM     54  C   UNL A   1      47.668  29.889  27.604  1.00  0.00     0.029 A 
ATOM     55  N   UNL A   1      45.595  29.256  28.106  1.00  0.00    -0.354 N 
ATOM     56  N   UNL A   1      42.842  29.680  29.038  1.00  0.00    -0.248 NA
ATOM     57  C   UNL A   1      41.211  31.046  29.999  1.00  0.00     0.031 C 
ATOM     58  C   UNL A   1      46.993  30.980  28.147  1.00  0.00     0.029 A 
ATOM     59  C   UNL A   1      45.689  30.598  28.427  1.00  0.00     0.049 A 
ATOM     60  H   UNL A   1      44.786  28.704  28.210  1.00  0.00     0.167 HD
ATOM     61  C   UNL A   1      43.371  30.953  29.231  1.00  0.00     0.074 A 
ATOM     62  C   UNL A   1      42.311  31.761  29.796  1.00  0.00     0.031 C 
ATOM     63  C   UNL A   1      44.620  31.406  28.961  1.00  0.00     0.034 A 
BRANCH  50  64
ATOM     64  C   UNL A   1      48.482  27.138  26.741  1.00  0.00     0.023 A 
ATOM     65  C   UNL A   1      48.874  27.477  25.434  1.00  0.00     0.031 A 
ATOM     66  C   UNL A   1      49.366  26.387  27.535  1.00  0.00     0.131 A 
ATOM     67  C   UNL A   1      50.102  27.021  24.941  1.00  0.00     0.055 A 
ATOM     68  C   UNL A   1      50.607  25.973  27.052  1.00  0.00     0.041 A 
ATOM     69  F   UNL A   1      49.036  26.049  28.792  1.00  0.00    -0.206 F 
ATOM     70  C   UNL A   1      50.972  26.276  25.744  1.00  0.00     0.022 A 
BRANCH  67  71
ATOM     71  S   UNL A   1      50.587  27.332  23.224  1.00  0.00     0.124 S 
ATOM     72  O   UNL A   1      50.604  28.793  23.174  1.00  0.00    -0.237 OA
ATOM     73  O   UNL A   1      51.897  26.690  23.158  1.00  0.00    -0.237 OA
ATOM     74  O   UNL A   1      49.531  26.700  22.441  1.00  0.00    -0.744 OA
ENDBRANCH  67  71
ENDBRANCH  50  64
BRANCH  51  75
ATOM     75  C   UNL A   1      39.162  28.902  29.924  1.00  0.00     0.023 A 
ATOM     76  C   UNL A   1      38.226  29.560  29.107  1.00  0.00     0.031 A 
ATOM     77  C   UNL A   1      38.783  28.578  31.238  1.00  0.00     0.131 A 
ATOM     78  C   UNL A   1      36.980  29.927  29.633  1.00  0.00     0.055 A 
ATOM     79  C   UNL A   1      37.517  28.890  31.738  1.00  0.00     0.041 A 
ATOM     80  F   UNL A   1      39.647  27.957  32.056  1.00  0.00    -0.206 F 
ATOM     81  C   UNL A   1      36.613  29.582  30.937  1.00  0.00     0.022 A 
BRANCH  78  82
ATOM     82  S   UNL A   1      35.833  30.951  28.671  1.00  0.00     0.124 S 
ATOM     83  O   UNL A   1      35.066  31.620  29.717  1.00  0.00    -0.237 OA
ATOM     84  O   UNL A   1      36.755  31.801  27.922  1.00  0.00    -0.237 OA
ATOM     85  O   UNL A   1      35.092  29.980  27.873  1.00  0.00    -0.744 OA
ENDBRANCH  78  82
ENDBRANCH  51  75
BRANCH  63  86
ATOM     86  C   UNL A   1      44.950  32.852  29.233  1.00  0.00     0.023 A 
ATOM     87  C   UNL A   1      44.845  33.795  28.192  1.00  0.00     0.031 A 
ATOM     88  C   UNL A   1      45.540  33.256  30.443  1.00  0.00     0.131 A 
ATOM     89  C   UNL A   1      45.376  35.080  28.360  1.00  0.00     0.055 A 
ATOM     90  C   UNL A   1      46.023  34.553  30.621  1.00  0.00     0.041 A 
ATOM     91  F   UNL A   1      45.671  32.388  31.459  1.00  0.00    -0.206 F 
ATOM     92  C   UNL A   1      45.957  35.466  29.571  1.00  0.00     0.022 A 
BRANCH  89  93
ATOM     93  S   UNL A   1      45.404  36.265  26.987  1.00  0.00     0.124 S 
ATOM     94  O   UNL A   1      43.999  36.651  26.890  1.00  0.00    -0.237 OA
ATOM     95  O   UNL A   1      46.302  37.298  27.494  1.00  0.00    -0.237 OA
ATOM     96  O   UNL A   1      45.911  35.487  25.861  1.00  0.00    -0.744 OA
ENDBRANCH  89  93
ENDBRANCH  63  86
ENDBRANCH  37  38
ENDBRANCH  29  32
ENDBRANCH  27  28
ENDBRANCH   1  27
TORSDOF 15
ENDMDL
