MODEL 1
REMARK VINA RESULT:     -13.1      0.000      0.000
REMARK SMILES CC1=C([C@H](NC(=O)c2cccc3ccccc23)C(=O)NCCCCNC(=O)c2ccc(-c3c4nc(c(-c5cc(S(=O)(=O)[O-])ccc5F)c5ccc([nH]5)c(-c5cc(S(=O)(=O)[O-])ccc5F)c5nc(c(-c6cc(S(=O)(=O)[O-])ccc6F)c6ccc3[nH]6)C=C5)C=C4)cc2)[C@H](C)N=N1
REMARK SMILES IDX 23 1 22 2 21 3 20 4 18 5 19 6 4 8 3 9 1 10 2 11 94 12 91 13
REMARK SMILES IDX 93 14 92 15 5 16 6 17 7 19 8 20 9 21 17 22 10 23 12 24 16 25
REMARK SMILES IDX 11 26 13 27 15 28 14 29 24 30 25 31 26 32 27 34 28 35 29 36
REMARK SMILES IDX 90 37 30 38 89 39 31 40 32 41 33 42 83 43 34 44 88 45 82 46
REMARK SMILES IDX 84 47 35 48 87 49 81 50 80 51 36 53 68 54 48 55 67 56 49 57
REMARK SMILES IDX 52 58 66 59 85 60 50 61 51 62 65 64 86 65 53 66 37 67 38 68
REMARK SMILES IDX 46 69 39 70 45 71 47 72 44 73 40 74 41 75 42 76 43 77 69 78
REMARK SMILES IDX 70 79 78 80 71 81 77 82 79 83 76 84 72 85 73 86 74 87 75 88
REMARK SMILES IDX 54 89 55 90 63 91 56 92 62 93 64 94 61 95 57 96 58 97 59 98
REMARK SMILES IDX 60 99
REMARK H PARENT 20 7 5 18 25 33 84 52 52 63
REMARK Flexibility Score: inf
ROOT
ATOM      1  C   UNL A   1      37.745  20.232  24.570  1.00  0.00     0.023 C 
ENDROOT
BRANCH   1   2
ATOM      2  C   UNL A   1      36.324  19.832  24.991  1.00  0.00     0.023 C 
BRANCH   2   3
ATOM      3  C   UNL A   1      35.260  20.920  25.186  1.00  0.00     0.116 C 
BRANCH   3   4
ATOM      4  N   UNL A   1      34.100  20.867  24.313  1.00  0.00    -0.354 N 
ATOM      5  C   UNL A   1      33.340  21.886  23.786  1.00  0.00     0.247 C 
ATOM      6  O   UNL A   1      32.520  21.599  22.909  1.00  0.00    -0.272 OA
ATOM      7  H   UNL A   1      33.812  19.960  24.058  1.00  0.00     0.163 HD
BRANCH   5   8
ATOM      8  C   UNL A   1      33.572  23.353  24.189  1.00  0.00     0.202 C 
BRANCH   8   9
ATOM      9  C   UNL A   1      32.334  23.744  25.001  1.00  0.00     0.011 C 
ATOM     10  C   UNL A   1      30.405  24.209  23.346  1.00  0.00     0.069 C 
ATOM     11  C   UNL A   1      31.081  24.096  24.667  1.00  0.00     0.064 C 
ATOM     12  N   UNL A   1      30.347  24.559  25.732  1.00  0.00    -0.160 NA
ATOM     13  C   UNL A   1      32.396  24.049  26.501  1.00  0.00     0.156 C 
ATOM     14  N   UNL A   1      31.054  24.631  26.764  1.00  0.00    -0.181 NA
ATOM     15  C   UNL A   1      32.524  22.891  27.498  1.00  0.00     0.040 C 
ENDBRANCH   8   9
BRANCH   8  16
ATOM     16  N   UNL A   1      33.886  24.258  23.053  1.00  0.00    -0.337 N 
ATOM     17  C   UNL A   1      33.571  25.597  22.765  1.00  0.00     0.252 C 
ATOM     18  H   UNL A   1      34.432  23.829  22.354  1.00  0.00     0.165 HD
ATOM     19  O   UNL A   1      33.692  25.920  21.581  1.00  0.00    -0.269 OA
BRANCH  17  20
ATOM     20  C   UNL A   1      33.191  26.664  23.790  1.00  0.00     0.047 A 
ATOM     21  C   UNL A   1      34.097  26.938  24.805  1.00  0.00     0.014 A 
ATOM     22  C   UNL A   1      32.107  27.590  23.692  1.00  0.00    -0.006 A 
ATOM     23  C   UNL A   1      33.887  27.800  25.871  1.00  0.00     0.001 A 
ATOM     24  C   UNL A   1      31.914  28.536  24.761  1.00  0.00    -0.018 A 
ATOM     25  C   UNL A   1      31.235  27.733  22.587  1.00  0.00     0.009 A 
ATOM     26  C   UNL A   1      32.753  28.567  25.871  1.00  0.00     0.009 A 
ATOM     27  C   UNL A   1      30.927  29.522  24.701  1.00  0.00     0.009 A 
ATOM     28  C   UNL A   1      30.289  28.766  22.519  1.00  0.00     0.001 A 
ATOM     29  C   UNL A   1      30.134  29.657  23.573  1.00  0.00     0.001 A 
ENDBRANCH  17  20
ENDBRANCH   8  16
ENDBRANCH   5   8
ENDBRANCH   3   4
ENDBRANCH   2   3
ENDBRANCH   1   2
BRANCH   1  30
ATOM     30  C   UNL A   1      38.725  20.476  25.699  1.00  0.00     0.116 C 
BRANCH  30  31
ATOM     31  N   UNL A   1      39.707  19.407  25.835  1.00  0.00    -0.352 N 
ATOM     32  C   UNL A   1      41.076  19.534  26.013  1.00  0.00     0.251 C 
ATOM     33  H   UNL A   1      39.357  18.487  25.796  1.00  0.00     0.163 HD
ATOM     34  O   UNL A   1      41.830  18.630  25.709  1.00  0.00    -0.269 OA
BRANCH  32  35
ATOM     35  C   UNL A   1      41.584  20.795  26.589  1.00  0.00     0.039 A 
ATOM     36  C   UNL A   1      42.232  21.755  25.809  1.00  0.00     0.014 A 
ATOM     37  C   UNL A   1      41.349  21.017  27.941  1.00  0.00     0.014 A 
ATOM     38  C   UNL A   1      42.566  22.976  26.395  1.00  0.00     0.010 A 
ATOM     39  C   UNL A   1      41.516  22.268  28.466  1.00  0.00     0.010 A 
ATOM     40  C   UNL A   1      42.186  23.230  27.722  1.00  0.00    -0.014 A 
BRANCH  40  41
ATOM     41  C   UNL A   1      42.366  24.540  28.336  1.00  0.00     0.031 A 
ATOM     42  C   UNL A   1      41.258  25.496  28.081  1.00  0.00     0.074 A 
ATOM     43  C   UNL A   1      43.313  24.772  29.273  1.00  0.00     0.049 A 
ATOM     44  N   UNL A   1      41.301  26.569  27.366  1.00  0.00    -0.248 NA
ATOM     45  C   UNL A   1      39.899  25.141  28.525  1.00  0.00     0.031 C 
ATOM     46  C   UNL A   1      44.278  23.820  29.839  1.00  0.00     0.029 A 
ATOM     47  N   UNL A   1      43.523  25.881  30.029  1.00  0.00    -0.354 N 
ATOM     48  C   UNL A   1      40.051  27.166  27.495  1.00  0.00     0.074 A 
ATOM     49  C   UNL A   1      39.182  26.138  28.000  1.00  0.00     0.031 C 
ATOM     50  C   UNL A   1      44.769  24.308  30.999  1.00  0.00     0.029 A 
ATOM     51  C   UNL A   1      44.285  25.665  31.177  1.00  0.00     0.049 A 
ATOM     52  H   UNL A   1      43.165  26.765  29.787  1.00  0.00     0.167 HD
ATOM     53  C   UNL A   1      39.912  28.521  27.425  1.00  0.00     0.034 A 
ATOM     54  C   UNL A   1      44.472  26.525  32.216  1.00  0.00     0.034 A 
ATOM     55  C   UNL A   1      41.116  29.131  26.897  1.00  0.00     0.049 A 
ATOM     56  C   UNL A   1      44.200  27.885  31.681  1.00  0.00     0.074 A 
ATOM     57  C   UNL A   1      41.849  28.969  25.736  1.00  0.00     0.029 A 
ATOM     58  N   UNL A   1      41.969  29.755  27.784  1.00  0.00    -0.354 N 
ATOM     59  N   UNL A   1      44.925  28.438  30.745  1.00  0.00    -0.248 NA
ATOM     60  C   UNL A   1      42.844  28.406  31.794  1.00  0.00     0.031 C 
ATOM     61  C   UNL A   1      43.211  28.999  26.162  1.00  0.00     0.029 A 
ATOM     62  C   UNL A   1      43.236  29.291  27.528  1.00  0.00     0.049 A 
ATOM     63  H   UNL A   1      41.716  30.412  28.473  1.00  0.00     0.167 HD
ATOM     64  C   UNL A   1      44.010  29.019  29.877  1.00  0.00     0.074 A 
ATOM     65  C   UNL A   1      42.755  29.057  30.628  1.00  0.00     0.031 C 
ATOM     66  C   UNL A   1      44.268  29.135  28.539  1.00  0.00     0.034 A 
BRANCH  53  67
ATOM     67  C   UNL A   1      38.873  29.336  28.168  1.00  0.00     0.023 A 
ATOM     68  C   UNL A   1      39.044  29.464  29.561  1.00  0.00     0.031 A 
ATOM     69  C   UNL A   1      37.613  29.736  27.671  1.00  0.00     0.131 A 
ATOM     70  C   UNL A   1      37.975  29.836  30.393  1.00  0.00     0.055 A 
ATOM     71  C   UNL A   1      36.574  30.178  28.496  1.00  0.00     0.041 A 
ATOM     72  F   UNL A   1      37.276  29.641  26.381  1.00  0.00    -0.206 F 
ATOM     73  C   UNL A   1      36.738  30.193  29.869  1.00  0.00     0.022 A 
BRANCH  70  74
ATOM     74  S   UNL A   1      38.182  29.651  32.181  1.00  0.00     0.124 S 
ATOM     75  O   UNL A   1      37.123  28.699  32.500  1.00  0.00    -0.237 OA
ATOM     76  O   UNL A   1      39.549  29.150  32.274  1.00  0.00    -0.237 OA
ATOM     77  O   UNL A   1      37.977  31.006  32.688  1.00  0.00    -0.744 OA
ENDBRANCH  70  74
ENDBRANCH  53  67
BRANCH  54  78
ATOM     78  C   UNL A   1      44.555  26.189  33.671  1.00  0.00     0.023 A 
ATOM     79  C   UNL A   1      43.481  26.378  34.569  1.00  0.00     0.031 A 
ATOM     80  C   UNL A   1      45.653  25.441  34.160  1.00  0.00     0.131 A 
ATOM     81  C   UNL A   1      43.534  25.833  35.878  1.00  0.00     0.055 A 
ATOM     82  C   UNL A   1      45.701  24.909  35.452  1.00  0.00     0.041 A 
ATOM     83  F   UNL A   1      46.689  25.122  33.369  1.00  0.00    -0.206 F 
ATOM     84  C   UNL A   1      44.636  25.094  36.314  1.00  0.00     0.022 A 
BRANCH  81  85
ATOM     85  S   UNL A   1      42.115  25.987  37.016  1.00  0.00     0.124 S 
ATOM     86  O   UNL A   1      42.769  26.254  38.292  1.00  0.00    -0.237 OA
ATOM     87  O   UNL A   1      41.358  27.087  36.431  1.00  0.00    -0.237 OA
ATOM     88  O   UNL A   1      41.460  24.681  36.924  1.00  0.00    -0.744 OA
ENDBRANCH  81  85
ENDBRANCH  54  78
BRANCH  66  89
ATOM     89  C   UNL A   1      45.679  28.876  28.035  1.00  0.00     0.023 A 
ATOM     90  C   UNL A   1      46.196  27.610  27.675  1.00  0.00     0.031 A 
ATOM     91  C   UNL A   1      46.484  30.001  27.779  1.00  0.00     0.131 A 
ATOM     92  C   UNL A   1      47.477  27.510  27.089  1.00  0.00     0.055 A 
ATOM     93  C   UNL A   1      47.737  29.901  27.176  1.00  0.00     0.041 A 
ATOM     94  F   UNL A   1      46.043  31.236  28.072  1.00  0.00    -0.206 F 
ATOM     95  C   UNL A   1      48.241  28.652  26.834  1.00  0.00     0.022 A 
BRANCH  92  96
ATOM     96  S   UNL A   1      48.184  25.885  26.660  1.00  0.00     0.124 S 
ATOM     97  O   UNL A   1      47.052  25.156  26.101  1.00  0.00    -0.237 OA
ATOM     98  O   UNL A   1      49.245  26.238  25.721  1.00  0.00    -0.237 OA
ATOM     99  O   UNL A   1      48.660  25.372  27.947  1.00  0.00    -0.744 OA
ENDBRANCH  92  96
ENDBRANCH  66  89
ENDBRANCH  40  41
ENDBRANCH  32  35
ENDBRANCH  30  31
ENDBRANCH   1  30
TORSDOF 17
ENDMDL
MODEL 2
REMARK VINA RESULT:     -13.0      3.142      8.404
REMARK SMILES CC1=C([C@H](NC(=O)c2cccc3ccccc23)C(=O)NCCCCNC(=O)c2ccc(-c3c4nc(c(-c5cc(S(=O)(=O)[O-])ccc5F)c5ccc([nH]5)c(-c5cc(S(=O)(=O)[O-])ccc5F)c5nc(c(-c6cc(S(=O)(=O)[O-])ccc6F)c6ccc3[nH]6)C=C5)C=C4)cc2)[C@H](C)N=N1
REMARK SMILES IDX 23 1 22 2 21 3 20 4 18 5 19 6 4 8 3 9 1 10 2 11 94 12 91 13
REMARK SMILES IDX 93 14 92 15 5 16 6 17 7 19 8 20 9 21 17 22 10 23 12 24 16 25
REMARK SMILES IDX 11 26 13 27 15 28 14 29 24 30 25 31 26 32 27 34 28 35 29 36
REMARK SMILES IDX 90 37 30 38 89 39 31 40 32 41 33 42 83 43 34 44 88 45 82 46
REMARK SMILES IDX 84 47 35 48 87 49 81 50 80 51 36 53 68 54 48 55 67 56 49 57
REMARK SMILES IDX 52 58 66 59 85 60 50 61 51 62 65 64 86 65 53 66 37 67 38 68
REMARK SMILES IDX 46 69 39 70 45 71 47 72 44 73 40 74 41 75 42 76 43 77 69 78
REMARK SMILES IDX 70 79 78 80 71 81 77 82 79 83 76 84 72 85 73 86 74 87 75 88
REMARK SMILES IDX 54 89 55 90 63 91 56 92 62 93 64 94 61 95 57 96 58 97 59 98
REMARK SMILES IDX 60 99
REMARK H PARENT 20 7 5 18 25 33 84 52 52 63
REMARK Flexibility Score: inf
ROOT
ATOM      1  C   UNL A   1      33.861  29.149  26.835  1.00  0.00     0.023 C 
ENDROOT
BRANCH   1   2
ATOM      2  C   UNL A   1      32.993  27.884  26.864  1.00  0.00     0.023 C 
BRANCH   2   3
ATOM      3  C   UNL A   1      31.500  27.985  26.524  1.00  0.00     0.116 C 
BRANCH   3   4
ATOM      4  N   UNL A   1      30.706  26.779  26.692  1.00  0.00    -0.354 N 
ATOM      5  C   UNL A   1      30.581  25.679  25.875  1.00  0.00     0.247 C 
ATOM      6  O   UNL A   1      29.996  24.690  26.326  1.00  0.00    -0.272 OA
ATOM      7  H   UNL A   1      30.175  26.744  27.520  1.00  0.00     0.163 HD
BRANCH   5   8
ATOM      8  C   UNL A   1      31.239  25.632  24.484  1.00  0.00     0.202 C 
BRANCH   8   9
ATOM      9  C   UNL A   1      30.608  26.790  23.706  1.00  0.00     0.011 C 
ATOM     10  C   UNL A   1      28.044  26.649  23.995  1.00  0.00     0.069 C 
ATOM     11  C   UNL A   1      29.340  27.187  23.501  1.00  0.00     0.064 C 
ATOM     12  N   UNL A   1      29.231  28.183  22.561  1.00  0.00    -0.160 NA
ATOM     13  C   UNL A   1      31.410  27.661  22.733  1.00  0.00     0.156 C 
ATOM     14  N   UNL A   1      30.343  28.431  22.041  1.00  0.00    -0.181 NA
ATOM     15  C   UNL A   1      32.364  28.725  23.290  1.00  0.00     0.040 C 
ENDBRANCH   8   9
BRANCH   8  16
ATOM     16  N   UNL A   1      31.156  24.309  23.812  1.00  0.00    -0.337 N 
ATOM     17  C   UNL A   1      31.992  23.180  23.789  1.00  0.00     0.252 C 
ATOM     18  H   UNL A   1      30.342  24.201  23.268  1.00  0.00     0.165 HD
ATOM     19  O   UNL A   1      31.793  22.401  22.853  1.00  0.00    -0.269 OA
BRANCH  17  20
ATOM     20  C   UNL A   1      33.027  22.815  24.850  1.00  0.00     0.047 A 
ATOM     21  C   UNL A   1      32.569  22.265  26.040  1.00  0.00     0.014 A 
ATOM     22  C   UNL A   1      34.443  22.753  24.671  1.00  0.00    -0.006 A 
ATOM     23  C   UNL A   1      33.347  21.961  27.147  1.00  0.00     0.001 A 
ATOM     24  C   UNL A   1      35.262  22.376  25.795  1.00  0.00    -0.018 A 
ATOM     25  C   UNL A   1      35.135  22.946  23.452  1.00  0.00     0.009 A 
ATOM     26  C   UNL A   1      34.707  22.071  27.035  1.00  0.00     0.009 A 
ATOM     27  C   UNL A   1      36.644  22.216  25.678  1.00  0.00     0.009 A 
ATOM     28  C   UNL A   1      36.516  22.724  23.340  1.00  0.00     0.001 A 
ATOM     29  C   UNL A   1      37.269  22.362  24.449  1.00  0.00     0.001 A 
ENDBRANCH  17  20
ENDBRANCH   8  16
ENDBRANCH   5   8
ENDBRANCH   3   4
ENDBRANCH   2   3
ENDBRANCH   1   2
BRANCH   1  30
ATOM     30  C   UNL A   1      35.241  29.018  27.446  1.00  0.00     0.116 C 
BRANCH  30  31
ATOM     31  N   UNL A   1      35.399  29.813  28.658  1.00  0.00    -0.352 N 
ATOM     32  C   UNL A   1      36.417  29.732  29.596  1.00  0.00     0.251 C 
ATOM     33  H   UNL A   1      34.701  30.486  28.832  1.00  0.00     0.163 HD
ATOM     34  O   UNL A   1      36.248  30.124  30.734  1.00  0.00    -0.269 OA
BRANCH  32  35
ATOM     35  C   UNL A   1      37.709  29.161  29.165  1.00  0.00     0.039 A 
ATOM     36  C   UNL A   1      38.371  29.610  28.021  1.00  0.00     0.014 A 
ATOM     37  C   UNL A   1      38.273  28.182  29.975  1.00  0.00     0.014 A 
ATOM     38  C   UNL A   1      39.647  29.117  27.752  1.00  0.00     0.010 A 
ATOM     39  C   UNL A   1      39.585  27.832  29.810  1.00  0.00     0.010 A 
ATOM     40  C   UNL A   1      40.254  28.240  28.664  1.00  0.00    -0.014 A 
BRANCH  40  41
ATOM     41  C   UNL A   1      41.642  27.817  28.519  1.00  0.00     0.031 A 
ATOM     42  C   UNL A   1      41.823  26.550  27.766  1.00  0.00     0.074 A 
ATOM     43  C   UNL A   1      42.678  28.640  28.802  1.00  0.00     0.049 A 
ATOM     44  N   UNL A   1      42.228  25.416  28.231  1.00  0.00    -0.248 NA
ATOM     45  C   UNL A   1      41.341  26.475  26.376  1.00  0.00     0.031 C 
ATOM     46  C   UNL A   1      42.627  30.032  29.265  1.00  0.00     0.029 A 
ATOM     47  N   UNL A   1      44.008  28.450  28.597  1.00  0.00    -0.354 N 
ATOM     48  C   UNL A   1      42.312  24.561  27.136  1.00  0.00     0.074 A 
ATOM     49  C   UNL A   1      41.534  25.183  26.100  1.00  0.00     0.031 C 
ATOM     50  C   UNL A   1      43.823  30.624  29.052  1.00  0.00     0.029 A 
ATOM     51  C   UNL A   1      44.766  29.620  28.595  1.00  0.00     0.049 A 
ATOM     52  H   UNL A   1      44.403  27.559  28.461  1.00  0.00     0.167 HD
ATOM     53  C   UNL A   1      43.232  23.556  27.103  1.00  0.00     0.034 A 
ATOM     54  C   UNL A   1      46.064  29.760  28.208  1.00  0.00     0.034 A 
ATOM     55  C   UNL A   1      43.803  23.342  28.418  1.00  0.00     0.049 A 
ATOM     56  C   UNL A   1      46.677  28.409  28.320  1.00  0.00     0.074 A 
ATOM     57  C   UNL A   1      43.274  23.056  29.663  1.00  0.00     0.029 A 
ATOM     58  N   UNL A   1      45.070  23.831  28.663  1.00  0.00    -0.354 N 
ATOM     59  N   UNL A   1      46.805  27.780  29.458  1.00  0.00    -0.248 NA
ATOM     60  C   UNL A   1      46.658  27.551  27.143  1.00  0.00     0.031 C 
ATOM     61  C   UNL A   1      44.012  23.878  30.566  1.00  0.00     0.029 A 
ATOM     62  C   UNL A   1      45.018  24.527  29.846  1.00  0.00     0.049 A 
ATOM     63  H   UNL A   1      45.864  23.704  28.094  1.00  0.00     0.167 HD
ATOM     64  C   UNL A   1      46.425  26.472  29.191  1.00  0.00     0.074 A 
ATOM     65  C   UNL A   1      46.446  26.367  27.731  1.00  0.00     0.031 C 
ATOM     66  C   UNL A   1      45.837  25.689  30.146  1.00  0.00     0.034 A 
BRANCH  53  67
ATOM     67  C   UNL A   1      43.903  23.020  25.854  1.00  0.00     0.023 A 
ATOM     68  C   UNL A   1      43.910  21.621  25.688  1.00  0.00     0.031 A 
ATOM     69  C   UNL A   1      44.761  23.739  24.993  1.00  0.00     0.131 A 
ATOM     70  C   UNL A   1      44.818  20.997  24.816  1.00  0.00     0.055 A 
ATOM     71  C   UNL A   1      45.610  23.118  24.072  1.00  0.00     0.041 A 
ATOM     72  F   UNL A   1      44.902  25.067  25.047  1.00  0.00    -0.206 F 
ATOM     73  C   UNL A   1      45.671  21.737  24.006  1.00  0.00     0.022 A 
BRANCH  70  74
ATOM     74  S   UNL A   1      44.994  19.198  24.912  1.00  0.00     0.124 S 
ATOM     75  O   UNL A   1      43.815  18.832  25.689  1.00  0.00    -0.237 OA
ATOM     76  O   UNL A   1      44.981  18.821  23.503  1.00  0.00    -0.237 OA
ATOM     77  O   UNL A   1      46.273  19.020  25.596  1.00  0.00    -0.744 OA
ENDBRANCH  70  74
ENDBRANCH  53  67
BRANCH  54  78
ATOM     78  C   UNL A   1      46.673  30.906  27.466  1.00  0.00     0.023 A 
ATOM     79  C   UNL A   1      45.910  31.955  26.904  1.00  0.00     0.031 A 
ATOM     80  C   UNL A   1      48.074  31.104  27.502  1.00  0.00     0.131 A 
ATOM     81  C   UNL A   1      46.547  33.125  26.416  1.00  0.00     0.055 A 
ATOM     82  C   UNL A   1      48.696  32.259  27.017  1.00  0.00     0.041 A 
ATOM     83  F   UNL A   1      48.891  30.218  28.093  1.00  0.00    -0.206 F 
ATOM     84  C   UNL A   1      47.933  33.280  26.481  1.00  0.00     0.022 A 
BRANCH  81  85
ATOM     85  S   UNL A   1      45.568  34.527  25.776  1.00  0.00     0.124 S 
ATOM     86  O   UNL A   1      44.399  34.510  26.648  1.00  0.00    -0.237 OA
ATOM     87  O   UNL A   1      46.482  35.651  25.936  1.00  0.00    -0.237 OA
ATOM     88  O   UNL A   1      45.302  34.151  24.387  1.00  0.00    -0.744 OA
ENDBRANCH  81  85
ENDBRANCH  54  78
BRANCH  66  89
ATOM     89  C   UNL A   1      45.846  26.159  31.591  1.00  0.00     0.023 A 
ATOM     90  C   UNL A   1      44.742  26.723  32.272  1.00  0.00     0.031 A 
ATOM     91  C   UNL A   1      47.001  25.883  32.347  1.00  0.00     0.131 A 
ATOM     92  C   UNL A   1      44.828  26.995  33.655  1.00  0.00     0.055 A 
ATOM     93  C   UNL A   1      47.072  26.129  33.718  1.00  0.00     0.041 A 
ATOM     94  F   UNL A   1      48.076  25.322  31.769  1.00  0.00    -0.206 F 
ATOM     95  C   UNL A   1      45.986  26.692  34.376  1.00  0.00     0.022 A 
BRANCH  92  96
ATOM     96  S   UNL A   1      43.435  27.766  34.544  1.00  0.00     0.124 S 
ATOM     97  O   UNL A   1      42.467  28.042  33.489  1.00  0.00    -0.237 OA
ATOM     98  O   UNL A   1      43.059  26.732  35.504  1.00  0.00    -0.237 OA
ATOM     99  O   UNL A   1      44.035  28.960  35.144  1.00  0.00    -0.744 OA
ENDBRANCH  92  96
ENDBRANCH  66  89
ENDBRANCH  40  41
ENDBRANCH  32  35
ENDBRANCH  30  31
ENDBRANCH   1  30
TORSDOF 17
ENDMDL
MODEL 3
REMARK VINA RESULT:     -12.9      3.091      7.789
REMARK SMILES CC1=C([C@H](NC(=O)c2cccc3ccccc23)C(=O)NCCCCNC(=O)c2ccc(-c3c4nc(c(-c5cc(S(=O)(=O)[O-])ccc5F)c5ccc([nH]5)c(-c5cc(S(=O)(=O)[O-])ccc5F)c5nc(c(-c6cc(S(=O)(=O)[O-])ccc6F)c6ccc3[nH]6)C=C5)C=C4)cc2)[C@H](C)N=N1
REMARK SMILES IDX 23 1 22 2 21 3 20 4 18 5 19 6 4 8 3 9 1 10 2 11 94 12 91 13
REMARK SMILES IDX 93 14 92 15 5 16 6 17 7 19 8 20 9 21 17 22 10 23 12 24 16 25
REMARK SMILES IDX 11 26 13 27 15 28 14 29 24 30 25 31 26 32 27 34 28 35 29 36
REMARK SMILES IDX 90 37 30 38 89 39 31 40 32 41 33 42 83 43 34 44 88 45 82 46
REMARK SMILES IDX 84 47 35 48 87 49 81 50 80 51 36 53 68 54 48 55 67 56 49 57
REMARK SMILES IDX 52 58 66 59 85 60 50 61 51 62 65 64 86 65 53 66 37 67 38 68
REMARK SMILES IDX 46 69 39 70 45 71 47 72 44 73 40 74 41 75 42 76 43 77 69 78
REMARK SMILES IDX 70 79 78 80 71 81 77 82 79 83 76 84 72 85 73 86 74 87 75 88
REMARK SMILES IDX 54 89 55 90 63 91 56 92 62 93 64 94 61 95 57 96 58 97 59 98
REMARK SMILES IDX 60 99
REMARK H PARENT 20 7 5 18 25 33 84 52 52 63
REMARK Flexibility Score: inf
ROOT
ATOM      1  C   UNL A   1      32.973  30.334  26.839  1.00  0.00     0.023 C 
ENDROOT
BRANCH   1   2
ATOM      2  C   UNL A   1      32.061  29.200  27.327  1.00  0.00     0.023 C 
BRANCH   2   3
ATOM      3  C   UNL A   1      32.241  27.788  26.756  1.00  0.00     0.116 C 
BRANCH   3   4
ATOM      4  N   UNL A   1      31.097  26.895  26.842  1.00  0.00    -0.354 N 
ATOM      5  C   UNL A   1      30.622  25.973  25.936  1.00  0.00     0.247 C 
ATOM      6  O   UNL A   1      29.747  25.190  26.317  1.00  0.00    -0.272 OA
ATOM      7  H   UNL A   1      30.583  26.958  27.679  1.00  0.00     0.163 HD
BRANCH   5   8
ATOM      8  C   UNL A   1      31.230  25.843  24.529  1.00  0.00     0.202 C 
BRANCH   8   9
ATOM      9  C   UNL A   1      30.620  26.993  23.724  1.00  0.00     0.011 C 
ATOM     10  C   UNL A   1      28.048  26.785  23.849  1.00  0.00     0.069 C 
ATOM     11  C   UNL A   1      29.358  27.360  23.442  1.00  0.00     0.064 C 
ATOM     12  N   UNL A   1      29.282  28.364  22.506  1.00  0.00    -0.160 NA
ATOM     13  C   UNL A   1      31.459  27.895  22.811  1.00  0.00     0.156 C 
ATOM     14  N   UNL A   1      30.418  28.645  22.060  1.00  0.00    -0.181 NA
ATOM     15  C   UNL A   1      32.348  28.976  23.436  1.00  0.00     0.040 C 
ENDBRANCH   8   9
BRANCH   8  16
ATOM     16  N   UNL A   1      31.072  24.498  23.916  1.00  0.00    -0.337 N 
ATOM     17  C   UNL A   1      31.864  23.337  23.909  1.00  0.00     0.252 C 
ATOM     18  H   UNL A   1      30.235  24.400  23.407  1.00  0.00     0.165 HD
ATOM     19  O   UNL A   1      31.601  22.530  23.014  1.00  0.00    -0.269 OA
BRANCH  17  20
ATOM     20  C   UNL A   1      32.925  22.976  24.945  1.00  0.00     0.047 A 
ATOM     21  C   UNL A   1      32.496  22.455  26.158  1.00  0.00     0.014 A 
ATOM     22  C   UNL A   1      34.335  22.889  24.725  1.00  0.00    -0.006 A 
ATOM     23  C   UNL A   1      33.301  22.159  27.247  1.00  0.00     0.001 A 
ATOM     24  C   UNL A   1      35.181  22.519  25.830  1.00  0.00    -0.018 A 
ATOM     25  C   UNL A   1      34.992  23.048  23.482  1.00  0.00     0.009 A 
ATOM     26  C   UNL A   1      34.659  22.245  27.092  1.00  0.00     0.009 A 
ATOM     27  C   UNL A   1      36.556  22.335  25.675  1.00  0.00     0.009 A 
ATOM     28  C   UNL A   1      36.365  22.802  23.333  1.00  0.00     0.001 A 
ATOM     29  C   UNL A   1      37.146  22.448  24.426  1.00  0.00     0.001 A 
ENDBRANCH  17  20
ENDBRANCH   8  16
ENDBRANCH   5   8
ENDBRANCH   3   4
ENDBRANCH   2   3
ENDBRANCH   1   2
BRANCH   1  30
ATOM     30  C   UNL A   1      34.320  30.439  27.523  1.00  0.00     0.116 C 
BRANCH  30  31
ATOM     31  N   UNL A   1      34.888  31.780  27.449  1.00  0.00    -0.352 N 
ATOM     32  C   UNL A   1      36.011  32.261  28.105  1.00  0.00     0.251 C 
ATOM     33  H   UNL A   1      34.419  32.419  26.864  1.00  0.00     0.163 HD
ATOM     34  O   UNL A   1      36.156  33.453  28.300  1.00  0.00    -0.269 OA
BRANCH  32  35
ATOM     35  C   UNL A   1      37.022  31.283  28.551  1.00  0.00     0.039 A 
ATOM     36  C   UNL A   1      37.056  29.977  28.058  1.00  0.00     0.014 A 
ATOM     37  C   UNL A   1      37.982  31.727  29.454  1.00  0.00     0.014 A 
ATOM     38  C   UNL A   1      38.118  29.152  28.426  1.00  0.00     0.010 A 
ATOM     39  C   UNL A   1      39.108  30.983  29.674  1.00  0.00     0.010 A 
ATOM     40  C   UNL A   1      39.151  29.671  29.221  1.00  0.00    -0.014 A 
BRANCH  40  41
ATOM     41  C   UNL A   1      40.361  28.909  29.506  1.00  0.00     0.031 A 
ATOM     42  C   UNL A   1      40.630  28.698  30.952  1.00  0.00     0.074 A 
ATOM     43  C   UNL A   1      41.025  28.228  28.544  1.00  0.00     0.049 A 
ATOM     44  N   UNL A   1      41.588  29.204  31.651  1.00  0.00    -0.248 NA
ATOM     45  C   UNL A   1      39.628  27.982  31.761  1.00  0.00     0.031 C 
ATOM     46  C   UNL A   1      40.683  28.107  27.121  1.00  0.00     0.029 A 
ATOM     47  N   UNL A   1      42.075  27.374  28.664  1.00  0.00    -0.354 N 
ATOM     48  C   UNL A   1      41.468  28.652  32.922  1.00  0.00     0.074 A 
ATOM     49  C   UNL A   1      40.134  28.122  32.989  1.00  0.00     0.031 C 
ATOM     50  C   UNL A   1      41.332  27.049  26.588  1.00  0.00     0.029 A 
ATOM     51  C   UNL A   1      42.255  26.520  27.576  1.00  0.00     0.049 A 
ATOM     52  H   UNL A   1      42.660  27.358  29.455  1.00  0.00     0.167 HD
ATOM     53  C   UNL A   1      42.567  28.448  33.703  1.00  0.00     0.034 A 
ATOM     54  C   UNL A   1      43.073  25.434  27.507  1.00  0.00     0.034 A 
ATOM     55  C   UNL A   1      43.712  29.160  33.170  1.00  0.00     0.049 A 
ATOM     56  C   UNL A   1      44.118  25.638  28.546  1.00  0.00     0.074 A 
ATOM     57  C   UNL A   1      43.963  30.482  32.852  1.00  0.00     0.029 A 
ATOM     58  N   UNL A   1      44.667  28.433  32.488  1.00  0.00    -0.354 N 
ATOM     59  N   UNL A   1      44.978  26.621  28.506  1.00  0.00    -0.248 NA
ATOM     60  C   UNL A   1      43.879  25.086  29.873  1.00  0.00     0.031 C 
ATOM     61  C   UNL A   1      44.670  30.429  31.615  1.00  0.00     0.029 A 
ATOM     62  C   UNL A   1      44.913  29.088  31.306  1.00  0.00     0.049 A 
ATOM     63  H   UNL A   1      45.094  27.600  32.794  1.00  0.00     0.167 HD
ATOM     64  C   UNL A   1      45.030  27.106  29.806  1.00  0.00     0.074 A 
ATOM     65  C   UNL A   1      44.415  26.058  30.621  1.00  0.00     0.031 C 
ATOM     66  C   UNL A   1      45.283  28.424  30.067  1.00  0.00     0.034 A 
BRANCH  53  67
ATOM     67  C   UNL A   1      42.732  27.331  34.713  1.00  0.00     0.023 A 
ATOM     68  C   UNL A   1      43.539  26.242  34.328  1.00  0.00     0.031 A 
ATOM     69  C   UNL A   1      41.947  27.127  35.869  1.00  0.00     0.131 A 
ATOM     70  C   UNL A   1      43.448  25.003  34.984  1.00  0.00     0.055 A 
ATOM     71  C   UNL A   1      41.916  25.914  36.565  1.00  0.00     0.041 A 
ATOM     72  F   UNL A   1      41.099  28.045  36.344  1.00  0.00    -0.206 F 
ATOM     73  C   UNL A   1      42.639  24.830  36.101  1.00  0.00     0.022 A 
BRANCH  70  74
ATOM     74  S   UNL A   1      44.258  23.574  34.223  1.00  0.00     0.124 S 
ATOM     75  O   UNL A   1      43.389  23.323  33.078  1.00  0.00    -0.237 OA
ATOM     76  O   UNL A   1      45.582  24.105  33.923  1.00  0.00    -0.237 OA
ATOM     77  O   UNL A   1      44.214  22.561  35.275  1.00  0.00    -0.744 OA
ENDBRANCH  70  74
ENDBRANCH  53  67
BRANCH  54  78
ATOM     78  C   UNL A   1      42.801  24.133  26.824  1.00  0.00     0.023 A 
ATOM     79  C   UNL A   1      43.752  23.473  26.013  1.00  0.00     0.031 A 
ATOM     80  C   UNL A   1      41.644  23.390  27.159  1.00  0.00     0.131 A 
ATOM     81  C   UNL A   1      43.527  22.140  25.580  1.00  0.00     0.055 A 
ATOM     82  C   UNL A   1      41.426  22.078  26.727  1.00  0.00     0.041 A 
ATOM     83  F   UNL A   1      40.716  23.880  27.996  1.00  0.00    -0.206 F 
ATOM     84  C   UNL A   1      42.373  21.443  25.943  1.00  0.00     0.022 A 
BRANCH  81  85
ATOM     85  S   UNL A   1      44.789  21.243  24.613  1.00  0.00     0.124 S 
ATOM     86  O   UNL A   1      46.015  21.563  25.334  1.00  0.00    -0.237 OA
ATOM     87  O   UNL A   1      44.328  19.862  24.696  1.00  0.00    -0.237 OA
ATOM     88  O   UNL A   1      44.687  21.840  23.281  1.00  0.00    -0.744 OA
ENDBRANCH  81  85
ENDBRANCH  54  78
BRANCH  66  89
ATOM     89  C   UNL A   1      45.782  29.316  28.942  1.00  0.00     0.023 A 
ATOM     90  C   UNL A   1      45.029  30.337  28.316  1.00  0.00     0.031 A 
ATOM     91  C   UNL A   1      47.141  29.207  28.593  1.00  0.00     0.131 A 
ATOM     92  C   UNL A   1      45.643  31.194  27.377  1.00  0.00     0.055 A 
ATOM     93  C   UNL A   1      47.750  30.072  27.684  1.00  0.00     0.041 A 
ATOM     94  F   UNL A   1      47.920  28.277  29.169  1.00  0.00    -0.206 F 
ATOM     95  C   UNL A   1      47.000  31.066  27.067  1.00  0.00     0.022 A 
BRANCH  92  96
ATOM     96  S   UNL A   1      44.681  32.486  26.522  1.00  0.00     0.124 S 
ATOM     97  O   UNL A   1      43.710  31.729  25.741  1.00  0.00    -0.237 OA
ATOM     98  O   UNL A   1      44.142  33.267  27.631  1.00  0.00    -0.237 OA
ATOM     99  O   UNL A   1      45.689  33.186  25.723  1.00  0.00    -0.744 OA
ENDBRANCH  92  96
ENDBRANCH  66  89
ENDBRANCH  40  41
ENDBRANCH  32  35
ENDBRANCH  30  31
ENDBRANCH   1  30
TORSDOF 17
ENDMDL
