MODEL 1
REMARK VINA RESULT:     -11.4      0.000      0.000
REMARK SMILES O=C(NCCCCNC(=O)[C@@]1([NH2+]C2CC2)CC[C@H](SC2CCCC2)C1)c1ccc(-c2c3nc(c(-c4cc(S(=O)(=O)[O-])ccc4F)c4ccc([nH]4)c(-c4cc(S(=O)(=O)[O-])ccc4F)c4nc(c(-c5cc(S(=O)(=O)[O-])ccc5F)c5ccc2[nH]5)C=C4)C=C3)cc1
REMARK SMILES IDX 5 1 4 2 3 3 1 4 2 5 26 7 27 8 88 9 28 10 87 11 29 12 30 13
REMARK SMILES IDX 31 14 81 15 32 16 86 17 80 18 82 19 33 20 85 21 79 22 78 23
REMARK SMILES IDX 34 25 66 26 46 27 65 28 47 29 50 30 64 31 83 32 48 33 49 34
REMARK SMILES IDX 63 36 84 37 51 38 35 39 36 40 44 41 37 42 43 43 45 44 42 45
REMARK SMILES IDX 38 46 39 47 40 48 41 49 67 50 68 51 76 52 69 53 75 54 77 55
REMARK SMILES IDX 74 56 70 57 71 58 72 59 73 60 52 61 53 62 61 63 54 64 60 65
REMARK SMILES IDX 62 66 59 67 55 68 56 69 57 70 58 71 6 72 7 73 8 74 9 75
REMARK SMILES IDX 10 77 11 78 16 79 25 80 17 81 18 82 12 83 13 86 14 87 15 88
REMARK SMILES IDX 19 89 20 90 21 91 24 92 22 93 23 94
REMARK H PARENT 3 6 82 24 50 35 8 76 12 84 12 85
REMARK Flexibility Score: inf
ROOT
ATOM      1  C   UNL A   1      32.296  28.449  24.702  1.00  0.00     0.023 C 
ENDROOT
BRANCH   1   2
ATOM      2  C   UNL A   1      33.316  29.342  25.386  1.00  0.00     0.116 C 
BRANCH   2   3
ATOM      3  N   UNL A   1      32.728  30.582  25.888  1.00  0.00    -0.352 N 
ATOM      4  O   UNL A   1      32.445  32.265  27.372  1.00  0.00    -0.269 OA
ATOM      5  C   UNL A   1      33.139  31.353  26.949  1.00  0.00     0.251 C 
ATOM      6  H   UNL A   1      31.935  30.907  25.404  1.00  0.00     0.163 HD
BRANCH   5   7
ATOM      7  C   UNL A   1      34.439  31.035  27.565  1.00  0.00     0.039 A 
ATOM      8  C   UNL A   1      34.665  29.741  28.039  1.00  0.00     0.014 A 
ATOM      9  C   UNL A   1      35.385  32.044  27.746  1.00  0.00     0.014 A 
ATOM     10  C   UNL A   1      35.765  29.494  28.840  1.00  0.00     0.010 A 
ATOM     11  C   UNL A   1      36.548  31.760  28.458  1.00  0.00     0.010 A 
ATOM     12  C   UNL A   1      36.733  30.492  29.033  1.00  0.00    -0.014 A 
BRANCH  12  13
ATOM     13  C   UNL A   1      37.964  30.163  29.784  1.00  0.00     0.031 A 
ATOM     14  C   UNL A   1      39.017  29.275  29.189  1.00  0.00     0.074 A 
ATOM     15  C   UNL A   1      38.114  30.687  31.016  1.00  0.00     0.049 A 
ATOM     16  N   UNL A   1      40.110  28.812  29.738  1.00  0.00    -0.248 NA
ATOM     17  C   UNL A   1      38.809  28.841  27.801  1.00  0.00     0.031 C 
ATOM     18  C   UNL A   1      37.150  31.576  31.671  1.00  0.00     0.029 A 
ATOM     19  N   UNL A   1      39.123  30.560  31.931  1.00  0.00    -0.354 N 
ATOM     20  C   UNL A   1      40.707  28.005  28.776  1.00  0.00     0.074 A 
ATOM     21  C   UNL A   1      39.837  28.026  27.617  1.00  0.00     0.031 C 
ATOM     22  C   UNL A   1      37.629  31.940  32.867  1.00  0.00     0.029 A 
ATOM     23  C   UNL A   1      38.883  31.239  33.101  1.00  0.00     0.049 A 
ATOM     24  H   UNL A   1      39.940  30.035  31.766  1.00  0.00     0.167 HD
ATOM     25  C   UNL A   1      41.873  27.315  28.862  1.00  0.00     0.034 A 
ATOM     26  C   UNL A   1      39.571  31.257  34.258  1.00  0.00     0.034 A 
ATOM     27  C   UNL A   1      42.713  27.320  30.039  1.00  0.00     0.049 A 
ATOM     28  C   UNL A   1      40.830  30.446  34.349  1.00  0.00     0.074 A 
ATOM     29  C   UNL A   1      43.921  26.676  30.241  1.00  0.00     0.029 A 
ATOM     30  N   UNL A   1      42.425  27.997  31.220  1.00  0.00    -0.354 N 
ATOM     31  N   UNL A   1      41.378  29.674  33.438  1.00  0.00    -0.248 NA
ATOM     32  C   UNL A   1      41.563  30.508  35.615  1.00  0.00     0.031 C 
ATOM     33  C   UNL A   1      44.326  26.908  31.562  1.00  0.00     0.029 A 
ATOM     34  C   UNL A   1      43.415  27.764  32.161  1.00  0.00     0.049 A 
ATOM     35  H   UNL A   1      41.632  28.563  31.365  1.00  0.00     0.167 HD
ATOM     36  C   UNL A   1      42.537  29.173  34.017  1.00  0.00     0.074 A 
ATOM     37  C   UNL A   1      42.611  29.739  35.351  1.00  0.00     0.031 C 
ATOM     38  C   UNL A   1      43.460  28.327  33.492  1.00  0.00     0.034 A 
BRANCH  25  39
ATOM     39  C   UNL A   1      42.261  26.457  27.680  1.00  0.00     0.023 A 
ATOM     40  C   UNL A   1      41.771  25.148  27.517  1.00  0.00     0.031 A 
ATOM     41  C   UNL A   1      43.175  26.935  26.724  1.00  0.00     0.131 A 
ATOM     42  C   UNL A   1      42.263  24.338  26.480  1.00  0.00     0.055 A 
ATOM     43  C   UNL A   1      43.595  26.154  25.645  1.00  0.00     0.041 A 
ATOM     44  F   UNL A   1      43.697  28.167  26.835  1.00  0.00    -0.206 F 
ATOM     45  C   UNL A   1      43.153  24.839  25.529  1.00  0.00     0.022 A 
BRANCH  42  46
ATOM     46  S   UNL A   1      41.856  22.569  26.497  1.00  0.00     0.124 S 
ATOM     47  O   UNL A   1      42.501  22.105  25.270  1.00  0.00    -0.237 OA
ATOM     48  O   UNL A   1      42.459  22.119  27.745  1.00  0.00    -0.237 OA
ATOM     49  O   UNL A   1      40.395  22.554  26.466  1.00  0.00    -0.744 OA
ENDBRANCH  42  46
ENDBRANCH  25  39
BRANCH  26  50
ATOM     50  C   UNL A   1      39.042  32.028  35.414  1.00  0.00     0.023 A 
ATOM     51  C   UNL A   1      38.390  31.389  36.476  1.00  0.00     0.031 A 
ATOM     52  C   UNL A   1      39.215  33.424  35.484  1.00  0.00     0.131 A 
ATOM     53  C   UNL A   1      37.916  32.147  37.558  1.00  0.00     0.055 A 
ATOM     54  C   UNL A   1      38.785  34.166  36.583  1.00  0.00     0.041 A 
ATOM     55  F   UNL A   1      39.846  34.080  34.497  1.00  0.00    -0.206 F 
ATOM     56  C   UNL A   1      38.122  33.528  37.626  1.00  0.00     0.022 A 
BRANCH  53  57
ATOM     57  S   UNL A   1      36.980  31.305  38.862  1.00  0.00     0.124 S 
ATOM     58  O   UNL A   1      36.813  29.971  38.295  1.00  0.00    -0.237 OA
ATOM     59  O   UNL A   1      37.886  31.410  40.001  1.00  0.00    -0.237 OA
ATOM     60  O   UNL A   1      35.756  32.097  38.968  1.00  0.00    -0.744 OA
ENDBRANCH  53  57
ENDBRANCH  26  50
BRANCH  38  61
ATOM     61  C   UNL A   1      44.655  28.013  34.355  1.00  0.00     0.023 A 
ATOM     62  C   UNL A   1      44.655  26.933  35.254  1.00  0.00     0.031 A 
ATOM     63  C   UNL A   1      45.805  28.817  34.279  1.00  0.00     0.131 A 
ATOM     64  C   UNL A   1      45.770  26.716  36.079  1.00  0.00     0.055 A 
ATOM     65  C   UNL A   1      46.931  28.562  35.060  1.00  0.00     0.041 A 
ATOM     66  F   UNL A   1      45.852  29.863  33.439  1.00  0.00    -0.206 F 
ATOM     67  C   UNL A   1      46.913  27.513  35.975  1.00  0.00     0.022 A 
BRANCH  64  68
ATOM     68  S   UNL A   1      45.676  25.424  37.349  1.00  0.00     0.124 S 
ATOM     69  O   UNL A   1      44.867  26.069  38.378  1.00  0.00    -0.237 OA
ATOM     70  O   UNL A   1      45.038  24.325  36.631  1.00  0.00    -0.237 OA
ATOM     71  O   UNL A   1      47.073  25.198  37.711  1.00  0.00    -0.744 OA
ENDBRANCH  64  68
ENDBRANCH  38  61
ENDBRANCH  12  13
ENDBRANCH   5   7
ENDBRANCH   2   3
ENDBRANCH   1   2
BRANCH   1  72
ATOM     72  C   UNL A   1      31.431  27.662  25.668  1.00  0.00     0.023 C 
BRANCH  72  73
ATOM     73  C   UNL A   1      32.118  26.448  26.285  1.00  0.00     0.116 C 
BRANCH  73  74
ATOM     74  N   UNL A   1      31.202  25.421  26.754  1.00  0.00    -0.351 N 
ATOM     75  C   UNL A   1      31.194  24.055  26.685  1.00  0.00     0.281 C 
ATOM     76  H   UNL A   1      30.418  25.789  27.222  1.00  0.00     0.163 HD
ATOM     77  O   UNL A   1      30.287  23.498  27.318  1.00  0.00    -0.268 OA
BRANCH  75  78
ATOM     78  C   UNL A   1      32.218  23.218  25.864  1.00  0.00     0.176 C 
ATOM     79  C   UNL A   1      33.631  23.157  26.445  1.00  0.00     0.080 C 
ATOM     80  C   UNL A   1      31.854  21.700  26.029  1.00  0.00     0.093 C 
ATOM     81  C   UNL A   1      34.264  21.906  25.902  1.00  0.00     0.022 C 
ATOM     82  C   UNL A   1      33.144  20.900  25.719  1.00  0.00     0.054 C 
BRANCH  78  83
ATOM     83  N   UNL A   1      32.083  23.432  24.407  1.00  0.00    -0.331 N 
ATOM     84  H   UNL A   1      31.112  23.715  24.276  1.00  0.00     0.347 HD
ATOM     85  H   UNL A   1      32.477  22.549  24.084  1.00  0.00     0.347 HD
BRANCH  83  86
ATOM     86  C   UNL A   1      32.844  24.333  23.563  1.00  0.00     0.183 C 
ATOM     87  C   UNL A   1      33.080  24.105  22.106  1.00  0.00     0.071 C 
ATOM     88  C   UNL A   1      32.259  25.280  22.574  1.00  0.00     0.071 C 
ENDBRANCH  83  86
ENDBRANCH  78  83
BRANCH  82  89
ATOM     89  S   UNL A   1      33.204  20.211  24.011  1.00  0.00    -0.155 SA
BRANCH  89  90
ATOM     90  C   UNL A   1      33.345  18.392  24.266  1.00  0.00     0.047 C 
ATOM     91  C   UNL A   1      34.740  17.766  24.301  1.00  0.00     0.014 C 
ATOM     92  C   UNL A   1      32.676  17.828  25.515  1.00  0.00     0.014 C 
ATOM     93  C   UNL A   1      34.475  16.335  24.750  1.00  0.00     0.001 C 
ATOM     94  C   UNL A   1      33.255  16.418  25.666  1.00  0.00     0.001 C 
ENDBRANCH  89  90
ENDBRANCH  82  89
ENDBRANCH  75  78
ENDBRANCH  73  74
ENDBRANCH  72  73
ENDBRANCH   1  72
TORSDOF 18
ENDMDL
MODEL 2
REMARK VINA RESULT:     -11.4      1.158      1.638
REMARK SMILES O=C(NCCCCNC(=O)[C@@]1([NH2+]C2CC2)CC[C@H](SC2CCCC2)C1)c1ccc(-c2c3nc(c(-c4cc(S(=O)(=O)[O-])ccc4F)c4ccc([nH]4)c(-c4cc(S(=O)(=O)[O-])ccc4F)c4nc(c(-c5cc(S(=O)(=O)[O-])ccc5F)c5ccc2[nH]5)C=C4)C=C3)cc1
REMARK SMILES IDX 5 1 4 2 3 3 1 4 2 5 26 7 27 8 88 9 28 10 87 11 29 12 30 13
REMARK SMILES IDX 31 14 81 15 32 16 86 17 80 18 82 19 33 20 85 21 79 22 78 23
REMARK SMILES IDX 34 25 66 26 46 27 65 28 47 29 50 30 64 31 83 32 48 33 49 34
REMARK SMILES IDX 63 36 84 37 51 38 35 39 36 40 44 41 37 42 43 43 45 44 42 45
REMARK SMILES IDX 38 46 39 47 40 48 41 49 67 50 68 51 76 52 69 53 75 54 77 55
REMARK SMILES IDX 74 56 70 57 71 58 72 59 73 60 52 61 53 62 61 63 54 64 60 65
REMARK SMILES IDX 62 66 59 67 55 68 56 69 57 70 58 71 6 72 7 73 8 74 9 75
REMARK SMILES IDX 10 77 11 78 16 79 25 80 17 81 18 82 12 83 13 86 14 87 15 88
REMARK SMILES IDX 19 89 20 90 21 91 24 92 22 93 23 94
REMARK H PARENT 3 6 82 24 50 35 8 76 12 84 12 85
REMARK Flexibility Score: inf
ROOT
ATOM      1  C   UNL A   1      32.652  28.989  24.351  1.00  0.00     0.023 C 
ENDROOT
BRANCH   1   2
ATOM      2  C   UNL A   1      33.233  29.400  25.692  1.00  0.00     0.116 C 
BRANCH   2   3
ATOM      3  N   UNL A   1      32.765  30.715  26.125  1.00  0.00    -0.352 N 
ATOM      4  O   UNL A   1      32.688  32.520  27.486  1.00  0.00    -0.269 OA
ATOM      5  C   UNL A   1      33.291  31.529  27.101  1.00  0.00     0.251 C 
ATOM      6  H   UNL A   1      31.972  31.063  25.658  1.00  0.00     0.163 HD
BRANCH   5   7
ATOM      7  C   UNL A   1      34.597  31.159  27.672  1.00  0.00     0.039 A 
ATOM      8  C   UNL A   1      34.758  29.885  28.222  1.00  0.00     0.014 A 
ATOM      9  C   UNL A   1      35.618  32.107  27.736  1.00  0.00     0.014 A 
ATOM     10  C   UNL A   1      35.881  29.613  28.984  1.00  0.00     0.010 A 
ATOM     11  C   UNL A   1      36.796  31.787  28.409  1.00  0.00     0.010 A 
ATOM     12  C   UNL A   1      36.923  30.549  29.060  1.00  0.00    -0.014 A 
BRANCH  12  13
ATOM     13  C   UNL A   1      38.168  30.182  29.771  1.00  0.00     0.031 A 
ATOM     14  C   UNL A   1      39.153  29.230  29.159  1.00  0.00     0.074 A 
ATOM     15  C   UNL A   1      38.392  30.730  30.980  1.00  0.00     0.049 A 
ATOM     16  N   UNL A   1      40.245  28.730  29.677  1.00  0.00    -0.248 NA
ATOM     17  C   UNL A   1      38.869  28.770  27.793  1.00  0.00     0.031 C 
ATOM     18  C   UNL A   1      37.497  31.680  31.648  1.00  0.00     0.029 A 
ATOM     19  N   UNL A   1      39.431  30.580  31.857  1.00  0.00    -0.354 N 
ATOM     20  C   UNL A   1      40.765  27.871  28.715  1.00  0.00     0.074 A 
ATOM     21  C   UNL A   1      39.850  27.904  27.591  1.00  0.00     0.031 C 
ATOM     22  C   UNL A   1      38.042  32.052  32.814  1.00  0.00     0.029 A 
ATOM     23  C   UNL A   1      39.270  31.299  33.017  1.00  0.00     0.049 A 
ATOM     24  H   UNL A   1      40.215  30.013  31.675  1.00  0.00     0.167 HD
ATOM     25  C   UNL A   1      41.901  27.130  28.774  1.00  0.00     0.034 A 
ATOM     26  C   UNL A   1      40.005  31.315  34.144  1.00  0.00     0.034 A 
ATOM     27  C   UNL A   1      42.787  27.125  29.916  1.00  0.00     0.049 A 
ATOM     28  C   UNL A   1      41.229  30.448  34.208  1.00  0.00     0.074 A 
ATOM     29  C   UNL A   1      43.971  26.431  30.088  1.00  0.00     0.029 A 
ATOM     30  N   UNL A   1      42.579  27.846  31.088  1.00  0.00    -0.354 N 
ATOM     31  N   UNL A   1      41.702  29.628  33.299  1.00  0.00    -0.248 NA
ATOM     32  C   UNL A   1      42.014  30.508  35.442  1.00  0.00     0.031 C 
ATOM     33  C   UNL A   1      44.441  26.678  31.384  1.00  0.00     0.029 A 
ATOM     34  C   UNL A   1      43.595  27.591  31.996  1.00  0.00     0.049 A 
ATOM     35  H   UNL A   1      41.819  28.452  31.249  1.00  0.00     0.167 HD
ATOM     36  C   UNL A   1      42.859  29.087  33.845  1.00  0.00     0.074 A 
ATOM     37  C   UNL A   1      43.014  29.684  35.158  1.00  0.00     0.031 C 
ATOM     38  C   UNL A   1      43.720  28.186  33.307  1.00  0.00     0.034 A 
BRANCH  25  39
ATOM     39  C   UNL A   1      42.199  26.223  27.602  1.00  0.00     0.023 A 
ATOM     40  C   UNL A   1      41.696  24.912  27.526  1.00  0.00     0.031 A 
ATOM     41  C   UNL A   1      43.044  26.659  26.564  1.00  0.00     0.131 A 
ATOM     42  C   UNL A   1      42.110  24.059  26.490  1.00  0.00     0.055 A 
ATOM     43  C   UNL A   1      43.383  25.833  25.489  1.00  0.00     0.041 A 
ATOM     44  F   UNL A   1      43.575  27.892  26.588  1.00  0.00    -0.206 F 
ATOM     45  C   UNL A   1      42.930  24.518  25.458  1.00  0.00     0.022 A 
BRANCH  42  46
ATOM     46  S   UNL A   1      41.699  22.294  26.605  1.00  0.00     0.124 S 
ATOM     47  O   UNL A   1      42.324  21.765  25.395  1.00  0.00    -0.237 OA
ATOM     48  O   UNL A   1      42.322  21.909  27.866  1.00  0.00    -0.237 OA
ATOM     49  O   UNL A   1      40.238  22.281  26.598  1.00  0.00    -0.744 OA
ENDBRANCH  42  46
ENDBRANCH  25  39
BRANCH  26  50
ATOM     50  C   UNL A   1      39.560  32.140  35.299  1.00  0.00     0.023 A 
ATOM     51  C   UNL A   1      38.762  31.598  36.314  1.00  0.00     0.031 A 
ATOM     52  C   UNL A   1      39.961  33.485  35.416  1.00  0.00     0.131 A 
ATOM     53  C   UNL A   1      38.371  32.403  37.396  1.00  0.00     0.055 A 
ATOM     54  C   UNL A   1      39.611  34.266  36.516  1.00  0.00     0.041 A 
ATOM     55  F   UNL A   1      40.739  34.046  34.475  1.00  0.00    -0.206 F 
ATOM     56  C   UNL A   1      38.803  33.727  37.512  1.00  0.00     0.022 A 
BRANCH  53  57
ATOM     57  S   UNL A   1      37.248  31.704  38.634  1.00  0.00     0.124 S 
ATOM     58  O   UNL A   1      36.111  32.615  38.553  1.00  0.00    -0.237 OA
ATOM     59  O   UNL A   1      37.028  30.356  38.119  1.00  0.00    -0.237 OA
ATOM     60  O   UNL A   1      38.020  31.777  39.873  1.00  0.00    -0.744 OA
ENDBRANCH  53  57
ENDBRANCH  26  50
BRANCH  38  61
ATOM     61  C   UNL A   1      44.933  27.838  34.130  1.00  0.00     0.023 A 
ATOM     62  C   UNL A   1      44.934  26.757  35.028  1.00  0.00     0.031 A 
ATOM     63  C   UNL A   1      46.102  28.612  34.019  1.00  0.00     0.131 A 
ATOM     64  C   UNL A   1      46.069  26.508  35.816  1.00  0.00     0.055 A 
ATOM     65  C   UNL A   1      47.246  28.325  34.763  1.00  0.00     0.041 A 
ATOM     66  F   UNL A   1      46.149  29.658  33.179  1.00  0.00    -0.206 F 
ATOM     67  C   UNL A   1      47.229  27.275  35.676  1.00  0.00     0.022 A 
BRANCH  64  68
ATOM     68  S   UNL A   1      45.982  25.217  37.086  1.00  0.00     0.124 S 
ATOM     69  O   UNL A   1      44.544  25.101  37.302  1.00  0.00    -0.237 OA
ATOM     70  O   UNL A   1      46.621  24.083  36.425  1.00  0.00    -0.237 OA
ATOM     71  O   UNL A   1      46.733  25.784  38.204  1.00  0.00    -0.744 OA
ENDBRANCH  64  68
ENDBRANCH  38  61
ENDBRANCH  12  13
ENDBRANCH   5   7
ENDBRANCH   2   3
ENDBRANCH   1   2
BRANCH   1  72
ATOM     72  C   UNL A   1      32.402  27.497  24.228  1.00  0.00     0.023 C 
BRANCH  72  73
ATOM     73  C   UNL A   1      33.664  26.657  24.063  1.00  0.00     0.116 C 
BRANCH  73  74
ATOM     74  N   UNL A   1      33.618  25.729  22.946  1.00  0.00    -0.351 N 
ATOM     75  C   UNL A   1      33.354  24.391  22.834  1.00  0.00     0.281 C 
ATOM     76  H   UNL A   1      33.822  26.156  22.083  1.00  0.00     0.163 HD
ATOM     77  O   UNL A   1      33.289  23.959  21.675  1.00  0.00    -0.268 OA
BRANCH  75  78
ATOM     78  C   UNL A   1      33.163  23.437  24.049  1.00  0.00     0.176 C 
ATOM     79  C   UNL A   1      31.858  23.615  24.825  1.00  0.00     0.080 C 
ATOM     80  C   UNL A   1      32.889  21.993  23.498  1.00  0.00     0.093 C 
ATOM     81  C   UNL A   1      31.589  22.308  25.519  1.00  0.00     0.022 C 
ATOM     82  C   UNL A   1      32.157  21.222  24.626  1.00  0.00     0.054 C 
BRANCH  78  83
ATOM     83  N   UNL A   1      34.407  23.261  24.829  1.00  0.00    -0.331 N 
ATOM     84  H   UNL A   1      34.142  22.655  25.606  1.00  0.00     0.347 HD
ATOM     85  H   UNL A   1      34.670  24.241  24.923  1.00  0.00     0.347 HD
BRANCH  83  86
ATOM     86  C   UNL A   1      35.679  22.735  24.373  1.00  0.00     0.183 C 
ATOM     87  C   UNL A   1      37.001  23.330  24.735  1.00  0.00     0.071 C 
ATOM     88  C   UNL A   1      36.629  21.947  25.208  1.00  0.00     0.071 C 
ENDBRANCH  83  86
ENDBRANCH  78  83
BRANCH  82  89
ATOM     89  S   UNL A   1      33.257  20.122  25.614  1.00  0.00    -0.155 SA
BRANCH  89  90
ATOM     90  C   UNL A   1      33.173  18.502  24.741  1.00  0.00     0.047 C 
ATOM     91  C   UNL A   1      34.472  17.889  24.212  1.00  0.00     0.014 C 
ATOM     92  C   UNL A   1      32.529  17.351  25.506  1.00  0.00     0.014 C 
ATOM     93  C   UNL A   1      34.052  16.492  23.777  1.00  0.00     0.001 C 
ATOM     94  C   UNL A   1      32.925  16.093  24.727  1.00  0.00     0.001 C 
ENDBRANCH  89  90
ENDBRANCH  82  89
ENDBRANCH  75  78
ENDBRANCH  73  74
ENDBRANCH  72  73
ENDBRANCH   1  72
TORSDOF 18
ENDMDL
MODEL 3
REMARK VINA RESULT:     -11.3      1.833      2.271
REMARK SMILES O=C(NCCCCNC(=O)[C@@]1([NH2+]C2CC2)CC[C@H](SC2CCCC2)C1)c1ccc(-c2c3nc(c(-c4cc(S(=O)(=O)[O-])ccc4F)c4ccc([nH]4)c(-c4cc(S(=O)(=O)[O-])ccc4F)c4nc(c(-c5cc(S(=O)(=O)[O-])ccc5F)c5ccc2[nH]5)C=C4)C=C3)cc1
REMARK SMILES IDX 5 1 4 2 3 3 1 4 2 5 26 7 27 8 88 9 28 10 87 11 29 12 30 13
REMARK SMILES IDX 31 14 81 15 32 16 86 17 80 18 82 19 33 20 85 21 79 22 78 23
REMARK SMILES IDX 34 25 66 26 46 27 65 28 47 29 50 30 64 31 83 32 48 33 49 34
REMARK SMILES IDX 63 36 84 37 51 38 35 39 36 40 44 41 37 42 43 43 45 44 42 45
REMARK SMILES IDX 38 46 39 47 40 48 41 49 67 50 68 51 76 52 69 53 75 54 77 55
REMARK SMILES IDX 74 56 70 57 71 58 72 59 73 60 52 61 53 62 61 63 54 64 60 65
REMARK SMILES IDX 62 66 59 67 55 68 56 69 57 70 58 71 6 72 7 73 8 74 9 75
REMARK SMILES IDX 10 77 11 78 16 79 25 80 17 81 18 82 12 83 13 86 14 87 15 88
REMARK SMILES IDX 19 89 20 90 21 91 24 92 22 93 23 94
REMARK H PARENT 3 6 82 24 50 35 8 76 12 84 12 85
REMARK Flexibility Score: inf
ROOT
ATOM      1  C   UNL A   1      32.645  29.194  24.565  1.00  0.00     0.023 C 
ENDROOT
BRANCH   1   2
ATOM      2  C   UNL A   1      33.188  29.621  25.917  1.00  0.00     0.116 C 
BRANCH   2   3
ATOM      3  N   UNL A   1      32.759  30.965  26.294  1.00  0.00    -0.352 N 
ATOM      4  O   UNL A   1      32.737  32.829  27.576  1.00  0.00    -0.269 OA
ATOM      5  C   UNL A   1      33.310  31.806  27.232  1.00  0.00     0.251 C 
ATOM      6  H   UNL A   1      31.974  31.315  25.814  1.00  0.00     0.163 HD
BRANCH   5   7
ATOM      7  C   UNL A   1      34.607  31.425  27.817  1.00  0.00     0.039 A 
ATOM      8  C   UNL A   1      34.779  30.122  28.290  1.00  0.00     0.014 A 
ATOM      9  C   UNL A   1      35.607  32.385  27.969  1.00  0.00     0.014 A 
ATOM     10  C   UNL A   1      35.886  29.823  29.065  1.00  0.00     0.010 A 
ATOM     11  C   UNL A   1      36.772  32.045  28.653  1.00  0.00     0.010 A 
ATOM     12  C   UNL A   1      36.907  30.771  29.229  1.00  0.00    -0.014 A 
BRANCH  12  13
ATOM     13  C   UNL A   1      38.139  30.382  29.950  1.00  0.00     0.031 A 
ATOM     14  C   UNL A   1      39.117  29.420  29.344  1.00  0.00     0.074 A 
ATOM     15  C   UNL A   1      38.358  30.921  31.164  1.00  0.00     0.049 A 
ATOM     16  N   UNL A   1      40.196  28.901  29.870  1.00  0.00    -0.248 NA
ATOM     17  C   UNL A   1      38.840  28.971  27.972  1.00  0.00     0.031 C 
ATOM     18  C   UNL A   1      37.471  31.881  31.829  1.00  0.00     0.029 A 
ATOM     19  N   UNL A   1      39.386  30.752  32.052  1.00  0.00    -0.354 N 
ATOM     20  C   UNL A   1      40.713  28.040  28.910  1.00  0.00     0.074 A 
ATOM     21  C   UNL A   1      39.810  28.091  27.777  1.00  0.00     0.031 C 
ATOM     22  C   UNL A   1      38.008  32.239  33.001  1.00  0.00     0.029 A 
ATOM     23  C   UNL A   1      39.224  31.468  33.213  1.00  0.00     0.049 A 
ATOM     24  H   UNL A   1      40.164  30.174  31.875  1.00  0.00     0.167 HD
ATOM     25  C   UNL A   1      41.837  27.282  28.976  1.00  0.00     0.034 A 
ATOM     26  C   UNL A   1      39.947  31.467  34.348  1.00  0.00     0.034 A 
ATOM     27  C   UNL A   1      42.712  27.259  30.127  1.00  0.00     0.049 A 
ATOM     28  C   UNL A   1      41.157  30.583  34.420  1.00  0.00     0.074 A 
ATOM     29  C   UNL A   1      43.884  26.547  30.308  1.00  0.00     0.029 A 
ATOM     30  N   UNL A   1      42.502  27.977  31.301  1.00  0.00    -0.354 N 
ATOM     31  N   UNL A   1      41.629  29.760  33.511  1.00  0.00    -0.248 NA
ATOM     32  C   UNL A   1      41.931  30.625  35.662  1.00  0.00     0.031 C 
ATOM     33  C   UNL A   1      44.344  26.780  31.610  1.00  0.00     0.029 A 
ATOM     34  C   UNL A   1      43.505  27.702  32.217  1.00  0.00     0.049 A 
ATOM     35  H   UNL A   1      41.750  28.593  31.457  1.00  0.00     0.167 HD
ATOM     36  C   UNL A   1      42.772  29.200  34.066  1.00  0.00     0.074 A 
ATOM     37  C   UNL A   1      42.922  29.789  35.384  1.00  0.00     0.031 C 
ATOM     38  C   UNL A   1      43.626  28.290  33.533  1.00  0.00     0.034 A 
BRANCH  25  39
ATOM     39  C   UNL A   1      42.135  26.377  27.803  1.00  0.00     0.023 A 
ATOM     40  C   UNL A   1      41.668  25.051  27.746  1.00  0.00     0.031 A 
ATOM     41  C   UNL A   1      42.942  26.830  26.743  1.00  0.00     0.131 A 
ATOM     42  C   UNL A   1      42.082  24.204  26.705  1.00  0.00     0.055 A 
ATOM     43  C   UNL A   1      43.279  26.008  25.665  1.00  0.00     0.041 A 
ATOM     44  F   UNL A   1      43.437  28.077  26.747  1.00  0.00    -0.206 F 
ATOM     45  C   UNL A   1      42.864  24.679  25.652  1.00  0.00     0.022 A 
BRANCH  42  46
ATOM     46  S   UNL A   1      41.727  22.428  26.841  1.00  0.00     0.124 S 
ATOM     47  O   UNL A   1      42.700  22.007  27.847  1.00  0.00    -0.237 OA
ATOM     48  O   UNL A   1      40.330  22.419  27.259  1.00  0.00    -0.237 OA
ATOM     49  O   UNL A   1      41.980  21.925  25.493  1.00  0.00    -0.744 OA
ENDBRANCH  42  46
ENDBRANCH  25  39
BRANCH  26  50
ATOM     50  C   UNL A   1      39.502  32.294  35.502  1.00  0.00     0.023 A 
ATOM     51  C   UNL A   1      39.921  33.622  35.647  1.00  0.00     0.031 A 
ATOM     52  C   UNL A   1      38.619  31.766  36.464  1.00  0.00     0.131 A 
ATOM     53  C   UNL A   1      39.471  34.377  36.742  1.00  0.00     0.055 A 
ATOM     54  C   UNL A   1      38.137  32.534  37.523  1.00  0.00     0.041 A 
ATOM     55  F   UNL A   1      38.179  30.501  36.360  1.00  0.00    -0.206 F 
ATOM     56  C   UNL A   1      38.571  33.848  37.671  1.00  0.00     0.022 A 
BRANCH  53  57
ATOM     57  S   UNL A   1      40.118  36.055  36.962  1.00  0.00     0.124 S 
ATOM     58  O   UNL A   1      39.762  36.680  35.693  1.00  0.00    -0.237 OA
ATOM     59  O   UNL A   1      39.377  36.515  38.133  1.00  0.00    -0.237 OA
ATOM     60  O   UNL A   1      41.548  35.844  37.175  1.00  0.00    -0.744 OA
ENDBRANCH  53  57
ENDBRANCH  26  50
BRANCH  38  61
ATOM     61  C   UNL A   1      44.825  27.920  34.367  1.00  0.00     0.023 A 
ATOM     62  C   UNL A   1      44.820  26.801  35.217  1.00  0.00     0.031 A 
ATOM     63  C   UNL A   1      45.986  28.711  34.314  1.00  0.00     0.131 A 
ATOM     64  C   UNL A   1      45.941  26.532  36.018  1.00  0.00     0.055 A 
ATOM     65  C   UNL A   1      47.117  28.405  35.069  1.00  0.00     0.041 A 
ATOM     66  F   UNL A   1      46.039  29.793  33.521  1.00  0.00    -0.206 F 
ATOM     67  C   UNL A   1      47.094  27.317  35.936  1.00  0.00     0.022 A 
BRANCH  64  68
ATOM     68  S   UNL A   1      45.842  25.186  37.230  1.00  0.00     0.124 S 
ATOM     69  O   UNL A   1      45.090  24.173  36.497  1.00  0.00    -0.237 OA
ATOM     70  O   UNL A   1      47.249  24.882  37.476  1.00  0.00    -0.237 OA
ATOM     71  O   UNL A   1      45.135  25.790  38.356  1.00  0.00    -0.744 OA
ENDBRANCH  64  68
ENDBRANCH  38  61
ENDBRANCH  12  13
ENDBRANCH   5   7
ENDBRANCH   2   3
ENDBRANCH   1   2
BRANCH   1  72
ATOM     72  C   UNL A   1      33.461  28.102  23.899  1.00  0.00     0.023 C 
BRANCH  72  73
ATOM     73  C   UNL A   1      32.853  26.707  24.001  1.00  0.00     0.116 C 
BRANCH  73  74
ATOM     74  N   UNL A   1      33.174  25.836  22.884  1.00  0.00    -0.351 N 
ATOM     75  C   UNL A   1      33.229  24.477  22.726  1.00  0.00     0.281 C 
ATOM     76  H   UNL A   1      33.402  26.329  22.063  1.00  0.00     0.163 HD
ATOM     77  O   UNL A   1      33.428  24.087  21.568  1.00  0.00    -0.268 OA
BRANCH  75  78
ATOM     78  C   UNL A   1      33.078  23.458  23.893  1.00  0.00     0.176 C 
ATOM     79  C   UNL A   1      31.728  23.476  24.609  1.00  0.00     0.080 C 
ATOM     80  C   UNL A   1      32.973  22.019  23.275  1.00  0.00     0.093 C 
ATOM     81  C   UNL A   1      31.558  22.121  25.240  1.00  0.00     0.022 C 
ATOM     82  C   UNL A   1      32.271  21.134  24.336  1.00  0.00     0.054 C 
BRANCH  78  83
ATOM     83  N   UNL A   1      34.296  23.371  24.726  1.00  0.00    -0.331 N 
ATOM     84  H   UNL A   1      34.331  22.399  25.033  1.00  0.00     0.347 HD
ATOM     85  H   UNL A   1      34.120  24.165  25.341  1.00  0.00     0.347 HD
BRANCH  83  86
ATOM     86  C   UNL A   1      35.661  23.685  24.349  1.00  0.00     0.183 C 
ATOM     87  C   UNL A   1      36.842  22.861  24.743  1.00  0.00     0.071 C 
ATOM     88  C   UNL A   1      36.442  22.979  23.294  1.00  0.00     0.071 C 
ENDBRANCH  83  86
ENDBRANCH  78  83
BRANCH  82  89
ATOM     89  S   UNL A   1      33.428  20.105  25.335  1.00  0.00    -0.155 SA
BRANCH  89  90
ATOM     90  C   UNL A   1      33.186  18.398  24.685  1.00  0.00     0.047 C 
ATOM     91  C   UNL A   1      34.339  17.734  23.929  1.00  0.00     0.014 C 
ATOM     92  C   UNL A   1      32.777  17.337  25.701  1.00  0.00     0.014 C 
ATOM     93  C   UNL A   1      33.869  16.296  23.758  1.00  0.00     0.001 C 
ATOM     94  C   UNL A   1      33.012  16.002  24.988  1.00  0.00     0.001 C 
ENDBRANCH  89  90
ENDBRANCH  82  89
ENDBRANCH  75  78
ENDBRANCH  73  74
ENDBRANCH  72  73
ENDBRANCH   1  72
TORSDOF 18
ENDMDL
