MODEL 1
REMARK VINA RESULT:     -12.4      0.000      0.000
REMARK SMILES O=C(CCc1cn(-c2ccc(Br)cc2)nc1-c1ccccc1)NCCCCNC(=O)c1ccc(-c2c3nc(c(-c4cc(S(=O)(=O)[O-])ccc4F)c4ccc([nH]4)c(-c4cc(S(=O)(=O)[O-])ccc4F)c4nc(c(-c5cc(S(=O)(=O)[O-])ccc5F)c5ccc2[nH]5)C=C4)C=C3)cc1
REMARK SMILES IDX 25 1 24 2 23 3 1 4 2 5 3 7 4 8 5 9 6 10 16 11 7 12 15 13
REMARK SMILES IDX 17 14 18 15 22 16 19 17 21 18 20 19 8 20 9 21 14 22 10 23
REMARK SMILES IDX 13 24 11 25 12 26 26 27 27 28 28 29 29 30 30 32 31 33 32 34
REMARK SMILES IDX 93 35 33 36 92 37 34 38 35 39 36 40 86 41 37 42 91 43 85 44
REMARK SMILES IDX 87 45 38 46 90 47 84 48 83 49 39 51 71 52 51 53 70 54 52 55
REMARK SMILES IDX 55 56 69 57 88 58 53 59 54 60 68 62 89 63 56 64 40 65 41 66
REMARK SMILES IDX 49 67 42 68 48 69 50 70 47 71 43 72 44 73 45 74 46 75 72 76
REMARK SMILES IDX 73 77 81 78 74 79 80 80 82 81 79 82 75 83 76 84 77 85 78 86
REMARK SMILES IDX 57 87 58 88 66 89 59 90 65 91 67 92 64 93 60 94 61 95 62 96
REMARK SMILES IDX 63 97
REMARK H PARENT 23 6 28 31 87 50 55 61
REMARK Flexibility Score: inf
ROOT
ATOM      1  C   UNL A   1      32.622  28.770  27.555  1.00  0.00     0.023 C 
ENDROOT
BRANCH   1   2
ATOM      2  C   UNL A   1      31.452  27.832  27.198  1.00  0.00     0.116 C 
BRANCH   2   3
ATOM      3  N   UNL A   1      31.872  26.515  26.738  1.00  0.00    -0.356 N 
ATOM      4  O   UNL A   1      29.881  25.962  25.771  1.00  0.00    -0.275 OA
ATOM      5  C   UNL A   1      31.046  25.667  26.039  1.00  0.00     0.220 C 
ATOM      6  H   UNL A   1      32.791  26.220  26.936  1.00  0.00     0.163 HD
BRANCH   5   7
ATOM      7  C   UNL A   1      31.566  24.264  25.718  1.00  0.00     0.105 C 
BRANCH   7   8
ATOM      8  C   UNL A   1      32.736  23.712  26.537  1.00  0.00     0.049 C 
BRANCH   8   9
ATOM      9  C   UNL A   1      33.979  23.411  25.761  1.00  0.00    -0.001 A 
ATOM     10  C   UNL A   1      34.853  22.356  25.949  1.00  0.00     0.119 A 
ATOM     11  C   UNL A   1      34.518  24.087  24.619  1.00  0.00     0.096 A 
ATOM     12  N   UNL A   1      35.967  22.622  25.197  1.00  0.00    -0.240 N 
ATOM     13  N   UNL A   1      35.773  23.673  24.379  1.00  0.00    -0.168 NA
BRANCH  11  14
ATOM     14  C   UNL A   1      33.854  25.031  23.717  1.00  0.00     0.002 A 
ATOM     15  C   UNL A   1      33.078  24.519  22.662  1.00  0.00     0.010 A 
ATOM     16  C   UNL A   1      33.889  26.413  23.915  1.00  0.00     0.010 A 
ATOM     17  C   UNL A   1      32.332  25.367  21.840  1.00  0.00     0.001 A 
ATOM     18  C   UNL A   1      33.123  27.258  23.103  1.00  0.00     0.001 A 
ATOM     19  C   UNL A   1      32.350  26.740  22.065  1.00  0.00     0.000 A 
ENDBRANCH  11  14
BRANCH  12  20
ATOM     20  C   UNL A   1      37.228  21.995  25.340  1.00  0.00     0.065 A 
ATOM     21  C   UNL A   1      37.439  20.689  24.887  1.00  0.00     0.029 A 
ATOM     22  C   UNL A   1      38.229  22.648  26.064  1.00  0.00     0.029 A 
ATOM     23  C   UNL A   1      38.640  20.040  25.184  1.00  0.00     0.018 A 
ATOM     24  C   UNL A   1      39.430  22.001  26.360  1.00  0.00     0.018 A 
ATOM     25  C   UNL A   1      39.621  20.691  25.934  1.00  0.00     0.018 A 
ATOM     26  Br  UNL A   1      41.187  19.763  26.437  1.00  0.00    -0.051 Br
ENDBRANCH  12  20
ENDBRANCH   8   9
ENDBRANCH   7   8
ENDBRANCH   5   7
ENDBRANCH   2   3
ENDBRANCH   1   2
BRANCH   1  27
ATOM     27  C   UNL A   1      33.768  28.862  26.539  1.00  0.00     0.023 C 
BRANCH  27  28
ATOM     28  C   UNL A   1      35.154  28.984  27.156  1.00  0.00     0.116 C 
BRANCH  28  29
ATOM     29  N   UNL A   1      35.246  29.760  28.385  1.00  0.00    -0.352 N 
ATOM     30  C   UNL A   1      36.298  29.733  29.303  1.00  0.00     0.251 C 
ATOM     31  H   UNL A   1      34.494  30.361  28.590  1.00  0.00     0.163 HD
ATOM     32  O   UNL A   1      36.146  30.171  30.431  1.00  0.00    -0.269 OA
BRANCH  30  33
ATOM     33  C   UNL A   1      37.599  29.142  28.880  1.00  0.00     0.039 A 
ATOM     34  C   UNL A   1      38.277  29.558  27.730  1.00  0.00     0.014 A 
ATOM     35  C   UNL A   1      38.170  28.175  29.697  1.00  0.00     0.014 A 
ATOM     36  C   UNL A   1      39.573  29.073  27.482  1.00  0.00     0.010 A 
ATOM     37  C   UNL A   1      39.494  27.828  29.542  1.00  0.00     0.010 A 
ATOM     38  C   UNL A   1      40.203  28.223  28.410  1.00  0.00    -0.014 A 
BRANCH  38  39
ATOM     39  C   UNL A   1      41.623  27.828  28.300  1.00  0.00     0.031 A 
ATOM     40  C   UNL A   1      41.864  26.558  27.547  1.00  0.00     0.074 A 
ATOM     41  C   UNL A   1      42.657  28.645  28.630  1.00  0.00     0.049 A 
ATOM     42  N   UNL A   1      42.075  25.371  28.019  1.00  0.00    -0.248 NA
ATOM     43  C   UNL A   1      41.650  26.564  26.094  1.00  0.00     0.031 C 
ATOM     44  C   UNL A   1      42.601  30.008  29.180  1.00  0.00     0.029 A 
ATOM     45  N   UNL A   1      44.002  28.468  28.458  1.00  0.00    -0.354 N 
ATOM     46  C   UNL A   1      42.288  24.554  26.905  1.00  0.00     0.074 A 
ATOM     47  C   UNL A   1      41.701  25.262  25.806  1.00  0.00     0.031 C 
ATOM     48  C   UNL A   1      43.809  30.607  29.076  1.00  0.00     0.029 A 
ATOM     49  C   UNL A   1      44.778  29.618  28.647  1.00  0.00     0.049 A 
ATOM     50  H   UNL A   1      44.394  27.596  28.221  1.00  0.00     0.167 HD
ATOM     51  C   UNL A   1      43.215  23.549  26.919  1.00  0.00     0.034 A 
ATOM     52  C   UNL A   1      46.129  29.749  28.530  1.00  0.00     0.034 A 
ATOM     53  C   UNL A   1      43.692  23.343  28.270  1.00  0.00     0.049 A 
ATOM     54  C   UNL A   1      46.684  28.395  28.717  1.00  0.00     0.074 A 
ATOM     55  C   UNL A   1      43.143  22.933  29.466  1.00  0.00     0.029 A 
ATOM     56  N   UNL A   1      44.876  23.970  28.583  1.00  0.00    -0.354 N 
ATOM     57  N   UNL A   1      46.597  27.749  29.846  1.00  0.00    -0.248 NA
ATOM     58  C   UNL A   1      46.928  27.568  27.547  1.00  0.00     0.031 C 
ATOM     59  C   UNL A   1      43.807  23.712  30.462  1.00  0.00     0.029 A 
ATOM     60  C   UNL A   1      44.790  24.489  29.847  1.00  0.00     0.049 A 
ATOM     61  H   UNL A   1      45.661  24.035  27.992  1.00  0.00     0.167 HD
ATOM     62  C   UNL A   1      46.308  26.446  29.482  1.00  0.00     0.074 A 
ATOM     63  C   UNL A   1      46.684  26.362  28.072  1.00  0.00     0.031 C 
ATOM     64  C   UNL A   1      45.528  25.661  30.283  1.00  0.00     0.034 A 
BRANCH  51  65
ATOM     65  C   UNL A   1      44.050  23.059  25.735  1.00  0.00     0.023 A 
ATOM     66  C   UNL A   1      44.115  21.660  25.542  1.00  0.00     0.031 A 
ATOM     67  C   UNL A   1      44.985  23.808  24.987  1.00  0.00     0.131 A 
ATOM     68  C   UNL A   1      45.141  21.070  24.780  1.00  0.00     0.055 A 
ATOM     69  C   UNL A   1      45.970  23.219  24.184  1.00  0.00     0.041 A 
ATOM     70  F   UNL A   1      45.063  25.139  25.034  1.00  0.00    -0.206 F 
ATOM     71  C   UNL A   1      46.078  21.843  24.106  1.00  0.00     0.022 A 
BRANCH  68  72
ATOM     72  S   UNL A   1      45.339  19.269  24.844  1.00  0.00     0.124 S 
ATOM     73  O   UNL A   1      44.324  18.899  25.824  1.00  0.00    -0.237 OA
ATOM     74  O   UNL A   1      45.075  18.889  23.461  1.00  0.00    -0.237 OA
ATOM     75  O   UNL A   1      46.722  19.098  25.284  1.00  0.00    -0.744 OA
ENDBRANCH  68  72
ENDBRANCH  51  65
BRANCH  52  76
ATOM     76  C   UNL A   1      46.956  30.903  28.076  1.00  0.00     0.023 A 
ATOM     77  C   UNL A   1      46.500  31.899  27.177  1.00  0.00     0.031 A 
ATOM     78  C   UNL A   1      48.152  31.182  28.770  1.00  0.00     0.131 A 
ATOM     79  C   UNL A   1      47.216  33.115  27.030  1.00  0.00     0.055 A 
ATOM     80  C   UNL A   1      48.846  32.386  28.624  1.00  0.00     0.041 A 
ATOM     81  F   UNL A   1      48.636  30.322  29.679  1.00  0.00    -0.206 F 
ATOM     82  C   UNL A   1      48.370  33.368  27.770  1.00  0.00     0.022 A 
BRANCH  79  83
ATOM     83  S   UNL A   1      46.630  34.434  25.910  1.00  0.00     0.124 S 
ATOM     84  O   UNL A   1      47.738  34.564  24.972  1.00  0.00    -0.237 OA
ATOM     85  O   UNL A   1      45.390  33.877  25.384  1.00  0.00    -0.237 OA
ATOM     86  O   UNL A   1      46.449  35.583  26.801  1.00  0.00    -0.744 OA
ENDBRANCH  79  83
ENDBRANCH  52  76
BRANCH  64  87
ATOM     87  C   UNL A   1      45.292  26.133  31.705  1.00  0.00     0.023 A 
ATOM     88  C   UNL A   1      44.127  26.787  32.171  1.00  0.00     0.031 A 
ATOM     89  C   UNL A   1      46.283  25.816  32.649  1.00  0.00     0.131 A 
ATOM     90  C   UNL A   1      43.996  27.107  33.538  1.00  0.00     0.055 A 
ATOM     91  C   UNL A   1      46.140  26.111  34.002  1.00  0.00     0.041 A 
ATOM     92  F   UNL A   1      47.402  25.177  32.271  1.00  0.00    -0.206 F 
ATOM     93  C   UNL A   1      44.998  26.764  34.452  1.00  0.00     0.022 A 
BRANCH  90  94
ATOM     94  S   UNL A   1      42.529  27.999  34.153  1.00  0.00     0.124 S 
ATOM     95  O   UNL A   1      41.932  27.066  35.101  1.00  0.00    -0.237 OA
ATOM     96  O   UNL A   1      43.109  29.210  34.729  1.00  0.00    -0.237 OA
ATOM     97  O   UNL A   1      41.736  28.226  32.942  1.00  0.00    -0.744 OA
ENDBRANCH  90  94
ENDBRANCH  64  87
ENDBRANCH  38  39
ENDBRANCH  30  33
ENDBRANCH  28  29
ENDBRANCH  27  28
ENDBRANCH   1  27
TORSDOF 18
ENDMDL
MODEL 2
REMARK VINA RESULT:     -12.4      3.240      8.342
REMARK SMILES O=C(CCc1cn(-c2ccc(Br)cc2)nc1-c1ccccc1)NCCCCNC(=O)c1ccc(-c2c3nc(c(-c4cc(S(=O)(=O)[O-])ccc4F)c4ccc([nH]4)c(-c4cc(S(=O)(=O)[O-])ccc4F)c4nc(c(-c5cc(S(=O)(=O)[O-])ccc5F)c5ccc2[nH]5)C=C4)C=C3)cc1
REMARK SMILES IDX 25 1 24 2 23 3 1 4 2 5 3 7 4 8 5 9 6 10 16 11 7 12 15 13
REMARK SMILES IDX 17 14 18 15 22 16 19 17 21 18 20 19 8 20 9 21 14 22 10 23
REMARK SMILES IDX 13 24 11 25 12 26 26 27 27 28 28 29 29 30 30 32 31 33 32 34
REMARK SMILES IDX 93 35 33 36 92 37 34 38 35 39 36 40 86 41 37 42 91 43 85 44
REMARK SMILES IDX 87 45 38 46 90 47 84 48 83 49 39 51 71 52 51 53 70 54 52 55
REMARK SMILES IDX 55 56 69 57 88 58 53 59 54 60 68 62 89 63 56 64 40 65 41 66
REMARK SMILES IDX 49 67 42 68 48 69 50 70 47 71 43 72 44 73 45 74 46 75 72 76
REMARK SMILES IDX 73 77 81 78 74 79 80 80 82 81 79 82 75 83 76 84 77 85 78 86
REMARK SMILES IDX 57 87 58 88 66 89 59 90 65 91 67 92 64 93 60 94 61 95 62 96
REMARK SMILES IDX 63 97
REMARK H PARENT 23 6 28 31 87 50 55 61
REMARK Flexibility Score: inf
ROOT
ATOM      1  C   UNL A   1      41.716  20.953  27.035  1.00  0.00     0.023 C 
ENDROOT
BRANCH   1   2
ATOM      2  C   UNL A   1      40.575  21.916  26.649  1.00  0.00     0.116 C 
BRANCH   2   3
ATOM      3  N   UNL A   1      39.604  21.340  25.729  1.00  0.00    -0.356 N 
ATOM      4  O   UNL A   1      37.973  22.888  26.115  1.00  0.00    -0.275 OA
ATOM      5  C   UNL A   1      38.358  21.881  25.519  1.00  0.00     0.220 C 
ATOM      6  H   UNL A   1      39.853  20.525  25.234  1.00  0.00     0.163 HD
BRANCH   5   7
ATOM      7  C   UNL A   1      37.386  21.115  24.620  1.00  0.00     0.105 C 
BRANCH   7   8
ATOM      8  C   UNL A   1      36.126  20.515  25.247  1.00  0.00     0.049 C 
BRANCH   8   9
ATOM      9  C   UNL A   1      34.830  20.974  24.654  1.00  0.00    -0.001 A 
ATOM     10  C   UNL A   1      34.561  22.194  24.063  1.00  0.00     0.119 A 
ATOM     11  C   UNL A   1      33.602  20.253  24.498  1.00  0.00     0.096 A 
ATOM     12  N   UNL A   1      33.203  22.269  23.904  1.00  0.00    -0.240 N 
ATOM     13  N   UNL A   1      32.608  21.090  24.162  1.00  0.00    -0.168 NA
BRANCH  11  14
ATOM     14  C   UNL A   1      33.374  18.808  24.572  1.00  0.00     0.002 A 
ATOM     15  C   UNL A   1      33.981  17.983  23.608  1.00  0.00     0.010 A 
ATOM     16  C   UNL A   1      32.654  18.211  25.608  1.00  0.00     0.010 A 
ATOM     17  C   UNL A   1      33.891  16.591  23.694  1.00  0.00     0.001 A 
ATOM     18  C   UNL A   1      32.584  16.816  25.702  1.00  0.00     0.001 A 
ATOM     19  C   UNL A   1      33.196  16.007  24.747  1.00  0.00     0.000 A 
ENDBRANCH  11  14
BRANCH  12  20
ATOM     20  C   UNL A   1      32.466  23.451  23.652  1.00  0.00     0.065 A 
ATOM     21  C   UNL A   1      33.082  24.707  23.698  1.00  0.00     0.029 A 
ATOM     22  C   UNL A   1      31.081  23.364  23.489  1.00  0.00     0.029 A 
ATOM     23  C   UNL A   1      32.302  25.863  23.604  1.00  0.00     0.018 A 
ATOM     24  C   UNL A   1      30.302  24.518  23.393  1.00  0.00     0.018 A 
ATOM     25  C   UNL A   1      30.916  25.763  23.471  1.00  0.00     0.018 A 
ATOM     26  Br  UNL A   1      29.860  27.328  23.471  1.00  0.00    -0.051 Br
ENDBRANCH  12  20
ENDBRANCH   8   9
ENDBRANCH   7   8
ENDBRANCH   5   7
ENDBRANCH   2   3
ENDBRANCH   1   2
BRANCH   1  27
ATOM     27  C   UNL A   1      41.973  19.774  26.088  1.00  0.00     0.023 C 
BRANCH  27  28
ATOM     28  C   UNL A   1      43.395  19.233  26.120  1.00  0.00     0.116 C 
BRANCH  28  29
ATOM     29  N   UNL A   1      44.077  19.137  24.836  1.00  0.00    -0.352 N 
ATOM     30  C   UNL A   1      44.518  20.205  24.053  1.00  0.00     0.251 C 
ATOM     31  H   UNL A   1      44.243  18.232  24.487  1.00  0.00     0.163 HD
ATOM     32  O   UNL A   1      44.790  20.038  22.876  1.00  0.00    -0.269 OA
BRANCH  30  33
ATOM     33  C   UNL A   1      44.627  21.552  24.680  1.00  0.00     0.039 A 
ATOM     34  C   UNL A   1      43.787  22.615  24.333  1.00  0.00     0.014 A 
ATOM     35  C   UNL A   1      45.575  21.730  25.680  1.00  0.00     0.014 A 
ATOM     36  C   UNL A   1      43.840  23.806  25.078  1.00  0.00     0.010 A 
ATOM     37  C   UNL A   1      45.513  22.829  26.508  1.00  0.00     0.010 A 
ATOM     38  C   UNL A   1      44.689  23.907  26.196  1.00  0.00    -0.014 A 
BRANCH  38  39
ATOM     39  C   UNL A   1      44.658  25.056  27.125  1.00  0.00     0.031 A 
ATOM     40  C   UNL A   1      45.819  25.991  27.005  1.00  0.00     0.074 A 
ATOM     41  C   UNL A   1      43.570  25.395  27.864  1.00  0.00     0.049 A 
ATOM     42  N   UNL A   1      46.884  26.050  27.739  1.00  0.00    -0.248 NA
ATOM     43  C   UNL A   1      45.907  26.836  25.806  1.00  0.00     0.031 C 
ATOM     44  C   UNL A   1      42.270  24.710  27.938  1.00  0.00     0.029 A 
ATOM     45  N   UNL A   1      43.353  26.490  28.653  1.00  0.00    -0.354 N 
ATOM     46  C   UNL A   1      47.628  27.123  27.240  1.00  0.00     0.074 A 
ATOM     47  C   UNL A   1      47.144  27.325  25.907  1.00  0.00     0.031 C 
ATOM     48  C   UNL A   1      41.348  25.510  28.520  1.00  0.00     0.029 A 
ATOM     49  C   UNL A   1      42.023  26.679  29.050  1.00  0.00     0.049 A 
ATOM     50  H   UNL A   1      44.078  27.100  28.922  1.00  0.00     0.167 HD
ATOM     51  C   UNL A   1      48.320  27.962  28.069  1.00  0.00     0.034 A 
ATOM     52  C   UNL A   1      41.509  27.681  29.817  1.00  0.00     0.034 A 
ATOM     53  C   UNL A   1      48.351  27.412  29.407  1.00  0.00     0.049 A 
ATOM     54  C   UNL A   1      42.640  28.209  30.604  1.00  0.00     0.074 A 
ATOM     55  C   UNL A   1      48.877  26.288  30.009  1.00  0.00     0.029 A 
ATOM     56  N   UNL A   1      47.402  27.904  30.273  1.00  0.00    -0.354 N 
ATOM     57  N   UNL A   1      43.259  27.502  31.507  1.00  0.00    -0.248 NA
ATOM     58  C   UNL A   1      43.386  29.344  30.087  1.00  0.00     0.031 C 
ATOM     59  C   UNL A   1      47.918  25.918  31.000  1.00  0.00     0.029 A 
ATOM     60  C   UNL A   1      46.902  26.876  31.027  1.00  0.00     0.049 A 
ATOM     61  H   UNL A   1      47.125  28.847  30.339  1.00  0.00     0.167 HD
ATOM     62  C   UNL A   1      44.597  27.805  31.332  1.00  0.00     0.074 A 
ATOM     63  C   UNL A   1      44.600  29.052  30.568  1.00  0.00     0.031 C 
ATOM     64  C   UNL A   1      45.558  26.864  31.574  1.00  0.00     0.034 A 
BRANCH  51  65
ATOM     65  C   UNL A   1      48.573  29.455  27.855  1.00  0.00     0.023 A 
ATOM     66  C   UNL A   1      47.433  30.290  27.807  1.00  0.00     0.031 A 
ATOM     67  C   UNL A   1      49.773  30.060  27.421  1.00  0.00     0.131 A 
ATOM     68  C   UNL A   1      47.483  31.569  27.221  1.00  0.00     0.055 A 
ATOM     69  C   UNL A   1      49.829  31.356  26.891  1.00  0.00     0.041 A 
ATOM     70  F   UNL A   1      50.949  29.429  27.408  1.00  0.00    -0.206 F 
ATOM     71  C   UNL A   1      48.675  32.104  26.752  1.00  0.00     0.022 A 
BRANCH  68  72
ATOM     72  S   UNL A   1      45.923  32.440  26.912  1.00  0.00     0.124 S 
ATOM     73  O   UNL A   1      45.638  32.048  25.536  1.00  0.00    -0.237 OA
ATOM     74  O   UNL A   1      45.056  31.876  27.940  1.00  0.00    -0.237 OA
ATOM     75  O   UNL A   1      46.279  33.844  27.099  1.00  0.00    -0.744 OA
ENDBRANCH  68  72
ENDBRANCH  51  65
BRANCH  52  76
ATOM     76  C   UNL A   1      40.176  28.346  29.779  1.00  0.00     0.023 A 
ATOM     77  C   UNL A   1      39.360  28.552  30.919  1.00  0.00     0.031 A 
ATOM     78  C   UNL A   1      39.815  29.051  28.611  1.00  0.00     0.131 A 
ATOM     79  C   UNL A   1      38.263  29.450  30.865  1.00  0.00     0.055 A 
ATOM     80  C   UNL A   1      38.737  29.940  28.571  1.00  0.00     0.041 A 
ATOM     81  F   UNL A   1      40.555  28.960  27.496  1.00  0.00    -0.206 F 
ATOM     82  C   UNL A   1      37.969  30.160  29.702  1.00  0.00     0.022 A 
BRANCH  79  83
ATOM     83  S   UNL A   1      37.219  29.766  32.331  1.00  0.00     0.124 S 
ATOM     84  O   UNL A   1      35.938  30.120  31.732  1.00  0.00    -0.237 OA
ATOM     85  O   UNL A   1      37.279  28.496  33.044  1.00  0.00    -0.237 OA
ATOM     86  O   UNL A   1      37.903  30.873  33.004  1.00  0.00    -0.744 OA
ENDBRANCH  79  83
ENDBRANCH  52  76
BRANCH  64  87
ATOM     87  C   UNL A   1      45.144  25.632  32.356  1.00  0.00     0.023 A 
ATOM     88  C   UNL A   1      45.029  25.554  33.765  1.00  0.00     0.031 A 
ATOM     89  C   UNL A   1      44.767  24.505  31.609  1.00  0.00     0.131 A 
ATOM     90  C   UNL A   1      44.558  24.370  34.369  1.00  0.00     0.055 A 
ATOM     91  C   UNL A   1      44.279  23.346  32.206  1.00  0.00     0.041 A 
ATOM     92  F   UNL A   1      44.835  24.526  30.267  1.00  0.00    -0.206 F 
ATOM     93  C   UNL A   1      44.178  23.272  33.591  1.00  0.00     0.022 A 
BRANCH  90  94
ATOM     94  S   UNL A   1      44.453  24.225  36.185  1.00  0.00     0.124 S 
ATOM     95  O   UNL A   1      43.047  24.486  36.469  1.00  0.00    -0.237 OA
ATOM     96  O   UNL A   1      44.909  22.859  36.424  1.00  0.00    -0.237 OA
ATOM     97  O   UNL A   1      45.372  25.262  36.663  1.00  0.00    -0.744 OA
ENDBRANCH  90  94
ENDBRANCH  64  87
ENDBRANCH  38  39
ENDBRANCH  30  33
ENDBRANCH  28  29
ENDBRANCH  27  28
ENDBRANCH   1  27
TORSDOF 18
ENDMDL
MODEL 3
REMARK VINA RESULT:     -11.9      2.259      3.851
REMARK SMILES O=C(CCc1cn(-c2ccc(Br)cc2)nc1-c1ccccc1)NCCCCNC(=O)c1ccc(-c2c3nc(c(-c4cc(S(=O)(=O)[O-])ccc4F)c4ccc([nH]4)c(-c4cc(S(=O)(=O)[O-])ccc4F)c4nc(c(-c5cc(S(=O)(=O)[O-])ccc5F)c5ccc2[nH]5)C=C4)C=C3)cc1
REMARK SMILES IDX 25 1 24 2 23 3 1 4 2 5 3 7 4 8 5 9 6 10 16 11 7 12 15 13
REMARK SMILES IDX 17 14 18 15 22 16 19 17 21 18 20 19 8 20 9 21 14 22 10 23
REMARK SMILES IDX 13 24 11 25 12 26 26 27 27 28 28 29 29 30 30 32 31 33 32 34
REMARK SMILES IDX 93 35 33 36 92 37 34 38 35 39 36 40 86 41 37 42 91 43 85 44
REMARK SMILES IDX 87 45 38 46 90 47 84 48 83 49 39 51 71 52 51 53 70 54 52 55
REMARK SMILES IDX 55 56 69 57 88 58 53 59 54 60 68 62 89 63 56 64 40 65 41 66
REMARK SMILES IDX 49 67 42 68 48 69 50 70 47 71 43 72 44 73 45 74 46 75 72 76
REMARK SMILES IDX 73 77 81 78 74 79 80 80 82 81 79 82 75 83 76 84 77 85 78 86
REMARK SMILES IDX 57 87 58 88 66 89 59 90 65 91 67 92 64 93 60 94 61 95 62 96
REMARK SMILES IDX 63 97
REMARK H PARENT 23 6 28 31 87 50 55 61
REMARK Flexibility Score: inf
ROOT
ATOM      1  C   UNL A   1      35.892  33.014  28.816  1.00  0.00     0.023 C 
ENDROOT
BRANCH   1   2
ATOM      2  C   UNL A   1      34.426  33.206  28.380  1.00  0.00     0.116 C 
BRANCH   2   3
ATOM      3  N   UNL A   1      33.824  32.016  27.796  1.00  0.00    -0.356 N 
ATOM      4  O   UNL A   1      31.847  33.008  27.236  1.00  0.00    -0.275 OA
ATOM      5  C   UNL A   1      32.561  32.006  27.250  1.00  0.00     0.220 C 
ATOM      6  H   UNL A   1      34.345  31.180  27.791  1.00  0.00     0.163 HD
BRANCH   5   7
ATOM      7  C   UNL A   1      31.997  30.665  26.778  1.00  0.00     0.105 C 
BRANCH   7   8
ATOM      8  C   UNL A   1      32.053  30.331  25.285  1.00  0.00     0.049 C 
BRANCH   8   9
ATOM      9  C   UNL A   1      31.344  29.078  24.878  1.00  0.00    -0.001 A 
ATOM     10  C   UNL A   1      31.460  27.823  25.446  1.00  0.00     0.119 A 
ATOM     11  C   UNL A   1      30.345  28.892  23.868  1.00  0.00     0.096 A 
ATOM     12  N   UNL A   1      30.838  26.943  24.600  1.00  0.00    -0.240 N 
ATOM     13  N   UNL A   1      30.152  27.584  23.637  1.00  0.00    -0.168 NA
BRANCH  11  14
ATOM     14  C   UNL A   1      29.526  29.902  23.195  1.00  0.00     0.002 A 
ATOM     15  C   UNL A   1      29.086  31.013  23.937  1.00  0.00     0.010 A 
ATOM     16  C   UNL A   1      29.239  29.853  21.829  1.00  0.00     0.010 A 
ATOM     17  C   UNL A   1      28.398  32.062  23.323  1.00  0.00     0.001 A 
ATOM     18  C   UNL A   1      28.568  30.916  21.214  1.00  0.00     0.001 A 
ATOM     19  C   UNL A   1      28.144  32.016  21.957  1.00  0.00     0.000 A 
ENDBRANCH  11  14
BRANCH  12  20
ATOM     20  C   UNL A   1      30.997  25.537  24.611  1.00  0.00     0.065 A 
ATOM     21  C   UNL A   1      30.557  24.771  25.696  1.00  0.00     0.029 A 
ATOM     22  C   UNL A   1      31.722  24.929  23.583  1.00  0.00     0.029 A 
ATOM     23  C   UNL A   1      30.868  23.410  25.753  1.00  0.00     0.018 A 
ATOM     24  C   UNL A   1      32.032  23.570  23.638  1.00  0.00     0.018 A 
ATOM     25  C   UNL A   1      31.619  22.821  24.734  1.00  0.00     0.018 A 
ATOM     26  Br  UNL A   1      32.142  21.012  24.882  1.00  0.00    -0.051 Br
ENDBRANCH  12  20
ENDBRANCH   8   9
ENDBRANCH   7   8
ENDBRANCH   5   7
ENDBRANCH   2   3
ENDBRANCH   1   2
BRANCH   1  27
ATOM     27  C   UNL A   1      36.131  32.619  30.279  1.00  0.00     0.023 C 
BRANCH  27  28
ATOM     28  C   UNL A   1      36.286  31.123  30.515  1.00  0.00     0.116 C 
BRANCH  28  29
ATOM     29  N   UNL A   1      35.586  30.248  29.585  1.00  0.00    -0.352 N 
ATOM     30  C   UNL A   1      36.173  29.443  28.607  1.00  0.00     0.251 C 
ATOM     31  H   UNL A   1      34.605  30.221  29.651  1.00  0.00     0.163 HD
ATOM     32  O   UNL A   1      35.504  28.994  27.691  1.00  0.00    -0.269 OA
BRANCH  30  33
ATOM     33  C   UNL A   1      37.633  29.161  28.697  1.00  0.00     0.039 A 
ATOM     34  C   UNL A   1      38.181  28.327  29.677  1.00  0.00     0.014 A 
ATOM     35  C   UNL A   1      38.464  29.716  27.732  1.00  0.00     0.014 A 
ATOM     36  C   UNL A   1      39.540  27.977  29.602  1.00  0.00     0.010 A 
ATOM     37  C   UNL A   1      39.748  29.246  27.567  1.00  0.00     0.010 A 
ATOM     38  C   UNL A   1      40.328  28.415  28.521  1.00  0.00    -0.014 A 
BRANCH  38  39
ATOM     39  C   UNL A   1      41.706  27.934  28.287  1.00  0.00     0.031 A 
ATOM     40  C   UNL A   1      41.800  26.623  27.574  1.00  0.00     0.074 A 
ATOM     41  C   UNL A   1      42.810  28.703  28.471  1.00  0.00     0.049 A 
ATOM     42  N   UNL A   1      41.995  25.446  28.077  1.00  0.00    -0.248 NA
ATOM     43  C   UNL A   1      41.436  26.580  26.151  1.00  0.00     0.031 C 
ATOM     44  C   UNL A   1      42.885  30.088  28.959  1.00  0.00     0.029 A 
ATOM     45  N   UNL A   1      44.119  28.441  28.172  1.00  0.00    -0.354 N 
ATOM     46  C   UNL A   1      42.047  24.572  26.987  1.00  0.00     0.074 A 
ATOM     47  C   UNL A   1      41.388  25.267  25.921  1.00  0.00     0.031 C 
ATOM     48  C   UNL A   1      44.105  30.612  28.705  1.00  0.00     0.029 A 
ATOM     49  C   UNL A   1      44.971  29.552  28.226  1.00  0.00     0.049 A 
ATOM     50  H   UNL A   1      44.438  27.539  27.938  1.00  0.00     0.167 HD
ATOM     51  C   UNL A   1      42.916  23.517  26.955  1.00  0.00     0.034 A 
ATOM     52  C   UNL A   1      46.308  29.599  27.968  1.00  0.00     0.034 A 
ATOM     53  C   UNL A   1      43.518  23.339  28.259  1.00  0.00     0.049 A 
ATOM     54  C   UNL A   1      46.806  28.224  28.162  1.00  0.00     0.074 A 
ATOM     55  C   UNL A   1      43.075  23.012  29.523  1.00  0.00     0.029 A 
ATOM     56  N   UNL A   1      44.760  23.909  28.421  1.00  0.00    -0.354 N 
ATOM     57  N   UNL A   1      46.802  27.632  29.323  1.00  0.00    -0.248 NA
ATOM     58  C   UNL A   1      46.883  27.337  27.013  1.00  0.00     0.031 C 
ATOM     59  C   UNL A   1      43.880  23.792  30.409  1.00  0.00     0.029 A 
ATOM     60  C   UNL A   1      44.834  24.485  29.661  1.00  0.00     0.049 A 
ATOM     61  H   UNL A   1      45.482  23.904  27.750  1.00  0.00     0.167 HD
ATOM     62  C   UNL A   1      46.408  26.334  29.052  1.00  0.00     0.074 A 
ATOM     63  C   UNL A   1      46.631  26.169  27.616  1.00  0.00     0.031 C 
ATOM     64  C   UNL A   1      45.674  25.629  29.964  1.00  0.00     0.034 A 
BRANCH  51  65
ATOM     65  C   UNL A   1      43.596  22.930  25.717  1.00  0.00     0.023 A 
ATOM     66  C   UNL A   1      43.656  21.520  25.635  1.00  0.00     0.031 A 
ATOM     67  C   UNL A   1      44.413  23.616  24.792  1.00  0.00     0.131 A 
ATOM     68  C   UNL A   1      44.582  20.871  24.798  1.00  0.00     0.055 A 
ATOM     69  C   UNL A   1      45.294  22.964  23.919  1.00  0.00     0.041 A 
ATOM     70  F   UNL A   1      44.476  24.947  24.716  1.00  0.00    -0.206 F 
ATOM     71  C   UNL A   1      45.412  21.587  23.944  1.00  0.00     0.022 A 
BRANCH  68  72
ATOM     72  S   UNL A   1      44.815  19.083  24.986  1.00  0.00     0.124 S 
ATOM     73  O   UNL A   1      43.619  18.712  25.736  1.00  0.00    -0.237 OA
ATOM     74  O   UNL A   1      44.874  18.640  23.599  1.00  0.00    -0.237 OA
ATOM     75  O   UNL A   1      46.070  18.983  25.727  1.00  0.00    -0.744 OA
ENDBRANCH  68  72
ENDBRANCH  51  65
BRANCH  52  76
ATOM     76  C   UNL A   1      47.143  30.683  27.378  1.00  0.00     0.023 A 
ATOM     77  C   UNL A   1      46.618  31.884  26.839  1.00  0.00     0.031 A 
ATOM     78  C   UNL A   1      48.535  30.651  27.604  1.00  0.00     0.131 A 
ATOM     79  C   UNL A   1      47.471  32.988  26.580  1.00  0.00     0.055 A 
ATOM     80  C   UNL A   1      49.366  31.747  27.354  1.00  0.00     0.041 A 
ATOM     81  F   UNL A   1      49.118  29.577  28.159  1.00  0.00    -0.206 F 
ATOM     82  C   UNL A   1      48.835  32.928  26.861  1.00  0.00     0.022 A 
BRANCH  79  83
ATOM     83  S   UNL A   1      46.816  34.563  25.924  1.00  0.00     0.124 S 
ATOM     84  O   UNL A   1      45.742  34.114  25.047  1.00  0.00    -0.237 OA
ATOM     85  O   UNL A   1      46.418  35.270  27.135  1.00  0.00    -0.237 OA
ATOM     86  O   UNL A   1      47.965  35.148  25.230  1.00  0.00    -0.744 OA
ENDBRANCH  79  83
ENDBRANCH  52  76
BRANCH  64  87
ATOM     87  C   UNL A   1      45.614  26.172  31.379  1.00  0.00     0.023 A 
ATOM     88  C   UNL A   1      44.498  26.820  31.962  1.00  0.00     0.031 A 
ATOM     89  C   UNL A   1      46.730  25.936  32.196  1.00  0.00     0.131 A 
ATOM     90  C   UNL A   1      44.539  27.211  33.316  1.00  0.00     0.055 A 
ATOM     91  C   UNL A   1      46.759  26.301  33.539  1.00  0.00     0.041 A 
ATOM     92  F   UNL A   1      47.811  25.307  31.704  1.00  0.00    -0.206 F 
ATOM     93  C   UNL A   1      45.665  26.946  34.104  1.00  0.00     0.022 A 
BRANCH  90  94
ATOM     94  S   UNL A   1      43.137  28.096  34.076  1.00  0.00     0.124 S 
ATOM     95  O   UNL A   1      42.520  27.091  34.933  1.00  0.00    -0.237 OA
ATOM     96  O   UNL A   1      43.792  29.205  34.764  1.00  0.00    -0.237 OA
ATOM     97  O   UNL A   1      42.322  28.496  32.925  1.00  0.00    -0.744 OA
ENDBRANCH  90  94
ENDBRANCH  64  87
ENDBRANCH  38  39
ENDBRANCH  30  33
ENDBRANCH  28  29
ENDBRANCH  27  28
ENDBRANCH   1  27
TORSDOF 18
ENDMDL
