MODEL 1
REMARK VINA RESULT:      -9.8      0.000      0.000
REMARK SMILES O=C(Cn1c(=O)[nH]c2ccccc2c1=O)NC[C@H]1CC[C@@H](C(=O)N2CCC(C(=O)NCCCCNC(=O)c3ccc(-c4c5nc(c(-c6cc(S(=O)(=O)[O-])ccc6F)c6ccc([nH]6)c(-c6cc(S(=O)(=O)[O-])ccc6F)c6nc(c(-c7cc(S(=O)(=O)[O-])ccc7F)c7ccc4[nH]7)C=C6)C=C5)cc3)CC2)CC1
REMARK SMILES IDX 31 1 30 2 28 3 29 4 27 6 22 7 23 8 24 9 25 10 102 11 26 12
REMARK SMILES IDX 101 13 21 14 18 15 19 16 104 17 20 18 103 19 17 20 16 21
REMARK SMILES IDX 1 22 2 23 3 25 4 26 5 27 14 28 6 29 7 30 13 31 15 32 8 33
REMARK SMILES IDX 12 35 9 36 11 37 10 38 32 39 33 40 34 41 35 42 36 43 37 45
REMARK SMILES IDX 38 46 39 47 100 48 40 49 99 50 41 51 42 52 43 53 93 54 44 55
REMARK SMILES IDX 98 56 92 57 94 58 45 59 97 60 91 61 90 62 46 64 78 65 58 66
REMARK SMILES IDX 77 67 59 68 62 69 76 70 95 71 60 72 61 73 75 75 96 76 63 77
REMARK SMILES IDX 47 78 48 79 56 80 49 81 55 82 57 83 54 84 50 85 51 86 52 87
REMARK SMILES IDX 53 88 79 89 80 90 88 91 81 92 87 93 89 94 86 95 82 96 83 97
REMARK SMILES IDX 84 98 85 99 64 100 65 101 73 102 66 103 72 104 74 105 71 106
REMARK SMILES IDX 67 107 68 108 69 109 70 110
REMARK H PARENT 30 5 16 24 7 34 35 44 94 63 62 74
REMARK Flexibility Score: inf
ROOT
ATOM      1  C   UNL A   1      39.587  35.260  39.247  1.00  0.00     0.116 C 
ENDROOT
BRANCH   1   2
ATOM      2  N   UNL A   1      39.659  35.993  37.989  1.00  0.00    -0.356 N 
ATOM      3  C   UNL A   1      39.400  35.583  36.714  1.00  0.00     0.223 C 
ATOM      4  O   UNL A   1      39.521  36.393  35.794  1.00  0.00    -0.275 OA
ATOM      5  H   UNL A   1      39.937  36.934  38.073  1.00  0.00     0.163 HD
BRANCH   3   6
ATOM      6  C   UNL A   1      38.958  34.155  36.433  1.00  0.00     0.082 C 
ATOM      7  C   UNL A   1      38.782  31.934  32.905  1.00  0.00     0.225 C 
ATOM      8  O   UNL A   1      38.232  32.660  32.066  1.00  0.00    -0.275 OA
ATOM      9  N   UNL A   1      38.760  32.289  34.238  1.00  0.00    -0.342 N 
ATOM     10  C   UNL A   1      37.530  32.837  34.786  1.00  0.00     0.120 C 
ATOM     11  C   UNL A   1      39.835  32.084  35.182  1.00  0.00     0.120 C 
ATOM     12  C   UNL A   1      37.743  34.152  35.498  1.00  0.00     0.035 C 
ATOM     13  C   UNL A   1      40.167  33.314  36.010  1.00  0.00     0.035 C 
BRANCH   7  14
ATOM     14  C   UNL A   1      39.191  30.506  32.478  1.00  0.00     0.078 C 
ATOM     15  C   UNL A   1      38.554  29.758  29.624  1.00  0.00     0.008 C 
ATOM     16  C   UNL A   1      39.580  30.830  30.000  1.00  0.00     0.006 C 
ATOM     17  C   UNL A   1      37.626  29.306  30.765  1.00  0.00     0.006 C 
ATOM     18  C   UNL A   1      40.226  30.588  31.352  1.00  0.00     0.014 C 
ATOM     19  C   UNL A   1      38.164  29.415  32.194  1.00  0.00     0.014 C 
BRANCH  15  20
ATOM     20  C   UNL A   1      37.730  30.266  28.431  1.00  0.00     0.119 C 
BRANCH  20  21
ATOM     21  N   UNL A   1      36.442  30.766  28.839  1.00  0.00    -0.354 N 
ATOM     22  O   UNL A   1      36.907  33.010  28.619  1.00  0.00    -0.273 OA
ATOM     23  C   UNL A   1      36.105  32.108  28.842  1.00  0.00     0.240 C 
ATOM     24  H   UNL A   1      35.762  30.117  29.132  1.00  0.00     0.163 HD
BRANCH  23  25
ATOM     25  C   UNL A   1      34.597  32.338  28.987  1.00  0.00     0.230 C 
BRANCH  25  26
ATOM     26  N   UNL A   1      34.400  33.213  30.138  1.00  0.00    -0.250 N 
ATOM     27  C   UNL A   1      34.833  32.792  31.381  1.00  0.00     0.329 A 
ATOM     28  C   UNL A   1      33.692  34.393  29.932  1.00  0.00     0.264 A 
ATOM     29  O   UNL A   1      35.279  31.671  31.617  1.00  0.00    -0.248 OA
ATOM     30  N   UNL A   1      34.704  33.687  32.409  1.00  0.00    -0.307 N 
ATOM     31  C   UNL A   1      33.755  35.393  31.008  1.00  0.00     0.064 A 
ATOM     32  O   UNL A   1      33.047  34.642  28.913  1.00  0.00    -0.268 OA
ATOM     33  C   UNL A   1      34.235  34.988  32.247  1.00  0.00     0.055 A 
ATOM     34  H   UNL A   1      34.957  33.394  33.314  1.00  0.00     0.171 HD
ATOM     35  C   UNL A   1      33.360  36.716  30.792  1.00  0.00     0.016 A 
ATOM     36  C   UNL A   1      34.268  35.891  33.308  1.00  0.00     0.027 A 
ATOM     37  C   UNL A   1      33.428  37.630  31.841  1.00  0.00     0.001 A 
ATOM     38  C   UNL A   1      33.867  37.214  33.100  1.00  0.00     0.002 A 
ENDBRANCH  25  26
ENDBRANCH  23  25
ENDBRANCH  20  21
ENDBRANCH  15  20
ENDBRANCH   7  14
ENDBRANCH   3   6
ENDBRANCH   1   2
BRANCH   1  39
ATOM     39  C   UNL A   1      40.912  35.268  40.002  1.00  0.00     0.023 C 
BRANCH  39  40
ATOM     40  C   UNL A   1      41.914  34.225  39.527  1.00  0.00     0.023 C 
BRANCH  40  41
ATOM     41  C   UNL A   1      43.369  34.567  39.811  1.00  0.00     0.116 C 
BRANCH  41  42
ATOM     42  N   UNL A   1      43.629  35.998  39.879  1.00  0.00    -0.352 N 
ATOM     43  C   UNL A   1      43.983  36.845  38.848  1.00  0.00     0.251 C 
ATOM     44  H   UNL A   1      43.543  36.412  40.769  1.00  0.00     0.163 HD
ATOM     45  O   UNL A   1      44.260  38.012  39.057  1.00  0.00    -0.269 OA
BRANCH  43  46
ATOM     46  C   UNL A   1      44.065  36.270  37.488  1.00  0.00     0.039 A 
ATOM     47  C   UNL A   1      42.962  36.352  36.636  1.00  0.00     0.014 A 
ATOM     48  C   UNL A   1      45.191  35.526  37.132  1.00  0.00     0.014 A 
ATOM     49  C   UNL A   1      42.909  35.531  35.518  1.00  0.00     0.010 A 
ATOM     50  C   UNL A   1      45.170  34.775  35.954  1.00  0.00     0.010 A 
ATOM     51  C   UNL A   1      44.007  34.725  35.169  1.00  0.00    -0.014 A 
BRANCH  51  52
ATOM     52  C   UNL A   1      43.908  33.836  33.981  1.00  0.00     0.031 A 
ATOM     53  C   UNL A   1      44.087  34.378  32.588  1.00  0.00     0.074 A 
ATOM     54  C   UNL A   1      43.707  32.518  34.175  1.00  0.00     0.049 A 
ATOM     55  N   UNL A   1      44.039  33.738  31.448  1.00  0.00    -0.248 NA
ATOM     56  C   UNL A   1      44.351  35.820  32.450  1.00  0.00     0.031 C 
ATOM     57  C   UNL A   1      43.527  31.887  35.483  1.00  0.00     0.029 A 
ATOM     58  N   UNL A   1      43.644  31.472  33.289  1.00  0.00    -0.354 N 
ATOM     59  C   UNL A   1      44.244  34.695  30.460  1.00  0.00     0.074 A 
ATOM     60  C   UNL A   1      44.392  35.967  31.132  1.00  0.00     0.031 C 
ATOM     61  C   UNL A   1      43.425  30.562  35.320  1.00  0.00     0.029 A 
ATOM     62  C   UNL A   1      43.452  30.251  33.894  1.00  0.00     0.049 A 
ATOM     63  H   UNL A   1      43.728  31.584  32.315  1.00  0.00     0.167 HD
ATOM     64  C   UNL A   1      44.316  34.522  29.119  1.00  0.00     0.034 A 
ATOM     65  C   UNL A   1      43.294  29.020  33.366  1.00  0.00     0.034 A 
ATOM     66  C   UNL A   1      44.198  33.241  28.467  1.00  0.00     0.049 A 
ATOM     67  C   UNL A   1      43.371  28.860  31.872  1.00  0.00     0.074 A 
ATOM     68  C   UNL A   1      44.279  32.963  27.114  1.00  0.00     0.029 A 
ATOM     69  N   UNL A   1      43.993  32.031  29.112  1.00  0.00    -0.354 N 
ATOM     70  N   UNL A   1      43.597  29.773  30.957  1.00  0.00    -0.248 NA
ATOM     71  C   UNL A   1      43.174  27.508  31.332  1.00  0.00     0.031 C 
ATOM     72  C   UNL A   1      44.071  31.596  26.935  1.00  0.00     0.029 A 
ATOM     73  C   UNL A   1      43.925  31.007  28.181  1.00  0.00     0.049 A 
ATOM     74  H   UNL A   1      43.908  31.916  30.086  1.00  0.00     0.167 HD
ATOM     75  C   UNL A   1      43.580  29.106  29.736  1.00  0.00     0.074 A 
ATOM     76  C   UNL A   1      43.358  27.706  30.032  1.00  0.00     0.031 C 
ATOM     77  C   UNL A   1      43.722  29.611  28.487  1.00  0.00     0.034 A 
BRANCH  64  78
ATOM     78  C   UNL A   1      44.551  35.723  28.237  1.00  0.00     0.023 A 
ATOM     79  C   UNL A   1      45.865  36.100  27.897  1.00  0.00     0.031 A 
ATOM     80  C   UNL A   1      43.499  36.581  27.876  1.00  0.00     0.131 A 
ATOM     81  C   UNL A   1      46.095  37.325  27.258  1.00  0.00     0.055 A 
ATOM     82  C   UNL A   1      43.729  37.783  27.204  1.00  0.00     0.041 A 
ATOM     83  F   UNL A   1      42.229  36.265  28.177  1.00  0.00    -0.206 F 
ATOM     84  C   UNL A   1      45.035  38.165  26.905  1.00  0.00     0.022 A 
BRANCH  81  85
ATOM     85  S   UNL A   1      47.780  37.903  26.916  1.00  0.00     0.124 S 
ATOM     86  O   UNL A   1      48.576  36.721  27.243  1.00  0.00    -0.237 OA
ATOM     87  O   UNL A   1      47.707  38.231  25.495  1.00  0.00    -0.237 OA
ATOM     88  O   UNL A   1      47.954  39.035  27.819  1.00  0.00    -0.744 OA
ENDBRANCH  81  85
ENDBRANCH  64  78
BRANCH  65  89
ATOM     89  C   UNL A   1      43.079  27.862  34.282  1.00  0.00     0.023 A 
ATOM     90  C   UNL A   1      44.172  27.193  34.862  1.00  0.00     0.031 A 
ATOM     91  C   UNL A   1      41.794  27.337  34.497  1.00  0.00     0.131 A 
ATOM     92  C   UNL A   1      43.968  25.996  35.561  1.00  0.00     0.055 A 
ATOM     93  C   UNL A   1      41.588  26.187  35.260  1.00  0.00     0.041 A 
ATOM     94  F   UNL A   1      40.721  27.932  33.952  1.00  0.00    -0.206 F 
ATOM     95  C   UNL A   1      42.680  25.498  35.778  1.00  0.00     0.022 A 
BRANCH  92  96
ATOM     96  S   UNL A   1      45.377  24.968  36.065  1.00  0.00     0.124 S 
ATOM     97  O   UNL A   1      46.308  25.168  34.960  1.00  0.00    -0.237 OA
ATOM     98  O   UNL A   1      45.761  25.584  37.334  1.00  0.00    -0.237 OA
ATOM     99  O   UNL A   1      44.802  23.632  36.179  1.00  0.00    -0.744 OA
ENDBRANCH  92  96
ENDBRANCH  65  89
BRANCH  77 100
ATOM    100  C   UNL A   1      43.646  28.665  27.314  1.00  0.00     0.023 A 
ATOM    101  C   UNL A   1      44.797  27.976  26.887  1.00  0.00     0.031 A 
ATOM    102  C   UNL A   1      42.481  28.569  26.532  1.00  0.00     0.131 A 
ATOM    103  C   UNL A   1      44.770  27.255  25.687  1.00  0.00     0.055 A 
ATOM    104  C   UNL A   1      42.448  27.812  25.361  1.00  0.00     0.041 A 
ATOM    105  F   UNL A   1      41.363  29.217  26.894  1.00  0.00    -0.206 F 
ATOM    106  C   UNL A   1      43.601  27.163  24.925  1.00  0.00     0.022 A 
BRANCH 103 107
ATOM    107  S   UNL A   1      46.273  26.484  25.025  1.00  0.00     0.124 S 
ATOM    108  O   UNL A   1      47.155  26.493  26.190  1.00  0.00    -0.237 OA
ATOM    109  O   UNL A   1      45.790  25.166  24.620  1.00  0.00    -0.237 OA
ATOM    110  O   UNL A   1      46.673  27.367  23.936  1.00  0.00    -0.744 OA
ENDBRANCH 103 107
ENDBRANCH  77 100
ENDBRANCH  51  52
ENDBRANCH  43  46
ENDBRANCH  41  42
ENDBRANCH  40  41
ENDBRANCH  39  40
ENDBRANCH   1  39
TORSDOF 19
ENDMDL
MODEL 2
REMARK VINA RESULT:      -9.7      3.411      8.212
REMARK SMILES O=C(Cn1c(=O)[nH]c2ccccc2c1=O)NC[C@H]1CC[C@@H](C(=O)N2CCC(C(=O)NCCCCNC(=O)c3ccc(-c4c5nc(c(-c6cc(S(=O)(=O)[O-])ccc6F)c6ccc([nH]6)c(-c6cc(S(=O)(=O)[O-])ccc6F)c6nc(c(-c7cc(S(=O)(=O)[O-])ccc7F)c7ccc4[nH]7)C=C6)C=C5)cc3)CC2)CC1
REMARK SMILES IDX 31 1 30 2 28 3 29 4 27 6 22 7 23 8 24 9 25 10 102 11 26 12
REMARK SMILES IDX 101 13 21 14 18 15 19 16 104 17 20 18 103 19 17 20 16 21
REMARK SMILES IDX 1 22 2 23 3 25 4 26 5 27 14 28 6 29 7 30 13 31 15 32 8 33
REMARK SMILES IDX 12 35 9 36 11 37 10 38 32 39 33 40 34 41 35 42 36 43 37 45
REMARK SMILES IDX 38 46 39 47 100 48 40 49 99 50 41 51 42 52 43 53 93 54 44 55
REMARK SMILES IDX 98 56 92 57 94 58 45 59 97 60 91 61 90 62 46 64 78 65 58 66
REMARK SMILES IDX 77 67 59 68 62 69 76 70 95 71 60 72 61 73 75 75 96 76 63 77
REMARK SMILES IDX 47 78 48 79 56 80 49 81 55 82 57 83 54 84 50 85 51 86 52 87
REMARK SMILES IDX 53 88 79 89 80 90 88 91 81 92 87 93 89 94 86 95 82 96 83 97
REMARK SMILES IDX 84 98 85 99 64 100 65 101 73 102 66 103 72 104 74 105 71 106
REMARK SMILES IDX 67 107 68 108 69 109 70 110
REMARK H PARENT 30 5 16 24 7 34 35 44 94 63 62 74
REMARK Flexibility Score: inf
ROOT
ATOM      1  C   UNL A   1      38.286  33.010  37.663  1.00  0.00     0.116 C 
ENDROOT
BRANCH   1   2
ATOM      2  N   UNL A   1      37.073  33.472  37.000  1.00  0.00    -0.356 N 
ATOM      3  C   UNL A   1      36.752  33.509  35.675  1.00  0.00     0.223 C 
ATOM      4  O   UNL A   1      35.647  33.939  35.344  1.00  0.00    -0.275 OA
ATOM      5  H   UNL A   1      36.373  33.810  37.605  1.00  0.00     0.163 HD
BRANCH   3   6
ATOM      6  C   UNL A   1      37.735  33.016  34.625  1.00  0.00     0.082 C 
ATOM      7  C   UNL A   1      37.196  30.844  31.102  1.00  0.00     0.225 C 
ATOM      8  O   UNL A   1      36.461  29.891  31.392  1.00  0.00    -0.275 OA
ATOM      9  N   UNL A   1      37.763  31.603  32.105  1.00  0.00    -0.342 N 
ATOM     10  C   UNL A   1      38.277  30.920  33.282  1.00  0.00     0.120 C 
ATOM     11  C   UNL A   1      37.976  33.032  32.062  1.00  0.00     0.120 C 
ATOM     12  C   UNL A   1      37.728  31.484  34.571  1.00  0.00     0.035 C 
ATOM     13  C   UNL A   1      37.500  33.762  33.306  1.00  0.00     0.035 C 
BRANCH   7  14
ATOM     14  C   UNL A   1      37.710  30.954  29.649  1.00  0.00     0.078 C 
ATOM     15  C   UNL A   1      35.676  30.377  27.494  1.00  0.00     0.008 C 
ATOM     16  C   UNL A   1      35.586  31.586  28.428  1.00  0.00     0.006 C 
ATOM     17  C   UNL A   1      36.678  29.291  27.918  1.00  0.00     0.006 C 
ATOM     18  C   UNL A   1      36.941  32.060  28.920  1.00  0.00     0.014 C 
ATOM     19  C   UNL A   1      37.884  29.732  28.752  1.00  0.00     0.014 C 
BRANCH  15  20
ATOM     20  C   UNL A   1      34.270  29.777  27.334  1.00  0.00     0.119 C 
BRANCH  20  21
ATOM     21  N   UNL A   1      34.240  28.728  26.347  1.00  0.00    -0.354 N 
ATOM     22  O   UNL A   1      32.535  27.490  27.274  1.00  0.00    -0.273 OA
ATOM     23  C   UNL A   1      33.327  27.689  26.358  1.00  0.00     0.240 C 
ATOM     24  H   UNL A   1      34.908  28.751  25.624  1.00  0.00     0.163 HD
BRANCH  23  25
ATOM     25  C   UNL A   1      33.293  26.918  25.033  1.00  0.00     0.230 C 
BRANCH  25  26
ATOM     26  N   UNL A   1      31.960  27.088  24.466  1.00  0.00    -0.250 N 
ATOM     27  C   UNL A   1      31.098  26.007  24.445  1.00  0.00     0.329 A 
ATOM     28  C   UNL A   1      31.664  28.316  23.883  1.00  0.00     0.264 A 
ATOM     29  O   UNL A   1      31.410  24.865  24.772  1.00  0.00    -0.248 OA
ATOM     30  N   UNL A   1      29.831  26.245  23.984  1.00  0.00    -0.307 N 
ATOM     31  C   UNL A   1      30.248  28.577  23.586  1.00  0.00     0.064 A 
ATOM     32  O   UNL A   1      32.504  29.178  23.627  1.00  0.00    -0.268 OA
ATOM     33  C   UNL A   1      29.366  27.504  23.611  1.00  0.00     0.055 A 
ATOM     34  H   UNL A   1      29.213  25.483  23.911  1.00  0.00     0.171 HD
ATOM     35  C   UNL A   1      29.794  29.869  23.303  1.00  0.00     0.016 A 
ATOM     36  C   UNL A   1      28.025  27.699  23.291  1.00  0.00     0.027 A 
ATOM     37  C   UNL A   1      28.444  30.072  23.019  1.00  0.00     0.001 A 
ATOM     38  C   UNL A   1      27.566  28.987  22.999  1.00  0.00     0.002 A 
ENDBRANCH  25  26
ENDBRANCH  23  25
ENDBRANCH  20  21
ENDBRANCH  15  20
ENDBRANCH   7  14
ENDBRANCH   3   6
ENDBRANCH   1   2
BRANCH   1  39
ATOM     39  C   UNL A   1      38.688  33.903  38.832  1.00  0.00     0.023 C 
BRANCH  39  40
ATOM     40  C   UNL A   1      39.755  33.309  39.741  1.00  0.00     0.023 C 
BRANCH  40  41
ATOM     41  C   UNL A   1      41.099  34.018  39.691  1.00  0.00     0.116 C 
BRANCH  41  42
ATOM     42  N   UNL A   1      40.994  35.471  39.739  1.00  0.00    -0.352 N 
ATOM     43  C   UNL A   1      41.275  36.373  38.732  1.00  0.00     0.251 C 
ATOM     44  H   UNL A   1      40.685  35.855  40.591  1.00  0.00     0.163 HD
ATOM     45  O   UNL A   1      41.230  37.573  38.931  1.00  0.00    -0.269 OA
BRANCH  43  46
ATOM     46  C   UNL A   1      41.686  35.829  37.420  1.00  0.00     0.039 A 
ATOM     47  C   UNL A   1      40.715  35.534  36.461  1.00  0.00     0.014 A 
ATOM     48  C   UNL A   1      43.022  35.480  37.217  1.00  0.00     0.014 A 
ATOM     49  C   UNL A   1      41.049  34.719  35.389  1.00  0.00     0.010 A 
ATOM     50  C   UNL A   1      43.370  34.740  36.085  1.00  0.00     0.010 A 
ATOM     51  C   UNL A   1      42.378  34.302  35.193  1.00  0.00    -0.014 A 
BRANCH  51  52
ATOM     52  C   UNL A   1      42.698  33.406  34.051  1.00  0.00     0.031 A 
ATOM     53  C   UNL A   1      42.761  31.912  34.230  1.00  0.00     0.074 A 
ATOM     54  C   UNL A   1      42.880  33.950  32.833  1.00  0.00     0.049 A 
ATOM     55  N   UNL A   1      43.019  30.991  33.338  1.00  0.00    -0.248 NA
ATOM     56  C   UNL A   1      42.506  31.380  35.578  1.00  0.00     0.031 C 
ATOM     57  C   UNL A   1      42.834  35.385  32.547  1.00  0.00     0.029 A 
ATOM     58  N   UNL A   1      43.114  33.374  31.609  1.00  0.00    -0.354 N 
ATOM     59  C   UNL A   1      42.979  29.777  34.015  1.00  0.00     0.074 A 
ATOM     60  C   UNL A   1      42.697  30.078  35.401  1.00  0.00     0.031 C 
ATOM     61  C   UNL A   1      42.982  35.575  31.229  1.00  0.00     0.029 A 
ATOM     62  C   UNL A   1      43.212  34.286  30.583  1.00  0.00     0.049 A 
ATOM     63  H   UNL A   1      43.202  32.403  31.478  1.00  0.00     0.167 HD
ATOM     64  C   UNL A   1      43.148  28.527  33.520  1.00  0.00     0.034 A 
ATOM     65  C   UNL A   1      43.478  34.114  29.272  1.00  0.00     0.034 A 
ATOM     66  C   UNL A   1      43.397  28.242  32.129  1.00  0.00     0.049 A 
ATOM     67  C   UNL A   1      43.670  32.714  28.752  1.00  0.00     0.074 A 
ATOM     68  C   UNL A   1      43.562  27.007  31.528  1.00  0.00     0.029 A 
ATOM     69  N   UNL A   1      43.502  29.192  31.123  1.00  0.00    -0.354 N 
ATOM     70  N   UNL A   1      43.596  31.578  29.404  1.00  0.00    -0.248 NA
ATOM     71  C   UNL A   1      43.978  32.567  27.324  1.00  0.00     0.031 C 
ATOM     72  C   UNL A   1      43.817  27.210  30.172  1.00  0.00     0.029 A 
ATOM     73  C   UNL A   1      43.748  28.569  29.910  1.00  0.00     0.049 A 
ATOM     74  H   UNL A   1      43.415  30.164  31.252  1.00  0.00     0.167 HD
ATOM     75  C   UNL A   1      43.838  30.581  28.464  1.00  0.00     0.074 A 
ATOM     76  C   UNL A   1      44.024  31.247  27.192  1.00  0.00     0.031 C 
ATOM     77  C   UNL A   1      43.913  29.239  28.644  1.00  0.00     0.034 A 
BRANCH  64  78
ATOM     78  C   UNL A   1      43.056  27.349  34.457  1.00  0.00     0.023 A 
ATOM     79  C   UNL A   1      44.230  26.788  34.998  1.00  0.00     0.031 A 
ATOM     80  C   UNL A   1      41.838  26.686  34.680  1.00  0.00     0.131 A 
ATOM     81  C   UNL A   1      44.164  25.575  35.695  1.00  0.00     0.055 A 
ATOM     82  C   UNL A   1      41.773  25.497  35.409  1.00  0.00     0.041 A 
ATOM     83  F   UNL A   1      40.692  27.183  34.185  1.00  0.00    -0.206 F 
ATOM     84  C   UNL A   1      42.942  24.930  35.907  1.00  0.00     0.022 A 
BRANCH  81  85
ATOM     85  S   UNL A   1      45.667  24.757  36.297  1.00  0.00     0.124 S 
ATOM     86  O   UNL A   1      46.623  25.062  35.234  1.00  0.00    -0.237 OA
ATOM     87  O   UNL A   1      45.902  25.446  37.563  1.00  0.00    -0.237 OA
ATOM     88  O   UNL A   1      45.286  23.353  36.402  1.00  0.00    -0.744 OA
ENDBRANCH  81  85
ENDBRANCH  64  78
BRANCH  65  89
ATOM     89  C   UNL A   1      43.544  35.310  28.384  1.00  0.00     0.023 A 
ATOM     90  C   UNL A   1      44.772  35.949  28.129  1.00  0.00     0.031 A 
ATOM     91  C   UNL A   1      42.376  35.899  27.874  1.00  0.00     0.131 A 
ATOM     92  C   UNL A   1      44.794  37.176  27.454  1.00  0.00     0.055 A 
ATOM     93  C   UNL A   1      42.411  37.083  27.135  1.00  0.00     0.041 A 
ATOM     94  F   UNL A   1      41.179  35.336  28.103  1.00  0.00    -0.206 F 
ATOM     95  C   UNL A   1      43.622  37.739  26.940  1.00  0.00     0.022 A 
BRANCH  92  96
ATOM     96  S   UNL A   1      46.320  38.156  27.368  1.00  0.00     0.124 S 
ATOM     97  O   UNL A   1      45.977  39.323  28.174  1.00  0.00    -0.237 OA
ATOM     98  O   UNL A   1      47.298  37.245  27.960  1.00  0.00    -0.237 OA
ATOM     99  O   UNL A   1      46.491  38.399  25.940  1.00  0.00    -0.744 OA
ENDBRANCH  92  96
ENDBRANCH  65  89
BRANCH  77 100
ATOM    100  C   UNL A   1      44.209  28.368  27.448  1.00  0.00     0.023 A 
ATOM    101  C   UNL A   1      45.542  28.125  27.065  1.00  0.00     0.031 A 
ATOM    102  C   UNL A   1      43.179  27.915  26.606  1.00  0.00     0.131 A 
ATOM    103  C   UNL A   1      45.810  27.483  25.850  1.00  0.00     0.055 A 
ATOM    104  C   UNL A   1      43.451  27.236  25.418  1.00  0.00     0.041 A 
ATOM    105  F   UNL A   1      41.893  28.133  26.925  1.00  0.00    -0.206 F 
ATOM    106  C   UNL A   1      44.772  27.031  25.028  1.00  0.00     0.022 A 
BRANCH 103 107
ATOM    107  S   UNL A   1      47.510  27.289  25.248  1.00  0.00     0.124 S 
ATOM    108  O   UNL A   1      47.294  26.867  23.865  1.00  0.00    -0.237 OA
ATOM    109  O   UNL A   1      48.050  28.637  25.410  1.00  0.00    -0.237 OA
ATOM    110  O   UNL A   1      48.083  26.274  26.125  1.00  0.00    -0.744 OA
ENDBRANCH 103 107
ENDBRANCH  77 100
ENDBRANCH  51  52
ENDBRANCH  43  46
ENDBRANCH  41  42
ENDBRANCH  40  41
ENDBRANCH  39  40
ENDBRANCH   1  39
TORSDOF 19
ENDMDL
MODEL 3
REMARK VINA RESULT:      -9.6      3.242      8.329
REMARK SMILES O=C(Cn1c(=O)[nH]c2ccccc2c1=O)NC[C@H]1CC[C@@H](C(=O)N2CCC(C(=O)NCCCCNC(=O)c3ccc(-c4c5nc(c(-c6cc(S(=O)(=O)[O-])ccc6F)c6ccc([nH]6)c(-c6cc(S(=O)(=O)[O-])ccc6F)c6nc(c(-c7cc(S(=O)(=O)[O-])ccc7F)c7ccc4[nH]7)C=C6)C=C5)cc3)CC2)CC1
REMARK SMILES IDX 31 1 30 2 28 3 29 4 27 6 22 7 23 8 24 9 25 10 102 11 26 12
REMARK SMILES IDX 101 13 21 14 18 15 19 16 104 17 20 18 103 19 17 20 16 21
REMARK SMILES IDX 1 22 2 23 3 25 4 26 5 27 14 28 6 29 7 30 13 31 15 32 8 33
REMARK SMILES IDX 12 35 9 36 11 37 10 38 32 39 33 40 34 41 35 42 36 43 37 45
REMARK SMILES IDX 38 46 39 47 100 48 40 49 99 50 41 51 42 52 43 53 93 54 44 55
REMARK SMILES IDX 98 56 92 57 94 58 45 59 97 60 91 61 90 62 46 64 78 65 58 66
REMARK SMILES IDX 77 67 59 68 62 69 76 70 95 71 60 72 61 73 75 75 96 76 63 77
REMARK SMILES IDX 47 78 48 79 56 80 49 81 55 82 57 83 54 84 50 85 51 86 52 87
REMARK SMILES IDX 53 88 79 89 80 90 88 91 81 92 87 93 89 94 86 95 82 96 83 97
REMARK SMILES IDX 84 98 85 99 64 100 65 101 73 102 66 103 72 104 74 105 71 106
REMARK SMILES IDX 67 107 68 108 69 109 70 110
REMARK H PARENT 30 5 16 24 7 34 35 44 94 63 62 74
REMARK Flexibility Score: inf
ROOT
ATOM      1  C   UNL A   1      44.374  25.712  38.398  1.00  0.00     0.116 C 
ENDROOT
BRANCH   1   2
ATOM      2  N   UNL A   1      42.920  25.815  38.403  1.00  0.00    -0.356 N 
ATOM      3  C   UNL A   1      42.070  26.333  37.470  1.00  0.00     0.223 C 
ATOM      4  O   UNL A   1      40.859  26.303  37.690  1.00  0.00    -0.275 OA
ATOM      5  H   UNL A   1      42.481  25.453  39.207  1.00  0.00     0.163 HD
BRANCH   3   6
ATOM      6  C   UNL A   1      42.606  26.925  36.176  1.00  0.00     0.082 C 
ATOM      7  C   UNL A   1      40.756  29.083  33.121  1.00  0.00     0.225 C 
ATOM      8  O   UNL A   1      39.720  28.466  32.840  1.00  0.00    -0.275 OA
ATOM      9  N   UNL A   1      41.713  28.489  33.918  1.00  0.00    -0.342 N 
ATOM     10  C   UNL A   1      42.015  27.083  33.703  1.00  0.00     0.120 C 
ATOM     11  C   UNL A   1      42.520  29.164  34.909  1.00  0.00     0.120 C 
ATOM     12  C   UNL A   1      41.925  26.266  34.971  1.00  0.00     0.035 C 
ATOM     13  C   UNL A   1      42.564  28.456  36.252  1.00  0.00     0.035 C 
BRANCH   7  14
ATOM     14  C   UNL A   1      41.088  30.359  32.314  1.00  0.00     0.078 C 
ATOM     15  C   UNL A   1      39.224  30.982  30.023  1.00  0.00     0.008 C 
ATOM     16  C   UNL A   1      38.791  31.026  31.490  1.00  0.00     0.006 C 
ATOM     17  C   UNL A   1      40.571  30.288  29.755  1.00  0.00     0.006 C 
ATOM     18  C   UNL A   1      39.930  31.355  32.437  1.00  0.00     0.014 C 
ATOM     19  C   UNL A   1      41.607  30.304  30.881  1.00  0.00     0.014 C 
BRANCH  15  20
ATOM     20  C   UNL A   1      38.106  30.319  29.202  1.00  0.00     0.119 C 
BRANCH  20  21
ATOM     21  N   UNL A   1      36.800  30.780  29.598  1.00  0.00    -0.354 N 
ATOM     22  O   UNL A   1      36.636  32.532  28.115  1.00  0.00    -0.273 OA
ATOM     23  C   UNL A   1      36.132  31.820  28.978  1.00  0.00     0.240 C 
ATOM     24  H   UNL A   1      36.357  30.329  30.353  1.00  0.00     0.163 HD
BRANCH  23  25
ATOM     25  C   UNL A   1      34.649  31.882  29.360  1.00  0.00     0.230 C 
BRANCH  25  26
ATOM     26  N   UNL A   1      34.369  33.246  29.794  1.00  0.00    -0.250 N 
ATOM     27  C   UNL A   1      33.664  34.086  28.952  1.00  0.00     0.329 A 
ATOM     28  C   UNL A   1      34.918  33.659  31.004  1.00  0.00     0.264 A 
ATOM     29  O   UNL A   1      33.345  33.804  27.800  1.00  0.00    -0.248 OA
ATOM     30  N   UNL A   1      33.352  35.325  29.446  1.00  0.00    -0.307 N 
ATOM     31  C   UNL A   1      34.396  34.912  31.570  1.00  0.00     0.064 A 
ATOM     32  O   UNL A   1      35.785  33.034  31.617  1.00  0.00    -0.268 OA
ATOM     33  C   UNL A   1      33.645  35.738  30.743  1.00  0.00     0.055 A 
ATOM     34  H   UNL A   1      32.896  35.961  28.849  1.00  0.00     0.171 HD
ATOM     35  C   UNL A   1      34.631  35.258  32.903  1.00  0.00     0.016 A 
ATOM     36  C   UNL A   1      33.170  36.956  31.224  1.00  0.00     0.027 A 
ATOM     37  C   UNL A   1      34.124  36.459  33.398  1.00  0.00     0.001 A 
ATOM     38  C   UNL A   1      33.409  37.312  32.555  1.00  0.00     0.002 A 
ENDBRANCH  25  26
ENDBRANCH  23  25
ENDBRANCH  20  21
ENDBRANCH  15  20
ENDBRANCH   7  14
ENDBRANCH   3   6
ENDBRANCH   1   2
BRANCH   1  39
ATOM     39  C   UNL A   1      44.859  24.325  37.991  1.00  0.00     0.023 C 
BRANCH  39  40
ATOM     40  C   UNL A   1      45.858  23.699  38.955  1.00  0.00     0.023 C 
BRANCH  40  41
ATOM     41  C   UNL A   1      46.967  22.899  38.289  1.00  0.00     0.116 C 
BRANCH  41  42
ATOM     42  N   UNL A   1      46.579  21.537  37.948  1.00  0.00    -0.352 N 
ATOM     43  C   UNL A   1      46.024  21.085  36.768  1.00  0.00     0.251 C 
ATOM     44  H   UNL A   1      46.731  20.857  38.643  1.00  0.00     0.163 HD
ATOM     45  O   UNL A   1      45.662  19.930  36.643  1.00  0.00    -0.269 OA
BRANCH  43  46
ATOM     46  C   UNL A   1      45.834  22.069  35.680  1.00  0.00     0.039 A 
ATOM     47  C   UNL A   1      46.949  22.665  35.086  1.00  0.00     0.014 A 
ATOM     48  C   UNL A   1      44.543  22.495  35.366  1.00  0.00     0.014 A 
ATOM     49  C   UNL A   1      46.777  23.814  34.328  1.00  0.00     0.010 A 
ATOM     50  C   UNL A   1      44.372  23.597  34.525  1.00  0.00     0.010 A 
ATOM     51  C   UNL A   1      45.489  24.302  34.047  1.00  0.00    -0.014 A 
BRANCH  51  52
ATOM     52  C   UNL A   1      45.340  25.552  33.257  1.00  0.00     0.031 A 
ATOM     53  C   UNL A   1      45.625  26.897  33.870  1.00  0.00     0.074 A 
ATOM     54  C   UNL A   1      44.997  25.459  31.958  1.00  0.00     0.049 A 
ATOM     55  N   UNL A   1      45.551  28.081  33.318  1.00  0.00    -0.248 NA
ATOM     56  C   UNL A   1      46.042  26.924  35.282  1.00  0.00     0.031 C 
ATOM     57  C   UNL A   1      44.705  24.205  31.262  1.00  0.00     0.029 A 
ATOM     58  N   UNL A   1      44.856  26.419  30.987  1.00  0.00    -0.354 N 
ATOM     59  C   UNL A   1      45.890  28.992  34.313  1.00  0.00     0.074 A 
ATOM     60  C   UNL A   1      46.145  28.227  35.514  1.00  0.00     0.031 C 
ATOM     61  C   UNL A   1      44.472  24.465  29.969  1.00  0.00     0.029 A 
ATOM     62  C   UNL A   1      44.518  25.908  29.755  1.00  0.00     0.049 A 
ATOM     63  H   UNL A   1      44.987  27.380  31.156  1.00  0.00     0.167 HD
ATOM     64  C   UNL A   1      45.992  30.339  34.225  1.00  0.00     0.034 A 
ATOM     65  C   UNL A   1      44.251  26.527  28.587  1.00  0.00     0.034 A 
ATOM     66  C   UNL A   1      45.765  31.084  33.011  1.00  0.00     0.049 A 
ATOM     67  C   UNL A   1      44.365  28.026  28.521  1.00  0.00     0.074 A 
ATOM     68  C   UNL A   1      45.865  32.451  32.819  1.00  0.00     0.029 A 
ATOM     69  N   UNL A   1      45.412  30.534  31.789  1.00  0.00    -0.354 N 
ATOM     70  N   UNL A   1      44.717  28.866  29.466  1.00  0.00    -0.248 NA
ATOM     71  C   UNL A   1      44.047  28.667  27.238  1.00  0.00     0.031 C 
ATOM     72  C   UNL A   1      45.522  32.732  31.497  1.00  0.00     0.029 A 
ATOM     73  C   UNL A   1      45.271  31.537  30.843  1.00  0.00     0.049 A 
ATOM     74  H   UNL A   1      45.280  29.573  31.617  1.00  0.00     0.167 HD
ATOM     75  C   UNL A   1      44.675  30.132  28.888  1.00  0.00     0.074 A 
ATOM     76  C   UNL A   1      44.298  29.943  27.503  1.00  0.00     0.031 C 
ATOM     77  C   UNL A   1      44.913  31.338  29.459  1.00  0.00     0.034 A 
BRANCH  64  78
ATOM     78  C   UNL A   1      46.382  31.126  35.451  1.00  0.00     0.023 A 
ATOM     79  C   UNL A   1      45.392  31.548  36.360  1.00  0.00     0.031 A 
ATOM     80  C   UNL A   1      47.693  31.597  35.631  1.00  0.00     0.131 A 
ATOM     81  C   UNL A   1      45.721  32.450  37.380  1.00  0.00     0.055 A 
ATOM     82  C   UNL A   1      48.025  32.465  36.673  1.00  0.00     0.041 A 
ATOM     83  F   UNL A   1      48.672  31.222  34.791  1.00  0.00    -0.206 F 
ATOM     84  C   UNL A   1      47.033  32.906  37.544  1.00  0.00     0.022 A 
BRANCH  81  85
ATOM     85  S   UNL A   1      44.452  33.113  38.492  1.00  0.00     0.124 S 
ATOM     86  O   UNL A   1      43.828  31.892  39.000  1.00  0.00    -0.237 OA
ATOM     87  O   UNL A   1      45.253  33.852  39.463  1.00  0.00    -0.237 OA
ATOM     88  O   UNL A   1      43.608  33.922  37.621  1.00  0.00    -0.744 OA
ENDBRANCH  81  85
ENDBRANCH  64  78
BRANCH  65  89
ATOM     89  C   UNL A   1      43.884  25.703  27.399  1.00  0.00     0.023 A 
ATOM     90  C   UNL A   1      44.849  24.912  26.747  1.00  0.00     0.031 A 
ATOM     91  C   UNL A   1      42.602  25.782  26.829  1.00  0.00     0.131 A 
ATOM     92  C   UNL A   1      44.540  24.298  25.527  1.00  0.00     0.055 A 
ATOM     93  C   UNL A   1      42.278  25.106  25.652  1.00  0.00     0.041 A 
ATOM     94  F   UNL A   1      41.652  26.536  27.405  1.00  0.00    -0.206 F 
ATOM     95  C   UNL A   1      43.255  24.375  24.984  1.00  0.00     0.022 A 
BRANCH  92  96
ATOM     96  S   UNL A   1      45.842  23.519  24.529  1.00  0.00     0.124 S 
ATOM     97  O   UNL A   1      46.404  22.553  25.466  1.00  0.00    -0.237 OA
ATOM     98  O   UNL A   1      45.075  22.953  23.421  1.00  0.00    -0.237 OA
ATOM     99  O   UNL A   1      46.711  24.635  24.169  1.00  0.00    -0.744 OA
ENDBRANCH  92  96
ENDBRANCH  65  89
BRANCH  77 100
ATOM    100  C   UNL A   1      44.781  32.576  28.608  1.00  0.00     0.023 A 
ATOM    101  C   UNL A   1      45.896  33.073  27.907  1.00  0.00     0.031 A 
ATOM    102  C   UNL A   1      43.603  33.344  28.621  1.00  0.00     0.131 A 
ATOM    103  C   UNL A   1      45.822  34.323  27.280  1.00  0.00     0.055 A 
ATOM    104  C   UNL A   1      43.522  34.568  27.957  1.00  0.00     0.041 A 
ATOM    105  F   UNL A   1      42.518  32.916  29.285  1.00  0.00    -0.206 F 
ATOM    106  C   UNL A   1      44.640  35.070  27.295  1.00  0.00     0.022 A 
BRANCH 103 107
ATOM    107  S   UNL A   1      47.282  35.066  26.500  1.00  0.00     0.124 S 
ATOM    108  O   UNL A   1      47.798  33.954  25.706  1.00  0.00    -0.237 OA
ATOM    109  O   UNL A   1      46.696  36.161  25.731  1.00  0.00    -0.237 OA
ATOM    110  O   UNL A   1      48.118  35.468  27.625  1.00  0.00    -0.744 OA
ENDBRANCH 103 107
ENDBRANCH  77 100
ENDBRANCH  51  52
ENDBRANCH  43  46
ENDBRANCH  41  42
ENDBRANCH  40  41
ENDBRANCH  39  40
ENDBRANCH   1  39
TORSDOF 19
ENDMDL
