MODEL 1
REMARK VINA RESULT:     -11.5      0.000      0.000
REMARK SMILES C[C@@H](CNc1cccc(F)c1C(=O)NCCCCNC(=O)c1ccc(-c2c3nc(c(-c4cc(S(=O)(=O)[O-])ccc4F)c4ccc([nH]4)c(-c4cc(S(=O)(=O)[O-])ccc4F)c4nc(c(-c5cc(S(=O)(=O)[O-])ccc5F)c5ccc2[nH]5)C=C4)C=C3)cc1)[NH+]1CCCCC1
REMARK SMILES IDX 16 1 15 2 14 3 12 4 13 5 11 7 5 8 6 9 7 10 9 11 8 12 10 13
REMARK SMILES IDX 4 14 3 16 2 17 1 18 85 19 86 20 90 21 87 23 89 24 88 25
REMARK SMILES IDX 17 26 18 27 19 28 20 29 21 31 22 32 23 33 84 34 24 35 83 36
REMARK SMILES IDX 25 37 26 38 27 39 77 40 28 41 82 42 76 43 78 44 29 45 81 46
REMARK SMILES IDX 75 47 74 48 30 50 62 51 42 52 61 53 43 54 46 55 60 56 79 57
REMARK SMILES IDX 44 58 45 59 59 61 80 62 47 63 31 64 32 65 40 66 33 67 39 68
REMARK SMILES IDX 41 69 38 70 34 71 35 72 36 73 37 74 63 75 64 76 72 77 65 78
REMARK SMILES IDX 71 79 73 80 70 81 66 82 67 83 68 84 69 85 48 86 49 87 57 88
REMARK SMILES IDX 50 89 56 90 58 91 55 92 51 93 52 94 53 95 54 96
REMARK H PARENT 14 6 4 15 85 22 19 30 78 49 46 60
REMARK Flexibility Score: inf
ROOT
ATOM      1  C   UNL A   1      31.271  30.708  25.593  1.00  0.00     0.023 C 
ENDROOT
BRANCH   1   2
ATOM      2  C   UNL A   1      32.526  29.856  25.795  1.00  0.00     0.116 C 
BRANCH   2   3
ATOM      3  N   UNL A   1      33.187  29.650  24.521  1.00  0.00    -0.352 N 
ATOM      4  C   UNL A   1      33.721  28.536  23.924  1.00  0.00     0.256 C 
ATOM      5  O   UNL A   1      34.309  28.712  22.853  1.00  0.00    -0.269 OA
ATOM      6  H   UNL A   1      33.269  30.468  23.981  1.00  0.00     0.163 HD
BRANCH   4   7
ATOM      7  C   UNL A   1      33.539  27.144  24.426  1.00  0.00     0.098 A 
ATOM      8  C   UNL A   1      32.930  26.189  23.563  1.00  0.00     0.050 A 
ATOM      9  C   UNL A   1      32.766  24.874  24.035  1.00  0.00     0.027 A 
ATOM     10  C   UNL A   1      33.162  24.498  25.318  1.00  0.00     0.005 A 
ATOM     11  C   UNL A   1      33.976  26.732  25.687  1.00  0.00     0.138 A 
ATOM     12  C   UNL A   1      33.764  25.432  26.146  1.00  0.00     0.040 A 
ATOM     13  F   UNL A   1      34.645  27.551  26.506  1.00  0.00    -0.206 F 
BRANCH   8  14
ATOM     14  N   UNL A   1      32.433  26.561  22.318  1.00  0.00    -0.378 N 
ATOM     15  H   UNL A   1      33.076  26.620  21.575  1.00  0.00     0.160 HD
BRANCH  14  16
ATOM     16  C   UNL A   1      31.043  26.869  22.021  1.00  0.00     0.177 C 
BRANCH  16  17
ATOM     17  C   UNL A   1      30.244  27.395  23.263  1.00  0.00     0.200 C 
ATOM     18  C   UNL A   1      29.402  26.250  23.855  1.00  0.00     0.077 C 
BRANCH  17  19
ATOM     19  N   UNL A   1      29.513  28.695  23.154  1.00  0.00    -0.331 N 
ATOM     20  C   UNL A   1      30.061  29.562  22.101  1.00  0.00     0.262 C 
ATOM     21  C   UNL A   1      28.052  28.571  23.080  1.00  0.00     0.262 C 
ATOM     22  H   UNL A   1      29.686  29.162  24.044  1.00  0.00     0.348 HD
ATOM     23  C   UNL A   1      29.378  30.926  22.010  1.00  0.00     0.062 C 
ATOM     24  C   UNL A   1      27.337  29.922  23.000  1.00  0.00     0.062 C 
ATOM     25  C   UNL A   1      27.873  30.767  21.856  1.00  0.00     0.012 C 
ENDBRANCH  17  19
ENDBRANCH  16  17
ENDBRANCH  14  16
ENDBRANCH   8  14
ENDBRANCH   4   7
ENDBRANCH   2   3
ENDBRANCH   1   2
BRANCH   1  26
ATOM     26  C   UNL A   1      31.210  31.951  26.485  1.00  0.00     0.023 C 
BRANCH  26  27
ATOM     27  C   UNL A   1      32.561  32.429  27.007  1.00  0.00     0.116 C 
BRANCH  27  28
ATOM     28  N   UNL A   1      32.524  33.803  27.483  1.00  0.00    -0.352 N 
ATOM     29  C   UNL A   1      33.338  34.418  28.406  1.00  0.00     0.251 C 
ATOM     30  H   UNL A   1      31.821  34.370  27.092  1.00  0.00     0.163 HD
ATOM     31  O   UNL A   1      33.083  35.552  28.787  1.00  0.00    -0.269 OA
BRANCH  29  32
ATOM     32  C   UNL A   1      34.495  33.680  28.954  1.00  0.00     0.039 A 
ATOM     33  C   UNL A   1      35.782  34.156  28.689  1.00  0.00     0.014 A 
ATOM     34  C   UNL A   1      34.309  32.540  29.741  1.00  0.00     0.014 A 
ATOM     35  C   UNL A   1      36.882  33.523  29.269  1.00  0.00     0.010 A 
ATOM     36  C   UNL A   1      35.403  31.949  30.367  1.00  0.00     0.010 A 
ATOM     37  C   UNL A   1      36.700  32.436  30.139  1.00  0.00    -0.014 A 
BRANCH  37  38
ATOM     38  C   UNL A   1      37.854  31.790  30.812  1.00  0.00     0.031 A 
ATOM     39  C   UNL A   1      38.650  30.739  30.091  1.00  0.00     0.074 A 
ATOM     40  C   UNL A   1      38.152  32.116  32.085  1.00  0.00     0.049 A 
ATOM     41  N   UNL A   1      39.632  29.999  30.536  1.00  0.00    -0.248 NA
ATOM     42  C   UNL A   1      38.276  30.464  28.695  1.00  0.00     0.031 C 
ATOM     43  C   UNL A   1      37.434  33.103  32.897  1.00  0.00     0.029 A 
ATOM     44  N   UNL A   1      39.137  31.655  32.923  1.00  0.00    -0.354 N 
ATOM     45  C   UNL A   1      39.984  29.163  29.482  1.00  0.00     0.074 A 
ATOM     46  C   UNL A   1      39.078  29.455  28.392  1.00  0.00     0.031 C 
ATOM     47  C   UNL A   1      38.022  33.194  34.100  1.00  0.00     0.029 A 
ATOM     48  C   UNL A   1      39.129  32.244  34.166  1.00  0.00     0.049 A 
ATOM     49  H   UNL A   1      39.788  30.965  32.658  1.00  0.00     0.167 HD
ATOM     50  C   UNL A   1      40.985  28.253  29.423  1.00  0.00     0.034 A 
ATOM     51  C   UNL A   1      39.917  32.038  35.239  1.00  0.00     0.034 A 
ATOM     52  C   UNL A   1      41.903  27.996  30.502  1.00  0.00     0.049 A 
ATOM     53  C   UNL A   1      41.014  31.010  35.152  1.00  0.00     0.074 A 
ATOM     54  C   UNL A   1      42.985  27.133  30.524  1.00  0.00     0.029 A 
ATOM     55  N   UNL A   1      41.850  28.602  31.750  1.00  0.00    -0.354 N 
ATOM     56  N   UNL A   1      41.335  30.233  34.145  1.00  0.00    -0.248 NA
ATOM     57  C   UNL A   1      41.851  30.828  36.347  1.00  0.00     0.031 C 
ATOM     58  C   UNL A   1      43.556  27.179  31.799  1.00  0.00     0.029 A 
ATOM     59  C   UNL A   1      42.867  28.115  32.555  1.00  0.00     0.049 A 
ATOM     60  H   UNL A   1      41.189  29.278  32.023  1.00  0.00     0.167 HD
ATOM     61  C   UNL A   1      42.422  29.482  34.579  1.00  0.00     0.074 A 
ATOM     62  C   UNL A   1      42.706  29.902  35.935  1.00  0.00     0.031 C 
ATOM     63  C   UNL A   1      43.125  28.534  33.910  1.00  0.00     0.034 A 
BRANCH  50  64
ATOM     64  C   UNL A   1      41.135  27.461  28.152  1.00  0.00     0.023 A 
ATOM     65  C   UNL A   1      40.748  26.113  28.080  1.00  0.00     0.031 A 
ATOM     66  C   UNL A   1      41.654  28.066  26.994  1.00  0.00     0.131 A 
ATOM     67  C   UNL A   1      40.928  25.399  26.886  1.00  0.00     0.055 A 
ATOM     68  C   UNL A   1      41.771  27.369  25.791  1.00  0.00     0.041 A 
ATOM     69  F   UNL A   1      42.054  29.348  27.016  1.00  0.00    -0.206 F 
ATOM     70  C   UNL A   1      41.413  26.024  25.735  1.00  0.00     0.022 A 
BRANCH  67  71
ATOM     71  S   UNL A   1      40.584  23.619  26.876  1.00  0.00     0.124 S 
ATOM     72  O   UNL A   1      41.542  23.142  25.881  1.00  0.00    -0.237 OA
ATOM     73  O   UNL A   1      40.853  23.234  28.256  1.00  0.00    -0.237 OA
ATOM     74  O   UNL A   1      39.182  23.543  26.470  1.00  0.00    -0.744 OA
ENDBRANCH  67  71
ENDBRANCH  50  64
BRANCH  51  75
ATOM     75  C   UNL A   1      39.693  32.812  36.490  1.00  0.00     0.023 A 
ATOM     76  C   UNL A   1      38.773  32.371  37.454  1.00  0.00     0.031 A 
ATOM     77  C   UNL A   1      40.393  34.005  36.737  1.00  0.00     0.131 A 
ATOM     78  C   UNL A   1      38.559  33.133  38.613  1.00  0.00     0.055 A 
ATOM     79  C   UNL A   1      40.204  34.740  37.909  1.00  0.00     0.041 A 
ATOM     80  F   UNL A   1      41.290  34.462  35.848  1.00  0.00    -0.206 F 
ATOM     81  C   UNL A   1      39.278  34.307  38.852  1.00  0.00     0.022 A 
BRANCH  78  82
ATOM     82  S   UNL A   1      37.305  32.579  39.800  1.00  0.00     0.124 S 
ATOM     83  O   UNL A   1      37.273  33.695  40.739  1.00  0.00    -0.237 OA
ATOM     84  O   UNL A   1      36.130  32.420  38.951  1.00  0.00    -0.237 OA
ATOM     85  O   UNL A   1      37.861  31.335  40.328  1.00  0.00    -0.744 OA
ENDBRANCH  78  82
ENDBRANCH  51  75
BRANCH  63  86
ATOM     86  C   UNL A   1      44.287  27.900  34.626  1.00  0.00     0.023 A 
ATOM     87  C   UNL A   1      44.140  26.697  35.335  1.00  0.00     0.031 A 
ATOM     88  C   UNL A   1      45.563  28.482  34.551  1.00  0.00     0.131 A 
ATOM     89  C   UNL A   1      45.255  26.121  35.964  1.00  0.00     0.055 A 
ATOM     90  C   UNL A   1      46.676  27.884  35.141  1.00  0.00     0.041 A 
ATOM     91  F   UNL A   1      45.752  29.629  33.880  1.00  0.00    -0.206 F 
ATOM     92  C   UNL A   1      46.524  26.698  35.857  1.00  0.00     0.022 A 
BRANCH  89  93
ATOM     93  S   UNL A   1      45.023  24.615  36.945  1.00  0.00     0.124 S 
ATOM     94  O   UNL A   1      44.317  23.749  36.006  1.00  0.00    -0.237 OA
ATOM     95  O   UNL A   1      46.395  24.228  37.260  1.00  0.00    -0.237 OA
ATOM     96  O   UNL A   1      44.233  25.068  38.088  1.00  0.00    -0.744 OA
ENDBRANCH  89  93
ENDBRANCH  63  86
ENDBRANCH  37  38
ENDBRANCH  29  32
ENDBRANCH  27  28
ENDBRANCH  26  27
ENDBRANCH   1  26
TORSDOF 18
ENDMDL
MODEL 2
REMARK VINA RESULT:     -11.4      1.952      3.554
REMARK SMILES C[C@@H](CNc1cccc(F)c1C(=O)NCCCCNC(=O)c1ccc(-c2c3nc(c(-c4cc(S(=O)(=O)[O-])ccc4F)c4ccc([nH]4)c(-c4cc(S(=O)(=O)[O-])ccc4F)c4nc(c(-c5cc(S(=O)(=O)[O-])ccc5F)c5ccc2[nH]5)C=C4)C=C3)cc1)[NH+]1CCCCC1
REMARK SMILES IDX 16 1 15 2 14 3 12 4 13 5 11 7 5 8 6 9 7 10 9 11 8 12 10 13
REMARK SMILES IDX 4 14 3 16 2 17 1 18 85 19 86 20 90 21 87 23 89 24 88 25
REMARK SMILES IDX 17 26 18 27 19 28 20 29 21 31 22 32 23 33 84 34 24 35 83 36
REMARK SMILES IDX 25 37 26 38 27 39 77 40 28 41 82 42 76 43 78 44 29 45 81 46
REMARK SMILES IDX 75 47 74 48 30 50 62 51 42 52 61 53 43 54 46 55 60 56 79 57
REMARK SMILES IDX 44 58 45 59 59 61 80 62 47 63 31 64 32 65 40 66 33 67 39 68
REMARK SMILES IDX 41 69 38 70 34 71 35 72 36 73 37 74 63 75 64 76 72 77 65 78
REMARK SMILES IDX 71 79 73 80 70 81 66 82 67 83 68 84 69 85 48 86 49 87 57 88
REMARK SMILES IDX 50 89 56 90 58 91 55 92 51 93 52 94 53 95 54 96
REMARK H PARENT 14 6 4 15 85 22 19 30 78 49 46 60
REMARK Flexibility Score: inf
ROOT
ATOM      1  C   UNL A   1      31.388  30.890  25.839  1.00  0.00     0.023 C 
ENDROOT
BRANCH   1   2
ATOM      2  C   UNL A   1      32.627  29.997  25.946  1.00  0.00     0.116 C 
BRANCH   2   3
ATOM      3  N   UNL A   1      33.133  29.703  24.619  1.00  0.00    -0.352 N 
ATOM      4  C   UNL A   1      32.677  28.888  23.614  1.00  0.00     0.256 C 
ATOM      5  O   UNL A   1      33.400  28.783  22.619  1.00  0.00    -0.269 OA
ATOM      6  H   UNL A   1      33.964  30.180  24.398  1.00  0.00     0.163 HD
BRANCH   4   7
ATOM      7  C   UNL A   1      31.340  28.228  23.607  1.00  0.00     0.098 A 
ATOM      8  C   UNL A   1      31.243  26.894  24.094  1.00  0.00     0.050 A 
ATOM      9  C   UNL A   1      29.980  26.275  24.095  1.00  0.00     0.027 A 
ATOM     10  C   UNL A   1      28.842  26.925  23.616  1.00  0.00     0.005 A 
ATOM     11  C   UNL A   1      30.179  28.878  23.182  1.00  0.00     0.138 A 
ATOM     12  C   UNL A   1      28.945  28.227  23.155  1.00  0.00     0.040 A 
ATOM     13  F   UNL A   1      30.183  30.162  22.808  1.00  0.00    -0.206 F 
BRANCH   8  14
ATOM     14  N   UNL A   1      32.377  26.187  24.481  1.00  0.00    -0.378 N 
ATOM     15  H   UNL A   1      32.928  26.575  25.199  1.00  0.00     0.160 HD
BRANCH  14  16
ATOM     16  C   UNL A   1      32.817  24.922  23.915  1.00  0.00     0.177 C 
BRANCH  16  17
ATOM     17  C   UNL A   1      32.579  23.699  24.866  1.00  0.00     0.200 C 
ATOM     18  C   UNL A   1      32.845  24.121  26.323  1.00  0.00     0.077 C 
BRANCH  17  19
ATOM     19  N   UNL A   1      33.166  22.374  24.499  1.00  0.00    -0.331 N 
ATOM     20  C   UNL A   1      34.336  22.029  25.321  1.00  0.00     0.262 C 
ATOM     21  C   UNL A   1      32.194  21.277  24.411  1.00  0.00     0.262 C 
ATOM     22  H   UNL A   1      33.500  22.497  23.543  1.00  0.00     0.348 HD
ATOM     23  C   UNL A   1      35.000  20.711  24.924  1.00  0.00     0.062 C 
ATOM     24  C   UNL A   1      32.828  19.944  24.004  1.00  0.00     0.062 C 
ATOM     25  C   UNL A   1      33.986  19.577  24.917  1.00  0.00     0.012 C 
ENDBRANCH  17  19
ENDBRANCH  16  17
ENDBRANCH  14  16
ENDBRANCH   8  14
ENDBRANCH   4   7
ENDBRANCH   2   3
ENDBRANCH   1   2
BRANCH   1  26
ATOM     26  C   UNL A   1      31.350  32.028  26.863  1.00  0.00     0.023 C 
BRANCH  26  27
ATOM     27  C   UNL A   1      32.685  32.729  27.089  1.00  0.00     0.116 C 
BRANCH  27  28
ATOM     28  N   UNL A   1      32.530  34.072  27.626  1.00  0.00    -0.352 N 
ATOM     29  C   UNL A   1      33.229  34.681  28.642  1.00  0.00     0.251 C 
ATOM     30  H   UNL A   1      31.828  34.620  27.206  1.00  0.00     0.163 HD
ATOM     31  O   UNL A   1      32.878  35.778  29.055  1.00  0.00    -0.269 OA
BRANCH  29  32
ATOM     32  C   UNL A   1      34.380  33.979  29.248  1.00  0.00     0.039 A 
ATOM     33  C   UNL A   1      35.672  34.381  28.898  1.00  0.00     0.014 A 
ATOM     34  C   UNL A   1      34.184  32.949  30.172  1.00  0.00     0.014 A 
ATOM     35  C   UNL A   1      36.769  33.789  29.524  1.00  0.00     0.010 A 
ATOM     36  C   UNL A   1      35.278  32.403  30.839  1.00  0.00     0.010 A 
ATOM     37  C   UNL A   1      36.580  32.820  30.523  1.00  0.00    -0.014 A 
BRANCH  37  38
ATOM     38  C   UNL A   1      37.734  32.225  31.243  1.00  0.00     0.031 A 
ATOM     39  C   UNL A   1      38.514  31.106  30.612  1.00  0.00     0.074 A 
ATOM     40  C   UNL A   1      38.046  32.660  32.480  1.00  0.00     0.049 A 
ATOM     41  N   UNL A   1      39.493  30.399  31.114  1.00  0.00    -0.248 NA
ATOM     42  C   UNL A   1      38.126  30.713  29.249  1.00  0.00     0.031 C 
ATOM     43  C   UNL A   1      37.343  33.722  33.205  1.00  0.00     0.029 A 
ATOM     44  N   UNL A   1      39.033  32.265  33.348  1.00  0.00    -0.354 N 
ATOM     45  C   UNL A   1      39.828  29.470  30.136  1.00  0.00     0.074 A 
ATOM     46  C   UNL A   1      38.917  29.672  29.031  1.00  0.00     0.031 C 
ATOM     47  C   UNL A   1      37.942  33.913  34.392  1.00  0.00     0.029 A 
ATOM     48  C   UNL A   1      39.040  32.962  34.533  1.00  0.00     0.049 A 
ATOM     49  H   UNL A   1      39.675  31.548  33.140  1.00  0.00     0.167 HD
ATOM     50  C   UNL A   1      40.821  28.548  30.150  1.00  0.00     0.034 A 
ATOM     51  C   UNL A   1      39.836  32.844  35.615  1.00  0.00     0.034 A 
ATOM     52  C   UNL A   1      41.745  28.378  31.241  1.00  0.00     0.049 A 
ATOM     53  C   UNL A   1      40.922  31.801  35.612  1.00  0.00     0.074 A 
ATOM     54  C   UNL A   1      42.819  27.510  31.332  1.00  0.00     0.029 A 
ATOM     55  N   UNL A   1      41.708  29.093  32.431  1.00  0.00    -0.354 N 
ATOM     56  N   UNL A   1      41.227  30.935  34.675  1.00  0.00    -0.248 NA
ATOM     57  C   UNL A   1      41.767  31.717  36.812  1.00  0.00     0.031 C 
ATOM     58  C   UNL A   1      43.401  27.663  32.593  1.00  0.00     0.029 A 
ATOM     59  C   UNL A   1      42.727  28.669  33.268  1.00  0.00     0.049 A 
ATOM     60  H   UNL A   1      41.055  29.797  32.648  1.00  0.00     0.167 HD
ATOM     61  C   UNL A   1      42.311  30.215  35.166  1.00  0.00     0.074 A 
ATOM     62  C   UNL A   1      42.610  30.750  36.477  1.00  0.00     0.031 C 
ATOM     63  C   UNL A   1      43.000  29.204  34.579  1.00  0.00     0.034 A 
BRANCH  50  64
ATOM     64  C   UNL A   1      40.953  27.645  28.953  1.00  0.00     0.023 A 
ATOM     65  C   UNL A   1      41.934  27.868  27.973  1.00  0.00     0.031 A 
ATOM     66  C   UNL A   1      40.100  26.538  28.801  1.00  0.00     0.131 A 
ATOM     67  C   UNL A   1      42.010  27.020  26.858  1.00  0.00     0.055 A 
ATOM     68  C   UNL A   1      40.222  25.661  27.723  1.00  0.00     0.041 A 
ATOM     69  F   UNL A   1      39.136  26.291  29.702  1.00  0.00    -0.206 F 
ATOM     70  C   UNL A   1      41.177  25.904  26.738  1.00  0.00     0.022 A 
BRANCH  67  71
ATOM     71  S   UNL A   1      43.166  27.436  25.526  1.00  0.00     0.124 S 
ATOM     72  O   UNL A   1      42.316  28.224  24.636  1.00  0.00    -0.237 OA
ATOM     73  O   UNL A   1      44.211  28.173  26.227  1.00  0.00    -0.237 OA
ATOM     74  O   UNL A   1      43.568  26.132  25.002  1.00  0.00    -0.744 OA
ENDBRANCH  67  71
ENDBRANCH  50  64
BRANCH  51  75
ATOM     75  C   UNL A   1      39.629  33.728  36.793  1.00  0.00     0.023 A 
ATOM     76  C   UNL A   1      38.986  33.252  37.947  1.00  0.00     0.031 A 
ATOM     77  C   UNL A   1      40.068  35.063  36.782  1.00  0.00     0.131 A 
ATOM     78  C   UNL A   1      38.779  34.113  39.035  1.00  0.00     0.055 A 
ATOM     79  C   UNL A   1      39.893  35.905  37.881  1.00  0.00     0.041 A 
ATOM     80  F   UNL A   1      40.698  35.561  35.705  1.00  0.00    -0.206 F 
ATOM     81  C   UNL A   1      39.239  35.432  39.015  1.00  0.00     0.022 A 
BRANCH  78  82
ATOM     82  S   UNL A   1      37.872  33.491  40.478  1.00  0.00     0.124 S 
ATOM     83  O   UNL A   1      38.779  32.463  40.977  1.00  0.00    -0.237 OA
ATOM     84  O   UNL A   1      37.744  34.690  41.299  1.00  0.00    -0.237 OA
ATOM     85  O   UNL A   1      36.621  32.996  39.905  1.00  0.00    -0.744 OA
ENDBRANCH  78  82
ENDBRANCH  51  75
BRANCH  63  86
ATOM     86  C   UNL A   1      44.161  28.625  35.339  1.00  0.00     0.023 A 
ATOM     87  C   UNL A   1      43.975  27.626  36.309  1.00  0.00     0.031 A 
ATOM     88  C   UNL A   1      45.472  29.041  35.050  1.00  0.00     0.131 A 
ATOM     89  C   UNL A   1      45.087  27.090  36.976  1.00  0.00     0.055 A 
ATOM     90  C   UNL A   1      46.577  28.474  35.684  1.00  0.00     0.041 A 
ATOM     91  F   UNL A   1      45.698  29.989  34.127  1.00  0.00    -0.206 F 
ATOM     92  C   UNL A   1      46.387  27.495  36.657  1.00  0.00     0.022 A 
BRANCH  89  93
ATOM     93  S   UNL A   1      44.815  25.865  38.284  1.00  0.00     0.124 S 
ATOM     94  O   UNL A   1      46.180  25.505  38.650  1.00  0.00    -0.237 OA
ATOM     95  O   UNL A   1      44.069  26.628  39.281  1.00  0.00    -0.237 OA
ATOM     96  O   UNL A   1      44.052  24.813  37.616  1.00  0.00    -0.744 OA
ENDBRANCH  89  93
ENDBRANCH  63  86
ENDBRANCH  37  38
ENDBRANCH  29  32
ENDBRANCH  27  28
ENDBRANCH  26  27
ENDBRANCH   1  26
TORSDOF 18
ENDMDL
MODEL 3
REMARK VINA RESULT:     -11.4      6.486     11.569
REMARK SMILES C[C@@H](CNc1cccc(F)c1C(=O)NCCCCNC(=O)c1ccc(-c2c3nc(c(-c4cc(S(=O)(=O)[O-])ccc4F)c4ccc([nH]4)c(-c4cc(S(=O)(=O)[O-])ccc4F)c4nc(c(-c5cc(S(=O)(=O)[O-])ccc5F)c5ccc2[nH]5)C=C4)C=C3)cc1)[NH+]1CCCCC1
REMARK SMILES IDX 16 1 15 2 14 3 12 4 13 5 11 7 5 8 6 9 7 10 9 11 8 12 10 13
REMARK SMILES IDX 4 14 3 16 2 17 1 18 85 19 86 20 90 21 87 23 89 24 88 25
REMARK SMILES IDX 17 26 18 27 19 28 20 29 21 31 22 32 23 33 84 34 24 35 83 36
REMARK SMILES IDX 25 37 26 38 27 39 77 40 28 41 82 42 76 43 78 44 29 45 81 46
REMARK SMILES IDX 75 47 74 48 30 50 62 51 42 52 61 53 43 54 46 55 60 56 79 57
REMARK SMILES IDX 44 58 45 59 59 61 80 62 47 63 31 64 32 65 40 66 33 67 39 68
REMARK SMILES IDX 41 69 38 70 34 71 35 72 36 73 37 74 63 75 64 76 72 77 65 78
REMARK SMILES IDX 71 79 73 80 70 81 66 82 67 83 68 84 69 85 48 86 49 87 57 88
REMARK SMILES IDX 50 89 56 90 58 91 55 92 51 93 52 94 53 95 54 96
REMARK H PARENT 14 6 4 15 85 22 19 30 78 49 46 60
REMARK Flexibility Score: inf
ROOT
ATOM      1  C   UNL A   1      37.104  22.019  24.197  1.00  0.00     0.023 C 
ENDROOT
BRANCH   1   2
ATOM      2  C   UNL A   1      37.070  23.323  24.998  1.00  0.00     0.116 C 
BRANCH   2   3
ATOM      3  N   UNL A   1      35.911  23.332  25.868  1.00  0.00    -0.352 N 
ATOM      4  C   UNL A   1      34.622  23.767  25.689  1.00  0.00     0.256 C 
ATOM      5  O   UNL A   1      33.882  23.719  26.675  1.00  0.00    -0.269 OA
ATOM      6  H   UNL A   1      36.082  22.953  26.760  1.00  0.00     0.163 HD
BRANCH   4   7
ATOM      7  C   UNL A   1      34.048  24.178  24.376  1.00  0.00     0.098 A 
ATOM      8  C   UNL A   1      33.516  23.169  23.526  1.00  0.00     0.050 A 
ATOM      9  C   UNL A   1      32.968  23.558  22.290  1.00  0.00     0.027 A 
ATOM     10  C   UNL A   1      32.953  24.891  21.879  1.00  0.00     0.005 A 
ATOM     11  C   UNL A   1      33.975  25.512  23.968  1.00  0.00     0.138 A 
ATOM     12  C   UNL A   1      33.463  25.868  22.720  1.00  0.00     0.040 A 
ATOM     13  F   UNL A   1      34.362  26.517  24.760  1.00  0.00    -0.206 F 
BRANCH   8  14
ATOM     14  N   UNL A   1      33.610  21.822  23.863  1.00  0.00    -0.378 N 
ATOM     15  H   UNL A   1      34.469  21.508  24.229  1.00  0.00     0.160 HD
BRANCH  14  16
ATOM     16  C   UNL A   1      32.548  20.839  23.722  1.00  0.00     0.177 C 
BRANCH  16  17
ATOM     17  C   UNL A   1      32.460  19.842  24.928  1.00  0.00     0.200 C 
ATOM     18  C   UNL A   1      33.315  20.369  26.094  1.00  0.00     0.077 C 
BRANCH  17  19
ATOM     19  N   UNL A   1      32.621  18.378  24.667  1.00  0.00    -0.331 N 
ATOM     20  C   UNL A   1      33.794  18.081  23.832  1.00  0.00     0.262 C 
ATOM     21  C   UNL A   1      32.551  17.532  25.864  1.00  0.00     0.262 C 
ATOM     22  H   UNL A   1      31.797  18.122  24.123  1.00  0.00     0.348 HD
ATOM     23  C   UNL A   1      33.947  16.599  23.491  1.00  0.00     0.062 C 
ATOM     24  C   UNL A   1      32.690  16.039  25.554  1.00  0.00     0.062 C 
ATOM     25  C   UNL A   1      33.949  15.752  24.755  1.00  0.00     0.012 C 
ENDBRANCH  17  19
ENDBRANCH  16  17
ENDBRANCH  14  16
ENDBRANCH   8  14
ENDBRANCH   4   7
ENDBRANCH   2   3
ENDBRANCH   1   2
BRANCH   1  26
ATOM     26  C   UNL A   1      37.643  20.819  24.981  1.00  0.00     0.023 C 
BRANCH  26  27
ATOM     27  C   UNL A   1      38.869  21.114  25.837  1.00  0.00     0.116 C 
BRANCH  27  28
ATOM     28  N   UNL A   1      39.775  19.980  25.930  1.00  0.00    -0.352 N 
ATOM     29  C   UNL A   1      41.133  19.975  26.147  1.00  0.00     0.251 C 
ATOM     30  H   UNL A   1      39.359  19.094  25.823  1.00  0.00     0.163 HD
ATOM     31  O   UNL A   1      41.763  18.930  26.065  1.00  0.00    -0.269 OA
BRANCH  29  32
ATOM     32  C   UNL A   1      41.821  21.250  26.441  1.00  0.00     0.039 A 
ATOM     33  C   UNL A   1      42.118  22.112  25.383  1.00  0.00     0.014 A 
ATOM     34  C   UNL A   1      42.150  21.599  27.754  1.00  0.00     0.014 A 
ATOM     35  C   UNL A   1      42.690  23.357  25.650  1.00  0.00     0.010 A 
ATOM     36  C   UNL A   1      42.662  22.866  28.023  1.00  0.00     0.010 A 
ATOM     37  C   UNL A   1      42.935  23.757  26.973  1.00  0.00    -0.014 A 
BRANCH  37  38
ATOM     38  C   UNL A   1      43.485  25.102  27.279  1.00  0.00     0.031 A 
ATOM     39  C   UNL A   1      42.600  26.153  27.888  1.00  0.00     0.074 A 
ATOM     40  C   UNL A   1      44.764  25.387  26.965  1.00  0.00     0.049 A 
ATOM     41  N   UNL A   1      42.866  27.406  28.145  1.00  0.00    -0.248 NA
ATOM     42  C   UNL A   1      41.226  25.748  28.226  1.00  0.00     0.031 C 
ATOM     43  C   UNL A   1      45.712  24.456  26.346  1.00  0.00     0.029 A 
ATOM     44  N   UNL A   1      45.491  26.541  27.121  1.00  0.00    -0.354 N 
ATOM     45  C   UNL A   1      41.693  27.944  28.663  1.00  0.00     0.074 A 
ATOM     46  C   UNL A   1      40.700  26.893  28.637  1.00  0.00     0.031 C 
ATOM     47  C   UNL A   1      46.900  25.066  26.206  1.00  0.00     0.029 A 
ATOM     48  C   UNL A   1      46.790  26.442  26.682  1.00  0.00     0.049 A 
ATOM     49  H   UNL A   1      45.115  27.363  27.512  1.00  0.00     0.167 HD
ATOM     50  C   UNL A   1      41.473  29.193  29.136  1.00  0.00     0.034 A 
ATOM     51  C   UNL A   1      47.779  27.357  26.657  1.00  0.00     0.034 A 
ATOM     52  C   UNL A   1      42.479  30.222  29.189  1.00  0.00     0.049 A 
ATOM     53  C   UNL A   1      47.504  28.743  27.175  1.00  0.00     0.074 A 
ATOM     54  C   UNL A   1      42.373  31.504  29.700  1.00  0.00     0.029 A 
ATOM     55  N   UNL A   1      43.778  30.087  28.719  1.00  0.00    -0.354 N 
ATOM     56  N   UNL A   1      46.390  29.232  27.666  1.00  0.00    -0.248 NA
ATOM     57  C   UNL A   1      48.618  29.702  27.133  1.00  0.00     0.031 C 
ATOM     58  C   UNL A   1      43.589  32.161  29.494  1.00  0.00     0.029 A 
ATOM     59  C   UNL A   1      44.475  31.270  28.908  1.00  0.00     0.049 A 
ATOM     60  H   UNL A   1      44.150  29.272  28.311  1.00  0.00     0.167 HD
ATOM     61  C   UNL A   1      46.673  30.550  28.007  1.00  0.00     0.074 A 
ATOM     62  C   UNL A   1      48.063  30.780  27.672  1.00  0.00     0.031 C 
ATOM     63  C   UNL A   1      45.855  31.484  28.553  1.00  0.00     0.034 A 
BRANCH  50  64
ATOM     64  C   UNL A   1      40.088  29.521  29.626  1.00  0.00     0.023 A 
ATOM     65  C   UNL A   1      39.780  29.529  30.997  1.00  0.00     0.031 A 
ATOM     66  C   UNL A   1      39.070  29.848  28.714  1.00  0.00     0.131 A 
ATOM     67  C   UNL A   1      38.471  29.813  31.415  1.00  0.00     0.055 A 
ATOM     68  C   UNL A   1      37.787  30.192  29.139  1.00  0.00     0.041 A 
ATOM     69  F   UNL A   1      39.310  29.838  27.393  1.00  0.00    -0.206 F 
ATOM     70  C   UNL A   1      37.479  30.168  30.497  1.00  0.00     0.022 A 
BRANCH  67  71
ATOM     71  S   UNL A   1      38.062  29.642  33.172  1.00  0.00     0.124 S 
ATOM     72  O   UNL A   1      37.304  30.867  33.416  1.00  0.00    -0.237 OA
ATOM     73  O   UNL A   1      37.298  28.401  33.204  1.00  0.00    -0.237 OA
ATOM     74  O   UNL A   1      39.370  29.585  33.824  1.00  0.00    -0.744 OA
ENDBRANCH  67  71
ENDBRANCH  50  64
BRANCH  51  75
ATOM     75  C   UNL A   1      49.116  26.995  26.113  1.00  0.00     0.023 A 
ATOM     76  C   UNL A   1      49.504  27.403  24.827  1.00  0.00     0.031 A 
ATOM     77  C   UNL A   1      50.024  26.236  26.871  1.00  0.00     0.131 A 
ATOM     78  C   UNL A   1      50.760  27.027  24.326  1.00  0.00     0.055 A 
ATOM     79  C   UNL A   1      51.287  25.896  26.383  1.00  0.00     0.041 A 
ATOM     80  F   UNL A   1      49.701  25.832  28.111  1.00  0.00    -0.206 F 
ATOM     81  C   UNL A   1      51.658  26.287  25.101  1.00  0.00     0.022 A 
BRANCH  78  82
ATOM     82  S   UNL A   1      51.199  27.498  22.631  1.00  0.00     0.124 S 
ATOM     83  O   UNL A   1      51.081  28.951  22.687  1.00  0.00    -0.237 OA
ATOM     84  O   UNL A   1      52.552  26.967  22.506  1.00  0.00    -0.237 OA
ATOM     85  O   UNL A   1      50.190  26.820  21.818  1.00  0.00    -0.744 OA
ENDBRANCH  78  82
ENDBRANCH  51  75
BRANCH  63  86
ATOM     86  C   UNL A   1      46.448  32.835  28.848  1.00  0.00     0.023 A 
ATOM     87  C   UNL A   1      46.357  33.890  27.925  1.00  0.00     0.031 A 
ATOM     88  C   UNL A   1      47.062  33.081  30.087  1.00  0.00     0.131 A 
ATOM     89  C   UNL A   1      46.895  35.145  28.249  1.00  0.00     0.055 A 
ATOM     90  C   UNL A   1      47.558  34.342  30.421  1.00  0.00     0.041 A 
ATOM     91  F   UNL A   1      47.167  32.105  31.002  1.00  0.00    -0.206 F 
ATOM     92  C   UNL A   1      47.479  35.381  29.497  1.00  0.00     0.022 A 
BRANCH  89  93
ATOM     93  S   UNL A   1      46.842  36.465  27.008  1.00  0.00     0.124 S 
ATOM     94  O   UNL A   1      48.112  37.147  27.238  1.00  0.00    -0.237 OA
ATOM     95  O   UNL A   1      46.738  35.720  25.757  1.00  0.00    -0.237 OA
ATOM     96  O   UNL A   1      45.651  37.230  27.371  1.00  0.00    -0.744 OA
ENDBRANCH  89  93
ENDBRANCH  63  86
ENDBRANCH  37  38
ENDBRANCH  29  32
ENDBRANCH  27  28
ENDBRANCH  26  27
ENDBRANCH   1  26
TORSDOF 18
ENDMDL
