MODEL 1
REMARK VINA RESULT:     -12.2      0.000      0.000
REMARK SMILES C[C@@H]1SCCC[C@]1(CC(=O)NCCCCNC(=O)c1ccc(-c2c3nc(c(-c4cc(S(=O)(=O)[O-])ccc4F)c4ccc([nH]4)c(-c4cc(S(=O)(=O)[O-])ccc4F)c4nc(c(-c5cc(S(=O)(=O)[O-])ccc5F)c5ccc2[nH]5)C=C4)C=C3)cc1)[NH+]1CCOCC1
REMARK SMILES IDX 14 1 13 2 12 3 11 4 9 5 10 6 8 8 7 9 1 10 2 11 3 12 4 13
REMARK SMILES IDX 6 14 5 15 82 16 83 17 87 18 84 20 86 21 85 22 15 23 16 24
REMARK SMILES IDX 17 25 18 27 19 28 20 29 81 30 21 31 80 32 22 33 23 34 24 35
REMARK SMILES IDX 74 36 25 37 79 38 73 39 75 40 26 41 78 42 72 43 71 44 27 46
REMARK SMILES IDX 59 47 39 48 58 49 40 50 43 51 57 52 76 53 41 54 42 55 56 57
REMARK SMILES IDX 77 58 44 59 28 60 29 61 37 62 30 63 36 64 38 65 35 66 31 67
REMARK SMILES IDX 32 68 33 69 34 70 60 71 61 72 69 73 62 74 68 75 70 76 67 77
REMARK SMILES IDX 63 78 64 79 65 80 66 81 45 82 46 83 54 84 47 85 53 86 55 87
REMARK SMILES IDX 52 88 48 89 49 90 50 91 51 92
REMARK H PARENT 11 7 82 19 16 26 75 45 43 56
REMARK Flexibility Score: inf
ROOT
ATOM      1  C   UNL A   1      35.505  21.935  25.559  1.00  0.00     0.023 C 
ENDROOT
BRANCH   1   2
ATOM      2  C   UNL A   1      34.669  21.708  26.802  1.00  0.00     0.023 C 
BRANCH   2   3
ATOM      3  C   UNL A   1      33.181  21.441  26.579  1.00  0.00     0.116 C 
BRANCH   3   4
ATOM      4  N   UNL A   1      32.354  22.462  27.177  1.00  0.00    -0.356 N 
ATOM      5  C   UNL A   1      32.023  23.700  26.741  1.00  0.00     0.226 C 
ATOM      6  O   UNL A   1      31.016  24.198  27.266  1.00  0.00    -0.275 OA
ATOM      7  H   UNL A   1      31.966  22.218  28.048  1.00  0.00     0.163 HD
BRANCH   5   8
ATOM      8  C   UNL A   1      32.756  24.480  25.641  1.00  0.00     0.169 C 
BRANCH   8   9
ATOM      9  C   UNL A   1      32.084  25.075  24.314  1.00  0.00     0.118 C 
ATOM     10  C   UNL A   1      32.876  26.006  21.899  1.00  0.00     0.026 C 
ATOM     11  C   UNL A   1      33.214  25.348  23.236  1.00  0.00     0.105 C 
ATOM     12  S   UNL A   1      34.263  23.888  22.813  1.00  0.00    -0.152 SA
ATOM     13  C   UNL A   1      32.958  22.775  22.263  1.00  0.00     0.070 C 
ATOM     14  C   UNL A   1      31.181  23.919  23.727  1.00  0.00     0.071 C 
ATOM     15  C   UNL A   1      31.898  22.613  23.341  1.00  0.00     0.017 C 
BRANCH   9  16
ATOM     16  N   UNL A   1      31.158  26.216  24.556  1.00  0.00    -0.325 N 
ATOM     17  C   UNL A   1      31.465  27.444  25.288  1.00  0.00     0.291 C 
ATOM     18  C   UNL A   1      29.816  26.336  23.976  1.00  0.00     0.291 C 
ATOM     19  H   UNL A   1      31.610  25.360  24.875  1.00  0.00     0.348 HD
ATOM     20  C   UNL A   1      31.406  28.650  24.344  1.00  0.00     0.221 C 
ATOM     21  C   UNL A   1      29.644  27.638  23.150  1.00  0.00     0.221 C 
ATOM     22  O   UNL A   1      30.066  28.812  23.860  1.00  0.00    -0.370 OA
ENDBRANCH   9  16
ENDBRANCH   8   9
ENDBRANCH   5   8
ENDBRANCH   3   4
ENDBRANCH   2   3
ENDBRANCH   1   2
BRANCH   1  23
ATOM     23  C   UNL A   1      36.885  22.486  25.850  1.00  0.00     0.116 C 
BRANCH  23  24
ATOM     24  N   UNL A   1      37.933  21.472  25.844  1.00  0.00    -0.352 N 
ATOM     25  C   UNL A   1      39.251  21.606  26.221  1.00  0.00     0.251 C 
ATOM     26  H   UNL A   1      37.663  20.579  25.531  1.00  0.00     0.163 HD
ATOM     27  O   UNL A   1      40.044  20.700  26.040  1.00  0.00    -0.269 OA
BRANCH  25  28
ATOM     28  C   UNL A   1      39.674  22.895  26.806  1.00  0.00     0.039 A 
ATOM     29  C   UNL A   1      40.588  22.895  27.857  1.00  0.00     0.014 A 
ATOM     30  C   UNL A   1      39.235  24.093  26.237  1.00  0.00     0.014 A 
ATOM     31  C   UNL A   1      41.109  24.110  28.296  1.00  0.00     0.010 A 
ATOM     32  C   UNL A   1      39.858  25.281  26.580  1.00  0.00     0.010 A 
ATOM     33  C   UNL A   1      40.776  25.306  27.636  1.00  0.00    -0.014 A 
BRANCH  33  34
ATOM     34  C   UNL A   1      41.347  26.599  28.076  1.00  0.00     0.031 A 
ATOM     35  C   UNL A   1      42.766  26.946  27.714  1.00  0.00     0.074 A 
ATOM     36  C   UNL A   1      40.593  27.436  28.815  1.00  0.00     0.049 A 
ATOM     37  N   UNL A   1      43.438  28.039  27.960  1.00  0.00    -0.248 NA
ATOM     38  C   UNL A   1      43.549  25.910  27.019  1.00  0.00     0.031 C 
ATOM     39  C   UNL A   1      39.236  27.153  29.293  1.00  0.00     0.029 A 
ATOM     40  N   UNL A   1      40.848  28.699  29.278  1.00  0.00    -0.354 N 
ATOM     41  C   UNL A   1      44.716  27.817  27.459  1.00  0.00     0.074 A 
ATOM     42  C   UNL A   1      44.754  26.453  26.986  1.00  0.00     0.031 C 
ATOM     43  C   UNL A   1      38.757  28.236  29.924  1.00  0.00     0.029 A 
ATOM     44  C   UNL A   1      39.780  29.275  29.926  1.00  0.00     0.049 A 
ATOM     45  H   UNL A   1      41.714  29.152  29.158  1.00  0.00     0.167 HD
ATOM     46  C   UNL A   1      45.750  28.687  27.361  1.00  0.00     0.034 A 
ATOM     47  C   UNL A   1      39.642  30.512  30.441  1.00  0.00     0.034 A 
ATOM     48  C   UNL A   1      45.676  30.049  27.825  1.00  0.00     0.049 A 
ATOM     49  C   UNL A   1      40.792  31.475  30.290  1.00  0.00     0.074 A 
ATOM     50  C   UNL A   1      46.633  31.044  27.745  1.00  0.00     0.029 A 
ATOM     51  N   UNL A   1      44.572  30.608  28.461  1.00  0.00    -0.354 N 
ATOM     52  N   UNL A   1      41.972  31.276  29.745  1.00  0.00    -0.248 NA
ATOM     53  C   UNL A   1      40.582  32.833  30.799  1.00  0.00     0.031 C 
ATOM     54  C   UNL A   1      46.131  32.183  28.387  1.00  0.00     0.029 A 
ATOM     55  C   UNL A   1      44.831  31.926  28.797  1.00  0.00     0.049 A 
ATOM     56  H   UNL A   1      43.728  30.134  28.644  1.00  0.00     0.167 HD
ATOM     57  C   UNL A   1      42.635  32.497  29.822  1.00  0.00     0.074 A 
ATOM     58  C   UNL A   1      41.707  33.428  30.436  1.00  0.00     0.031 C 
ATOM     59  C   UNL A   1      43.893  32.825  29.428  1.00  0.00     0.034 A 
BRANCH  46  60
ATOM     60  C   UNL A   1      47.032  28.173  26.745  1.00  0.00     0.023 A 
ATOM     61  C   UNL A   1      47.259  28.223  25.357  1.00  0.00     0.031 A 
ATOM     62  C   UNL A   1      48.019  27.574  27.547  1.00  0.00     0.131 A 
ATOM     63  C   UNL A   1      48.395  27.609  24.807  1.00  0.00     0.055 A 
ATOM     64  C   UNL A   1      49.191  27.044  27.002  1.00  0.00     0.041 A 
ATOM     65  F   UNL A   1      47.852  27.470  28.875  1.00  0.00    -0.206 F 
ATOM     66  C   UNL A   1      49.377  27.044  25.622  1.00  0.00     0.022 A 
BRANCH  63  67
ATOM     67  S   UNL A   1      48.490  27.419  23.004  1.00  0.00     0.124 S 
ATOM     68  O   UNL A   1      47.313  28.167  22.567  1.00  0.00    -0.237 OA
ATOM     69  O   UNL A   1      49.781  28.018  22.690  1.00  0.00    -0.237 OA
ATOM     70  O   UNL A   1      48.408  25.973  22.807  1.00  0.00    -0.744 OA
ENDBRANCH  63  67
ENDBRANCH  46  60
BRANCH  47  71
ATOM     71  C   UNL A   1      38.371  30.921  31.107  1.00  0.00     0.023 A 
ATOM     72  C   UNL A   1      37.345  31.555  30.387  1.00  0.00     0.031 A 
ATOM     73  C   UNL A   1      38.176  30.712  32.483  1.00  0.00     0.131 A 
ATOM     74  C   UNL A   1      36.194  32.005  31.055  1.00  0.00     0.055 A 
ATOM     75  C   UNL A   1      37.006  31.114  33.133  1.00  0.00     0.041 A 
ATOM     76  F   UNL A   1      39.119  30.101  33.218  1.00  0.00    -0.206 F 
ATOM     77  C   UNL A   1      36.012  31.777  32.419  1.00  0.00     0.022 A 
BRANCH  74  78
ATOM     78  S   UNL A   1      34.972  32.971  30.125  1.00  0.00     0.124 S 
ATOM     79  O   UNL A   1      34.469  31.985  29.177  1.00  0.00    -0.237 OA
ATOM     80  O   UNL A   1      34.047  33.381  31.178  1.00  0.00    -0.237 OA
ATOM     81  O   UNL A   1      35.765  34.051  29.541  1.00  0.00    -0.744 OA
ENDBRANCH  74  78
ENDBRANCH  47  71
BRANCH  59  82
ATOM     82  C   UNL A   1      44.308  34.263  29.630  1.00  0.00     0.023 A 
ATOM     83  C   UNL A   1      44.056  35.243  28.655  1.00  0.00     0.031 A 
ATOM     84  C   UNL A   1      45.004  34.644  30.790  1.00  0.00     0.131 A 
ATOM     85  C   UNL A   1      44.576  36.534  28.815  1.00  0.00     0.055 A 
ATOM     86  C   UNL A   1      45.450  35.953  30.979  1.00  0.00     0.041 A 
ATOM     87  F   UNL A   1      45.270  33.750  31.755  1.00  0.00    -0.206 F 
ATOM     88  C   UNL A   1      45.257  36.900  29.978  1.00  0.00     0.022 A 
BRANCH  85  89
ATOM     89  S   UNL A   1      44.479  37.684  27.415  1.00  0.00     0.124 S 
ATOM     90  O   UNL A   1      43.240  37.267  26.766  1.00  0.00    -0.237 OA
ATOM     91  O   UNL A   1      44.444  38.981  28.082  1.00  0.00    -0.237 OA
ATOM     92  O   UNL A   1      45.700  37.407  26.660  1.00  0.00    -0.744 OA
ENDBRANCH  85  89
ENDBRANCH  59  82
ENDBRANCH  33  34
ENDBRANCH  25  28
ENDBRANCH  23  24
ENDBRANCH   1  23
TORSDOF 16
ENDMDL
MODEL 2
REMARK VINA RESULT:     -12.1      4.827     10.132
REMARK SMILES C[C@@H]1SCCC[C@]1(CC(=O)NCCCCNC(=O)c1ccc(-c2c3nc(c(-c4cc(S(=O)(=O)[O-])ccc4F)c4ccc([nH]4)c(-c4cc(S(=O)(=O)[O-])ccc4F)c4nc(c(-c5cc(S(=O)(=O)[O-])ccc5F)c5ccc2[nH]5)C=C4)C=C3)cc1)[NH+]1CCOCC1
REMARK SMILES IDX 14 1 13 2 12 3 11 4 9 5 10 6 8 8 7 9 1 10 2 11 3 12 4 13
REMARK SMILES IDX 6 14 5 15 82 16 83 17 87 18 84 20 86 21 85 22 15 23 16 24
REMARK SMILES IDX 17 25 18 27 19 28 20 29 81 30 21 31 80 32 22 33 23 34 24 35
REMARK SMILES IDX 74 36 25 37 79 38 73 39 75 40 26 41 78 42 72 43 71 44 27 46
REMARK SMILES IDX 59 47 39 48 58 49 40 50 43 51 57 52 76 53 41 54 42 55 56 57
REMARK SMILES IDX 77 58 44 59 28 60 29 61 37 62 30 63 36 64 38 65 35 66 31 67
REMARK SMILES IDX 32 68 33 69 34 70 60 71 61 72 69 73 62 74 68 75 70 76 67 77
REMARK SMILES IDX 63 78 64 79 65 80 66 81 45 82 46 83 54 84 47 85 53 86 55 87
REMARK SMILES IDX 52 88 48 89 49 90 50 91 51 92
REMARK H PARENT 11 7 82 19 16 26 75 45 43 56
REMARK Flexibility Score: inf
ROOT
ATOM      1  C   UNL A   1      31.899  29.321  27.214  1.00  0.00     0.023 C 
ENDROOT
BRANCH   1   2
ATOM      2  C   UNL A   1      32.082  27.842  26.946  1.00  0.00     0.023 C 
BRANCH   2   3
ATOM      3  C   UNL A   1      30.912  27.124  26.274  1.00  0.00     0.116 C 
BRANCH   3   4
ATOM      4  N   UNL A   1      30.667  25.826  26.858  1.00  0.00    -0.356 N 
ATOM      5  C   UNL A   1      30.907  24.583  26.380  1.00  0.00     0.226 C 
ATOM      6  O   UNL A   1      30.945  23.684  27.233  1.00  0.00    -0.275 OA
ATOM      7  H   UNL A   1      30.257  25.850  27.753  1.00  0.00     0.163 HD
BRANCH   5   8
ATOM      8  C   UNL A   1      31.176  24.232  24.911  1.00  0.00     0.169 C 
BRANCH   8   9
ATOM      9  C   UNL A   1      32.528  23.595  24.336  1.00  0.00     0.118 C 
ATOM     10  C   UNL A   1      33.602  22.981  21.928  1.00  0.00     0.026 C 
ATOM     11  C   UNL A   1      32.480  23.614  22.751  1.00  0.00     0.105 C 
ATOM     12  S   UNL A   1      32.193  25.274  21.996  1.00  0.00    -0.152 SA
ATOM     13  C   UNL A   1      33.601  26.139  22.711  1.00  0.00     0.070 C 
ATOM     14  C   UNL A   1      33.687  24.584  24.756  1.00  0.00     0.071 C 
ATOM     15  C   UNL A   1      33.589  26.025  24.227  1.00  0.00     0.017 C 
BRANCH   9  16
ATOM     16  N   UNL A   1      32.890  22.281  24.938  1.00  0.00    -0.325 N 
ATOM     17  C   UNL A   1      32.078  21.066  24.923  1.00  0.00     0.291 C 
ATOM     18  C   UNL A   1      34.193  21.971  25.535  1.00  0.00     0.291 C 
ATOM     19  H   UNL A   1      32.394  23.171  24.986  1.00  0.00     0.348 HD
ATOM     20  C   UNL A   1      32.780  19.972  24.112  1.00  0.00     0.221 C 
ATOM     21  C   UNL A   1      34.874  20.750  24.861  1.00  0.00     0.221 C 
ATOM     22  O   UNL A   1      34.008  19.611  24.759  1.00  0.00    -0.370 OA
ENDBRANCH   9  16
ENDBRANCH   8   9
ENDBRANCH   5   8
ENDBRANCH   3   4
ENDBRANCH   2   3
ENDBRANCH   1   2
BRANCH   1  23
ATOM     23  C   UNL A   1      33.032  30.176  26.689  1.00  0.00     0.116 C 
BRANCH  23  24
ATOM     24  N   UNL A   1      32.888  31.594  26.997  1.00  0.00    -0.352 N 
ATOM     25  C   UNL A   1      33.753  32.408  27.694  1.00  0.00     0.251 C 
ATOM     26  H   UNL A   1      32.068  32.024  26.663  1.00  0.00     0.163 HD
ATOM     27  O   UNL A   1      33.437  33.547  27.985  1.00  0.00    -0.269 OA
BRANCH  25  28
ATOM     28  C   UNL A   1      35.049  31.837  28.116  1.00  0.00     0.039 A 
ATOM     29  C   UNL A   1      36.173  32.659  28.148  1.00  0.00     0.014 A 
ATOM     30  C   UNL A   1      35.113  30.518  28.570  1.00  0.00     0.014 A 
ATOM     31  C   UNL A   1      37.353  32.165  28.699  1.00  0.00     0.010 A 
ATOM     32  C   UNL A   1      36.241  30.080  29.242  1.00  0.00     0.010 A 
ATOM     33  C   UNL A   1      37.383  30.887  29.283  1.00  0.00    -0.014 A 
BRANCH  33  34
ATOM     34  C   UNL A   1      38.624  30.364  29.898  1.00  0.00     0.031 A 
ATOM     35  C   UNL A   1      39.003  30.796  31.289  1.00  0.00     0.074 A 
ATOM     36  C   UNL A   1      39.408  29.525  29.193  1.00  0.00     0.049 A 
ATOM     37  N   UNL A   1      40.018  30.422  32.023  1.00  0.00    -0.248 NA
ATOM     38  C   UNL A   1      38.153  31.815  31.925  1.00  0.00     0.031 C 
ATOM     39  C   UNL A   1      39.173  29.115  27.804  1.00  0.00     0.029 A 
ATOM     40  N   UNL A   1      40.546  28.852  29.546  1.00  0.00    -0.354 N 
ATOM     41  C   UNL A   1      39.929  31.165  33.195  1.00  0.00     0.074 A 
ATOM     42  C   UNL A   1      38.822  32.078  33.035  1.00  0.00     0.031 C 
ATOM     43  C   UNL A   1      40.101  28.213  27.449  1.00  0.00     0.029 A 
ATOM     44  C   UNL A   1      41.013  28.005  28.567  1.00  0.00     0.049 A 
ATOM     45  H   UNL A   1      40.989  28.963  30.418  1.00  0.00     0.167 HD
ATOM     46  C   UNL A   1      40.674  31.061  34.322  1.00  0.00     0.034 A 
ATOM     47  C   UNL A   1      42.048  27.144  28.586  1.00  0.00     0.034 A 
ATOM     48  C   UNL A   1      41.761  30.125  34.460  1.00  0.00     0.049 A 
ATOM     49  C   UNL A   1      42.843  27.019  29.861  1.00  0.00     0.074 A 
ATOM     50  C   UNL A   1      42.565  29.887  35.559  1.00  0.00     0.029 A 
ATOM     51  N   UNL A   1      42.197  29.267  33.455  1.00  0.00    -0.354 N 
ATOM     52  N   UNL A   1      42.701  27.674  30.992  1.00  0.00    -0.248 NA
ATOM     53  C   UNL A   1      43.917  26.023  29.869  1.00  0.00     0.031 C 
ATOM     54  C   UNL A   1      43.524  28.933  35.200  1.00  0.00     0.029 A 
ATOM     55  C   UNL A   1      43.271  28.515  33.902  1.00  0.00     0.049 A 
ATOM     56  H   UNL A   1      41.799  29.204  32.556  1.00  0.00     0.167 HD
ATOM     57  C   UNL A   1      43.654  27.146  31.857  1.00  0.00     0.074 A 
ATOM     58  C   UNL A   1      44.338  26.098  31.122  1.00  0.00     0.031 C 
ATOM     59  C   UNL A   1      43.946  27.491  33.139  1.00  0.00     0.034 A 
BRANCH  46  60
ATOM     60  C   UNL A   1      40.337  31.992  35.464  1.00  0.00     0.023 A 
ATOM     61  C   UNL A   1      39.332  31.682  36.400  1.00  0.00     0.031 A 
ATOM     62  C   UNL A   1      40.988  33.232  35.591  1.00  0.00     0.131 A 
ATOM     63  C   UNL A   1      38.948  32.631  37.360  1.00  0.00     0.055 A 
ATOM     64  C   UNL A   1      40.662  34.135  36.606  1.00  0.00     0.041 A 
ATOM     65  F   UNL A   1      41.937  33.599  34.715  1.00  0.00    -0.206 F 
ATOM     66  C   UNL A   1      39.625  33.845  37.488  1.00  0.00     0.022 A 
BRANCH  63  67
ATOM     67  S   UNL A   1      37.448  32.320  38.334  1.00  0.00     0.124 S 
ATOM     68  O   UNL A   1      37.854  32.787  39.658  1.00  0.00    -0.237 OA
ATOM     69  O   UNL A   1      36.451  33.133  37.648  1.00  0.00    -0.237 OA
ATOM     70  O   UNL A   1      37.260  30.875  38.223  1.00  0.00    -0.744 OA
ENDBRANCH  63  67
ENDBRANCH  46  60
BRANCH  47  71
ATOM     71  C   UNL A   1      42.370  26.314  27.389  1.00  0.00     0.023 A 
ATOM     72  C   UNL A   1      41.997  24.962  27.320  1.00  0.00     0.031 A 
ATOM     73  C   UNL A   1      43.084  26.854  26.305  1.00  0.00     0.131 A 
ATOM     74  C   UNL A   1      42.384  24.182  26.218  1.00  0.00     0.055 A 
ATOM     75  C   UNL A   1      43.421  26.088  25.186  1.00  0.00     0.041 A 
ATOM     76  F   UNL A   1      43.457  28.144  26.312  1.00  0.00    -0.206 F 
ATOM     77  C   UNL A   1      43.082  24.739  25.146  1.00  0.00     0.022 A 
BRANCH  74  78
ATOM     78  S   UNL A   1      42.034  22.402  26.247  1.00  0.00     0.124 S 
ATOM     79  O   UNL A   1      42.733  21.940  25.054  1.00  0.00    -0.237 OA
ATOM     80  O   UNL A   1      42.612  22.002  27.526  1.00  0.00    -0.237 OA
ATOM     81  O   UNL A   1      40.575  22.341  26.178  1.00  0.00    -0.744 OA
ENDBRANCH  74  78
ENDBRANCH  47  71
BRANCH  59  82
ATOM     82  C   UNL A   1      45.034  26.695  33.818  1.00  0.00     0.023 A 
ATOM     83  C   UNL A   1      44.758  25.478  34.464  1.00  0.00     0.031 A 
ATOM     84  C   UNL A   1      46.351  27.184  33.860  1.00  0.00     0.131 A 
ATOM     85  C   UNL A   1      45.763  24.837  35.202  1.00  0.00     0.055 A 
ATOM     86  C   UNL A   1      47.366  26.500  34.530  1.00  0.00     0.041 A 
ATOM     87  F   UNL A   1      46.672  28.341  33.258  1.00  0.00    -0.206 F 
ATOM     88  C   UNL A   1      47.069  25.332  35.224  1.00  0.00     0.022 A 
BRANCH  85  89
ATOM     89  S   UNL A   1      45.301  23.431  36.251  1.00  0.00     0.124 S 
ATOM     90  O   UNL A   1      44.070  22.970  35.616  1.00  0.00    -0.237 OA
ATOM     91  O   UNL A   1      46.457  22.551  36.116  1.00  0.00    -0.237 OA
ATOM     92  O   UNL A   1      45.130  24.034  37.572  1.00  0.00    -0.744 OA
ENDBRANCH  85  89
ENDBRANCH  59  82
ENDBRANCH  33  34
ENDBRANCH  25  28
ENDBRANCH  23  24
ENDBRANCH   1  23
TORSDOF 16
ENDMDL
MODEL 3
REMARK VINA RESULT:     -12.0      4.844      9.851
REMARK SMILES C[C@@H]1SCCC[C@]1(CC(=O)NCCCCNC(=O)c1ccc(-c2c3nc(c(-c4cc(S(=O)(=O)[O-])ccc4F)c4ccc([nH]4)c(-c4cc(S(=O)(=O)[O-])ccc4F)c4nc(c(-c5cc(S(=O)(=O)[O-])ccc5F)c5ccc2[nH]5)C=C4)C=C3)cc1)[NH+]1CCOCC1
REMARK SMILES IDX 14 1 13 2 12 3 11 4 9 5 10 6 8 8 7 9 1 10 2 11 3 12 4 13
REMARK SMILES IDX 6 14 5 15 82 16 83 17 87 18 84 20 86 21 85 22 15 23 16 24
REMARK SMILES IDX 17 25 18 27 19 28 20 29 81 30 21 31 80 32 22 33 23 34 24 35
REMARK SMILES IDX 74 36 25 37 79 38 73 39 75 40 26 41 78 42 72 43 71 44 27 46
REMARK SMILES IDX 59 47 39 48 58 49 40 50 43 51 57 52 76 53 41 54 42 55 56 57
REMARK SMILES IDX 77 58 44 59 28 60 29 61 37 62 30 63 36 64 38 65 35 66 31 67
REMARK SMILES IDX 32 68 33 69 34 70 60 71 61 72 69 73 62 74 68 75 70 76 67 77
REMARK SMILES IDX 63 78 64 79 65 80 66 81 45 82 46 83 54 84 47 85 53 86 55 87
REMARK SMILES IDX 52 88 48 89 49 90 50 91 51 92
REMARK H PARENT 11 7 82 19 16 26 75 45 43 56
REMARK Flexibility Score: inf
ROOT
ATOM      1  C   UNL A   1      32.071  28.660  26.096  1.00  0.00     0.023 C 
ENDROOT
BRANCH   1   2
ATOM      2  C   UNL A   1      31.539  27.438  26.815  1.00  0.00     0.023 C 
BRANCH   2   3
ATOM      3  C   UNL A   1      30.702  26.469  25.980  1.00  0.00     0.116 C 
BRANCH   3   4
ATOM      4  N   UNL A   1      30.669  25.147  26.559  1.00  0.00    -0.356 N 
ATOM      5  C   UNL A   1      31.667  24.269  26.818  1.00  0.00     0.226 C 
ATOM      6  O   UNL A   1      31.397  23.387  27.646  1.00  0.00    -0.275 OA
ATOM      7  H   UNL A   1      29.770  24.830  26.807  1.00  0.00     0.163 HD
BRANCH   5   8
ATOM      8  C   UNL A   1      33.076  24.323  26.213  1.00  0.00     0.169 C 
BRANCH   8   9
ATOM      9  C   UNL A   1      33.471  23.880  24.726  1.00  0.00     0.118 C 
ATOM     10  C   UNL A   1      35.706  23.230  23.344  1.00  0.00     0.026 C 
ATOM     11  C   UNL A   1      35.027  23.585  24.666  1.00  0.00     0.105 C 
ATOM     12  S   UNL A   1      35.635  22.334  25.881  1.00  0.00    -0.152 SA
ATOM     13  C   UNL A   1      34.594  20.953  25.383  1.00  0.00     0.070 C 
ATOM     14  C   UNL A   1      32.748  22.496  24.478  1.00  0.00     0.071 C 
ATOM     15  C   UNL A   1      33.125  21.343  25.425  1.00  0.00     0.017 C 
BRANCH   9  16
ATOM     16  N   UNL A   1      32.962  24.788  23.660  1.00  0.00    -0.325 N 
ATOM     17  C   UNL A   1      33.192  26.228  23.565  1.00  0.00     0.291 C 
ATOM     18  C   UNL A   1      32.248  24.344  22.459  1.00  0.00     0.291 C 
ATOM     19  H   UNL A   1      32.886  24.391  24.597  1.00  0.00     0.348 HD
ATOM     20  C   UNL A   1      34.018  26.549  22.315  1.00  0.00     0.221 C 
ATOM     21  C   UNL A   1      32.953  24.798  21.153  1.00  0.00     0.221 C 
ATOM     22  O   UNL A   1      33.268  26.197  21.144  1.00  0.00    -0.370 OA
ENDBRANCH   9  16
ENDBRANCH   8   9
ENDBRANCH   5   8
ENDBRANCH   3   4
ENDBRANCH   2   3
ENDBRANCH   1   2
BRANCH   1  23
ATOM     23  C   UNL A   1      33.269  29.289  26.774  1.00  0.00     0.116 C 
BRANCH  23  24
ATOM     24  N   UNL A   1      33.104  30.710  27.055  1.00  0.00    -0.352 N 
ATOM     25  C   UNL A   1      33.973  31.557  27.708  1.00  0.00     0.251 C 
ATOM     26  H   UNL A   1      32.266  31.115  26.737  1.00  0.00     0.163 HD
ATOM     27  O   UNL A   1      33.642  32.695  27.983  1.00  0.00    -0.269 OA
BRANCH  25  28
ATOM     28  C   UNL A   1      35.292  31.021  28.102  1.00  0.00     0.039 A 
ATOM     29  C   UNL A   1      36.415  31.840  27.996  1.00  0.00     0.014 A 
ATOM     30  C   UNL A   1      35.385  29.747  28.667  1.00  0.00     0.014 A 
ATOM     31  C   UNL A   1      37.625  31.393  28.520  1.00  0.00     0.010 A 
ATOM     32  C   UNL A   1      36.552  29.368  29.308  1.00  0.00     0.010 A 
ATOM     33  C   UNL A   1      37.693  30.172  29.212  1.00  0.00    -0.014 A 
BRANCH  33  34
ATOM     34  C   UNL A   1      38.969  29.701  29.797  1.00  0.00     0.031 A 
ATOM     35  C   UNL A   1      39.405  30.220  31.141  1.00  0.00     0.074 A 
ATOM     36  C   UNL A   1      39.731  28.832  29.107  1.00  0.00     0.049 A 
ATOM     37  N   UNL A   1      40.459  29.904  31.847  1.00  0.00    -0.248 NA
ATOM     38  C   UNL A   1      38.570  31.266  31.755  1.00  0.00     0.031 C 
ATOM     39  C   UNL A   1      39.438  28.337  27.758  1.00  0.00     0.029 A 
ATOM     40  N   UNL A   1      40.895  28.195  29.445  1.00  0.00    -0.354 N 
ATOM     41  C   UNL A   1      40.412  30.714  32.976  1.00  0.00     0.074 A 
ATOM     42  C   UNL A   1      39.286  31.603  32.814  1.00  0.00     0.031 C 
ATOM     43  C   UNL A   1      40.362  27.426  27.413  1.00  0.00     0.029 A 
ATOM     44  C   UNL A   1      41.329  27.297  28.497  1.00  0.00     0.049 A 
ATOM     45  H   UNL A   1      41.376  28.363  30.287  1.00  0.00     0.167 HD
ATOM     46  C   UNL A   1      41.211  30.687  34.070  1.00  0.00     0.034 A 
ATOM     47  C   UNL A   1      42.376  26.451  28.518  1.00  0.00     0.034 A 
ATOM     48  C   UNL A   1      42.317  29.774  34.213  1.00  0.00     0.049 A 
ATOM     49  C   UNL A   1      43.231  26.413  29.760  1.00  0.00     0.074 A 
ATOM     50  C   UNL A   1      43.174  29.613  35.285  1.00  0.00     0.029 A 
ATOM     51  N   UNL A   1      42.718  28.864  33.241  1.00  0.00    -0.354 N 
ATOM     52  N   UNL A   1      43.131  27.132  30.856  1.00  0.00    -0.248 NA
ATOM     53  C   UNL A   1      44.319  25.431  29.777  1.00  0.00     0.031 C 
ATOM     54  C   UNL A   1      44.130  28.650  34.938  1.00  0.00     0.029 A 
ATOM     55  C   UNL A   1      43.823  28.153  33.680  1.00  0.00     0.049 A 
ATOM     56  H   UNL A   1      42.280  28.741  32.367  1.00  0.00     0.167 HD
ATOM     57  C   UNL A   1      44.131  26.668  31.705  1.00  0.00     0.074 A 
ATOM     58  C   UNL A   1      44.796  25.587  31.001  1.00  0.00     0.031 C 
ATOM     59  C   UNL A   1      44.477  27.093  32.948  1.00  0.00     0.034 A 
BRANCH  46  60
ATOM     60  C   UNL A   1      40.913  31.681  35.171  1.00  0.00     0.023 A 
ATOM     61  C   UNL A   1      39.880  31.466  36.104  1.00  0.00     0.031 A 
ATOM     62  C   UNL A   1      41.631  32.886  35.258  1.00  0.00     0.131 A 
ATOM     63  C   UNL A   1      39.539  32.472  37.020  1.00  0.00     0.055 A 
ATOM     64  C   UNL A   1      41.345  33.847  36.231  1.00  0.00     0.041 A 
ATOM     65  F   UNL A   1      42.610  33.164  34.382  1.00  0.00    -0.206 F 
ATOM     66  C   UNL A   1      40.282  33.650  37.109  1.00  0.00     0.022 A 
BRANCH  63  67
ATOM     67  S   UNL A   1      38.012  32.286  37.983  1.00  0.00     0.124 S 
ATOM     68  O   UNL A   1      37.532  30.984  37.525  1.00  0.00    -0.237 OA
ATOM     69  O   UNL A   1      38.496  32.342  39.357  1.00  0.00    -0.237 OA
ATOM     70  O   UNL A   1      37.199  33.424  37.560  1.00  0.00    -0.744 OA
ENDBRANCH  63  67
ENDBRANCH  46  60
BRANCH  47  71
ATOM     71  C   UNL A   1      42.654  25.555  27.358  1.00  0.00     0.023 A 
ATOM     72  C   UNL A   1      42.147  24.246  27.313  1.00  0.00     0.031 A 
ATOM     73  C   UNL A   1      43.460  25.985  26.289  1.00  0.00     0.131 A 
ATOM     74  C   UNL A   1      42.491  23.396  26.249  1.00  0.00     0.055 A 
ATOM     75  C   UNL A   1      43.757  25.152  25.207  1.00  0.00     0.041 A 
ATOM     76  F   UNL A   1      43.963  27.229  26.276  1.00  0.00    -0.206 F 
ATOM     77  C   UNL A   1      43.282  23.845  25.191  1.00  0.00     0.022 A 
BRANCH  74  78
ATOM     78  S   UNL A   1      41.959  21.663  26.314  1.00  0.00     0.124 S 
ATOM     79  O   UNL A   1      42.825  21.047  25.316  1.00  0.00    -0.237 OA
ATOM     80  O   UNL A   1      42.232  21.315  27.705  1.00  0.00    -0.237 OA
ATOM     81  O   UNL A   1      40.543  21.729  25.957  1.00  0.00    -0.744 OA
ENDBRANCH  74  78
ENDBRANCH  47  71
BRANCH  59  82
ATOM     82  C   UNL A   1      45.607  26.353  33.622  1.00  0.00     0.023 A 
ATOM     83  C   UNL A   1      45.377  25.187  34.372  1.00  0.00     0.031 A 
ATOM     84  C   UNL A   1      46.922  26.846  33.551  1.00  0.00     0.131 A 
ATOM     85  C   UNL A   1      46.426  24.605  35.096  1.00  0.00     0.055 A 
ATOM     86  C   UNL A   1      47.977  26.216  34.211  1.00  0.00     0.041 A 
ATOM     87  F   UNL A   1      47.200  27.955  32.848  1.00  0.00    -0.206 F 
ATOM     88  C   UNL A   1      47.728  25.103  35.006  1.00  0.00     0.022 A 
BRANCH  85  89
ATOM     89  S   UNL A   1      46.034  23.281  36.272  1.00  0.00     0.124 S 
ATOM     90  O   UNL A   1      45.873  24.022  37.520  1.00  0.00    -0.237 OA
ATOM     91  O   UNL A   1      44.815  22.714  35.705  1.00  0.00    -0.237 OA
ATOM     92  O   UNL A   1      47.209  22.413  36.213  1.00  0.00    -0.744 OA
ENDBRANCH  85  89
ENDBRANCH  59  82
ENDBRANCH  33  34
ENDBRANCH  25  28
ENDBRANCH  23  24
ENDBRANCH   1  23
TORSDOF 16
ENDMDL
