MODEL 1
REMARK VINA RESULT:     -12.4      0.000      0.000
REMARK SMILES CC(C)C[C@@H](CNC1=[NH+]S(=O)(=O)c2ccccc21)C(=O)NCCCCNC(=O)c1ccc(-c2c3nc(c(-c4cc(S(=O)(=O)[O-])ccc4F)c4ccc([nH]4)c(-c4cc(S(=O)(=O)[O-])ccc4F)c4nc(c(-c5cc(S(=O)(=O)[O-])ccc5F)c5ccc2[nH]5)C=C4)C=C3)cc1
REMARK SMILES IDX 24 1 23 2 22 3 21 4 19 5 20 6 5 8 4 9 2 10 1 11 3 12 6 13
REMARK SMILES IDX 7 14 8 15 9 17 18 18 10 19 13 21 17 22 11 23 12 24 14 25
REMARK SMILES IDX 16 26 15 27 25 28 26 29 27 30 28 32 29 33 30 34 91 35 31 36
REMARK SMILES IDX 90 37 32 38 33 39 34 40 84 41 35 42 89 43 83 44 85 45 36 46
REMARK SMILES IDX 88 47 82 48 81 49 37 51 69 52 49 53 68 54 50 55 53 56 67 57
REMARK SMILES IDX 86 58 51 59 52 60 66 62 87 63 54 64 38 65 39 66 47 67 40 68
REMARK SMILES IDX 46 69 48 70 45 71 41 72 42 73 43 74 44 75 70 76 71 77 79 78
REMARK SMILES IDX 72 79 78 80 80 81 77 82 73 83 74 84 75 85 76 86 55 87 56 88
REMARK SMILES IDX 64 89 57 90 63 91 65 92 62 93 58 94 59 95 60 96 61 97
REMARK H PARENT 21 7 7 16 9 20 26 31 85 50 53 61
REMARK Flexibility Score: inf
ROOT
ATOM      1  C   UNL A   1      31.743  28.693  26.232  1.00  0.00     0.023 C 
ENDROOT
BRANCH   1   2
ATOM      2  C   UNL A   1      32.162  27.485  27.073  1.00  0.00     0.023 C 
BRANCH   2   3
ATOM      3  C   UNL A   1      32.154  26.151  26.335  1.00  0.00     0.116 C 
BRANCH   3   4
ATOM      4  N   UNL A   1      31.383  25.118  26.987  1.00  0.00    -0.356 N 
ATOM      5  C   UNL A   1      31.360  23.772  26.792  1.00  0.00     0.227 C 
ATOM      6  O   UNL A   1      30.757  23.093  27.629  1.00  0.00    -0.275 OA
ATOM      7  H   UNL A   1      30.774  25.442  27.689  1.00  0.00     0.163 HD
BRANCH   5   8
ATOM      8  C   UNL A   1      31.997  23.085  25.579  1.00  0.00     0.120 C 
BRANCH   8   9
ATOM      9  C   UNL A   1      32.932  21.928  25.971  1.00  0.00     0.020 C 
BRANCH   9  10
ATOM     10  C   UNL A   1      33.597  21.162  24.809  1.00  0.00    -0.016 C 
ATOM     11  C   UNL A   1      35.121  21.101  24.920  1.00  0.00     0.007 C 
ATOM     12  C   UNL A   1      33.034  19.737  24.766  1.00  0.00     0.007 C 
ENDBRANCH   9  10
ENDBRANCH   8   9
BRANCH   8  13
ATOM     13  C   UNL A   1      31.036  22.873  24.398  1.00  0.00     0.247 C 
BRANCH  13  14
ATOM     14  N   UNL A   1      30.386  24.073  23.883  1.00  0.00    -0.272 N 
ATOM     15  C   UNL A   1      31.031  24.959  23.050  1.00  0.00     0.292 C 
ATOM     16  H   UNL A   1      29.453  24.257  24.142  1.00  0.00     0.305 HD
ATOM     17  N   UNL A   1      32.086  24.639  22.356  1.00  0.00    -0.162 N 
ATOM     18  C   UNL A   1      30.619  26.383  22.950  1.00  0.00     0.087 A 
ATOM     19  S   UNL A   1      32.673  25.932  21.538  1.00  0.00     0.329 S 
ATOM     20  H   UNL A   1      32.479  23.736  22.326  1.00  0.00     0.327 HD
ATOM     21  C   UNL A   1      31.561  27.080  22.214  1.00  0.00     0.124 A 
ATOM     22  C   UNL A   1      29.565  27.060  23.535  1.00  0.00     0.018 A 
ATOM     23  O   UNL A   1      32.354  25.813  20.132  1.00  0.00    -0.179 OA
ATOM     24  O   UNL A   1      33.998  26.265  22.014  1.00  0.00    -0.179 OA
ATOM     25  C   UNL A   1      31.586  28.457  22.109  1.00  0.00     0.025 A 
ATOM     26  C   UNL A   1      29.537  28.457  23.414  1.00  0.00     0.001 A 
ATOM     27  C   UNL A   1      30.556  29.153  22.737  1.00  0.00     0.002 A 
ENDBRANCH  13  14
ENDBRANCH   8  13
ENDBRANCH   5   8
ENDBRANCH   3   4
ENDBRANCH   2   3
ENDBRANCH   1   2
BRANCH   1  28
ATOM     28  C   UNL A   1      32.845  29.712  25.931  1.00  0.00     0.116 C 
BRANCH  28  29
ATOM     29  N   UNL A   1      32.634  31.014  26.542  1.00  0.00    -0.352 N 
ATOM     30  C   UNL A   1      33.458  31.709  27.399  1.00  0.00     0.251 C 
ATOM     31  H   UNL A   1      31.786  31.460  26.314  1.00  0.00     0.163 HD
ATOM     32  O   UNL A   1      33.079  32.785  27.854  1.00  0.00    -0.269 OA
BRANCH  30  33
ATOM     33  C   UNL A   1      34.772  31.152  27.796  1.00  0.00     0.039 A 
ATOM     34  C   UNL A   1      35.829  32.042  28.017  1.00  0.00     0.014 A 
ATOM     35  C   UNL A   1      34.963  29.781  27.988  1.00  0.00     0.014 A 
ATOM     36  C   UNL A   1      37.032  31.573  28.546  1.00  0.00     0.010 A 
ATOM     37  C   UNL A   1      36.144  29.319  28.565  1.00  0.00     0.010 A 
ATOM     38  C   UNL A   1      37.172  30.217  28.884  1.00  0.00    -0.014 A 
BRANCH  38  39
ATOM     39  C   UNL A   1      38.324  29.747  29.689  1.00  0.00     0.031 A 
ATOM     40  C   UNL A   1      38.600  30.311  31.048  1.00  0.00     0.074 A 
ATOM     41  C   UNL A   1      39.177  28.870  29.121  1.00  0.00     0.049 A 
ATOM     42  N   UNL A   1      39.581  30.040  31.869  1.00  0.00    -0.248 NA
ATOM     43  C   UNL A   1      37.665  31.334  31.539  1.00  0.00     0.031 C 
ATOM     44  C   UNL A   1      39.034  28.312  27.773  1.00  0.00     0.029 A 
ATOM     45  N   UNL A   1      40.335  28.308  29.590  1.00  0.00    -0.354 N 
ATOM     46  C   UNL A   1      39.383  30.851  32.980  1.00  0.00     0.074 A 
ATOM     47  C   UNL A   1      38.219  31.667  32.697  1.00  0.00     0.031 C 
ATOM     48  C   UNL A   1      40.058  27.479  27.531  1.00  0.00     0.029 A 
ATOM     49  C   UNL A   1      40.946  27.469  28.687  1.00  0.00     0.049 A 
ATOM     50  H   UNL A   1      40.697  28.488  30.488  1.00  0.00     0.167 HD
ATOM     51  C   UNL A   1      40.097  30.893  34.134  1.00  0.00     0.034 A 
ATOM     52  C   UNL A   1      42.096  26.776  28.778  1.00  0.00     0.034 A 
ATOM     53  C   UNL A   1      41.269  30.083  34.377  1.00  0.00     0.049 A 
ATOM     54  C   UNL A   1      42.885  26.854  30.057  1.00  0.00     0.074 A 
ATOM     55  C   UNL A   1      42.036  29.996  35.525  1.00  0.00     0.029 A 
ATOM     56  N   UNL A   1      41.856  29.233  33.445  1.00  0.00    -0.354 N 
ATOM     57  N   UNL A   1      42.634  27.558  31.138  1.00  0.00    -0.248 NA
ATOM     58  C   UNL A   1      44.098  26.033  30.138  1.00  0.00     0.031 C 
ATOM     59  C   UNL A   1      43.124  29.155  35.265  1.00  0.00     0.029 A 
ATOM     60  C   UNL A   1      42.995  28.649  33.982  1.00  0.00     0.049 A 
ATOM     61  H   UNL A   1      41.514  29.069  32.537  1.00  0.00     0.167 HD
ATOM     62  C   UNL A   1      43.644  27.238  32.040  1.00  0.00     0.074 A 
ATOM     63  C   UNL A   1      44.495  26.268  31.380  1.00  0.00     0.031 C 
ATOM     64  C   UNL A   1      43.844  27.697  33.302  1.00  0.00     0.034 A 
BRANCH  51  65
ATOM     65  C   UNL A   1      39.643  31.864  35.198  1.00  0.00     0.023 A 
ATOM     66  C   UNL A   1      38.944  31.430  36.340  1.00  0.00     0.031 A 
ATOM     67  C   UNL A   1      39.889  33.242  35.067  1.00  0.00     0.131 A 
ATOM     68  C   UNL A   1      38.450  32.367  37.260  1.00  0.00     0.055 A 
ATOM     69  C   UNL A   1      39.467  34.162  36.029  1.00  0.00     0.041 A 
ATOM     70  F   UNL A   1      40.535  33.721  33.992  1.00  0.00    -0.206 F 
ATOM     71  C   UNL A   1      38.728  33.728  37.126  1.00  0.00     0.022 A 
BRANCH  68  72
ATOM     72  S   UNL A   1      37.314  31.793  38.552  1.00  0.00     0.124 S 
ATOM     73  O   UNL A   1      37.055  30.418  38.128  1.00  0.00    -0.237 OA
ATOM     74  O   UNL A   1      38.109  31.949  39.763  1.00  0.00    -0.237 OA
ATOM     75  O   UNL A   1      36.172  32.698  38.433  1.00  0.00    -0.744 OA
ENDBRANCH  68  72
ENDBRANCH  51  65
BRANCH  52  76
ATOM     76  C   UNL A   1      42.563  25.941  27.635  1.00  0.00     0.023 A 
ATOM     77  C   UNL A   1      42.136  24.612  27.491  1.00  0.00     0.031 A 
ATOM     78  C   UNL A   1      43.455  26.455  26.677  1.00  0.00     0.131 A 
ATOM     79  C   UNL A   1      42.634  23.827  26.440  1.00  0.00     0.055 A 
ATOM     80  C   UNL A   1      43.909  25.685  25.604  1.00  0.00     0.041 A 
ATOM     81  F   UNL A   1      43.884  27.724  26.761  1.00  0.00    -0.206 F 
ATOM     82  C   UNL A   1      43.507  24.358  25.489  1.00  0.00     0.022 A 
BRANCH  79  83
ATOM     83  S   UNL A   1      42.174  22.074  26.375  1.00  0.00     0.124 S 
ATOM     84  O   UNL A   1      42.585  21.610  27.695  1.00  0.00    -0.237 OA
ATOM     85  O   UNL A   1      40.736  22.147  26.138  1.00  0.00    -0.237 OA
ATOM     86  O   UNL A   1      42.961  21.558  25.257  1.00  0.00    -0.744 OA
ENDBRANCH  79  83
ENDBRANCH  52  76
BRANCH  64  87
ATOM     87  C   UNL A   1      45.015  27.116  34.058  1.00  0.00     0.023 A 
ATOM     88  C   UNL A   1      44.897  25.935  34.812  1.00  0.00     0.031 A 
ATOM     89  C   UNL A   1      46.260  27.769  34.041  1.00  0.00     0.131 A 
ATOM     90  C   UNL A   1      45.987  25.477  35.566  1.00  0.00     0.055 A 
ATOM     91  C   UNL A   1      47.359  27.272  34.742  1.00  0.00     0.041 A 
ATOM     92  F   UNL A   1      46.428  28.904  33.343  1.00  0.00    -0.206 F 
ATOM     93  C   UNL A   1      47.223  26.127  35.521  1.00  0.00     0.022 A 
BRANCH  90  94
ATOM     94  S   UNL A   1      45.740  24.071  36.687  1.00  0.00     0.124 S 
ATOM     95  O   UNL A   1      44.872  23.204  35.896  1.00  0.00    -0.237 OA
ATOM     96  O   UNL A   1      47.103  23.592  36.893  1.00  0.00    -0.237 OA
ATOM     97  O   UNL A   1      45.111  24.675  37.860  1.00  0.00    -0.744 OA
ENDBRANCH  90  94
ENDBRANCH  64  87
ENDBRANCH  38  39
ENDBRANCH  30  33
ENDBRANCH  28  29
ENDBRANCH   1  28
TORSDOF 18
ENDMDL
MODEL 2
REMARK VINA RESULT:     -12.3      1.742      3.469
REMARK SMILES CC(C)C[C@@H](CNC1=[NH+]S(=O)(=O)c2ccccc21)C(=O)NCCCCNC(=O)c1ccc(-c2c3nc(c(-c4cc(S(=O)(=O)[O-])ccc4F)c4ccc([nH]4)c(-c4cc(S(=O)(=O)[O-])ccc4F)c4nc(c(-c5cc(S(=O)(=O)[O-])ccc5F)c5ccc2[nH]5)C=C4)C=C3)cc1
REMARK SMILES IDX 24 1 23 2 22 3 21 4 19 5 20 6 5 8 4 9 2 10 1 11 3 12 6 13
REMARK SMILES IDX 7 14 8 15 9 17 18 18 10 19 13 21 17 22 11 23 12 24 14 25
REMARK SMILES IDX 16 26 15 27 25 28 26 29 27 30 28 32 29 33 30 34 91 35 31 36
REMARK SMILES IDX 90 37 32 38 33 39 34 40 84 41 35 42 89 43 83 44 85 45 36 46
REMARK SMILES IDX 88 47 82 48 81 49 37 51 69 52 49 53 68 54 50 55 53 56 67 57
REMARK SMILES IDX 86 58 51 59 52 60 66 62 87 63 54 64 38 65 39 66 47 67 40 68
REMARK SMILES IDX 46 69 48 70 45 71 41 72 42 73 43 74 44 75 70 76 71 77 79 78
REMARK SMILES IDX 72 79 78 80 80 81 77 82 73 83 74 84 75 85 76 86 55 87 56 88
REMARK SMILES IDX 64 89 57 90 63 91 65 92 62 93 58 94 59 95 60 96 61 97
REMARK H PARENT 21 7 7 16 9 20 26 31 85 50 53 61
REMARK Flexibility Score: inf
ROOT
ATOM      1  C   UNL A   1      31.544  29.341  26.650  1.00  0.00     0.023 C 
ENDROOT
BRANCH   1   2
ATOM      2  C   UNL A   1      32.047  28.025  27.249  1.00  0.00     0.023 C 
BRANCH   2   3
ATOM      3  C   UNL A   1      32.167  26.871  26.260  1.00  0.00     0.116 C 
BRANCH   3   4
ATOM      4  N   UNL A   1      33.222  27.034  25.285  1.00  0.00    -0.356 N 
ATOM      5  C   UNL A   1      33.166  27.156  23.931  1.00  0.00     0.227 C 
ATOM      6  O   UNL A   1      34.206  27.490  23.355  1.00  0.00    -0.275 OA
ATOM      7  H   UNL A   1      34.130  27.061  25.664  1.00  0.00     0.163 HD
BRANCH   5   8
ATOM      8  C   UNL A   1      31.909  26.857  23.109  1.00  0.00     0.120 C 
BRANCH   8   9
ATOM      9  C   UNL A   1      31.027  28.099  22.892  1.00  0.00     0.020 C 
BRANCH   9  10
ATOM     10  C   UNL A   1      29.655  28.096  23.596  1.00  0.00    -0.016 C 
ATOM     11  C   UNL A   1      28.546  28.737  22.760  1.00  0.00     0.007 C 
ATOM     12  C   UNL A   1      29.269  26.649  23.925  1.00  0.00     0.007 C 
ENDBRANCH   9  10
ENDBRANCH   8   9
BRANCH   8  13
ATOM     13  C   UNL A   1      32.145  25.918  21.915  1.00  0.00     0.247 C 
BRANCH  13  14
ATOM     14  N   UNL A   1      33.267  24.995  22.043  1.00  0.00    -0.272 N 
ATOM     15  C   UNL A   1      33.139  23.762  22.641  1.00  0.00     0.292 C 
ATOM     16  H   UNL A   1      34.146  25.265  21.691  1.00  0.00     0.305 HD
ATOM     17  N   UNL A   1      31.993  23.160  22.788  1.00  0.00    -0.162 N 
ATOM     18  C   UNL A   1      34.301  23.060  23.246  1.00  0.00     0.087 A 
ATOM     19  S   UNL A   1      32.161  21.757  23.617  1.00  0.00     0.329 S 
ATOM     20  H   UNL A   1      31.136  23.505  22.446  1.00  0.00     0.327 HD
ATOM     21  C   UNL A   1      33.851  21.960  23.954  1.00  0.00     0.124 A 
ATOM     22  C   UNL A   1      35.641  23.398  23.279  1.00  0.00     0.018 A 
ATOM     23  O   UNL A   1      32.043  20.633  22.713  1.00  0.00    -0.179 OA
ATOM     24  O   UNL A   1      31.447  21.828  24.873  1.00  0.00    -0.179 OA
ATOM     25  C   UNL A   1      34.648  21.215  24.801  1.00  0.00     0.025 A 
ATOM     26  C   UNL A   1      36.488  22.638  24.099  1.00  0.00     0.001 A 
ATOM     27  C   UNL A   1      35.991  21.578  24.880  1.00  0.00     0.002 A 
ENDBRANCH  13  14
ENDBRANCH   8  13
ENDBRANCH   5   8
ENDBRANCH   3   4
ENDBRANCH   2   3
ENDBRANCH   1   2
BRANCH   1  28
ATOM     28  C   UNL A   1      32.622  30.291  26.124  1.00  0.00     0.116 C 
BRANCH  28  29
ATOM     29  N   UNL A   1      32.524  31.647  26.640  1.00  0.00    -0.352 N 
ATOM     30  C   UNL A   1      33.417  32.337  27.429  1.00  0.00     0.251 C 
ATOM     31  H   UNL A   1      31.707  32.139  26.393  1.00  0.00     0.163 HD
ATOM     32  O   UNL A   1      33.130  33.470  27.809  1.00  0.00    -0.269 OA
BRANCH  30  33
ATOM     33  C   UNL A   1      34.694  31.712  27.845  1.00  0.00     0.039 A 
ATOM     34  C   UNL A   1      35.814  32.535  28.004  1.00  0.00     0.014 A 
ATOM     35  C   UNL A   1      34.790  30.344  28.114  1.00  0.00     0.014 A 
ATOM     36  C   UNL A   1      36.988  32.012  28.547  1.00  0.00     0.010 A 
ATOM     37  C   UNL A   1      35.943  29.832  28.704  1.00  0.00     0.010 A 
ATOM     38  C   UNL A   1      37.036  30.671  28.961  1.00  0.00    -0.014 A 
BRANCH  38  39
ATOM     39  C   UNL A   1      38.163  30.166  29.780  1.00  0.00     0.031 A 
ATOM     40  C   UNL A   1      38.377  30.647  31.183  1.00  0.00     0.074 A 
ATOM     41  C   UNL A   1      39.051  29.338  29.194  1.00  0.00     0.049 A 
ATOM     42  N   UNL A   1      39.330  30.338  32.024  1.00  0.00    -0.248 NA
ATOM     43  C   UNL A   1      37.408  31.625  31.698  1.00  0.00     0.031 C 
ATOM     44  C   UNL A   1      38.970  28.864  27.808  1.00  0.00     0.029 A 
ATOM     45  N   UNL A   1      40.199  28.763  29.673  1.00  0.00    -0.354 N 
ATOM     46  C   UNL A   1      39.075  31.075  33.174  1.00  0.00     0.074 A 
ATOM     47  C   UNL A   1      37.910  31.891  32.896  1.00  0.00     0.031 C 
ATOM     48  C   UNL A   1      40.016  28.062  27.557  1.00  0.00     0.029 A 
ATOM     49  C   UNL A   1      40.858  27.991  28.744  1.00  0.00     0.049 A 
ATOM     50  H   UNL A   1      40.523  28.891  30.594  1.00  0.00     0.167 HD
ATOM     51  C   UNL A   1      39.743  31.053  34.356  1.00  0.00     0.034 A 
ATOM     52  C   UNL A   1      42.014  27.308  28.837  1.00  0.00     0.034 A 
ATOM     53  C   UNL A   1      40.917  30.244  34.594  1.00  0.00     0.049 A 
ATOM     54  C   UNL A   1      42.752  27.317  30.150  1.00  0.00     0.074 A 
ATOM     55  C   UNL A   1      41.640  30.096  35.765  1.00  0.00     0.029 A 
ATOM     56  N   UNL A   1      41.554  29.463  33.636  1.00  0.00    -0.354 N 
ATOM     57  N   UNL A   1      42.448  27.948  31.261  1.00  0.00    -0.248 NA
ATOM     58  C   UNL A   1      43.973  26.508  30.227  1.00  0.00     0.031 C 
ATOM     59  C   UNL A   1      42.751  29.287  35.497  1.00  0.00     0.029 A 
ATOM     60  C   UNL A   1      42.680  28.861  34.180  1.00  0.00     0.049 A 
ATOM     61  H   UNL A   1      41.250  29.352  32.707  1.00  0.00     0.167 HD
ATOM     62  C   UNL A   1      43.426  27.584  32.181  1.00  0.00     0.074 A 
ATOM     63  C   UNL A   1      44.317  26.669  31.497  1.00  0.00     0.031 C 
ATOM     64  C   UNL A   1      43.570  27.966  33.477  1.00  0.00     0.034 A 
BRANCH  51  65
ATOM     65  C   UNL A   1      39.232  31.948  35.460  1.00  0.00     0.023 A 
ATOM     66  C   UNL A   1      39.641  33.290  35.568  1.00  0.00     0.031 A 
ATOM     67  C   UNL A   1      38.342  31.456  36.431  1.00  0.00     0.131 A 
ATOM     68  C   UNL A   1      39.226  34.066  36.660  1.00  0.00     0.055 A 
ATOM     69  C   UNL A   1      37.866  32.259  37.471  1.00  0.00     0.041 A 
ATOM     70  F   UNL A   1      37.929  30.180  36.394  1.00  0.00    -0.206 F 
ATOM     71  C   UNL A   1      38.322  33.568  37.600  1.00  0.00     0.022 A 
BRANCH  68  72
ATOM     72  S   UNL A   1      40.004  35.685  36.915  1.00  0.00     0.124 S 
ATOM     73  O   UNL A   1      39.357  36.132  38.147  1.00  0.00    -0.237 OA
ATOM     74  O   UNL A   1      41.416  35.343  37.023  1.00  0.00    -0.237 OA
ATOM     75  O   UNL A   1      39.632  36.438  35.718  1.00  0.00    -0.744 OA
ENDBRANCH  68  72
ENDBRANCH  51  65
BRANCH  52  76
ATOM     76  C   UNL A   1      42.539  26.553  27.664  1.00  0.00     0.023 A 
ATOM     77  C   UNL A   1      42.168  25.219  27.442  1.00  0.00     0.031 A 
ATOM     78  C   UNL A   1      43.430  27.151  26.755  1.00  0.00     0.131 A 
ATOM     79  C   UNL A   1      42.719  24.510  26.364  1.00  0.00     0.055 A 
ATOM     80  C   UNL A   1      43.938  26.457  25.655  1.00  0.00     0.041 A 
ATOM     81  F   UNL A   1      43.807  28.430  26.915  1.00  0.00    -0.206 F 
ATOM     82  C   UNL A   1      43.591  25.123  25.462  1.00  0.00     0.022 A 
BRANCH  79  83
ATOM     83  S   UNL A   1      42.331  22.746  26.197  1.00  0.00     0.124 S 
ATOM     84  O   UNL A   1      40.879  22.746  26.341  1.00  0.00    -0.237 OA
ATOM     85  O   UNL A   1      42.843  22.448  24.864  1.00  0.00    -0.237 OA
ATOM     86  O   UNL A   1      43.068  22.131  27.298  1.00  0.00    -0.744 OA
ENDBRANCH  79  83
ENDBRANCH  52  76
BRANCH  64  87
ATOM     87  C   UNL A   1      44.718  27.354  34.241  1.00  0.00     0.023 A 
ATOM     88  C   UNL A   1      44.597  26.114  34.894  1.00  0.00     0.031 A 
ATOM     89  C   UNL A   1      45.945  28.035  34.337  1.00  0.00     0.131 A 
ATOM     90  C   UNL A   1      45.663  25.623  35.662  1.00  0.00     0.055 A 
ATOM     91  C   UNL A   1      47.023  27.509  35.049  1.00  0.00     0.041 A 
ATOM     92  F   UNL A   1      46.115  29.225  33.738  1.00  0.00    -0.206 F 
ATOM     93  C   UNL A   1      46.881  26.303  35.729  1.00  0.00     0.022 A 
BRANCH  90  94
ATOM     94  S   UNL A   1      45.401  24.128  36.656  1.00  0.00     0.124 S 
ATOM     95  O   UNL A   1      44.738  24.665  37.840  1.00  0.00    -0.237 OA
ATOM     96  O   UNL A   1      44.573  23.309  35.778  1.00  0.00    -0.237 OA
ATOM     97  O   UNL A   1      46.755  23.623  36.880  1.00  0.00    -0.744 OA
ENDBRANCH  90  94
ENDBRANCH  64  87
ENDBRANCH  38  39
ENDBRANCH  30  33
ENDBRANCH  28  29
ENDBRANCH   1  28
TORSDOF 18
ENDMDL
MODEL 3
REMARK VINA RESULT:     -12.2      1.737      8.283
REMARK SMILES CC(C)C[C@@H](CNC1=[NH+]S(=O)(=O)c2ccccc21)C(=O)NCCCCNC(=O)c1ccc(-c2c3nc(c(-c4cc(S(=O)(=O)[O-])ccc4F)c4ccc([nH]4)c(-c4cc(S(=O)(=O)[O-])ccc4F)c4nc(c(-c5cc(S(=O)(=O)[O-])ccc5F)c5ccc2[nH]5)C=C4)C=C3)cc1
REMARK SMILES IDX 24 1 23 2 22 3 21 4 19 5 20 6 5 8 4 9 2 10 1 11 3 12 6 13
REMARK SMILES IDX 7 14 8 15 9 17 18 18 10 19 13 21 17 22 11 23 12 24 14 25
REMARK SMILES IDX 16 26 15 27 25 28 26 29 27 30 28 32 29 33 30 34 91 35 31 36
REMARK SMILES IDX 90 37 32 38 33 39 34 40 84 41 35 42 89 43 83 44 85 45 36 46
REMARK SMILES IDX 88 47 82 48 81 49 37 51 69 52 49 53 68 54 50 55 53 56 67 57
REMARK SMILES IDX 86 58 51 59 52 60 66 62 87 63 54 64 38 65 39 66 47 67 40 68
REMARK SMILES IDX 46 69 48 70 45 71 41 72 42 73 43 74 44 75 70 76 71 77 79 78
REMARK SMILES IDX 72 79 78 80 80 81 77 82 73 83 74 84 75 85 76 86 55 87 56 88
REMARK SMILES IDX 64 89 57 90 63 91 65 92 62 93 58 94 59 95 60 96 61 97
REMARK H PARENT 21 7 7 16 9 20 26 31 85 50 53 61
REMARK Flexibility Score: inf
ROOT
ATOM      1  C   UNL A   1      31.715  31.874  27.031  1.00  0.00     0.023 C 
ENDROOT
BRANCH   1   2
ATOM      2  C   UNL A   1      32.424  30.524  26.895  1.00  0.00     0.023 C 
BRANCH   2   3
ATOM      3  C   UNL A   1      31.664  29.474  26.093  1.00  0.00     0.116 C 
BRANCH   3   4
ATOM      4  N   UNL A   1      32.339  29.045  24.890  1.00  0.00    -0.356 N 
ATOM      5  C   UNL A   1      31.841  28.598  23.705  1.00  0.00     0.227 C 
ATOM      6  O   UNL A   1      32.635  28.492  22.766  1.00  0.00    -0.275 OA
ATOM      7  H   UNL A   1      33.322  29.085  24.934  1.00  0.00     0.163 HD
BRANCH   5   8
ATOM      8  C   UNL A   1      30.379  28.186  23.509  1.00  0.00     0.120 C 
BRANCH   8   9
ATOM      9  C   UNL A   1      29.674  28.993  22.404  1.00  0.00     0.020 C 
BRANCH   9  10
ATOM     10  C   UNL A   1      28.481  29.864  22.847  1.00  0.00    -0.016 C 
ATOM     11  C   UNL A   1      28.087  30.920  21.813  1.00  0.00     0.007 C 
ATOM     12  C   UNL A   1      27.278  28.955  23.126  1.00  0.00     0.007 C 
ENDBRANCH   9  10
ENDBRANCH   8   9
BRANCH   8  13
ATOM     13  C   UNL A   1      30.138  26.668  23.564  1.00  0.00     0.247 C 
BRANCH  13  14
ATOM     14  N   UNL A   1      31.333  25.837  23.641  1.00  0.00    -0.272 N 
ATOM     15  C   UNL A   1      31.451  24.801  24.539  1.00  0.00     0.292 C 
ATOM     16  H   UNL A   1      32.083  26.025  23.031  1.00  0.00     0.305 HD
ATOM     17  N   UNL A   1      30.424  24.232  25.104  1.00  0.00    -0.162 N 
ATOM     18  C   UNL A   1      32.775  24.308  25.000  1.00  0.00     0.087 A 
ATOM     19  S   UNL A   1      30.896  23.098  26.189  1.00  0.00     0.329 S 
ATOM     20  H   UNL A   1      29.486  24.455  24.905  1.00  0.00     0.327 HD
ATOM     21  C   UNL A   1      32.594  23.421  26.045  1.00  0.00     0.124 A 
ATOM     22  C   UNL A   1      34.054  24.673  24.622  1.00  0.00     0.018 A 
ATOM     23  O   UNL A   1      30.670  21.775  25.649  1.00  0.00    -0.179 OA
ATOM     24  O   UNL A   1      30.483  23.479  27.523  1.00  0.00    -0.179 OA
ATOM     25  C   UNL A   1      33.624  22.942  26.832  1.00  0.00     0.025 A 
ATOM     26  C   UNL A   1      35.127  24.174  25.374  1.00  0.00     0.001 A 
ATOM     27  C   UNL A   1      34.913  23.344  26.490  1.00  0.00     0.002 A 
ENDBRANCH  13  14
ENDBRANCH   8  13
ENDBRANCH   5   8
ENDBRANCH   3   4
ENDBRANCH   2   3
ENDBRANCH   1   2
BRANCH   1  28
ATOM     28  C   UNL A   1      32.545  33.105  26.662  1.00  0.00     0.116 C 
BRANCH  28  29
ATOM     29  N   UNL A   1      32.451  34.195  27.621  1.00  0.00    -0.352 N 
ATOM     30  C   UNL A   1      33.268  34.470  28.696  1.00  0.00     0.251 C 
ATOM     31  H   UNL A   1      31.703  34.819  27.485  1.00  0.00     0.163 HD
ATOM     32  O   UNL A   1      32.995  35.419  29.427  1.00  0.00    -0.269 OA
BRANCH  30  33
ATOM     33  C   UNL A   1      34.442  33.616  28.988  1.00  0.00     0.039 A 
ATOM     34  C   UNL A   1      35.718  34.143  28.760  1.00  0.00     0.014 A 
ATOM     35  C   UNL A   1      34.304  32.328  29.514  1.00  0.00     0.014 A 
ATOM     36  C   UNL A   1      36.846  33.432  29.172  1.00  0.00     0.010 A 
ATOM     37  C   UNL A   1      35.425  31.642  29.973  1.00  0.00     0.010 A 
ATOM     38  C   UNL A   1      36.701  32.207  29.840  1.00  0.00    -0.014 A 
BRANCH  38  39
ATOM     39  C   UNL A   1      37.852  31.569  30.523  1.00  0.00     0.031 A 
ATOM     40  C   UNL A   1      38.663  30.508  29.844  1.00  0.00     0.074 A 
ATOM     41  C   UNL A   1      38.085  31.896  31.810  1.00  0.00     0.049 A 
ATOM     42  N   UNL A   1      39.676  29.823  30.308  1.00  0.00    -0.248 NA
ATOM     43  C   UNL A   1      38.268  30.153  28.474  1.00  0.00     0.031 C 
ATOM     44  C   UNL A   1      37.307  32.868  32.584  1.00  0.00     0.029 A 
ATOM     45  N   UNL A   1      39.023  31.441  32.699  1.00  0.00    -0.354 N 
ATOM     46  C   UNL A   1      40.049  28.957  29.286  1.00  0.00     0.074 A 
ATOM     47  C   UNL A   1      39.111  29.166  28.201  1.00  0.00     0.031 C 
ATOM     48  C   UNL A   1      37.810  32.944  33.826  1.00  0.00     0.029 A 
ATOM     49  C   UNL A   1      38.918  32.006  33.949  1.00  0.00     0.049 A 
ATOM     50  H   UNL A   1      39.708  30.772  32.466  1.00  0.00     0.167 HD
ATOM     51  C   UNL A   1      41.089  28.086  29.255  1.00  0.00     0.034 A 
ATOM     52  C   UNL A   1      39.631  31.787  35.070  1.00  0.00     0.034 A 
ATOM     53  C   UNL A   1      41.993  27.883  30.363  1.00  0.00     0.049 A 
ATOM     54  C   UNL A   1      40.766  30.799  35.020  1.00  0.00     0.074 A 
ATOM     55  C   UNL A   1      43.114  27.074  30.426  1.00  0.00     0.029 A 
ATOM     56  N   UNL A   1      41.867  28.480  31.614  1.00  0.00    -0.354 N 
ATOM     57  N   UNL A   1      41.164  30.053  34.015  1.00  0.00    -0.248 NA
ATOM     58  C   UNL A   1      41.556  30.638  36.245  1.00  0.00     0.031 C 
ATOM     59  C   UNL A   1      43.621  27.125  31.731  1.00  0.00     0.029 A 
ATOM     60  C   UNL A   1      42.868  28.028  32.463  1.00  0.00     0.049 A 
ATOM     61  H   UNL A   1      41.170  29.129  31.861  1.00  0.00     0.167 HD
ATOM     62  C   UNL A   1      42.276  29.357  34.480  1.00  0.00     0.074 A 
ATOM     63  C   UNL A   1      42.489  29.785  35.848  1.00  0.00     0.031 C 
ATOM     64  C   UNL A   1      43.054  28.452  33.832  1.00  0.00     0.034 A 
BRANCH  51  65
ATOM     65  C   UNL A   1      41.279  27.275  27.995  1.00  0.00     0.023 A 
ATOM     66  C   UNL A   1      40.928  25.913  27.935  1.00  0.00     0.031 A 
ATOM     67  C   UNL A   1      41.838  27.857  26.842  1.00  0.00     0.131 A 
ATOM     68  C   UNL A   1      41.209  25.165  26.783  1.00  0.00     0.055 A 
ATOM     69  C   UNL A   1      42.038  27.125  25.669  1.00  0.00     0.041 A 
ATOM     70  F   UNL A   1      42.210  29.146  26.841  1.00  0.00    -0.206 F 
ATOM     71  C   UNL A   1      41.739  25.766  25.641  1.00  0.00     0.022 A 
BRANCH  68  72
ATOM     72  S   UNL A   1      41.010  23.363  26.854  1.00  0.00     0.124 S 
ATOM     73  O   UNL A   1      39.578  23.215  26.601  1.00  0.00    -0.237 OA
ATOM     74  O   UNL A   1      41.897  22.906  25.793  1.00  0.00    -0.237 OA
ATOM     75  O   UNL A   1      41.432  23.023  28.212  1.00  0.00    -0.744 OA
ENDBRANCH  68  72
ENDBRANCH  51  65
BRANCH  52  76
ATOM     76  C   UNL A   1      39.303  32.521  36.325  1.00  0.00     0.023 A 
ATOM     77  C   UNL A   1      38.425  31.974  37.272  1.00  0.00     0.031 A 
ATOM     78  C   UNL A   1      39.854  33.788  36.589  1.00  0.00     0.131 A 
ATOM     79  C   UNL A   1      38.087  32.708  38.418  1.00  0.00     0.055 A 
ATOM     80  C   UNL A   1      39.553  34.494  37.756  1.00  0.00     0.041 A 
ATOM     81  F   UNL A   1      40.710  34.351  35.722  1.00  0.00    -0.206 F 
ATOM     82  C   UNL A   1      38.654  33.958  38.673  1.00  0.00     0.022 A 
BRANCH  79  83
ATOM     83  S   UNL A   1      36.835  32.031  39.543  1.00  0.00     0.124 S 
ATOM     84  O   UNL A   1      37.027  30.595  39.372  1.00  0.00    -0.237 OA
ATOM     85  O   UNL A   1      37.249  32.586  40.826  1.00  0.00    -0.237 OA
ATOM     86  O   UNL A   1      35.581  32.561  39.012  1.00  0.00    -0.744 OA
ENDBRANCH  79  83
ENDBRANCH  52  76
BRANCH  64  87
ATOM     87  C   UNL A   1      44.233  27.900  34.596  1.00  0.00     0.023 A 
ATOM     88  C   UNL A   1      44.131  26.731  35.372  1.00  0.00     0.031 A 
ATOM     89  C   UNL A   1      45.470  28.568  34.566  1.00  0.00     0.131 A 
ATOM     90  C   UNL A   1      45.228  26.300  36.132  1.00  0.00     0.055 A 
ATOM     91  C   UNL A   1      46.576  28.097  35.274  1.00  0.00     0.041 A 
ATOM     92  F   UNL A   1      45.623  29.692  33.847  1.00  0.00    -0.206 F 
ATOM     93  C   UNL A   1      46.455  26.965  36.074  1.00  0.00     0.022 A 
BRANCH  90  94
ATOM     94  S   UNL A   1      45.000  24.913  37.279  1.00  0.00     0.124 S 
ATOM     95  O   UNL A   1      46.257  24.927  38.023  1.00  0.00    -0.237 OA
ATOM     96  O   UNL A   1      43.814  25.316  38.026  1.00  0.00    -0.237 OA
ATOM     97  O   UNL A   1      44.816  23.764  36.395  1.00  0.00    -0.744 OA
ENDBRANCH  90  94
ENDBRANCH  64  87
ENDBRANCH  38  39
ENDBRANCH  30  33
ENDBRANCH  28  29
ENDBRANCH   1  28
TORSDOF 18
ENDMDL
