MODEL 1
REMARK VINA RESULT:     -12.1      0.000      0.000
REMARK SMILES Cc1nsc(N[C@H](C)c2cccs2)c1C(=O)NCCCCNC(=O)c1ccc(-c2c3nc(c(-c4cc(S(=O)(=O)[O-])ccc4F)c4ccc([nH]4)c(-c4cc(S(=O)(=O)[O-])ccc4F)c4nc(c(-c5cc(S(=O)(=O)[O-])ccc5F)c5ccc2[nH]5)C=C4)C=C3)cc1
REMARK SMILES IDX 19 1 18 2 17 3 15 4 16 5 14 7 1 8 2 9 3 10 4 11 5 12 6 13
REMARK SMILES IDX 7 15 8 16 9 17 10 18 13 19 11 20 12 21 20 22 21 23 22 24
REMARK SMILES IDX 23 25 24 27 25 28 26 29 87 30 27 31 86 32 28 33 29 34 30 35
REMARK SMILES IDX 80 36 31 37 85 38 79 39 81 40 32 41 84 42 78 43 77 44 33 46
REMARK SMILES IDX 65 47 45 48 64 49 46 50 49 51 63 52 82 53 47 54 48 55 62 57
REMARK SMILES IDX 83 58 50 59 34 60 35 61 43 62 36 63 42 64 44 65 41 66 37 67
REMARK SMILES IDX 38 68 39 69 40 70 66 71 67 72 75 73 68 74 74 75 76 76 73 77
REMARK SMILES IDX 69 78 70 79 71 80 72 81 51 82 52 83 60 84 53 85 59 86 61 87
REMARK SMILES IDX 58 88 54 89 55 90 56 91 57 92
REMARK H PARENT 17 6 6 14 22 26 81 45 49 56
REMARK Flexibility Score: inf
ROOT
ATOM      1  C   UNL A   1      32.376  28.906  27.183  1.00  0.00     0.023 C 
ENDROOT
BRANCH   1   2
ATOM      2  C   UNL A   1      32.459  27.378  27.286  1.00  0.00     0.116 C 
BRANCH   2   3
ATOM      3  N   UNL A   1      31.264  26.752  26.776  1.00  0.00    -0.352 N 
ATOM      4  C   UNL A   1      30.938  25.886  25.770  1.00  0.00     0.256 C 
ATOM      5  O   UNL A   1      29.717  25.662  25.748  1.00  0.00    -0.269 OA
ATOM      6  H   UNL A   1      30.469  27.022  27.291  1.00  0.00     0.163 HD
BRANCH   4   7
ATOM      7  C   UNL A   1      31.837  25.237  24.786  1.00  0.00     0.097 A 
ATOM      8  C   UNL A   1      33.639  23.684  26.042  1.00  0.00     0.069 C 
ATOM      9  C   UNL A   1      32.973  24.318  24.874  1.00  0.00     0.066 A 
ATOM     10  N   UNL A   1      33.554  23.977  23.722  1.00  0.00    -0.195 NA
ATOM     11  S   UNL A   1      32.800  24.704  22.479  1.00  0.00    -0.018 S 
ATOM     12  C   UNL A   1      31.641  25.541  23.416  1.00  0.00     0.123 A 
BRANCH  12  13
ATOM     13  N   UNL A   1      30.688  26.365  22.896  1.00  0.00    -0.368 N 
ATOM     14  H   UNL A   1      29.783  25.988  22.813  1.00  0.00     0.162 HD
BRANCH  13  15
ATOM     15  C   UNL A   1      30.857  27.737  22.450  1.00  0.00     0.117 C 
ATOM     16  C   UNL A   1      32.022  28.369  23.222  1.00  0.00     0.037 C 
BRANCH  15  17
ATOM     17  C   UNL A   1      29.585  28.548  22.569  1.00  0.00     0.027 A 
ATOM     18  C   UNL A   1      28.397  28.154  23.161  1.00  0.00     0.017 A 
ATOM     19  S   UNL A   1      29.484  30.160  21.991  1.00  0.00    -0.147 S 
ATOM     20  C   UNL A   1      27.403  29.173  23.124  1.00  0.00     0.012 A 
ATOM     21  C   UNL A   1      27.864  30.317  22.512  1.00  0.00     0.065 A 
ENDBRANCH  15  17
ENDBRANCH  13  15
ENDBRANCH  12  13
ENDBRANCH   4   7
ENDBRANCH   2   3
ENDBRANCH   1   2
BRANCH   1  22
ATOM     22  C   UNL A   1      33.682  29.606  26.781  1.00  0.00     0.023 C 
BRANCH  22  23
ATOM     23  C   UNL A   1      34.902  29.198  27.603  1.00  0.00     0.116 C 
BRANCH  23  24
ATOM     24  N   UNL A   1      35.197  30.135  28.684  1.00  0.00    -0.352 N 
ATOM     25  C   UNL A   1      36.248  30.083  29.584  1.00  0.00     0.251 C 
ATOM     26  H   UNL A   1      34.576  30.891  28.785  1.00  0.00     0.163 HD
ATOM     27  O   UNL A   1      36.173  30.642  30.664  1.00  0.00    -0.269 OA
BRANCH  25  28
ATOM     28  C   UNL A   1      37.466  29.352  29.189  1.00  0.00     0.039 A 
ATOM     29  C   UNL A   1      38.149  29.655  28.008  1.00  0.00     0.014 A 
ATOM     30  C   UNL A   1      37.942  28.378  30.064  1.00  0.00     0.014 A 
ATOM     31  C   UNL A   1      39.372  29.032  27.759  1.00  0.00     0.010 A 
ATOM     32  C   UNL A   1      39.196  27.848  29.872  1.00  0.00     0.010 A 
ATOM     33  C   UNL A   1      39.904  28.144  28.708  1.00  0.00    -0.014 A 
BRANCH  33  34
ATOM     34  C   UNL A   1      41.288  27.667  28.609  1.00  0.00     0.031 A 
ATOM     35  C   UNL A   1      41.423  26.368  27.886  1.00  0.00     0.074 A 
ATOM     36  C   UNL A   1      42.347  28.471  28.870  1.00  0.00     0.049 A 
ATOM     37  N   UNL A   1      41.848  25.234  28.339  1.00  0.00    -0.248 NA
ATOM     38  C   UNL A   1      40.845  26.270  26.531  1.00  0.00     0.031 C 
ATOM     39  C   UNL A   1      42.299  29.878  29.291  1.00  0.00     0.029 A 
ATOM     40  N   UNL A   1      43.684  28.268  28.684  1.00  0.00    -0.354 N 
ATOM     41  C   UNL A   1      41.856  24.367  27.246  1.00  0.00     0.074 A 
ATOM     42  C   UNL A   1      41.002  24.973  26.266  1.00  0.00     0.031 C 
ATOM     43  C   UNL A   1      43.500  30.460  29.084  1.00  0.00     0.029 A 
ATOM     44  C   UNL A   1      44.450  29.439  28.680  1.00  0.00     0.049 A 
ATOM     45  H   UNL A   1      44.076  27.373  28.563  1.00  0.00     0.167 HD
ATOM     46  C   UNL A   1      42.809  23.397  27.129  1.00  0.00     0.034 A 
ATOM     47  C   UNL A   1      45.764  29.581  28.347  1.00  0.00     0.034 A 
ATOM     48  C   UNL A   1      43.457  23.178  28.405  1.00  0.00     0.049 A 
ATOM     49  C   UNL A   1      46.373  28.238  28.463  1.00  0.00     0.074 A 
ATOM     50  C   UNL A   1      43.047  22.777  29.661  1.00  0.00     0.029 A 
ATOM     51  N   UNL A   1      44.690  23.765  28.580  1.00  0.00    -0.354 N 
ATOM     52  N   UNL A   1      46.470  27.591  29.591  1.00  0.00    -0.248 NA
ATOM     53  C   UNL A   1      46.462  27.414  27.269  1.00  0.00     0.031 C 
ATOM     54  C   UNL A   1      43.841  23.539  30.571  1.00  0.00     0.029 A 
ATOM     55  C   UNL A   1      44.756  24.298  29.839  1.00  0.00     0.049 A 
ATOM     56  H   UNL A   1      45.409  23.795  27.908  1.00  0.00     0.167 HD
ATOM     57  C   UNL A   1      46.175  26.276  29.272  1.00  0.00     0.074 A 
ATOM     58  C   UNL A   1      46.319  26.205  27.819  1.00  0.00     0.031 C 
ATOM     59  C   UNL A   1      45.559  25.461  30.181  1.00  0.00     0.034 A 
BRANCH  46  60
ATOM     60  C   UNL A   1      43.487  22.997  25.818  1.00  0.00     0.023 A 
ATOM     61  C   UNL A   1      43.506  21.619  25.516  1.00  0.00     0.031 A 
ATOM     62  C   UNL A   1      44.355  23.793  25.039  1.00  0.00     0.131 A 
ATOM     63  C   UNL A   1      44.457  21.078  24.632  1.00  0.00     0.055 A 
ATOM     64  C   UNL A   1      45.259  23.257  24.114  1.00  0.00     0.041 A 
ATOM     65  F   UNL A   1      44.443  25.121  25.160  1.00  0.00    -0.206 F 
ATOM     66  C   UNL A   1      45.345  21.889  23.937  1.00  0.00     0.022 A 
BRANCH  63  67
ATOM     67  S   UNL A   1      44.639  19.278  24.568  1.00  0.00     0.124 S 
ATOM     68  O   UNL A   1      45.771  19.073  25.464  1.00  0.00    -0.237 OA
ATOM     69  O   UNL A   1      43.338  18.830  25.054  1.00  0.00    -0.237 OA
ATOM     70  O   UNL A   1      44.902  19.016  23.155  1.00  0.00    -0.744 OA
ENDBRANCH  63  67
ENDBRANCH  46  60
BRANCH  47  71
ATOM     71  C   UNL A   1      46.427  30.723  27.650  1.00  0.00     0.023 A 
ATOM     72  C   UNL A   1      45.733  31.662  26.849  1.00  0.00     0.031 A 
ATOM     73  C   UNL A   1      47.759  31.050  27.987  1.00  0.00     0.131 A 
ATOM     74  C   UNL A   1      46.371  32.857  26.429  1.00  0.00     0.055 A 
ATOM     75  C   UNL A   1      48.383  32.231  27.573  1.00  0.00     0.041 A 
ATOM     76  F   UNL A   1      48.478  30.267  28.808  1.00  0.00    -0.206 F 
ATOM     77  C   UNL A   1      47.686  33.145  26.799  1.00  0.00     0.022 A 
BRANCH  74  78
ATOM     78  S   UNL A   1      45.471  34.109  25.448  1.00  0.00     0.124 S 
ATOM     79  O   UNL A   1      44.722  34.829  26.472  1.00  0.00    -0.237 OA
ATOM     80  O   UNL A   1      46.555  34.839  24.801  1.00  0.00    -0.237 OA
ATOM     81  O   UNL A   1      44.649  33.308  24.539  1.00  0.00    -0.744 OA
ENDBRANCH  74  78
ENDBRANCH  47  71
BRANCH  59  82
ATOM     82  C   UNL A   1      45.575  25.883  31.637  1.00  0.00     0.023 A 
ATOM     83  C   UNL A   1      44.464  26.363  32.369  1.00  0.00     0.031 A 
ATOM     84  C   UNL A   1      46.782  25.694  32.333  1.00  0.00     0.131 A 
ATOM     85  C   UNL A   1      44.598  26.645  33.745  1.00  0.00     0.055 A 
ATOM     86  C   UNL A   1      46.904  25.951  33.696  1.00  0.00     0.041 A 
ATOM     87  F   UNL A   1      47.867  25.220  31.697  1.00  0.00    -0.206 F 
ATOM     88  C   UNL A   1      45.812  26.434  34.407  1.00  0.00     0.022 A 
BRANCH  85  89
ATOM     89  S   UNL A   1      43.201  27.318  34.705  1.00  0.00     0.124 S 
ATOM     90  O   UNL A   1      42.477  28.130  33.735  1.00  0.00    -0.237 OA
ATOM     91  O   UNL A   1      42.519  26.111  35.163  1.00  0.00    -0.237 OA
ATOM     92  O   UNL A   1      43.856  28.083  35.769  1.00  0.00    -0.744 OA
ENDBRANCH  85  89
ENDBRANCH  59  82
ENDBRANCH  33  34
ENDBRANCH  25  28
ENDBRANCH  23  24
ENDBRANCH  22  23
ENDBRANCH   1  22
TORSDOF 17
ENDMDL
MODEL 2
REMARK VINA RESULT:     -12.0      4.211      9.994
REMARK SMILES Cc1nsc(N[C@H](C)c2cccs2)c1C(=O)NCCCCNC(=O)c1ccc(-c2c3nc(c(-c4cc(S(=O)(=O)[O-])ccc4F)c4ccc([nH]4)c(-c4cc(S(=O)(=O)[O-])ccc4F)c4nc(c(-c5cc(S(=O)(=O)[O-])ccc5F)c5ccc2[nH]5)C=C4)C=C3)cc1
REMARK SMILES IDX 19 1 18 2 17 3 15 4 16 5 14 7 1 8 2 9 3 10 4 11 5 12 6 13
REMARK SMILES IDX 7 15 8 16 9 17 10 18 13 19 11 20 12 21 20 22 21 23 22 24
REMARK SMILES IDX 23 25 24 27 25 28 26 29 87 30 27 31 86 32 28 33 29 34 30 35
REMARK SMILES IDX 80 36 31 37 85 38 79 39 81 40 32 41 84 42 78 43 77 44 33 46
REMARK SMILES IDX 65 47 45 48 64 49 46 50 49 51 63 52 82 53 47 54 48 55 62 57
REMARK SMILES IDX 83 58 50 59 34 60 35 61 43 62 36 63 42 64 44 65 41 66 37 67
REMARK SMILES IDX 38 68 39 69 40 70 66 71 67 72 75 73 68 74 74 75 76 76 73 77
REMARK SMILES IDX 69 78 70 79 71 80 72 81 51 82 52 83 60 84 53 85 59 86 61 87
REMARK SMILES IDX 58 88 54 89 55 90 56 91 57 92
REMARK H PARENT 17 6 6 14 22 26 81 45 49 56
REMARK Flexibility Score: inf
ROOT
ATOM      1  C   UNL A   1      35.667  23.168  25.171  1.00  0.00     0.023 C 
ENDROOT
BRANCH   1   2
ATOM      2  C   UNL A   1      34.750  24.061  24.327  1.00  0.00     0.116 C 
BRANCH   2   3
ATOM      3  N   UNL A   1      34.543  25.343  24.954  1.00  0.00    -0.352 N 
ATOM      4  C   UNL A   1      33.542  25.973  25.639  1.00  0.00     0.256 C 
ATOM      5  O   UNL A   1      33.877  27.122  25.969  1.00  0.00    -0.269 OA
ATOM      6  H   UNL A   1      35.336  25.919  24.865  1.00  0.00     0.163 HD
BRANCH   4   7
ATOM      7  C   UNL A   1      32.202  25.451  25.998  1.00  0.00     0.097 A 
ATOM      8  C   UNL A   1      32.421  23.068  27.225  1.00  0.00     0.069 C 
ATOM      9  C   UNL A   1      31.708  24.240  26.657  1.00  0.00     0.066 A 
ATOM     10  N   UNL A   1      30.383  24.124  26.772  1.00  0.00    -0.195 NA
ATOM     11  S   UNL A   1      29.649  25.422  26.126  1.00  0.00    -0.018 S 
ATOM     12  C   UNL A   1      31.074  26.229  25.635  1.00  0.00     0.123 A 
BRANCH  12  13
ATOM     13  N   UNL A   1      31.090  27.431  24.995  1.00  0.00    -0.368 N 
ATOM     14  H   UNL A   1      31.253  28.223  25.557  1.00  0.00     0.162 HD
BRANCH  13  15
ATOM     15  C   UNL A   1      30.892  27.679  23.578  1.00  0.00     0.117 C 
ATOM     16  C   UNL A   1      32.082  28.488  23.046  1.00  0.00     0.037 C 
BRANCH  15  17
ATOM     17  C   UNL A   1      29.568  28.349  23.283  1.00  0.00     0.027 A 
ATOM     18  C   UNL A   1      28.303  27.826  23.493  1.00  0.00     0.017 A 
ATOM     19  S   UNL A   1      29.483  29.947  22.664  1.00  0.00    -0.147 S 
ATOM     20  C   UNL A   1      27.269  28.734  23.129  1.00  0.00     0.012 A 
ATOM     21  C   UNL A   1      27.773  29.926  22.661  1.00  0.00     0.065 A 
ENDBRANCH  15  17
ENDBRANCH  13  15
ENDBRANCH  12  13
ENDBRANCH   4   7
ENDBRANCH   2   3
ENDBRANCH   1   2
BRANCH   1  22
ATOM     22  C   UNL A   1      37.172  23.388  24.955  1.00  0.00     0.023 C 
BRANCH  22  23
ATOM     23  C   UNL A   1      37.899  24.018  26.141  1.00  0.00     0.116 C 
BRANCH  23  24
ATOM     24  N   UNL A   1      39.341  23.781  26.113  1.00  0.00    -0.352 N 
ATOM     25  C   UNL A   1      40.352  24.692  26.368  1.00  0.00     0.251 C 
ATOM     26  H   UNL A   1      39.626  22.867  25.885  1.00  0.00     0.163 HD
ATOM     27  O   UNL A   1      41.474  24.520  25.924  1.00  0.00    -0.269 OA
BRANCH  25  28
ATOM     28  C   UNL A   1      40.038  25.861  27.210  1.00  0.00     0.039 A 
ATOM     29  C   UNL A   1      39.463  25.717  28.476  1.00  0.00     0.014 A 
ATOM     30  C   UNL A   1      40.383  27.118  26.717  1.00  0.00     0.014 A 
ATOM     31  C   UNL A   1      39.323  26.845  29.284  1.00  0.00     0.010 A 
ATOM     32  C   UNL A   1      40.346  28.208  27.552  1.00  0.00     0.010 A 
ATOM     33  C   UNL A   1      39.788  28.088  28.825  1.00  0.00    -0.014 A 
BRANCH  33  34
ATOM     34  C   UNL A   1      39.894  29.240  29.729  1.00  0.00     0.031 A 
ATOM     35  C   UNL A   1      38.621  30.007  29.871  1.00  0.00     0.074 A 
ATOM     36  C   UNL A   1      40.940  29.397  30.576  1.00  0.00     0.049 A 
ATOM     37  N   UNL A   1      38.378  31.232  29.539  1.00  0.00    -0.248 NA
ATOM     38  C   UNL A   1      37.410  29.264  30.272  1.00  0.00     0.031 C 
ATOM     39  C   UNL A   1      42.097  28.502  30.719  1.00  0.00     0.029 A 
ATOM     40  N   UNL A   1      41.139  30.293  31.586  1.00  0.00    -0.354 N 
ATOM     41  C   UNL A   1      37.071  31.487  29.956  1.00  0.00     0.074 A 
ATOM     42  C   UNL A   1      36.468  30.199  30.145  1.00  0.00     0.031 C 
ATOM     43  C   UNL A   1      42.724  28.746  31.889  1.00  0.00     0.029 A 
ATOM     44  C   UNL A   1      42.127  29.919  32.503  1.00  0.00     0.049 A 
ATOM     45  H   UNL A   1      40.629  31.132  31.663  1.00  0.00     0.167 HD
ATOM     46  C   UNL A   1      36.709  32.722  30.409  1.00  0.00     0.034 A 
ATOM     47  C   UNL A   1      42.430  30.503  33.696  1.00  0.00     0.034 A 
ATOM     48  C   UNL A   1      37.692  33.708  30.008  1.00  0.00     0.049 A 
ATOM     49  C   UNL A   1      41.882  31.877  33.641  1.00  0.00     0.074 A 
ATOM     50  C   UNL A   1      38.185  34.173  28.805  1.00  0.00     0.029 A 
ATOM     51  N   UNL A   1      38.601  34.098  30.965  1.00  0.00    -0.354 N 
ATOM     52  N   UNL A   1      42.305  32.783  32.804  1.00  0.00    -0.248 NA
ATOM     53  C   UNL A   1      40.559  32.115  34.192  1.00  0.00     0.031 C 
ATOM     54  C   UNL A   1      39.571  34.419  29.043  1.00  0.00     0.029 A 
ATOM     55  C   UNL A   1      39.842  34.183  30.392  1.00  0.00     0.049 A 
ATOM     56  H   UNL A   1      38.393  34.285  31.909  1.00  0.00     0.167 HD
ATOM     57  C   UNL A   1      41.160  33.437  32.380  1.00  0.00     0.074 A 
ATOM     58  C   UNL A   1      40.143  33.082  33.368  1.00  0.00     0.031 C 
ATOM     59  C   UNL A   1      41.081  33.956  31.118  1.00  0.00     0.034 A 
BRANCH  46  60
ATOM     60  C   UNL A   1      35.769  32.976  31.587  1.00  0.00     0.023 A 
ATOM     61  C   UNL A   1      34.686  33.848  31.349  1.00  0.00     0.031 A 
ATOM     62  C   UNL A   1      36.025  32.696  32.948  1.00  0.00     0.131 A 
ATOM     63  C   UNL A   1      34.042  34.518  32.405  1.00  0.00     0.055 A 
ATOM     64  C   UNL A   1      35.341  33.320  33.998  1.00  0.00     0.041 A 
ATOM     65  F   UNL A   1      36.986  31.864  33.359  1.00  0.00    -0.206 F 
ATOM     66  C   UNL A   1      34.372  34.269  33.732  1.00  0.00     0.022 A 
BRANCH  63  67
ATOM     67  S   UNL A   1      32.908  35.869  31.997  1.00  0.00     0.124 S 
ATOM     68  O   UNL A   1      31.645  35.346  32.504  1.00  0.00    -0.237 OA
ATOM     69  O   UNL A   1      33.492  36.982  32.737  1.00  0.00    -0.237 OA
ATOM     70  O   UNL A   1      33.008  35.964  30.542  1.00  0.00    -0.744 OA
ENDBRANCH  63  67
ENDBRANCH  46  60
BRANCH  47  71
ATOM     71  C   UNL A   1      42.878  29.852  34.962  1.00  0.00     0.023 A 
ATOM     72  C   UNL A   1      42.295  28.673  35.486  1.00  0.00     0.031 A 
ATOM     73  C   UNL A   1      44.093  30.266  35.553  1.00  0.00     0.131 A 
ATOM     74  C   UNL A   1      42.925  27.969  36.543  1.00  0.00     0.055 A 
ATOM     75  C   UNL A   1      44.712  29.567  36.593  1.00  0.00     0.041 A 
ATOM     76  F   UNL A   1      44.768  31.325  35.077  1.00  0.00    -0.206 F 
ATOM     77  C   UNL A   1      44.135  28.408  37.086  1.00  0.00     0.022 A 
BRANCH  74  78
ATOM     78  S   UNL A   1      42.222  26.411  37.189  1.00  0.00     0.124 S 
ATOM     79  O   UNL A   1      42.509  25.468  36.113  1.00  0.00    -0.237 OA
ATOM     80  O   UNL A   1      42.959  26.224  38.432  1.00  0.00    -0.237 OA
ATOM     81  O   UNL A   1      40.802  26.723  37.364  1.00  0.00    -0.744 OA
ENDBRANCH  74  78
ENDBRANCH  47  71
BRANCH  59  82
ATOM     82  C   UNL A   1      42.374  34.158  30.352  1.00  0.00     0.023 A 
ATOM     83  C   UNL A   1      42.859  33.324  29.318  1.00  0.00     0.031 A 
ATOM     84  C   UNL A   1      43.102  35.325  30.644  1.00  0.00     0.131 A 
ATOM     85  C   UNL A   1      44.041  33.673  28.630  1.00  0.00     0.055 A 
ATOM     86  C   UNL A   1      44.254  35.678  29.948  1.00  0.00     0.041 A 
ATOM     87  F   UNL A   1      42.680  36.168  31.602  1.00  0.00    -0.206 F 
ATOM     88  C   UNL A   1      44.733  34.849  28.941  1.00  0.00     0.022 A 
BRANCH  85  89
ATOM     89  S   UNL A   1      44.723  32.592  27.329  1.00  0.00     0.124 S 
ATOM     90  O   UNL A   1      44.233  31.268  27.691  1.00  0.00    -0.237 OA
ATOM     91  O   UNL A   1      44.164  33.169  26.111  1.00  0.00    -0.237 OA
ATOM     92  O   UNL A   1      46.171  32.763  27.470  1.00  0.00    -0.744 OA
ENDBRANCH  85  89
ENDBRANCH  59  82
ENDBRANCH  33  34
ENDBRANCH  25  28
ENDBRANCH  23  24
ENDBRANCH  22  23
ENDBRANCH   1  22
TORSDOF 17
ENDMDL
MODEL 3
REMARK VINA RESULT:     -12.0      1.157      2.882
REMARK SMILES Cc1nsc(N[C@H](C)c2cccs2)c1C(=O)NCCCCNC(=O)c1ccc(-c2c3nc(c(-c4cc(S(=O)(=O)[O-])ccc4F)c4ccc([nH]4)c(-c4cc(S(=O)(=O)[O-])ccc4F)c4nc(c(-c5cc(S(=O)(=O)[O-])ccc5F)c5ccc2[nH]5)C=C4)C=C3)cc1
REMARK SMILES IDX 19 1 18 2 17 3 15 4 16 5 14 7 1 8 2 9 3 10 4 11 5 12 6 13
REMARK SMILES IDX 7 15 8 16 9 17 10 18 13 19 11 20 12 21 20 22 21 23 22 24
REMARK SMILES IDX 23 25 24 27 25 28 26 29 87 30 27 31 86 32 28 33 29 34 30 35
REMARK SMILES IDX 80 36 31 37 85 38 79 39 81 40 32 41 84 42 78 43 77 44 33 46
REMARK SMILES IDX 65 47 45 48 64 49 46 50 49 51 63 52 82 53 47 54 48 55 62 57
REMARK SMILES IDX 83 58 50 59 34 60 35 61 43 62 36 63 42 64 44 65 41 66 37 67
REMARK SMILES IDX 38 68 39 69 40 70 66 71 67 72 75 73 68 74 74 75 76 76 73 77
REMARK SMILES IDX 69 78 70 79 71 80 72 81 51 82 52 83 60 84 53 85 59 86 61 87
REMARK SMILES IDX 58 88 54 89 55 90 56 91 57 92
REMARK H PARENT 17 6 6 14 22 26 81 45 49 56
REMARK Flexibility Score: inf
ROOT
ATOM      1  C   UNL A   1      32.814  30.375  26.969  1.00  0.00     0.023 C 
ENDROOT
BRANCH   1   2
ATOM      2  C   UNL A   1      31.852  30.331  25.776  1.00  0.00     0.116 C 
BRANCH   2   3
ATOM      3  N   UNL A   1      32.490  29.775  24.608  1.00  0.00    -0.352 N 
ATOM      4  C   UNL A   1      32.254  28.758  23.725  1.00  0.00     0.256 C 
ATOM      5  O   UNL A   1      33.151  28.688  22.870  1.00  0.00    -0.269 OA
ATOM      6  H   UNL A   1      33.319  30.258  24.387  1.00  0.00     0.163 HD
BRANCH   4   7
ATOM      7  C   UNL A   1      31.114  27.811  23.696  1.00  0.00     0.097 A 
ATOM      8  C   UNL A   1      28.875  29.062  22.886  1.00  0.00     0.069 C 
ATOM      9  C   UNL A   1      29.694  27.914  23.353  1.00  0.00     0.066 A 
ATOM     10  N   UNL A   1      28.967  26.803  23.487  1.00  0.00    -0.195 NA
ATOM     11  S   UNL A   1      29.904  25.581  24.011  1.00  0.00    -0.018 S 
ATOM     12  C   UNL A   1      31.358  26.476  24.104  1.00  0.00     0.123 A 
BRANCH  12  13
ATOM     13  N   UNL A   1      32.550  25.957  24.511  1.00  0.00    -0.368 N 
ATOM     14  H   UNL A   1      33.322  26.566  24.488  1.00  0.00     0.162 HD
BRANCH  13  15
ATOM     15  C   UNL A   1      32.810  24.605  24.976  1.00  0.00     0.117 C 
ATOM     16  C   UNL A   1      32.560  24.545  26.488  1.00  0.00     0.037 C 
BRANCH  15  17
ATOM     17  C   UNL A   1      34.194  24.120  24.605  1.00  0.00     0.027 A 
ATOM     18  C   UNL A   1      35.350  24.238  25.358  1.00  0.00     0.017 A 
ATOM     19  S   UNL A   1      34.493  23.275  23.142  1.00  0.00    -0.147 S 
ATOM     20  C   UNL A   1      36.479  23.648  24.724  1.00  0.00     0.012 A 
ATOM     21  C   UNL A   1      36.152  23.089  23.509  1.00  0.00     0.065 A 
ENDBRANCH  15  17
ENDBRANCH  13  15
ENDBRANCH  12  13
ENDBRANCH   4   7
ENDBRANCH   2   3
ENDBRANCH   1   2
BRANCH   1  22
ATOM     22  C   UNL A   1      33.578  29.071  27.242  1.00  0.00     0.023 C 
BRANCH  22  23
ATOM     23  C   UNL A   1      35.065  29.254  27.534  1.00  0.00     0.116 C 
BRANCH  23  24
ATOM     24  N   UNL A   1      35.315  30.087  28.709  1.00  0.00    -0.352 N 
ATOM     25  C   UNL A   1      36.321  29.944  29.649  1.00  0.00     0.251 C 
ATOM     26  H   UNL A   1      34.693  30.837  28.848  1.00  0.00     0.163 HD
ATOM     27  O   UNL A   1      36.198  30.404  30.770  1.00  0.00    -0.269 OA
BRANCH  25  28
ATOM     28  C   UNL A   1      37.552  29.238  29.247  1.00  0.00     0.039 A 
ATOM     29  C   UNL A   1      38.243  29.582  28.081  1.00  0.00     0.014 A 
ATOM     30  C   UNL A   1      38.031  28.247  30.100  1.00  0.00     0.014 A 
ATOM     31  C   UNL A   1      39.476  28.981  27.828  1.00  0.00     0.010 A 
ATOM     32  C   UNL A   1      39.293  27.737  29.907  1.00  0.00     0.010 A 
ATOM     33  C   UNL A   1      40.009  28.074  28.758  1.00  0.00    -0.014 A 
BRANCH  33  34
ATOM     34  C   UNL A   1      41.400  27.616  28.661  1.00  0.00     0.031 A 
ATOM     35  C   UNL A   1      41.554  26.319  27.939  1.00  0.00     0.074 A 
ATOM     36  C   UNL A   1      42.447  28.435  28.923  1.00  0.00     0.049 A 
ATOM     37  N   UNL A   1      41.995  25.191  28.392  1.00  0.00    -0.248 NA
ATOM     38  C   UNL A   1      40.978  26.212  26.583  1.00  0.00     0.031 C 
ATOM     39  C   UNL A   1      42.379  29.842  29.343  1.00  0.00     0.029 A 
ATOM     40  N   UNL A   1      43.787  28.251  28.738  1.00  0.00    -0.354 N 
ATOM     41  C   UNL A   1      42.016  24.324  27.300  1.00  0.00     0.074 A 
ATOM     42  C   UNL A   1      41.154  24.918  26.319  1.00  0.00     0.031 C 
ATOM     43  C   UNL A   1      43.571  30.441  29.137  1.00  0.00     0.029 A 
ATOM     44  C   UNL A   1      44.536  29.433  28.733  1.00  0.00     0.049 A 
ATOM     45  H   UNL A   1      44.191  27.362  28.617  1.00  0.00     0.167 HD
ATOM     46  C   UNL A   1      42.982  23.368  27.184  1.00  0.00     0.034 A 
ATOM     47  C   UNL A   1      45.848  29.594  28.402  1.00  0.00     0.034 A 
ATOM     48  C   UNL A   1      43.633  23.159  28.461  1.00  0.00     0.049 A 
ATOM     49  C   UNL A   1      46.476  28.259  28.519  1.00  0.00     0.074 A 
ATOM     50  C   UNL A   1      43.227  22.752  29.716  1.00  0.00     0.029 A 
ATOM     51  N   UNL A   1      44.857  23.763  28.636  1.00  0.00    -0.354 N 
ATOM     52  N   UNL A   1      46.582  27.614  29.648  1.00  0.00    -0.248 NA
ATOM     53  C   UNL A   1      46.578  27.436  27.325  1.00  0.00     0.031 C 
ATOM     54  C   UNL A   1      44.009  23.526  30.627  1.00  0.00     0.029 A 
ATOM     55  C   UNL A   1      44.914  24.298  29.896  1.00  0.00     0.049 A 
ATOM     56  H   UNL A   1      45.576  23.803  27.965  1.00  0.00     0.167 HD
ATOM     57  C   UNL A   1      46.305  26.295  29.329  1.00  0.00     0.074 A 
ATOM     58  C   UNL A   1      46.452  26.225  27.876  1.00  0.00     0.031 C 
ATOM     59  C   UNL A   1      45.701  25.471  30.237  1.00  0.00     0.034 A 
BRANCH  46  60
ATOM     60  C   UNL A   1      43.667  22.977  25.874  1.00  0.00     0.023 A 
ATOM     61  C   UNL A   1      43.766  21.596  25.605  1.00  0.00     0.031 A 
ATOM     62  C   UNL A   1      44.476  23.804  25.064  1.00  0.00     0.131 A 
ATOM     63  C   UNL A   1      44.736  21.091  24.721  1.00  0.00     0.055 A 
ATOM     64  C   UNL A   1      45.400  23.300  24.140  1.00  0.00     0.041 A 
ATOM     65  F   UNL A   1      44.485  25.137  25.152  1.00  0.00    -0.206 F 
ATOM     66  C   UNL A   1      45.566  21.936  23.994  1.00  0.00     0.022 A 
BRANCH  63  67
ATOM     67  S   UNL A   1      45.026  19.303  24.698  1.00  0.00     0.124 S 
ATOM     68  O   UNL A   1      44.075  18.846  25.705  1.00  0.00    -0.237 OA
ATOM     69  O   UNL A   1      44.714  18.970  23.313  1.00  0.00    -0.237 OA
ATOM     70  O   UNL A   1      46.435  19.186  25.067  1.00  0.00    -0.744 OA
ENDBRANCH  63  67
ENDBRANCH  46  60
BRANCH  47  71
ATOM     71  C   UNL A   1      46.495  30.745  27.705  1.00  0.00     0.023 A 
ATOM     72  C   UNL A   1      45.792  31.664  26.890  1.00  0.00     0.031 A 
ATOM     73  C   UNL A   1      47.817  31.101  28.055  1.00  0.00     0.131 A 
ATOM     74  C   UNL A   1      46.409  32.869  26.469  1.00  0.00     0.055 A 
ATOM     75  C   UNL A   1      48.421  32.292  27.640  1.00  0.00     0.041 A 
ATOM     76  F   UNL A   1      48.542  30.338  28.889  1.00  0.00    -0.206 F 
ATOM     77  C   UNL A   1      47.715  33.186  26.852  1.00  0.00     0.022 A 
BRANCH  74  78
ATOM     78  S   UNL A   1      45.496  34.097  25.470  1.00  0.00     0.124 S 
ATOM     79  O   UNL A   1      44.729  33.252  24.562  1.00  0.00    -0.237 OA
ATOM     80  O   UNL A   1      44.737  34.822  26.481  1.00  0.00    -0.237 OA
ATOM     81  O   UNL A   1      46.557  34.876  24.830  1.00  0.00    -0.744 OA
ENDBRANCH  74  78
ENDBRANCH  47  71
BRANCH  59  82
ATOM     82  C   UNL A   1      45.709  25.894  31.693  1.00  0.00     0.023 A 
ATOM     83  C   UNL A   1      44.603  26.407  32.410  1.00  0.00     0.031 A 
ATOM     84  C   UNL A   1      46.901  25.672  32.406  1.00  0.00     0.131 A 
ATOM     85  C   UNL A   1      44.726  26.686  33.788  1.00  0.00     0.055 A 
ATOM     86  C   UNL A   1      47.012  25.927  33.770  1.00  0.00     0.041 A 
ATOM     87  F   UNL A   1      47.980  25.167  31.784  1.00  0.00    -0.206 F 
ATOM     88  C   UNL A   1      45.925  26.442  34.466  1.00  0.00     0.022 A 
BRANCH  85  89
ATOM     89  S   UNL A   1      43.336  27.400  34.728  1.00  0.00     0.124 S 
ATOM     90  O   UNL A   1      42.354  27.722  33.700  1.00  0.00    -0.237 OA
ATOM     91  O   UNL A   1      42.978  26.315  35.637  1.00  0.00    -0.237 OA
ATOM     92  O   UNL A   1      43.933  28.566  35.385  1.00  0.00    -0.744 OA
ENDBRANCH  85  89
ENDBRANCH  59  82
ENDBRANCH  33  34
ENDBRANCH  25  28
ENDBRANCH  23  24
ENDBRANCH  22  23
ENDBRANCH   1  22
TORSDOF 17
ENDMDL
