MODEL 1
REMARK VINA RESULT:     -11.5      0.000      0.000
REMARK SMILES Cc1cc(C(=O)N[C@H](CC(C)C)C(=O)NCCCCNC(=O)c2ccc(-c3c4nc(c(-c5cc(S(=O)(=O)[O-])ccc5F)c5ccc([nH]5)c(-c5cc(S(=O)(=O)[O-])ccc5F)c5nc(c(-c6cc(S(=O)(=O)[O-])ccc6F)c6ccc3[nH]6)C=C5)C=C4)cc2)sc1Br
REMARK SMILES IDX 18 1 17 2 16 3 15 4 13 5 14 6 8 8 7 9 5 10 6 11 4 13 1 14
REMARK SMILES IDX 2 15 3 16 87 17 86 18 88 19 9 20 10 21 11 22 12 23 19 24
REMARK SMILES IDX 20 25 21 26 22 28 23 29 24 30 85 31 25 32 84 33 26 34 27 35
REMARK SMILES IDX 28 36 78 37 29 38 83 39 77 40 79 41 30 42 82 43 76 44 75 45
REMARK SMILES IDX 31 47 63 48 43 49 62 50 44 51 47 52 61 53 80 54 45 55 46 56
REMARK SMILES IDX 60 58 81 59 48 60 32 61 33 62 41 63 34 64 40 65 42 66 39 67
REMARK SMILES IDX 35 68 36 69 37 70 38 71 64 72 65 73 73 74 66 75 72 76 74 77
REMARK SMILES IDX 71 78 67 79 68 80 69 81 70 82 49 83 50 84 58 85 51 86 57 87
REMARK SMILES IDX 59 88 56 89 52 90 53 91 54 92 55 93
REMARK H PARENT 15 7 7 12 20 27 79 46 47 57
REMARK Flexibility Score: inf
ROOT
ATOM      1  C   UNL A   1      37.134  21.003  24.820  1.00  0.00     0.023 C 
ENDROOT
BRANCH   1   2
ATOM      2  C   UNL A   1      36.629  22.232  24.059  1.00  0.00     0.023 C 
BRANCH   2   3
ATOM      3  C   UNL A   1      35.455  22.989  24.677  1.00  0.00     0.116 C 
BRANCH   3   4
ATOM      4  N   UNL A   1      35.165  22.625  26.043  1.00  0.00    -0.354 N 
ATOM      5  C   UNL A   1      34.095  21.965  26.564  1.00  0.00     0.242 C 
ATOM      6  O   UNL A   1      34.185  21.606  27.744  1.00  0.00    -0.273 OA
ATOM      7  H   UNL A   1      35.848  22.895  26.699  1.00  0.00     0.163 HD
BRANCH   5   8
ATOM      8  C   UNL A   1      32.746  21.800  25.822  1.00  0.00     0.171 C 
BRANCH   8   9
ATOM      9  N   UNL A   1      31.528  22.363  26.473  1.00  0.00    -0.340 N 
ATOM     10  C   UNL A   1      30.791  23.531  26.523  1.00  0.00     0.262 C 
ATOM     11  O   UNL A   1      29.818  23.462  27.282  1.00  0.00    -0.268 OA
ATOM     12  H   UNL A   1      31.117  21.684  27.055  1.00  0.00     0.164 HD
BRANCH  10  13
ATOM     13  C   UNL A   1      31.043  24.729  25.716  1.00  0.00     0.093 A 
ATOM     14  C   UNL A   1      30.035  27.786  23.789  1.00  0.00     0.046 C 
ATOM     15  C   UNL A   1      30.834  26.729  24.478  1.00  0.00    -0.025 A 
ATOM     16  C   UNL A   1      30.365  25.389  24.705  1.00  0.00     0.030 A 
ATOM     17  C   UNL A   1      32.099  26.852  25.001  1.00  0.00     0.074 A 
ATOM     18  S   UNL A   1      32.568  25.527  25.945  1.00  0.00    -0.123 S 
ATOM     19  Br  UNL A   1      33.204  28.348  24.749  1.00  0.00    -0.039 Br
ENDBRANCH  10  13
ENDBRANCH   8   9
BRANCH   8  20
ATOM     20  C   UNL A   1      32.522  20.396  25.301  1.00  0.00     0.038 C 
BRANCH  20  21
ATOM     21  C   UNL A   1      33.353  19.769  24.176  1.00  0.00    -0.015 C 
ATOM     22  C   UNL A   1      34.214  18.595  24.631  1.00  0.00     0.007 C 
ATOM     23  C   UNL A   1      32.342  19.255  23.131  1.00  0.00     0.007 C 
ENDBRANCH  20  21
ENDBRANCH   8  20
ENDBRANCH   5   8
ENDBRANCH   3   4
ENDBRANCH   2   3
ENDBRANCH   1   2
BRANCH   1  24
ATOM     24  C   UNL A   1      38.498  21.173  25.476  1.00  0.00     0.116 C 
BRANCH  24  25
ATOM     25  N   UNL A   1      39.235  19.922  25.640  1.00  0.00    -0.352 N 
ATOM     26  C   UNL A   1      40.597  19.789  25.885  1.00  0.00     0.251 C 
ATOM     27  H   UNL A   1      38.715  19.089  25.569  1.00  0.00     0.163 HD
ATOM     28  O   UNL A   1      41.198  18.778  25.571  1.00  0.00    -0.269 OA
BRANCH  26  29
ATOM     29  C   UNL A   1      41.283  20.921  26.544  1.00  0.00     0.039 A 
ATOM     30  C   UNL A   1      41.834  21.974  25.816  1.00  0.00     0.014 A 
ATOM     31  C   UNL A   1      41.278  20.944  27.937  1.00  0.00     0.014 A 
ATOM     32  C   UNL A   1      42.275  23.102  26.511  1.00  0.00     0.010 A 
ATOM     33  C   UNL A   1      41.573  22.109  28.606  1.00  0.00     0.010 A 
ATOM     34  C   UNL A   1      42.101  23.188  27.909  1.00  0.00    -0.014 A 
BRANCH  34  35
ATOM     35  C   UNL A   1      42.300  24.463  28.612  1.00  0.00     0.031 A 
ATOM     36  C   UNL A   1      41.213  25.450  28.361  1.00  0.00     0.074 A 
ATOM     37  C   UNL A   1      43.256  24.709  29.540  1.00  0.00     0.049 A 
ATOM     38  N   UNL A   1      41.285  26.509  27.627  1.00  0.00    -0.248 NA
ATOM     39  C   UNL A   1      39.844  25.137  28.808  1.00  0.00     0.031 C 
ATOM     40  C   UNL A   1      44.246  23.783  30.101  1.00  0.00     0.029 A 
ATOM     41  N   UNL A   1      43.503  25.853  30.246  1.00  0.00    -0.354 N 
ATOM     42  C   UNL A   1      40.052  27.141  27.738  1.00  0.00     0.074 A 
ATOM     43  C   UNL A   1      39.157  26.157  28.286  1.00  0.00     0.031 C 
ATOM     44  C   UNL A   1      44.825  24.330  31.195  1.00  0.00     0.029 A 
ATOM     45  C   UNL A   1      44.388  25.709  31.319  1.00  0.00     0.049 A 
ATOM     46  H   UNL A   1      43.087  26.716  30.015  1.00  0.00     0.167 HD
ATOM     47  C   UNL A   1      39.955  28.494  27.607  1.00  0.00     0.034 A 
ATOM     48  C   UNL A   1      44.768  26.652  32.228  1.00  0.00     0.034 A 
ATOM     49  C   UNL A   1      41.137  29.033  26.964  1.00  0.00     0.049 A 
ATOM     50  C   UNL A   1      44.544  27.968  31.585  1.00  0.00     0.074 A 
ATOM     51  C   UNL A   1      41.768  28.801  25.756  1.00  0.00     0.029 A 
ATOM     52  N   UNL A   1      42.086  29.637  27.759  1.00  0.00    -0.354 N 
ATOM     53  N   UNL A   1      45.212  28.369  30.540  1.00  0.00    -0.248 NA
ATOM     54  C   UNL A   1      43.253  28.607  31.781  1.00  0.00     0.031 C 
ATOM     55  C   UNL A   1      43.161  28.783  26.070  1.00  0.00     0.029 A 
ATOM     56  C   UNL A   1      43.311  29.113  27.418  1.00  0.00     0.049 A 
ATOM     57  H   UNL A   1      41.917  30.321  28.447  1.00  0.00     0.167 HD
ATOM     58  C   UNL A   1      44.261  28.940  29.711  1.00  0.00     0.074 A 
ATOM     59  C   UNL A   1      43.090  29.143  30.568  1.00  0.00     0.031 C 
ATOM     60  C   UNL A   1      44.410  28.936  28.352  1.00  0.00     0.034 A 
BRANCH  47  61
ATOM     61  C   UNL A   1      38.994  29.362  28.389  1.00  0.00     0.023 A 
ATOM     62  C   UNL A   1      39.132  29.385  29.791  1.00  0.00     0.031 A 
ATOM     63  C   UNL A   1      37.799  29.924  27.883  1.00  0.00     0.131 A 
ATOM     64  C   UNL A   1      38.090  29.849  30.614  1.00  0.00     0.055 A 
ATOM     65  C   UNL A   1      36.793  30.443  28.703  1.00  0.00     0.041 A 
ATOM     66  F   UNL A   1      37.487  29.918  26.583  1.00  0.00    -0.206 F 
ATOM     67  C   UNL A   1      36.919  30.379  30.078  1.00  0.00     0.022 A 
BRANCH  64  68
ATOM     68  S   UNL A   1      38.217  29.582  32.401  1.00  0.00     0.124 S 
ATOM     69  O   UNL A   1      37.854  30.895  32.920  1.00  0.00    -0.237 OA
ATOM     70  O   UNL A   1      37.248  28.513  32.613  1.00  0.00    -0.237 OA
ATOM     71  O   UNL A   1      39.615  29.201  32.586  1.00  0.00    -0.744 OA
ENDBRANCH  64  68
ENDBRANCH  47  61
BRANCH  48  72
ATOM     72  C   UNL A   1      44.986  26.499  33.700  1.00  0.00     0.023 A 
ATOM     73  C   UNL A   1      43.960  26.656  34.665  1.00  0.00     0.031 A 
ATOM     74  C   UNL A   1      46.186  25.908  34.153  1.00  0.00     0.131 A 
ATOM     75  C   UNL A   1      44.156  26.222  36.002  1.00  0.00     0.055 A 
ATOM     76  C   UNL A   1      46.369  25.472  35.469  1.00  0.00     0.041 A 
ATOM     77  F   UNL A   1      47.193  25.647  33.304  1.00  0.00    -0.206 F 
ATOM     78  C   UNL A   1      45.351  25.617  36.396  1.00  0.00     0.022 A 
BRANCH  75  79
ATOM     79  S   UNL A   1      42.824  26.353  37.248  1.00  0.00     0.124 S 
ATOM     80  O   UNL A   1      42.096  25.104  37.062  1.00  0.00    -0.237 OA
ATOM     81  O   UNL A   1      43.568  26.492  38.495  1.00  0.00    -0.237 OA
ATOM     82  O   UNL A   1      42.091  27.554  36.842  1.00  0.00    -0.744 OA
ENDBRANCH  75  79
ENDBRANCH  48  72
BRANCH  60  83
ATOM     83  C   UNL A   1      45.768  28.556  27.777  1.00  0.00     0.023 A 
ATOM     84  C   UNL A   1      46.171  27.248  27.411  1.00  0.00     0.031 A 
ATOM     85  C   UNL A   1      46.667  29.605  27.514  1.00  0.00     0.131 A 
ATOM     86  C   UNL A   1      47.440  27.035  26.828  1.00  0.00     0.055 A 
ATOM     87  C   UNL A   1      47.907  29.393  26.912  1.00  0.00     0.041 A 
ATOM     88  F   UNL A   1      46.343  30.872  27.820  1.00  0.00    -0.206 F 
ATOM     89  C   UNL A   1      48.302  28.106  26.574  1.00  0.00     0.022 A 
BRANCH  86  90
ATOM     90  S   UNL A   1      48.016  25.352  26.419  1.00  0.00     0.124 S 
ATOM     91  O   UNL A   1      47.548  24.546  27.539  1.00  0.00    -0.237 OA
ATOM     92  O   UNL A   1      47.369  25.099  25.134  1.00  0.00    -0.237 OA
ATOM     93  O   UNL A   1      49.472  25.501  26.344  1.00  0.00    -0.744 OA
ENDBRANCH  86  90
ENDBRANCH  60  83
ENDBRANCH  34  35
ENDBRANCH  26  29
ENDBRANCH  24  25
ENDBRANCH   1  24
TORSDOF 18
ENDMDL
MODEL 2
REMARK VINA RESULT:     -11.3      3.507      8.010
REMARK SMILES Cc1cc(C(=O)N[C@H](CC(C)C)C(=O)NCCCCNC(=O)c2ccc(-c3c4nc(c(-c5cc(S(=O)(=O)[O-])ccc5F)c5ccc([nH]5)c(-c5cc(S(=O)(=O)[O-])ccc5F)c5nc(c(-c6cc(S(=O)(=O)[O-])ccc6F)c6ccc3[nH]6)C=C5)C=C4)cc2)sc1Br
REMARK SMILES IDX 18 1 17 2 16 3 15 4 13 5 14 6 8 8 7 9 5 10 6 11 4 13 1 14
REMARK SMILES IDX 2 15 3 16 87 17 86 18 88 19 9 20 10 21 11 22 12 23 19 24
REMARK SMILES IDX 20 25 21 26 22 28 23 29 24 30 85 31 25 32 84 33 26 34 27 35
REMARK SMILES IDX 28 36 78 37 29 38 83 39 77 40 79 41 30 42 82 43 76 44 75 45
REMARK SMILES IDX 31 47 63 48 43 49 62 50 44 51 47 52 61 53 80 54 45 55 46 56
REMARK SMILES IDX 60 58 81 59 48 60 32 61 33 62 41 63 34 64 40 65 42 66 39 67
REMARK SMILES IDX 35 68 36 69 37 70 38 71 64 72 65 73 73 74 66 75 72 76 74 77
REMARK SMILES IDX 71 78 67 79 68 80 69 81 70 82 49 83 50 84 58 85 51 86 57 87
REMARK SMILES IDX 59 88 56 89 52 90 53 91 54 92 55 93
REMARK H PARENT 15 7 7 12 20 27 79 46 47 57
REMARK Flexibility Score: inf
ROOT
ATOM      1  C   UNL A   1      33.697  29.278  26.488  1.00  0.00     0.023 C 
ENDROOT
BRANCH   1   2
ATOM      2  C   UNL A   1      32.855  29.937  25.393  1.00  0.00     0.023 C 
BRANCH   2   3
ATOM      3  C   UNL A   1      31.419  29.439  25.237  1.00  0.00     0.116 C 
BRANCH   3   4
ATOM      4  N   UNL A   1      30.947  29.401  23.874  1.00  0.00    -0.354 N 
ATOM      5  C   UNL A   1      30.792  28.343  23.032  1.00  0.00     0.242 C 
ATOM      6  O   UNL A   1      30.182  28.558  21.977  1.00  0.00    -0.273 OA
ATOM      7  H   UNL A   1      30.698  30.275  23.496  1.00  0.00     0.163 HD
BRANCH   5   8
ATOM      8  C   UNL A   1      31.472  26.969  23.246  1.00  0.00     0.171 C 
BRANCH   8   9
ATOM      9  N   UNL A   1      32.110  26.322  22.064  1.00  0.00    -0.340 N 
ATOM     10  C   UNL A   1      32.763  25.156  21.711  1.00  0.00     0.262 C 
ATOM     11  O   UNL A   1      33.124  25.138  20.529  1.00  0.00    -0.268 OA
ATOM     12  H   UNL A   1      32.046  26.918  21.284  1.00  0.00     0.164 HD
BRANCH  10  13
ATOM     13  C   UNL A   1      32.961  23.996  22.585  1.00  0.00     0.093 A 
ATOM     14  C   UNL A   1      32.431  20.442  23.664  1.00  0.00     0.046 C 
ATOM     15  C   UNL A   1      32.931  21.846  23.561  1.00  0.00    -0.025 A 
ATOM     16  C   UNL A   1      32.178  22.924  22.981  1.00  0.00     0.030 A 
ATOM     17  C   UNL A   1      34.151  22.326  23.974  1.00  0.00     0.074 A 
ATOM     18  S   UNL A   1      34.467  23.903  23.444  1.00  0.00    -0.123 S 
ATOM     19  Br  UNL A   1      35.384  21.341  24.989  1.00  0.00    -0.039 Br
ENDBRANCH  10  13
ENDBRANCH   8   9
BRANCH   8  20
ATOM     20  C   UNL A   1      30.619  26.002  24.039  1.00  0.00     0.038 C 
BRANCH  20  21
ATOM     21  C   UNL A   1      30.857  25.678  25.518  1.00  0.00    -0.015 C 
ATOM     22  C   UNL A   1      30.482  24.250  25.902  1.00  0.00     0.007 C 
ATOM     23  C   UNL A   1      32.368  25.867  25.762  1.00  0.00     0.007 C 
ENDBRANCH  20  21
ENDBRANCH   8  20
ENDBRANCH   5   8
ENDBRANCH   3   4
ENDBRANCH   2   3
ENDBRANCH   1   2
BRANCH   1  24
ATOM     24  C   UNL A   1      34.957  30.043  26.874  1.00  0.00     0.116 C 
BRANCH  24  25
ATOM     25  N   UNL A   1      34.693  31.334  27.507  1.00  0.00    -0.352 N 
ATOM     26  C   UNL A   1      35.098  31.731  28.776  1.00  0.00     0.251 C 
ATOM     27  H   UNL A   1      34.176  31.987  26.983  1.00  0.00     0.163 HD
ATOM     28  O   UNL A   1      34.492  32.589  29.391  1.00  0.00    -0.269 OA
BRANCH  26  29
ATOM     29  C   UNL A   1      36.293  31.074  29.347  1.00  0.00     0.039 A 
ATOM     30  C   UNL A   1      36.210  29.875  30.052  1.00  0.00     0.014 A 
ATOM     31  C   UNL A   1      37.530  31.653  29.070  1.00  0.00     0.014 A 
ATOM     32  C   UNL A   1      37.395  29.211  30.374  1.00  0.00     0.010 A 
ATOM     33  C   UNL A   1      38.684  30.929  29.255  1.00  0.00     0.010 A 
ATOM     34  C   UNL A   1      38.636  29.718  29.934  1.00  0.00    -0.014 A 
BRANCH  34  35
ATOM     35  C   UNL A   1      39.853  28.899  30.020  1.00  0.00     0.031 A 
ATOM     36  C   UNL A   1      40.262  28.597  31.420  1.00  0.00     0.074 A 
ATOM     37  C   UNL A   1      40.478  28.307  28.975  1.00  0.00     0.049 A 
ATOM     38  N   UNL A   1      41.258  29.108  32.063  1.00  0.00    -0.248 NA
ATOM     39  C   UNL A   1      39.367  27.791  32.270  1.00  0.00     0.031 C 
ATOM     40  C   UNL A   1      40.076  28.279  27.564  1.00  0.00     0.029 A 
ATOM     41  N   UNL A   1      41.600  27.525  28.967  1.00  0.00    -0.354 N 
ATOM     42  C   UNL A   1      41.276  28.487  33.305  1.00  0.00     0.074 A 
ATOM     43  C   UNL A   1      39.987  27.864  33.451  1.00  0.00     0.031 C 
ATOM     44  C   UNL A   1      40.801  27.354  26.893  1.00  0.00     0.029 A 
ATOM     45  C   UNL A   1      41.841  26.846  27.769  1.00  0.00     0.049 A 
ATOM     46  H   UNL A   1      42.194  27.446  29.749  1.00  0.00     0.167 HD
ATOM     47  C   UNL A   1      42.449  28.330  33.982  1.00  0.00     0.034 A 
ATOM     48  C   UNL A   1      42.837  25.955  27.491  1.00  0.00     0.034 A 
ATOM     49  C   UNL A   1      43.468  29.215  33.454  1.00  0.00     0.049 A 
ATOM     50  C   UNL A   1      43.930  26.239  28.451  1.00  0.00     0.074 A 
ATOM     51  C   UNL A   1      43.563  30.584  33.284  1.00  0.00     0.029 A 
ATOM     52  N   UNL A   1      44.414  28.678  32.608  1.00  0.00    -0.354 N 
ATOM     53  N   UNL A   1      44.605  27.353  28.446  1.00  0.00    -0.248 NA
ATOM     54  C   UNL A   1      43.927  25.519  29.714  1.00  0.00     0.031 C 
ATOM     55  C   UNL A   1      44.158  30.752  31.997  1.00  0.00     0.029 A 
ATOM     56  C   UNL A   1      44.493  29.491  31.501  1.00  0.00     0.049 A 
ATOM     57  H   UNL A   1      44.939  27.861  32.768  1.00  0.00     0.167 HD
ATOM     58  C   UNL A   1      44.713  27.707  29.781  1.00  0.00     0.074 A 
ATOM     59  C   UNL A   1      44.360  26.493  30.520  1.00  0.00     0.031 C 
ATOM     60  C   UNL A   1      44.803  29.017  30.162  1.00  0.00     0.034 A 
BRANCH  47  61
ATOM     61  C   UNL A   1      42.786  27.132  34.843  1.00  0.00     0.023 A 
ATOM     62  C   UNL A   1      43.587  26.124  34.269  1.00  0.00     0.031 A 
ATOM     63  C   UNL A   1      42.148  26.789  36.057  1.00  0.00     0.131 A 
ATOM     64  C   UNL A   1      43.647  24.838  34.835  1.00  0.00     0.055 A 
ATOM     65  C   UNL A   1      42.263  25.528  36.650  1.00  0.00     0.041 A 
ATOM     66  F   UNL A   1      41.303  27.609  36.691  1.00  0.00    -0.206 F 
ATOM     67  C   UNL A   1      42.989  24.533  36.023  1.00  0.00     0.022 A 
BRANCH  64  68
ATOM     68  S   UNL A   1      44.456  23.519  33.894  1.00  0.00     0.124 S 
ATOM     69  O   UNL A   1      43.314  22.862  33.270  1.00  0.00    -0.237 OA
ATOM     70  O   UNL A   1      45.329  24.278  33.006  1.00  0.00    -0.237 OA
ATOM     71  O   UNL A   1      45.140  22.740  34.923  1.00  0.00    -0.744 OA
ENDBRANCH  64  68
ENDBRANCH  47  61
BRANCH  48  72
ATOM     72  C   UNL A   1      42.767  24.690  26.698  1.00  0.00     0.023 A 
ATOM     73  C   UNL A   1      43.712  24.337  25.702  1.00  0.00     0.031 A 
ATOM     74  C   UNL A   1      41.895  23.665  27.125  1.00  0.00     0.131 A 
ATOM     75  C   UNL A   1      43.759  23.012  25.192  1.00  0.00     0.055 A 
ATOM     76  C   UNL A   1      41.954  22.360  26.627  1.00  0.00     0.041 A 
ATOM     77  F   UNL A   1      41.013  23.875  28.115  1.00  0.00    -0.206 F 
ATOM     78  C   UNL A   1      42.894  22.025  25.666  1.00  0.00     0.022 A 
BRANCH  75  79
ATOM     79  S   UNL A   1      45.012  22.515  23.955  1.00  0.00     0.124 S 
ATOM     80  O   UNL A   1      44.198  22.241  22.778  1.00  0.00    -0.237 OA
ATOM     81  O   UNL A   1      45.875  23.690  23.889  1.00  0.00    -0.237 OA
ATOM     82  O   UNL A   1      45.637  21.335  24.555  1.00  0.00    -0.744 OA
ENDBRANCH  75  79
ENDBRANCH  48  72
BRANCH  60  83
ATOM     83  C   UNL A   1      45.074  30.063  29.091  1.00  0.00     0.023 A 
ATOM     84  C   UNL A   1      46.353  30.467  28.637  1.00  0.00     0.031 A 
ATOM     85  C   UNL A   1      43.956  30.617  28.441  1.00  0.00     0.131 A 
ATOM     86  C   UNL A   1      46.470  31.406  27.589  1.00  0.00     0.055 A 
ATOM     87  C   UNL A   1      44.076  31.522  27.387  1.00  0.00     0.041 A 
ATOM     88  F   UNL A   1      42.712  30.265  28.807  1.00  0.00    -0.206 F 
ATOM     89  C   UNL A   1      45.334  31.927  26.962  1.00  0.00     0.022 A 
BRANCH  86  90
ATOM     90  S   UNL A   1      48.105  32.003  27.038  1.00  0.00     0.124 S 
ATOM     91  O   UNL A   1      48.782  30.791  26.594  1.00  0.00    -0.237 OA
ATOM     92  O   UNL A   1      47.756  32.961  25.993  1.00  0.00    -0.237 OA
ATOM     93  O   UNL A   1      48.671  32.606  28.247  1.00  0.00    -0.744 OA
ENDBRANCH  86  90
ENDBRANCH  60  83
ENDBRANCH  34  35
ENDBRANCH  26  29
ENDBRANCH  24  25
ENDBRANCH   1  24
TORSDOF 18
ENDMDL
MODEL 3
REMARK VINA RESULT:     -11.3      3.607      7.821
REMARK SMILES Cc1cc(C(=O)N[C@H](CC(C)C)C(=O)NCCCCNC(=O)c2ccc(-c3c4nc(c(-c5cc(S(=O)(=O)[O-])ccc5F)c5ccc([nH]5)c(-c5cc(S(=O)(=O)[O-])ccc5F)c5nc(c(-c6cc(S(=O)(=O)[O-])ccc6F)c6ccc3[nH]6)C=C5)C=C4)cc2)sc1Br
REMARK SMILES IDX 18 1 17 2 16 3 15 4 13 5 14 6 8 8 7 9 5 10 6 11 4 13 1 14
REMARK SMILES IDX 2 15 3 16 87 17 86 18 88 19 9 20 10 21 11 22 12 23 19 24
REMARK SMILES IDX 20 25 21 26 22 28 23 29 24 30 85 31 25 32 84 33 26 34 27 35
REMARK SMILES IDX 28 36 78 37 29 38 83 39 77 40 79 41 30 42 82 43 76 44 75 45
REMARK SMILES IDX 31 47 63 48 43 49 62 50 44 51 47 52 61 53 80 54 45 55 46 56
REMARK SMILES IDX 60 58 81 59 48 60 32 61 33 62 41 63 34 64 40 65 42 66 39 67
REMARK SMILES IDX 35 68 36 69 37 70 38 71 64 72 65 73 73 74 66 75 72 76 74 77
REMARK SMILES IDX 71 78 67 79 68 80 69 81 70 82 49 83 50 84 58 85 51 86 57 87
REMARK SMILES IDX 59 88 56 89 52 90 53 91 54 92 55 93
REMARK H PARENT 15 7 7 12 20 27 79 46 47 57
REMARK Flexibility Score: inf
ROOT
ATOM      1  C   UNL A   1      33.497  28.846  26.250  1.00  0.00     0.023 C 
ENDROOT
BRANCH   1   2
ATOM      2  C   UNL A   1      32.911  29.671  25.101  1.00  0.00     0.023 C 
BRANCH   2   3
ATOM      3  C   UNL A   1      31.388  29.766  25.031  1.00  0.00     0.116 C 
BRANCH   3   4
ATOM      4  N   UNL A   1      30.848  29.701  23.695  1.00  0.00    -0.354 N 
ATOM      5  C   UNL A   1      30.649  28.626  22.884  1.00  0.00     0.242 C 
ATOM      6  O   UNL A   1      29.987  28.821  21.857  1.00  0.00    -0.273 OA
ATOM      7  H   UNL A   1      30.583  30.567  23.311  1.00  0.00     0.163 HD
BRANCH   5   8
ATOM      8  C   UNL A   1      31.336  27.254  23.094  1.00  0.00     0.171 C 
BRANCH   8   9
ATOM      9  N   UNL A   1      31.967  26.610  21.907  1.00  0.00    -0.340 N 
ATOM     10  C   UNL A   1      32.833  25.580  21.588  1.00  0.00     0.262 C 
ATOM     11  O   UNL A   1      33.047  25.481  20.375  1.00  0.00    -0.268 OA
ATOM     12  H   UNL A   1      31.672  27.064  21.085  1.00  0.00     0.164 HD
BRANCH  10  13
ATOM     13  C   UNL A   1      33.400  24.623  22.542  1.00  0.00     0.093 A 
ATOM     14  C   UNL A   1      35.269  23.638  25.642  1.00  0.00     0.046 C 
ATOM     15  C   UNL A   1      34.454  23.600  24.391  1.00  0.00    -0.025 A 
ATOM     16  C   UNL A   1      34.515  24.604  23.364  1.00  0.00     0.030 A 
ATOM     17  C   UNL A   1      33.536  22.645  24.027  1.00  0.00     0.074 A 
ATOM     18  S   UNL A   1      32.613  23.081  22.675  1.00  0.00    -0.123 S 
ATOM     19  Br  UNL A   1      33.275  21.027  24.942  1.00  0.00    -0.039 Br
ENDBRANCH  10  13
ENDBRANCH   8   9
BRANCH   8  20
ATOM     20  C   UNL A   1      30.492  26.284  23.894  1.00  0.00     0.038 C 
BRANCH  20  21
ATOM     21  C   UNL A   1      30.508  26.212  25.425  1.00  0.00    -0.015 C 
ATOM     22  C   UNL A   1      29.489  25.234  26.002  1.00  0.00     0.007 C 
ATOM     23  C   UNL A   1      31.919  25.733  25.818  1.00  0.00     0.007 C 
ENDBRANCH  20  21
ENDBRANCH   8  20
ENDBRANCH   5   8
ENDBRANCH   3   4
ENDBRANCH   2   3
ENDBRANCH   1   2
BRANCH   1  24
ATOM     24  C   UNL A   1      34.750  29.436  26.887  1.00  0.00     0.116 C 
BRANCH  24  25
ATOM     25  N   UNL A   1      34.633  30.855  27.217  1.00  0.00    -0.352 N 
ATOM     26  C   UNL A   1      35.152  31.488  28.340  1.00  0.00     0.251 C 
ATOM     27  H   UNL A   1      34.136  31.418  26.581  1.00  0.00     0.163 HD
ATOM     28  O   UNL A   1      34.658  32.515  28.768  1.00  0.00    -0.269 OA
BRANCH  26  29
ATOM     29  C   UNL A   1      36.327  30.869  28.990  1.00  0.00     0.039 A 
ATOM     30  C   UNL A   1      36.236  29.663  29.683  1.00  0.00     0.014 A 
ATOM     31  C   UNL A   1      37.559  31.492  28.803  1.00  0.00     0.014 A 
ATOM     32  C   UNL A   1      37.418  29.037  30.084  1.00  0.00     0.010 A 
ATOM     33  C   UNL A   1      38.722  30.806  29.065  1.00  0.00     0.010 A 
ATOM     34  C   UNL A   1      38.668  29.590  29.733  1.00  0.00    -0.014 A 
BRANCH  34  35
ATOM     35  C   UNL A   1      39.904  28.813  29.901  1.00  0.00     0.031 A 
ATOM     36  C   UNL A   1      40.272  28.591  31.327  1.00  0.00     0.074 A 
ATOM     37  C   UNL A   1      40.582  28.189  28.908  1.00  0.00     0.049 A 
ATOM     38  N   UNL A   1      41.231  29.162  31.976  1.00  0.00    -0.248 NA
ATOM     39  C   UNL A   1      39.371  27.802  32.185  1.00  0.00     0.031 C 
ATOM     40  C   UNL A   1      40.230  28.081  27.487  1.00  0.00     0.029 A 
ATOM     41  N   UNL A   1      41.725  27.441  28.976  1.00  0.00    -0.354 N 
ATOM     42  C   UNL A   1      41.223  28.603  33.248  1.00  0.00     0.074 A 
ATOM     43  C   UNL A   1      39.948  27.951  33.381  1.00  0.00     0.031 C 
ATOM     44  C   UNL A   1      41.003  27.146  26.887  1.00  0.00     0.029 A 
ATOM     45  C   UNL A   1      42.026  26.712  27.822  1.00  0.00     0.049 A 
ATOM     46  H   UNL A   1      42.293  27.418  29.780  1.00  0.00     0.167 HD
ATOM     47  C   UNL A   1      42.375  28.514  33.971  1.00  0.00     0.034 A 
ATOM     48  C   UNL A   1      43.056  25.839  27.622  1.00  0.00     0.034 A 
ATOM     49  C   UNL A   1      43.387  29.402  33.433  1.00  0.00     0.049 A 
ATOM     50  C   UNL A   1      44.106  26.202  28.603  1.00  0.00     0.074 A 
ATOM     51  C   UNL A   1      43.450  30.764  33.199  1.00  0.00     0.029 A 
ATOM     52  N   UNL A   1      44.377  28.854  32.648  1.00  0.00    -0.354 N 
ATOM     53  N   UNL A   1      44.750  27.334  28.565  1.00  0.00    -0.248 NA
ATOM     54  C   UNL A   1      44.080  25.544  29.899  1.00  0.00     0.031 C 
ATOM     55  C   UNL A   1      44.084  30.887  31.926  1.00  0.00     0.029 A 
ATOM     56  C   UNL A   1      44.472  29.613  31.505  1.00  0.00     0.049 A 
ATOM     57  H   UNL A   1      44.918  28.061  32.865  1.00  0.00     0.167 HD
ATOM     58  C   UNL A   1      44.801  27.756  29.884  1.00  0.00     0.074 A 
ATOM     59  C   UNL A   1      44.456  26.568  30.670  1.00  0.00     0.031 C 
ATOM     60  C   UNL A   1      44.841  29.084  30.202  1.00  0.00     0.034 A 
BRANCH  47  61
ATOM     61  C   UNL A   1      42.716  27.370  34.900  1.00  0.00     0.023 A 
ATOM     62  C   UNL A   1      43.537  26.343  34.394  1.00  0.00     0.031 A 
ATOM     63  C   UNL A   1      42.065  27.086  36.124  1.00  0.00     0.131 A 
ATOM     64  C   UNL A   1      43.606  25.091  35.031  1.00  0.00     0.055 A 
ATOM     65  C   UNL A   1      42.188  25.861  36.786  1.00  0.00     0.041 A 
ATOM     66  F   UNL A   1      41.201  27.929  36.700  1.00  0.00    -0.206 F 
ATOM     67  C   UNL A   1      42.936  24.843  36.225  1.00  0.00     0.022 A 
BRANCH  64  68
ATOM     68  S   UNL A   1      44.444  23.733  34.175  1.00  0.00     0.124 S 
ATOM     69  O   UNL A   1      43.822  23.789  32.857  1.00  0.00    -0.237 OA
ATOM     70  O   UNL A   1      45.840  24.150  34.248  1.00  0.00    -0.237 OA
ATOM     71  O   UNL A   1      44.101  22.563  34.979  1.00  0.00    -0.744 OA
ENDBRANCH  64  68
ENDBRANCH  47  61
BRANCH  48  72
ATOM     72  C   UNL A   1      43.049  24.535  26.890  1.00  0.00     0.023 A 
ATOM     73  C   UNL A   1      42.143  23.482  27.173  1.00  0.00     0.031 A 
ATOM     74  C   UNL A   1      43.780  24.426  25.687  1.00  0.00     0.131 A 
ATOM     75  C   UNL A   1      41.995  22.398  26.269  1.00  0.00     0.055 A 
ATOM     76  C   UNL A   1      43.622  23.361  24.796  1.00  0.00     0.041 A 
ATOM     77  F   UNL A   1      44.610  25.404  25.291  1.00  0.00    -0.206 F 
ATOM     78  C   UNL A   1      42.721  22.348  25.077  1.00  0.00     0.022 A 
BRANCH  75  79
ATOM     79  S   UNL A   1      40.785  21.062  26.579  1.00  0.00     0.124 S 
ATOM     80  O   UNL A   1      39.575  21.585  25.957  1.00  0.00    -0.237 OA
ATOM     81  O   UNL A   1      41.407  19.914  25.927  1.00  0.00    -0.237 OA
ATOM     82  O   UNL A   1      40.735  20.976  28.039  1.00  0.00    -0.744 OA
ENDBRANCH  75  79
ENDBRANCH  48  72
BRANCH  60  83
ATOM     83  C   UNL A   1      45.119  30.085  29.090  1.00  0.00     0.023 A 
ATOM     84  C   UNL A   1      46.402  30.500  28.656  1.00  0.00     0.031 A 
ATOM     85  C   UNL A   1      44.009  30.577  28.380  1.00  0.00     0.131 A 
ATOM     86  C   UNL A   1      46.529  31.390  27.567  1.00  0.00     0.055 A 
ATOM     87  C   UNL A   1      44.140  31.434  27.287  1.00  0.00     0.041 A 
ATOM     88  F   UNL A   1      42.764  30.211  28.725  1.00  0.00    -0.206 F 
ATOM     89  C   UNL A   1      45.401  31.850  26.882  1.00  0.00     0.022 A 
BRANCH  86  90
ATOM     90  S   UNL A   1      48.165  32.003  27.038  1.00  0.00     0.124 S 
ATOM     91  O   UNL A   1      47.846  33.029  26.054  1.00  0.00    -0.237 OA
ATOM     92  O   UNL A   1      48.746  32.476  28.291  1.00  0.00    -0.237 OA
ATOM     93  O   UNL A   1      48.811  30.810  26.484  1.00  0.00    -0.744 OA
ENDBRANCH  86  90
ENDBRANCH  60  83
ENDBRANCH  34  35
ENDBRANCH  26  29
ENDBRANCH  24  25
ENDBRANCH   1  24
TORSDOF 18
ENDMDL
