MODEL 1
REMARK VINA RESULT:     -10.9      0.000      0.000
REMARK SMILES C[C@H](Br)C(=O)c1ccc(OCC(=O)NCCCCNC(=O)c2ccc(-c3c4nc(c(-c5cc(S(=O)(=O)[O-])ccc5F)c5ccc([nH]5)c(-c5cc(S(=O)(=O)[O-])ccc5F)c5nc(c(-c6cc(S(=O)(=O)[O-])ccc6F)c6ccc3[nH]6)C=C5)C=C4)cc2)cc1
REMARK SMILES IDX 16 1 15 2 14 3 12 4 13 5 11 7 10 8 9 9 6 10 7 11 86 12 8 13
REMARK SMILES IDX 85 14 4 15 5 16 2 17 1 18 3 19 17 20 18 21 19 22 20 23 21 25
REMARK SMILES IDX 22 26 23 27 84 28 24 29 83 30 25 31 26 32 27 33 77 34 28 35
REMARK SMILES IDX 82 36 76 37 78 38 29 39 81 40 75 41 74 42 30 44 62 45 42 46
REMARK SMILES IDX 61 47 43 48 46 49 60 50 79 51 44 52 45 53 59 55 80 56 47 57
REMARK SMILES IDX 31 58 32 59 40 60 33 61 39 62 41 63 38 64 34 65 35 66 36 67
REMARK SMILES IDX 37 68 63 69 64 70 72 71 65 72 71 73 73 74 70 75 66 76 67 77
REMARK SMILES IDX 68 78 69 79 48 80 49 81 57 82 50 83 56 84 58 85 55 86 51 87
REMARK SMILES IDX 52 88 53 89 54 90
REMARK H PARENT 14 6 19 24 78 43 46 54
REMARK Flexibility Score: inf
ROOT
ATOM      1  C   UNL A   1      33.671  26.765  25.728  1.00  0.00     0.023 C 
ENDROOT
BRANCH   1   2
ATOM      2  C   UNL A   1      33.490  26.342  24.272  1.00  0.00     0.116 C 
BRANCH   2   3
ATOM      3  N   UNL A   1      32.138  25.902  23.985  1.00  0.00    -0.353 N 
ATOM      4  C   UNL A   1      31.723  24.678  23.546  1.00  0.00     0.257 C 
ATOM      5  O   UNL A   1      30.517  24.474  23.396  1.00  0.00    -0.271 OA
ATOM      6  H   UNL A   1      31.430  26.571  24.125  1.00  0.00     0.163 HD
BRANCH   4   7
ATOM      7  C   UNL A   1      32.755  23.575  23.286  1.00  0.00     0.329 C 
BRANCH   7   8
ATOM      8  O   UNL A   1      33.335  22.968  24.431  1.00  0.00    -0.484 OA
BRANCH   8   9
ATOM      9  C   UNL A   1      33.527  21.616  24.415  1.00  0.00     0.120 A 
ATOM     10  C   UNL A   1      33.647  18.811  24.290  1.00  0.00     0.019 A 
ATOM     11  C   UNL A   1      32.524  19.491  23.805  1.00  0.00     0.015 A 
ATOM     12  C   UNL A   1      34.713  19.538  24.820  1.00  0.00     0.015 A 
ATOM     13  C   UNL A   1      32.466  20.885  23.877  1.00  0.00     0.047 A 
ATOM     14  C   UNL A   1      34.655  20.938  24.875  1.00  0.00     0.047 A 
BRANCH  10  15
ATOM     15  C   UNL A   1      33.683  17.332  24.137  1.00  0.00     0.176 C 
ATOM     16  O   UNL A   1      33.409  16.871  23.026  1.00  0.00    -0.293 OA
BRANCH  15  17
ATOM     17  C   UNL A   1      33.987  16.423  25.314  1.00  0.00     0.126 C 
ATOM     18  C   UNL A   1      35.354  15.770  25.302  1.00  0.00     0.029 C 
ATOM     19  Br  UNL A   1      32.573  15.096  25.478  1.00  0.00    -0.081 Br
ENDBRANCH  15  17
ENDBRANCH  10  15
ENDBRANCH   8   9
ENDBRANCH   7   8
ENDBRANCH   4   7
ENDBRANCH   2   3
ENDBRANCH   1   2
BRANCH   1  20
ATOM     20  C   UNL A   1      33.943  28.256  25.943  1.00  0.00     0.023 C 
BRANCH  20  21
ATOM     21  C   UNL A   1      33.250  28.888  27.146  1.00  0.00     0.116 C 
BRANCH  21  22
ATOM     22  N   UNL A   1      33.435  30.328  27.219  1.00  0.00    -0.352 N 
ATOM     23  C   UNL A   1      34.493  31.045  27.725  1.00  0.00     0.251 C 
ATOM     24  H   UNL A   1      32.697  30.867  26.853  1.00  0.00     0.163 HD
ATOM     25  O   UNL A   1      34.405  32.266  27.821  1.00  0.00    -0.269 OA
BRANCH  23  26
ATOM     26  C   UNL A   1      35.714  30.345  28.188  1.00  0.00     0.039 A 
ATOM     27  C   UNL A   1      36.833  30.317  27.351  1.00  0.00     0.014 A 
ATOM     28  C   UNL A   1      35.764  29.732  29.443  1.00  0.00     0.014 A 
ATOM     29  C   UNL A   1      38.023  29.740  27.803  1.00  0.00     0.010 A 
ATOM     30  C   UNL A   1      36.972  29.227  29.920  1.00  0.00     0.010 A 
ATOM     31  C   UNL A   1      38.116  29.228  29.107  1.00  0.00    -0.014 A 
BRANCH  31  32
ATOM     32  C   UNL A   1      39.400  28.697  29.638  1.00  0.00     0.031 A 
ATOM     33  C   UNL A   1      40.079  29.369  30.800  1.00  0.00     0.074 A 
ATOM     34  C   UNL A   1      39.988  27.645  29.034  1.00  0.00     0.049 A 
ATOM     35  N   UNL A   1      41.227  29.093  31.364  1.00  0.00    -0.248 NA
ATOM     36  C   UNL A   1      39.386  30.528  31.380  1.00  0.00     0.031 C 
ATOM     37  C   UNL A   1      39.450  26.928  27.876  1.00  0.00     0.029 A 
ATOM     38  N   UNL A   1      41.166  26.997  29.306  1.00  0.00    -0.354 N 
ATOM     39  C   UNL A   1      41.401  30.050  32.359  1.00  0.00     0.074 A 
ATOM     40  C   UNL A   1      40.273  30.954  32.265  1.00  0.00     0.031 C 
ATOM     41  C   UNL A   1      40.278  25.920  27.561  1.00  0.00     0.029 A 
ATOM     42  C   UNL A   1      41.428  25.947  28.458  1.00  0.00     0.049 A 
ATOM     43  H   UNL A   1      41.769  27.260  30.039  1.00  0.00     0.167 HD
ATOM     44  C   UNL A   1      42.393  30.151  33.280  1.00  0.00     0.034 A 
ATOM     45  C   UNL A   1      42.478  25.104  28.403  1.00  0.00     0.034 A 
ATOM     46  C   UNL A   1      43.512  29.240  33.356  1.00  0.00     0.049 A 
ATOM     47  C   UNL A   1      43.595  25.260  29.402  1.00  0.00     0.074 A 
ATOM     48  C   UNL A   1      44.543  29.214  34.279  1.00  0.00     0.029 A 
ATOM     49  N   UNL A   1      43.757  28.202  32.463  1.00  0.00    -0.354 N 
ATOM     50  N   UNL A   1      43.720  26.136  30.372  1.00  0.00    -0.248 NA
ATOM     51  C   UNL A   1      44.708  24.308  29.303  1.00  0.00     0.031 C 
ATOM     52  C   UNL A   1      45.449  28.217  33.900  1.00  0.00     0.029 A 
ATOM     53  C   UNL A   1      44.943  27.558  32.790  1.00  0.00     0.049 A 
ATOM     54  H   UNL A   1      43.174  27.959  31.708  1.00  0.00     0.167 HD
ATOM     55  C   UNL A   1      44.913  25.819  31.019  1.00  0.00     0.074 A 
ATOM     56  C   UNL A   1      45.460  24.665  30.333  1.00  0.00     0.031 C 
ATOM     57  C   UNL A   1      45.496  26.422  32.088  1.00  0.00     0.034 A 
BRANCH  44  58
ATOM     58  C   UNL A   1      42.319  31.309  34.249  1.00  0.00     0.023 A 
ATOM     59  C   UNL A   1      41.423  31.308  35.334  1.00  0.00     0.031 A 
ATOM     60  C   UNL A   1      43.107  32.458  34.055  1.00  0.00     0.131 A 
ATOM     61  C   UNL A   1      41.257  32.466  36.111  1.00  0.00     0.055 A 
ATOM     62  C   UNL A   1      43.010  33.570  34.894  1.00  0.00     0.041 A 
ATOM     63  F   UNL A   1      43.967  32.532  33.027  1.00  0.00    -0.206 F 
ATOM     64  C   UNL A   1      42.064  33.588  35.916  1.00  0.00     0.022 A 
BRANCH  61  65
ATOM     65  S   UNL A   1      39.842  32.549  37.243  1.00  0.00     0.124 S 
ATOM     66  O   UNL A   1      39.223  33.813  36.849  1.00  0.00    -0.237 OA
ATOM     67  O   UNL A   1      39.097  31.342  36.905  1.00  0.00    -0.237 OA
ATOM     68  O   UNL A   1      40.461  32.554  38.566  1.00  0.00    -0.744 OA
ENDBRANCH  61  65
ENDBRANCH  44  58
BRANCH  45  69
ATOM     69  C   UNL A   1      42.524  24.032  27.369  1.00  0.00     0.023 A 
ATOM     70  C   UNL A   1      41.980  22.763  27.622  1.00  0.00     0.031 A 
ATOM     71  C   UNL A   1      43.126  24.254  26.118  1.00  0.00     0.131 A 
ATOM     72  C   UNL A   1      42.074  21.755  26.651  1.00  0.00     0.055 A 
ATOM     73  C   UNL A   1      43.175  23.262  25.136  1.00  0.00     0.041 A 
ATOM     74  F   UNL A   1      43.657  25.451  25.822  1.00  0.00    -0.206 F 
ATOM     75  C   UNL A   1      42.655  21.999  25.405  1.00  0.00     0.022 A 
BRANCH  72  76
ATOM     76  S   UNL A   1      41.476  20.093  27.063  1.00  0.00     0.124 S 
ATOM     77  O   UNL A   1      40.849  19.684  25.813  1.00  0.00    -0.237 OA
ATOM     78  O   UNL A   1      42.714  19.405  27.417  1.00  0.00    -0.237 OA
ATOM     79  O   UNL A   1      40.558  20.328  28.176  1.00  0.00    -0.744 OA
ENDBRANCH  72  76
ENDBRANCH  45  69
BRANCH  57  80
ATOM     80  C   UNL A   1      46.778  25.812  32.604  1.00  0.00     0.023 A 
ATOM     81  C   UNL A   1      48.030  26.140  32.056  1.00  0.00     0.031 A 
ATOM     82  C   UNL A   1      46.741  24.876  33.653  1.00  0.00     0.131 A 
ATOM     83  C   UNL A   1      49.188  25.493  32.518  1.00  0.00     0.055 A 
ATOM     84  C   UNL A   1      47.903  24.285  34.154  1.00  0.00     0.041 A 
ATOM     85  F   UNL A   1      45.574  24.520  34.212  1.00  0.00    -0.206 F 
ATOM     86  C   UNL A   1      49.134  24.583  33.577  1.00  0.00     0.022 A 
BRANCH  83  87
ATOM     87  S   UNL A   1      50.754  25.782  31.650  1.00  0.00     0.124 S 
ATOM     88  O   UNL A   1      50.629  27.182  31.258  1.00  0.00    -0.237 OA
ATOM     89  O   UNL A   1      51.742  25.495  32.684  1.00  0.00    -0.237 OA
ATOM     90  O   UNL A   1      50.716  24.824  30.546  1.00  0.00    -0.744 OA
ENDBRANCH  83  87
ENDBRANCH  57  80
ENDBRANCH  31  32
ENDBRANCH  23  26
ENDBRANCH  21  22
ENDBRANCH  20  21
ENDBRANCH   1  20
TORSDOF 18
ENDMDL
MODEL 2
REMARK VINA RESULT:     -10.9      4.829      7.060
REMARK SMILES C[C@H](Br)C(=O)c1ccc(OCC(=O)NCCCCNC(=O)c2ccc(-c3c4nc(c(-c5cc(S(=O)(=O)[O-])ccc5F)c5ccc([nH]5)c(-c5cc(S(=O)(=O)[O-])ccc5F)c5nc(c(-c6cc(S(=O)(=O)[O-])ccc6F)c6ccc3[nH]6)C=C5)C=C4)cc2)cc1
REMARK SMILES IDX 16 1 15 2 14 3 12 4 13 5 11 7 10 8 9 9 6 10 7 11 86 12 8 13
REMARK SMILES IDX 85 14 4 15 5 16 2 17 1 18 3 19 17 20 18 21 19 22 20 23 21 25
REMARK SMILES IDX 22 26 23 27 84 28 24 29 83 30 25 31 26 32 27 33 77 34 28 35
REMARK SMILES IDX 82 36 76 37 78 38 29 39 81 40 75 41 74 42 30 44 62 45 42 46
REMARK SMILES IDX 61 47 43 48 46 49 60 50 79 51 44 52 45 53 59 55 80 56 47 57
REMARK SMILES IDX 31 58 32 59 40 60 33 61 39 62 41 63 38 64 34 65 35 66 36 67
REMARK SMILES IDX 37 68 63 69 64 70 72 71 65 72 71 73 73 74 70 75 66 76 67 77
REMARK SMILES IDX 68 78 69 79 48 80 49 81 57 82 50 83 56 84 58 85 55 86 51 87
REMARK SMILES IDX 52 88 53 89 54 90
REMARK H PARENT 14 6 19 24 78 43 46 54
REMARK Flexibility Score: inf
ROOT
ATOM      1  C   UNL A   1      35.169  24.445  25.508  1.00  0.00     0.023 C 
ENDROOT
BRANCH   1   2
ATOM      2  C   UNL A   1      33.709  24.675  25.122  1.00  0.00     0.116 C 
BRANCH   2   3
ATOM      3  N   UNL A   1      32.797  24.421  26.220  1.00  0.00    -0.353 N 
ATOM      4  C   UNL A   1      31.718  23.586  26.247  1.00  0.00     0.257 C 
ATOM      5  O   UNL A   1      31.079  23.467  27.294  1.00  0.00    -0.271 OA
ATOM      6  H   UNL A   1      32.980  24.914  27.053  1.00  0.00     0.163 HD
BRANCH   4   7
ATOM      7  C   UNL A   1      31.347  22.786  24.993  1.00  0.00     0.329 C 
BRANCH   7   8
ATOM      8  O   UNL A   1      32.419  22.414  24.140  1.00  0.00    -0.484 OA
BRANCH   8   9
ATOM      9  C   UNL A   1      32.691  21.083  23.992  1.00  0.00     0.120 A 
ATOM     10  C   UNL A   1      33.467  18.384  23.880  1.00  0.00     0.019 A 
ATOM     11  C   UNL A   1      34.053  19.248  24.811  1.00  0.00     0.015 A 
ATOM     12  C   UNL A   1      32.482  18.870  23.019  1.00  0.00     0.015 A 
ATOM     13  C   UNL A   1      33.670  20.591  24.858  1.00  0.00     0.047 A 
ATOM     14  C   UNL A   1      32.090  20.215  23.081  1.00  0.00     0.047 A 
BRANCH  10  15
ATOM     15  C   UNL A   1      33.869  16.953  23.910  1.00  0.00     0.176 C 
ATOM     16  O   UNL A   1      33.953  16.366  22.829  1.00  0.00    -0.293 OA
BRANCH  15  17
ATOM     17  C   UNL A   1      34.111  16.227  25.221  1.00  0.00     0.126 C 
ATOM     18  C   UNL A   1      35.496  15.641  25.401  1.00  0.00     0.029 C 
ATOM     19  Br  UNL A   1      32.735  14.873  25.464  1.00  0.00    -0.081 Br
ENDBRANCH  15  17
ENDBRANCH  10  15
ENDBRANCH   8   9
ENDBRANCH   7   8
ENDBRANCH   4   7
ENDBRANCH   2   3
ENDBRANCH   1   2
BRANCH   1  20
ATOM     20  C   UNL A   1      35.597  22.976  25.584  1.00  0.00     0.023 C 
BRANCH  20  21
ATOM     21  C   UNL A   1      36.684  22.553  24.602  1.00  0.00     0.116 C 
BRANCH  21  22
ATOM     22  N   UNL A   1      37.413  21.372  25.033  1.00  0.00    -0.352 N 
ATOM     23  C   UNL A   1      38.596  21.285  25.727  1.00  0.00     0.251 C 
ATOM     24  H   UNL A   1      36.999  20.511  24.794  1.00  0.00     0.163 HD
ATOM     25  O   UNL A   1      39.126  20.187  25.882  1.00  0.00    -0.269 OA
BRANCH  23  26
ATOM     26  C   UNL A   1      39.245  22.509  26.249  1.00  0.00     0.039 A 
ATOM     27  C   UNL A   1      40.498  22.400  26.859  1.00  0.00     0.014 A 
ATOM     28  C   UNL A   1      38.634  23.760  26.127  1.00  0.00     0.014 A 
ATOM     29  C   UNL A   1      41.168  23.552  27.279  1.00  0.00     0.010 A 
ATOM     30  C   UNL A   1      39.337  24.912  26.474  1.00  0.00     0.010 A 
ATOM     31  C   UNL A   1      40.613  24.822  27.052  1.00  0.00    -0.014 A 
BRANCH  31  32
ATOM     32  C   UNL A   1      41.354  26.063  27.404  1.00  0.00     0.031 A 
ATOM     33  C   UNL A   1      40.701  27.126  28.245  1.00  0.00     0.074 A 
ATOM     34  C   UNL A   1      42.594  26.261  26.914  1.00  0.00     0.049 A 
ATOM     35  N   UNL A   1      41.160  28.297  28.606  1.00  0.00    -0.248 NA
ATOM     36  C   UNL A   1      39.337  26.844  28.712  1.00  0.00     0.031 C 
ATOM     37  C   UNL A   1      43.323  25.324  26.058  1.00  0.00     0.029 A 
ATOM     38  N   UNL A   1      43.460  27.315  27.063  1.00  0.00    -0.354 N 
ATOM     39  C   UNL A   1      40.137  28.898  29.333  1.00  0.00     0.074 A 
ATOM     40  C   UNL A   1      39.012  27.987  29.294  1.00  0.00     0.031 C 
ATOM     41  C   UNL A   1      44.536  25.829  25.787  1.00  0.00     0.029 A 
ATOM     42  C   UNL A   1      44.656  27.145  26.406  1.00  0.00     0.049 A 
ATOM     43  H   UNL A   1      43.244  28.119  27.590  1.00  0.00     0.167 HD
ATOM     44  C   UNL A   1      40.144  30.084  29.994  1.00  0.00     0.034 A 
ATOM     45  C   UNL A   1      45.726  27.958  26.307  1.00  0.00     0.034 A 
ATOM     46  C   UNL A   1      41.277  30.981  30.019  1.00  0.00     0.049 A 
ATOM     47  C   UNL A   1      45.698  29.293  27.005  1.00  0.00     0.074 A 
ATOM     48  C   UNL A   1      41.414  32.179  30.698  1.00  0.00     0.029 A 
ATOM     49  N   UNL A   1      42.463  30.786  29.319  1.00  0.00    -0.354 N 
ATOM     50  N   UNL A   1      44.744  29.825  27.735  1.00  0.00    -0.248 NA
ATOM     51  C   UNL A   1      46.895  30.133  26.872  1.00  0.00     0.031 C 
ATOM     52  C   UNL A   1      42.645  32.745  30.348  1.00  0.00     0.029 A 
ATOM     53  C   UNL A   1      43.319  31.861  29.518  1.00  0.00     0.049 A 
ATOM     54  H   UNL A   1      42.666  30.000  28.764  1.00  0.00     0.167 HD
ATOM     55  C   UNL A   1      45.241  31.050  28.174  1.00  0.00     0.074 A 
ATOM     56  C   UNL A   1      46.582  31.169  27.635  1.00  0.00     0.031 C 
ATOM     57  C   UNL A   1      44.646  31.985  28.959  1.00  0.00     0.034 A 
BRANCH  44  58
ATOM     58  C   UNL A   1      38.872  30.484  30.706  1.00  0.00     0.023 A 
ATOM     59  C   UNL A   1      37.800  31.084  30.021  1.00  0.00     0.031 A 
ATOM     60  C   UNL A   1      38.747  30.321  32.098  1.00  0.00     0.131 A 
ATOM     61  C   UNL A   1      36.707  31.598  30.737  1.00  0.00     0.055 A 
ATOM     62  C   UNL A   1      37.611  30.743  32.791  1.00  0.00     0.041 A 
ATOM     63  F   UNL A   1      39.741  29.773  32.814  1.00  0.00    -0.206 F 
ATOM     64  C   UNL A   1      36.592  31.407  32.115  1.00  0.00     0.022 A 
BRANCH  61  65
ATOM     65  S   UNL A   1      35.543  32.687  29.869  1.00  0.00     0.124 S 
ATOM     66  O   UNL A   1      34.449  32.777  30.834  1.00  0.00    -0.237 OA
ATOM     67  O   UNL A   1      36.328  33.901  29.680  1.00  0.00    -0.237 OA
ATOM     68  O   UNL A   1      35.227  31.948  28.649  1.00  0.00    -0.744 OA
ENDBRANCH  61  65
ENDBRANCH  44  58
BRANCH  45  69
ATOM     69  C   UNL A   1      46.918  27.534  25.520  1.00  0.00     0.023 A 
ATOM     70  C   UNL A   1      47.057  27.900  24.172  1.00  0.00     0.031 A 
ATOM     71  C   UNL A   1      47.927  26.743  26.097  1.00  0.00     0.131 A 
ATOM     72  C   UNL A   1      48.164  27.452  23.435  1.00  0.00     0.055 A 
ATOM     73  C   UNL A   1      49.052  26.339  25.374  1.00  0.00     0.041 A 
ATOM     74  F   UNL A   1      47.846  26.370  27.384  1.00  0.00    -0.206 F 
ATOM     75  C   UNL A   1      49.169  26.685  24.030  1.00  0.00     0.022 A 
BRANCH  72  76
ATOM     76  S   UNL A   1      48.244  27.835  21.665  1.00  0.00     0.124 S 
ATOM     77  O   UNL A   1      46.900  28.338  21.409  1.00  0.00    -0.237 OA
ATOM     78  O   UNL A   1      49.319  28.822  21.617  1.00  0.00    -0.237 OA
ATOM     79  O   UNL A   1      48.558  26.547  21.051  1.00  0.00    -0.744 OA
ENDBRANCH  72  76
ENDBRANCH  45  69
BRANCH  57  80
ATOM     80  C   UNL A   1      45.464  33.205  29.314  1.00  0.00     0.023 A 
ATOM     81  C   UNL A   1      45.441  34.370  28.527  1.00  0.00     0.031 A 
ATOM     82  C   UNL A   1      46.292  33.193  30.450  1.00  0.00     0.131 A 
ATOM     83  C   UNL A   1      46.273  35.452  28.853  1.00  0.00     0.055 A 
ATOM     84  C   UNL A   1      47.068  34.298  30.808  1.00  0.00     0.041 A 
ATOM     85  F   UNL A   1      46.360  32.107  31.236  1.00  0.00    -0.206 F 
ATOM     86  C   UNL A   1      47.072  35.431  29.999  1.00  0.00     0.022 A 
BRANCH  83  87
ATOM     87  S   UNL A   1      46.375  36.852  27.704  1.00  0.00     0.124 S 
ATOM     88  O   UNL A   1      45.014  36.916  27.182  1.00  0.00    -0.237 OA
ATOM     89  O   UNL A   1      46.775  37.948  28.580  1.00  0.00    -0.237 OA
ATOM     90  O   UNL A   1      47.389  36.430  26.739  1.00  0.00    -0.744 OA
ENDBRANCH  83  87
ENDBRANCH  57  80
ENDBRANCH  31  32
ENDBRANCH  23  26
ENDBRANCH  21  22
ENDBRANCH  20  21
ENDBRANCH   1  20
TORSDOF 18
ENDMDL
MODEL 3
REMARK VINA RESULT:     -10.9      5.196     10.125
REMARK SMILES C[C@H](Br)C(=O)c1ccc(OCC(=O)NCCCCNC(=O)c2ccc(-c3c4nc(c(-c5cc(S(=O)(=O)[O-])ccc5F)c5ccc([nH]5)c(-c5cc(S(=O)(=O)[O-])ccc5F)c5nc(c(-c6cc(S(=O)(=O)[O-])ccc6F)c6ccc3[nH]6)C=C5)C=C4)cc2)cc1
REMARK SMILES IDX 16 1 15 2 14 3 12 4 13 5 11 7 10 8 9 9 6 10 7 11 86 12 8 13
REMARK SMILES IDX 85 14 4 15 5 16 2 17 1 18 3 19 17 20 18 21 19 22 20 23 21 25
REMARK SMILES IDX 22 26 23 27 84 28 24 29 83 30 25 31 26 32 27 33 77 34 28 35
REMARK SMILES IDX 82 36 76 37 78 38 29 39 81 40 75 41 74 42 30 44 62 45 42 46
REMARK SMILES IDX 61 47 43 48 46 49 60 50 79 51 44 52 45 53 59 55 80 56 47 57
REMARK SMILES IDX 31 58 32 59 40 60 33 61 39 62 41 63 38 64 34 65 35 66 36 67
REMARK SMILES IDX 37 68 63 69 64 70 72 71 65 72 71 73 73 74 70 75 66 76 67 77
REMARK SMILES IDX 68 78 69 79 48 80 49 81 57 82 50 83 56 84 58 85 55 86 51 87
REMARK SMILES IDX 52 88 53 89 54 90
REMARK H PARENT 14 6 19 24 78 43 46 54
REMARK Flexibility Score: inf
ROOT
ATOM      1  C   UNL A   1      34.287  20.762  25.894  1.00  0.00     0.023 C 
ENDROOT
BRANCH   1   2
ATOM      2  C   UNL A   1      33.014  21.352  25.289  1.00  0.00     0.116 C 
BRANCH   2   3
ATOM      3  N   UNL A   1      32.149  21.948  26.289  1.00  0.00    -0.353 N 
ATOM      4  C   UNL A   1      31.853  23.268  26.472  1.00  0.00     0.257 C 
ATOM      5  O   UNL A   1      31.056  23.586  27.357  1.00  0.00    -0.271 OA
ATOM      6  H   UNL A   1      31.721  21.321  26.916  1.00  0.00     0.163 HD
BRANCH   4   7
ATOM      7  C   UNL A   1      32.482  24.321  25.552  1.00  0.00     0.329 C 
BRANCH   7   8
ATOM      8  O   UNL A   1      32.062  24.310  24.196  1.00  0.00    -0.484 OA
BRANCH   8   9
ATOM      9  C   UNL A   1      31.506  25.448  23.685  1.00  0.00     0.120 A 
ATOM     10  C   UNL A   1      30.190  27.792  22.867  1.00  0.00     0.019 A 
ATOM     11  C   UNL A   1      29.929  27.240  24.125  1.00  0.00     0.015 A 
ATOM     12  C   UNL A   1      31.122  27.179  22.029  1.00  0.00     0.015 A 
ATOM     13  C   UNL A   1      30.580  26.070  24.524  1.00  0.00     0.047 A 
ATOM     14  C   UNL A   1      31.784  26.014  22.441  1.00  0.00     0.047 A 
BRANCH  10  15
ATOM     15  C   UNL A   1      29.514  29.069  22.514  1.00  0.00     0.176 C 
ATOM     16  O   UNL A   1      29.993  29.725  21.586  1.00  0.00    -0.293 OA
BRANCH  15  17
ATOM     17  C   UNL A   1      28.317  29.574  23.300  1.00  0.00     0.126 C 
ATOM     18  C   UNL A   1      27.007  28.864  23.030  1.00  0.00     0.029 C 
ATOM     19  Br  UNL A   1      28.146  31.494  23.038  1.00  0.00    -0.081 Br
ENDBRANCH  15  17
ENDBRANCH  10  15
ENDBRANCH   8   9
ENDBRANCH   7   8
ENDBRANCH   4   7
ENDBRANCH   2   3
ENDBRANCH   1   2
BRANCH   1  20
ATOM     20  C   UNL A   1      35.297  21.790  26.411  1.00  0.00     0.023 C 
BRANCH  20  21
ATOM     21  C   UNL A   1      36.488  22.062  25.498  1.00  0.00     0.116 C 
BRANCH  21  22
ATOM     22  N   UNL A   1      37.516  21.038  25.582  1.00  0.00    -0.352 N 
ATOM     23  C   UNL A   1      38.837  21.158  25.944  1.00  0.00     0.251 C 
ATOM     24  H   UNL A   1      37.224  20.127  25.347  1.00  0.00     0.163 HD
ATOM     25  O   UNL A   1      39.587  20.193  25.823  1.00  0.00    -0.269 OA
BRANCH  23  26
ATOM     26  C   UNL A   1      39.359  22.453  26.438  1.00  0.00     0.039 A 
ATOM     27  C   UNL A   1      40.411  22.449  27.357  1.00  0.00     0.014 A 
ATOM     28  C   UNL A   1      38.828  23.665  25.989  1.00  0.00     0.014 A 
ATOM     29  C   UNL A   1      40.978  23.658  27.769  1.00  0.00     0.010 A 
ATOM     30  C   UNL A   1      39.444  24.865  26.340  1.00  0.00     0.010 A 
ATOM     31  C   UNL A   1      40.528  24.876  27.232  1.00  0.00    -0.014 A 
BRANCH  31  32
ATOM     32  C   UNL A   1      41.182  26.164  27.585  1.00  0.00     0.031 A 
ATOM     33  C   UNL A   1      42.586  26.454  27.130  1.00  0.00     0.074 A 
ATOM     34  C   UNL A   1      40.533  27.048  28.369  1.00  0.00     0.049 A 
ATOM     35  N   UNL A   1      43.344  27.490  27.386  1.00  0.00    -0.248 NA
ATOM     36  C   UNL A   1      43.232  25.424  26.305  1.00  0.00     0.031 C 
ATOM     37  C   UNL A   1      39.183  26.868  28.906  1.00  0.00     0.029 A 
ATOM     38  N   UNL A   1      40.921  28.272  28.854  1.00  0.00    -0.354 N 
ATOM     39  C   UNL A   1      44.561  27.232  26.763  1.00  0.00     0.074 A 
ATOM     40  C   UNL A   1      44.457  25.909  26.183  1.00  0.00     0.031 C 
ATOM     41  C   UNL A   1      38.844  27.957  29.615  1.00  0.00     0.029 A 
ATOM     42  C   UNL A   1      39.966  28.889  29.627  1.00  0.00     0.049 A 
ATOM     43  H   UNL A   1      41.803  28.670  28.666  1.00  0.00     0.167 HD
ATOM     44  C   UNL A   1      45.653  28.033  26.661  1.00  0.00     0.034 A 
ATOM     45  C   UNL A   1      39.992  30.069  30.277  1.00  0.00     0.034 A 
ATOM     46  C   UNL A   1      45.739  29.350  27.250  1.00  0.00     0.049 A 
ATOM     47  C   UNL A   1      41.230  30.923  30.195  1.00  0.00     0.074 A 
ATOM     48  C   UNL A   1      46.770  30.268  27.164  1.00  0.00     0.029 A 
ATOM     49  N   UNL A   1      44.759  29.931  28.048  1.00  0.00    -0.354 N 
ATOM     50  N   UNL A   1      42.354  30.691  29.558  1.00  0.00    -0.248 NA
ATOM     51  C   UNL A   1      41.198  32.203  30.915  1.00  0.00     0.031 C 
ATOM     52  C   UNL A   1      46.452  31.365  27.972  1.00  0.00     0.029 A 
ATOM     53  C   UNL A   1      45.182  31.176  28.495  1.00  0.00     0.049 A 
ATOM     54  H   UNL A   1      43.892  29.520  28.265  1.00  0.00     0.167 HD
ATOM     55  C   UNL A   1      43.152  31.812  29.775  1.00  0.00     0.074 A 
ATOM     56  C   UNL A   1      42.373  32.721  30.592  1.00  0.00     0.031 C 
ATOM     57  C   UNL A   1      44.409  32.069  29.329  1.00  0.00     0.034 A 
BRANCH  44  58
ATOM     58  C   UNL A   1      46.846  27.480  25.916  1.00  0.00     0.023 A 
ATOM     59  C   UNL A   1      47.183  27.928  24.625  1.00  0.00     0.031 A 
ATOM     60  C   UNL A   1      47.624  26.448  26.472  1.00  0.00     0.131 A 
ATOM     61  C   UNL A   1      48.188  27.275  23.894  1.00  0.00     0.055 A 
ATOM     62  C   UNL A   1      48.690  25.872  25.778  1.00  0.00     0.041 A 
ATOM     63  F   UNL A   1      47.345  25.962  27.691  1.00  0.00    -0.206 F 
ATOM     64  C   UNL A   1      48.964  26.268  24.472  1.00  0.00     0.022 A 
BRANCH  61  65
ATOM     65  S   UNL A   1      48.331  27.629  22.120  1.00  0.00     0.124 S 
ATOM     66  O   UNL A   1      48.508  26.288  21.566  1.00  0.00    -0.237 OA
ATOM     67  O   UNL A   1      47.060  28.279  21.824  1.00  0.00    -0.237 OA
ATOM     68  O   UNL A   1      49.509  28.489  22.036  1.00  0.00    -0.744 OA
ENDBRANCH  61  65
ENDBRANCH  44  58
BRANCH  45  69
ATOM     69  C   UNL A   1      38.806  30.516  31.062  1.00  0.00     0.023 A 
ATOM     70  C   UNL A   1      37.739  31.180  30.437  1.00  0.00     0.031 A 
ATOM     71  C   UNL A   1      38.729  30.302  32.449  1.00  0.00     0.131 A 
ATOM     72  C   UNL A   1      36.653  31.633  31.201  1.00  0.00     0.055 A 
ATOM     73  C   UNL A   1      37.624  30.712  33.198  1.00  0.00     0.041 A 
ATOM     74  F   UNL A   1      39.719  29.666  33.095  1.00  0.00    -0.206 F 
ATOM     75  C   UNL A   1      36.581  31.392  32.575  1.00  0.00     0.022 A 
BRANCH  72  76
ATOM     76  S   UNL A   1      35.356  32.600  30.381  1.00  0.00     0.124 S 
ATOM     77  O   UNL A   1      36.000  33.900  30.238  1.00  0.00    -0.237 OA
ATOM     78  O   UNL A   1      35.150  31.846  29.148  1.00  0.00    -0.237 OA
ATOM     79  O   UNL A   1      34.245  32.552  31.329  1.00  0.00    -0.744 OA
ENDBRANCH  72  76
ENDBRANCH  45  69
BRANCH  57  80
ATOM     80  C   UNL A   1      45.004  33.411  29.688  1.00  0.00     0.023 A 
ATOM     81  C   UNL A   1      44.877  34.529  28.846  1.00  0.00     0.031 A 
ATOM     82  C   UNL A   1      45.722  33.566  30.887  1.00  0.00     0.131 A 
ATOM     83  C   UNL A   1      45.509  35.736  29.185  1.00  0.00     0.055 A 
ATOM     84  C   UNL A   1      46.292  34.788  31.251  1.00  0.00     0.041 A 
ATOM     85  F   UNL A   1      45.881  32.533  31.729  1.00  0.00    -0.206 F 
ATOM     86  C   UNL A   1      46.199  35.878  30.391  1.00  0.00     0.022 A 
BRANCH  83  87
ATOM     87  S   UNL A   1      45.503  37.092  27.979  1.00  0.00     0.124 S 
ATOM     88  O   UNL A   1      46.056  38.195  28.760  1.00  0.00    -0.237 OA
ATOM     89  O   UNL A   1      46.357  36.571  26.918  1.00  0.00    -0.237 OA
ATOM     90  O   UNL A   1      44.091  37.231  27.627  1.00  0.00    -0.744 OA
ENDBRANCH  83  87
ENDBRANCH  57  80
ENDBRANCH  31  32
ENDBRANCH  23  26
ENDBRANCH  21  22
ENDBRANCH  20  21
ENDBRANCH   1  20
TORSDOF 18
ENDMDL
