MODEL 1
REMARK VINA RESULT:     -12.0      0.000      0.000
REMARK SMILES Cc1cccc2nc(C(=O)N3CCC[C@@H](C(=O)NCCCCNC(=O)c4ccc(-c5c6nc(c(-c7cc(S(=O)(=O)[O-])ccc7F)c7ccc([nH]7)c(-c7cc(S(=O)(=O)[O-])ccc7F)c7nc(c(-c8cc(S(=O)(=O)[O-])ccc8F)c8ccc5[nH]8)C=C7)C=C6)cc4)C3)cn12
REMARK SMILES IDX 21 1 20 2 19 3 18 4 16 5 17 6 15 8 11 9 12 10 89 11 13 12
REMARK SMILES IDX 14 13 9 14 10 15 8 16 1 17 2 18 3 19 91 20 4 21 6 22 90 23
REMARK SMILES IDX 5 24 7 25 22 26 23 27 24 28 25 30 26 31 27 32 88 33 28 34
REMARK SMILES IDX 87 35 29 36 30 37 31 38 81 39 32 40 86 41 80 42 82 43 33 44
REMARK SMILES IDX 85 45 79 46 78 47 34 49 66 50 46 51 65 52 47 53 50 54 64 55
REMARK SMILES IDX 83 56 48 57 49 58 63 60 84 61 51 62 35 63 36 64 44 65 37 66
REMARK SMILES IDX 43 67 45 68 42 69 38 70 39 71 40 72 41 73 67 74 68 75 76 76
REMARK SMILES IDX 69 77 75 78 77 79 74 80 70 81 71 82 72 83 73 84 52 85 53 86
REMARK SMILES IDX 61 87 54 88 60 89 62 90 59 91 55 92 56 93 57 94 58 95
REMARK H PARENT 18 7 23 29 82 48 50 59
REMARK Flexibility Score: inf
ROOT
ATOM      1  C   UNL A   1      39.242  22.401  26.229  1.00  0.00     0.023 C 
ENDROOT
BRANCH   1   2
ATOM      2  C   UNL A   1      38.541  23.658  26.754  1.00  0.00     0.023 C 
BRANCH   2   3
ATOM      3  C   UNL A   1      37.221  24.028  26.060  1.00  0.00     0.116 C 
BRANCH   3   4
ATOM      4  N   UNL A   1      37.246  23.678  24.654  1.00  0.00    -0.356 N 
ATOM      5  C   UNL A   1      36.330  23.070  23.861  1.00  0.00     0.224 C 
ATOM      6  O   UNL A   1      36.690  22.768  22.718  1.00  0.00    -0.275 OA
ATOM      7  H   UNL A   1      38.080  23.929  24.191  1.00  0.00     0.163 HD
BRANCH   5   8
ATOM      8  C   UNL A   1      34.882  22.819  24.273  1.00  0.00     0.098 C 
ATOM      9  N   UNL A   1      32.450  23.093  23.863  1.00  0.00    -0.336 N 
ATOM     10  C   UNL A   1      32.187  21.701  24.198  1.00  0.00     0.120 C 
ATOM     11  C   UNL A   1      33.791  23.400  23.372  1.00  0.00     0.133 C 
ATOM     12  C   UNL A   1      33.242  21.119  25.126  1.00  0.00     0.022 C 
ATOM     13  C   UNL A   1      34.649  21.334  24.569  1.00  0.00     0.017 C 
BRANCH   9  14
ATOM     14  C   UNL A   1      31.363  23.954  23.735  1.00  0.00     0.274 C 
ATOM     15  O   UNL A   1      30.373  23.644  23.070  1.00  0.00    -0.267 OA
BRANCH  14  16
ATOM     16  C   UNL A   1      31.463  25.300  24.327  1.00  0.00     0.147 A 
ATOM     17  C   UNL A   1      33.407  29.065  23.284  1.00  0.00     0.065 C 
ATOM     18  C   UNL A   1      32.817  28.616  24.586  1.00  0.00     0.021 A 
ATOM     19  C   UNL A   1      32.866  29.368  25.705  1.00  0.00     0.022 A 
ATOM     20  N   UNL A   1      32.197  27.356  24.664  1.00  0.00    -0.304 N 
ATOM     21  C   UNL A   1      32.289  28.859  26.940  1.00  0.00     0.006 A 
ATOM     22  C   UNL A   1      31.624  26.843  25.828  1.00  0.00     0.137 A 
ATOM     23  C   UNL A   1      32.061  26.383  23.709  1.00  0.00     0.127 A 
ATOM     24  C   UNL A   1      31.690  27.655  26.996  1.00  0.00     0.048 A 
ATOM     25  N   UNL A   1      31.147  25.629  25.639  1.00  0.00    -0.223 NA
ENDBRANCH  14  16
ENDBRANCH   9  14
ENDBRANCH   5   8
ENDBRANCH   3   4
ENDBRANCH   2   3
ENDBRANCH   1   2
BRANCH   1  26
ATOM     26  C   UNL A   1      40.498  22.038  27.000  1.00  0.00     0.116 C 
BRANCH  26  27
ATOM     27  N   UNL A   1      41.678  21.956  26.137  1.00  0.00    -0.352 N 
ATOM     28  C   UNL A   1      42.394  23.006  25.587  1.00  0.00     0.251 C 
ATOM     29  H   UNL A   1      41.999  21.050  25.922  1.00  0.00     0.163 HD
ATOM     30  O   UNL A   1      43.123  22.848  24.626  1.00  0.00    -0.269 OA
BRANCH  28  31
ATOM     31  C   UNL A   1      42.263  24.317  26.241  1.00  0.00     0.039 A 
ATOM     32  C   UNL A   1      41.459  25.332  25.717  1.00  0.00     0.014 A 
ATOM     33  C   UNL A   1      42.939  24.473  27.448  1.00  0.00     0.014 A 
ATOM     34  C   UNL A   1      41.308  26.502  26.455  1.00  0.00     0.010 A 
ATOM     35  C   UNL A   1      42.639  25.534  28.252  1.00  0.00     0.010 A 
ATOM     36  C   UNL A   1      41.908  26.588  27.719  1.00  0.00    -0.014 A 
BRANCH  36  37
ATOM     37  C   UNL A   1      41.808  27.783  28.536  1.00  0.00     0.031 A 
ATOM     38  C   UNL A   1      42.718  28.897  28.165  1.00  0.00     0.074 A 
ATOM     39  C   UNL A   1      40.780  27.940  29.395  1.00  0.00     0.049 A 
ATOM     40  N   UNL A   1      43.746  29.334  28.817  1.00  0.00    -0.248 NA
ATOM     41  C   UNL A   1      42.547  29.513  26.840  1.00  0.00     0.031 C 
ATOM     42  C   UNL A   1      39.603  27.079  29.601  1.00  0.00     0.029 A 
ATOM     43  N   UNL A   1      40.518  28.990  30.207  1.00  0.00    -0.354 N 
ATOM     44  C   UNL A   1      44.224  30.422  28.089  1.00  0.00     0.074 A 
ATOM     45  C   UNL A   1      43.580  30.357  26.801  1.00  0.00     0.031 C 
ATOM     46  C   UNL A   1      38.660  27.759  30.290  1.00  0.00     0.029 A 
ATOM     47  C   UNL A   1      39.237  29.012  30.734  1.00  0.00     0.049 A 
ATOM     48  H   UNL A   1      41.186  29.683  30.408  1.00  0.00     0.167 HD
ATOM     49  C   UNL A   1      44.937  31.427  28.676  1.00  0.00     0.034 A 
ATOM     50  C   UNL A   1      38.683  30.024  31.443  1.00  0.00     0.034 A 
ATOM     51  C   UNL A   1      45.326  31.084  30.017  1.00  0.00     0.049 A 
ATOM     52  C   UNL A   1      39.802  30.861  31.949  1.00  0.00     0.074 A 
ATOM     53  C   UNL A   1      46.130  30.113  30.577  1.00  0.00     0.029 A 
ATOM     54  N   UNL A   1      44.529  31.551  31.037  1.00  0.00    -0.354 N 
ATOM     55  N   UNL A   1      40.678  30.442  32.822  1.00  0.00    -0.248 NA
ATOM     56  C   UNL A   1      40.228  31.980  31.121  1.00  0.00     0.031 C 
ATOM     57  C   UNL A   1      45.446  29.711  31.760  1.00  0.00     0.029 A 
ATOM     58  C   UNL A   1      44.301  30.501  31.891  1.00  0.00     0.049 A 
ATOM     59  H   UNL A   1      44.187  32.468  31.137  1.00  0.00     0.167 HD
ATOM     60  C   UNL A   1      41.892  30.944  32.373  1.00  0.00     0.074 A 
ATOM     61  C   UNL A   1      41.540  31.950  31.369  1.00  0.00     0.031 C 
ATOM     62  C   UNL A   1      43.070  30.302  32.632  1.00  0.00     0.034 A 
BRANCH  49  63
ATOM     63  C   UNL A   1      44.981  32.844  28.169  1.00  0.00     0.023 A 
ATOM     64  C   UNL A   1      43.894  33.728  28.309  1.00  0.00     0.031 A 
ATOM     65  C   UNL A   1      46.192  33.419  27.734  1.00  0.00     0.131 A 
ATOM     66  C   UNL A   1      44.008  35.089  27.999  1.00  0.00     0.055 A 
ATOM     67  C   UNL A   1      46.327  34.792  27.488  1.00  0.00     0.041 A 
ATOM     68  F   UNL A   1      47.295  32.668  27.586  1.00  0.00    -0.206 F 
ATOM     69  C   UNL A   1      45.229  35.635  27.617  1.00  0.00     0.022 A 
BRANCH  66  70
ATOM     70  S   UNL A   1      42.562  36.175  28.114  1.00  0.00     0.124 S 
ATOM     71  O   UNL A   1      41.542  35.262  28.618  1.00  0.00    -0.237 OA
ATOM     72  O   UNL A   1      43.028  37.189  29.055  1.00  0.00    -0.237 OA
ATOM     73  O   UNL A   1      42.380  36.641  26.742  1.00  0.00    -0.744 OA
ENDBRANCH  66  70
ENDBRANCH  49  63
BRANCH  50  74
ATOM     74  C   UNL A   1      37.320  30.566  31.233  1.00  0.00     0.023 A 
ATOM     75  C   UNL A   1      36.834  30.761  29.924  1.00  0.00     0.031 A 
ATOM     76  C   UNL A   1      36.615  31.178  32.281  1.00  0.00     0.131 A 
ATOM     77  C   UNL A   1      35.727  31.586  29.690  1.00  0.00     0.055 A 
ATOM     78  C   UNL A   1      35.500  31.992  32.045  1.00  0.00     0.041 A 
ATOM     79  F   UNL A   1      37.038  31.052  33.547  1.00  0.00    -0.206 F 
ATOM     80  C   UNL A   1      35.060  32.212  30.742  1.00  0.00     0.022 A 
BRANCH  77  81
ATOM     81  S   UNL A   1      35.178  31.906  27.990  1.00  0.00     0.124 S 
ATOM     82  O   UNL A   1      35.863  33.157  27.672  1.00  0.00    -0.237 OA
ATOM     83  O   UNL A   1      35.668  30.725  27.291  1.00  0.00    -0.237 OA
ATOM     84  O   UNL A   1      33.727  32.018  28.118  1.00  0.00    -0.744 OA
ENDBRANCH  77  81
ENDBRANCH  50  74
BRANCH  62  85
ATOM     85  C   UNL A   1      43.064  29.127  33.586  1.00  0.00     0.023 A 
ATOM     86  C   UNL A   1      43.502  29.361  34.898  1.00  0.00     0.031 A 
ATOM     87  C   UNL A   1      42.889  27.787  33.190  1.00  0.00     0.131 A 
ATOM     88  C   UNL A   1      43.796  28.288  35.746  1.00  0.00     0.055 A 
ATOM     89  C   UNL A   1      43.129  26.716  34.059  1.00  0.00     0.041 A 
ATOM     90  F   UNL A   1      42.572  27.466  31.933  1.00  0.00    -0.206 F 
ATOM     91  C   UNL A   1      43.600  26.965  35.341  1.00  0.00     0.022 A 
BRANCH  88  92
ATOM     92  S   UNL A   1      44.562  28.585  37.358  1.00  0.00     0.124 S 
ATOM     93  O   UNL A   1      45.979  28.670  37.017  1.00  0.00    -0.237 OA
ATOM     94  O   UNL A   1      43.939  29.843  37.765  1.00  0.00    -0.237 OA
ATOM     95  O   UNL A   1      44.181  27.420  38.151  1.00  0.00    -0.744 OA
ENDBRANCH  88  92
ENDBRANCH  62  85
ENDBRANCH  36  37
ENDBRANCH  28  31
ENDBRANCH  26  27
ENDBRANCH   1  26
TORSDOF 16
ENDMDL
MODEL 2
REMARK VINA RESULT:     -11.9      3.143      8.594
REMARK SMILES Cc1cccc2nc(C(=O)N3CCC[C@@H](C(=O)NCCCCNC(=O)c4ccc(-c5c6nc(c(-c7cc(S(=O)(=O)[O-])ccc7F)c7ccc([nH]7)c(-c7cc(S(=O)(=O)[O-])ccc7F)c7nc(c(-c8cc(S(=O)(=O)[O-])ccc8F)c8ccc5[nH]8)C=C7)C=C6)cc4)C3)cn12
REMARK SMILES IDX 21 1 20 2 19 3 18 4 16 5 17 6 15 8 11 9 12 10 89 11 13 12
REMARK SMILES IDX 14 13 9 14 10 15 8 16 1 17 2 18 3 19 91 20 4 21 6 22 90 23
REMARK SMILES IDX 5 24 7 25 22 26 23 27 24 28 25 30 26 31 27 32 88 33 28 34
REMARK SMILES IDX 87 35 29 36 30 37 31 38 81 39 32 40 86 41 80 42 82 43 33 44
REMARK SMILES IDX 85 45 79 46 78 47 34 49 66 50 46 51 65 52 47 53 50 54 64 55
REMARK SMILES IDX 83 56 48 57 49 58 63 60 84 61 51 62 35 63 36 64 44 65 37 66
REMARK SMILES IDX 43 67 45 68 42 69 38 70 39 71 40 72 41 73 67 74 68 75 76 76
REMARK SMILES IDX 69 77 75 78 77 79 74 80 70 81 71 82 72 83 73 84 52 85 53 86
REMARK SMILES IDX 61 87 54 88 60 89 62 90 59 91 55 92 56 93 57 94 58 95
REMARK H PARENT 18 7 23 29 82 48 50 59
REMARK Flexibility Score: inf
ROOT
ATOM      1  C   UNL A   1      33.984  30.769  27.363  1.00  0.00     0.023 C 
ENDROOT
BRANCH   1   2
ATOM      2  C   UNL A   1      34.688  29.424  27.156  1.00  0.00     0.023 C 
BRANCH   2   3
ATOM      3  C   UNL A   1      34.038  28.480  26.131  1.00  0.00     0.116 C 
BRANCH   3   4
ATOM      4  N   UNL A   1      32.847  29.066  25.552  1.00  0.00    -0.356 N 
ATOM      5  C   UNL A   1      31.869  28.536  24.775  1.00  0.00     0.224 C 
ATOM      6  O   UNL A   1      31.041  29.323  24.303  1.00  0.00    -0.275 OA
ATOM      7  H   UNL A   1      32.725  30.022  25.761  1.00  0.00     0.163 HD
BRANCH   5   8
ATOM      8  C   UNL A   1      31.696  27.040  24.529  1.00  0.00     0.098 C 
ATOM      9  N   UNL A   1      30.771  24.841  25.207  1.00  0.00    -0.336 N 
ATOM     10  C   UNL A   1      30.373  24.532  23.841  1.00  0.00     0.120 C 
ATOM     11  C   UNL A   1      30.870  26.257  25.550  1.00  0.00     0.133 C 
ATOM     12  C   UNL A   1      31.211  25.273  22.811  1.00  0.00     0.022 C 
ATOM     13  C   UNL A   1      31.233  26.775  23.092  1.00  0.00     0.017 C 
BRANCH   9  14
ATOM     14  C   UNL A   1      30.727  23.817  26.150  1.00  0.00     0.274 C 
ATOM     15  O   UNL A   1      30.011  23.895  27.149  1.00  0.00    -0.267 OA
BRANCH  14  16
ATOM     16  C   UNL A   1      31.643  22.674  25.985  1.00  0.00     0.147 A 
ATOM     17  C   UNL A   1      35.965  22.096  25.826  1.00  0.00     0.065 C 
ATOM     18  C   UNL A   1      34.856  21.172  25.427  1.00  0.00     0.021 A 
ATOM     19  C   UNL A   1      35.081  19.963  24.873  1.00  0.00     0.022 A 
ATOM     20  N   UNL A   1      33.521  21.573  25.617  1.00  0.00    -0.304 N 
ATOM     21  C   UNL A   1      33.954  19.125  24.491  1.00  0.00     0.006 A 
ATOM     22  C   UNL A   1      32.419  20.790  25.273  1.00  0.00     0.137 A 
ATOM     23  C   UNL A   1      33.018  22.753  26.099  1.00  0.00     0.127 A 
ATOM     24  C   UNL A   1      32.682  19.519  24.689  1.00  0.00     0.048 A 
ATOM     25  N   UNL A   1      31.285  21.416  25.519  1.00  0.00    -0.223 NA
ENDBRANCH  14  16
ENDBRANCH   9  14
ENDBRANCH   5   8
ENDBRANCH   3   4
ENDBRANCH   2   3
ENDBRANCH   1   2
BRANCH   1  26
ATOM     26  C   UNL A   1      34.930  31.903  27.710  1.00  0.00     0.116 C 
BRANCH  26  27
ATOM     27  N   UNL A   1      34.612  32.520  28.999  1.00  0.00    -0.352 N 
ATOM     28  C   UNL A   1      35.067  32.139  30.250  1.00  0.00     0.251 C 
ATOM     29  H   UNL A   1      34.005  33.295  28.974  1.00  0.00     0.163 HD
ATOM     30  O   UNL A   1      34.492  32.474  31.269  1.00  0.00    -0.269 OA
BRANCH  28  31
ATOM     31  C   UNL A   1      36.300  31.339  30.297  1.00  0.00     0.039 A 
ATOM     32  C   UNL A   1      36.282  29.942  30.256  1.00  0.00     0.014 A 
ATOM     33  C   UNL A   1      37.496  32.052  30.323  1.00  0.00     0.014 A 
ATOM     34  C   UNL A   1      37.498  29.268  30.197  1.00  0.00     0.010 A 
ATOM     35  C   UNL A   1      38.669  31.402  30.073  1.00  0.00     0.010 A 
ATOM     36  C   UNL A   1      38.682  30.013  30.108  1.00  0.00    -0.014 A 
BRANCH  36  37
ATOM     37  C   UNL A   1      39.986  29.378  30.062  1.00  0.00     0.031 A 
ATOM     38  C   UNL A   1      40.561  28.984  31.373  1.00  0.00     0.074 A 
ATOM     39  C   UNL A   1      40.499  28.955  28.888  1.00  0.00     0.049 A 
ATOM     40  N   UNL A   1      41.569  29.509  31.990  1.00  0.00    -0.248 NA
ATOM     41  C   UNL A   1      39.843  27.970  32.162  1.00  0.00     0.031 C 
ATOM     42  C   UNL A   1      39.878  28.950  27.552  1.00  0.00     0.029 A 
ATOM     43  N   UNL A   1      41.675  28.327  28.664  1.00  0.00    -0.354 N 
ATOM     44  C   UNL A   1      41.746  28.751  33.145  1.00  0.00     0.074 A 
ATOM     45  C   UNL A   1      40.550  27.960  33.294  1.00  0.00     0.031 C 
ATOM     46  C   UNL A   1      40.580  28.141  26.730  1.00  0.00     0.029 A 
ATOM     47  C   UNL A   1      41.790  27.735  27.417  1.00  0.00     0.049 A 
ATOM     48  H   UNL A   1      42.394  28.294  29.335  1.00  0.00     0.167 HD
ATOM     49  C   UNL A   1      42.957  28.656  33.769  1.00  0.00     0.034 A 
ATOM     50  C   UNL A   1      42.795  26.925  27.008  1.00  0.00     0.034 A 
ATOM     51  C   UNL A   1      43.897  29.608  33.243  1.00  0.00     0.049 A 
ATOM     52  C   UNL A   1      43.943  27.164  27.921  1.00  0.00     0.074 A 
ATOM     53  C   UNL A   1      43.966  30.985  33.201  1.00  0.00     0.029 A 
ATOM     54  N   UNL A   1      44.770  29.156  32.280  1.00  0.00    -0.354 N 
ATOM     55  N   UNL A   1      44.592  28.294  27.982  1.00  0.00    -0.248 NA
ATOM     56  C   UNL A   1      44.047  26.317  29.100  1.00  0.00     0.031 C 
ATOM     57  C   UNL A   1      44.490  31.285  31.911  1.00  0.00     0.029 A 
ATOM     58  C   UNL A   1      44.773  30.079  31.265  1.00  0.00     0.049 A 
ATOM     59  H   UNL A   1      45.296  28.325  32.313  1.00  0.00     0.167 HD
ATOM     60  C   UNL A   1      44.825  28.496  29.335  1.00  0.00     0.074 A 
ATOM     61  C   UNL A   1      44.540  27.206  29.967  1.00  0.00     0.031 C 
ATOM     62  C   UNL A   1      44.939  29.752  29.862  1.00  0.00     0.034 A 
BRANCH  49  63
ATOM     63  C   UNL A   1      43.392  27.479  34.602  1.00  0.00     0.023 A 
ATOM     64  C   UNL A   1      43.733  26.238  34.032  1.00  0.00     0.031 A 
ATOM     65  C   UNL A   1      43.694  27.635  35.969  1.00  0.00     0.131 A 
ATOM     66  C   UNL A   1      44.306  25.212  34.793  1.00  0.00     0.055 A 
ATOM     67  C   UNL A   1      44.330  26.634  36.717  1.00  0.00     0.041 A 
ATOM     68  F   UNL A   1      43.427  28.786  36.607  1.00  0.00    -0.206 F 
ATOM     69  C   UNL A   1      44.636  25.411  36.130  1.00  0.00     0.022 A 
BRANCH  66  70
ATOM     70  S   UNL A   1      44.654  23.601  34.038  1.00  0.00     0.124 S 
ATOM     71  O   UNL A   1      44.224  23.818  32.662  1.00  0.00    -0.237 OA
ATOM     72  O   UNL A   1      46.095  23.484  34.243  1.00  0.00    -0.237 OA
ATOM     73  O   UNL A   1      43.840  22.678  34.824  1.00  0.00    -0.744 OA
ENDBRANCH  66  70
ENDBRANCH  49  63
BRANCH  50  74
ATOM     74  C   UNL A   1      42.616  25.648  26.276  1.00  0.00     0.023 A 
ATOM     75  C   UNL A   1      41.690  24.694  26.742  1.00  0.00     0.031 A 
ATOM     76  C   UNL A   1      43.552  25.226  25.319  1.00  0.00     0.131 A 
ATOM     77  C   UNL A   1      41.752  23.365  26.303  1.00  0.00     0.055 A 
ATOM     78  C   UNL A   1      43.604  23.900  24.871  1.00  0.00     0.041 A 
ATOM     79  F   UNL A   1      44.476  26.078  24.851  1.00  0.00    -0.206 F 
ATOM     80  C   UNL A   1      42.711  22.958  25.376  1.00  0.00     0.022 A 
BRANCH  77  81
ATOM     81  S   UNL A   1      40.616  22.128  26.990  1.00  0.00     0.124 S 
ATOM     82  O   UNL A   1      39.318  22.787  26.852  1.00  0.00    -0.237 OA
ATOM     83  O   UNL A   1      40.843  20.992  26.105  1.00  0.00    -0.237 OA
ATOM     84  O   UNL A   1      41.080  21.969  28.366  1.00  0.00    -0.744 OA
ENDBRANCH  77  81
ENDBRANCH  50  74
BRANCH  62  85
ATOM     85  C   UNL A   1      45.002  30.933  28.918  1.00  0.00     0.023 A 
ATOM     86  C   UNL A   1      46.273  31.367  28.513  1.00  0.00     0.031 A 
ATOM     87  C   UNL A   1      43.907  31.768  28.620  1.00  0.00     0.131 A 
ATOM     88  C   UNL A   1      46.429  32.607  27.884  1.00  0.00     0.055 A 
ATOM     89  C   UNL A   1      44.059  32.982  27.940  1.00  0.00     0.041 A 
ATOM     90  F   UNL A   1      42.676  31.486  29.054  1.00  0.00    -0.206 F 
ATOM     91  C   UNL A   1      45.329  33.414  27.582  1.00  0.00     0.022 A 
BRANCH  88  92
ATOM     92  S   UNL A   1      48.084  33.259  27.556  1.00  0.00     0.124 S 
ATOM     93  O   UNL A   1      48.568  32.365  26.508  1.00  0.00    -0.237 OA
ATOM     94  O   UNL A   1      47.796  34.627  27.130  1.00  0.00    -0.237 OA
ATOM     95  O   UNL A   1      48.771  33.142  28.840  1.00  0.00    -0.744 OA
ENDBRANCH  88  92
ENDBRANCH  62  85
ENDBRANCH  36  37
ENDBRANCH  28  31
ENDBRANCH  26  27
ENDBRANCH   1  26
TORSDOF 16
ENDMDL
MODEL 3
REMARK VINA RESULT:     -11.9      3.247      8.642
REMARK SMILES Cc1cccc2nc(C(=O)N3CCC[C@@H](C(=O)NCCCCNC(=O)c4ccc(-c5c6nc(c(-c7cc(S(=O)(=O)[O-])ccc7F)c7ccc([nH]7)c(-c7cc(S(=O)(=O)[O-])ccc7F)c7nc(c(-c8cc(S(=O)(=O)[O-])ccc8F)c8ccc5[nH]8)C=C7)C=C6)cc4)C3)cn12
REMARK SMILES IDX 21 1 20 2 19 3 18 4 16 5 17 6 15 8 11 9 12 10 89 11 13 12
REMARK SMILES IDX 14 13 9 14 10 15 8 16 1 17 2 18 3 19 91 20 4 21 6 22 90 23
REMARK SMILES IDX 5 24 7 25 22 26 23 27 24 28 25 30 26 31 27 32 88 33 28 34
REMARK SMILES IDX 87 35 29 36 30 37 31 38 81 39 32 40 86 41 80 42 82 43 33 44
REMARK SMILES IDX 85 45 79 46 78 47 34 49 66 50 46 51 65 52 47 53 50 54 64 55
REMARK SMILES IDX 83 56 48 57 49 58 63 60 84 61 51 62 35 63 36 64 44 65 37 66
REMARK SMILES IDX 43 67 45 68 42 69 38 70 39 71 40 72 41 73 67 74 68 75 76 76
REMARK SMILES IDX 69 77 75 78 77 79 74 80 70 81 71 82 72 83 73 84 52 85 53 86
REMARK SMILES IDX 61 87 54 88 60 89 62 90 59 91 55 92 56 93 57 94 58 95
REMARK H PARENT 18 7 23 29 82 48 50 59
REMARK Flexibility Score: inf
ROOT
ATOM      1  C   UNL A   1      33.656  28.755  26.361  1.00  0.00     0.023 C 
ENDROOT
BRANCH   1   2
ATOM      2  C   UNL A   1      32.947  29.635  25.326  1.00  0.00     0.023 C 
BRANCH   2   3
ATOM      3  C   UNL A   1      31.411  29.567  25.329  1.00  0.00     0.116 C 
BRANCH   3   4
ATOM      4  N   UNL A   1      30.860  29.996  24.060  1.00  0.00    -0.356 N 
ATOM      5  C   UNL A   1      30.626  29.322  22.906  1.00  0.00     0.224 C 
ATOM      6  O   UNL A   1      30.279  29.991  21.927  1.00  0.00    -0.275 OA
ATOM      7  H   UNL A   1      30.610  30.949  24.030  1.00  0.00     0.163 HD
BRANCH   5   8
ATOM      8  C   UNL A   1      30.687  27.802  22.782  1.00  0.00     0.098 C 
ATOM      9  N   UNL A   1      32.008  25.712  22.573  1.00  0.00    -0.336 N 
ATOM     10  C   UNL A   1      31.171  25.028  23.547  1.00  0.00     0.120 C 
ATOM     11  C   UNL A   1      32.075  27.167  22.683  1.00  0.00     0.133 C 
ATOM     12  C   UNL A   1      29.773  25.622  23.631  1.00  0.00     0.022 C 
ATOM     13  C   UNL A   1      29.826  27.133  23.858  1.00  0.00     0.017 C 
BRANCH   9  14
ATOM     14  C   UNL A   1      32.904  24.950  21.827  1.00  0.00     0.274 C 
ATOM     15  O   UNL A   1      33.050  25.133  20.618  1.00  0.00    -0.267 OA
BRANCH  14  16
ATOM     16  C   UNL A   1      33.603  23.839  22.496  1.00  0.00     0.147 A 
ATOM     17  C   UNL A   1      32.506  19.922  24.076  1.00  0.00     0.065 C 
ATOM     18  C   UNL A   1      33.740  20.738  24.303  1.00  0.00     0.021 A 
ATOM     19  C   UNL A   1      34.725  20.350  25.139  1.00  0.00     0.022 A 
ATOM     20  N   UNL A   1      33.886  21.970  23.638  1.00  0.00    -0.304 N 
ATOM     21  C   UNL A   1      35.888  21.204  25.327  1.00  0.00     0.006 A 
ATOM     22  C   UNL A   1      34.992  22.806  23.787  1.00  0.00     0.137 A 
ATOM     23  C   UNL A   1      33.025  22.618  22.792  1.00  0.00     0.127 A 
ATOM     24  C   UNL A   1      36.018  22.375  24.675  1.00  0.00     0.048 A 
ATOM     25  N   UNL A   1      34.859  23.913  23.084  1.00  0.00    -0.223 NA
ENDBRANCH  14  16
ENDBRANCH   9  14
ENDBRANCH   5   8
ENDBRANCH   3   4
ENDBRANCH   2   3
ENDBRANCH   1   2
BRANCH   1  26
ATOM     26  C   UNL A   1      34.197  29.530  27.549  1.00  0.00     0.116 C 
BRANCH  26  27
ATOM     27  N   UNL A   1      34.272  30.969  27.288  1.00  0.00    -0.352 N 
ATOM     28  C   UNL A   1      35.263  31.848  27.693  1.00  0.00     0.251 C 
ATOM     29  H   UNL A   1      33.534  31.357  26.764  1.00  0.00     0.163 HD
ATOM     30  O   UNL A   1      35.073  33.048  27.736  1.00  0.00    -0.269 OA
BRANCH  28  31
ATOM     31  C   UNL A   1      36.570  31.267  28.037  1.00  0.00     0.039 A 
ATOM     32  C   UNL A   1      37.375  31.795  29.049  1.00  0.00     0.014 A 
ATOM     33  C   UNL A   1      36.937  30.121  27.336  1.00  0.00     0.014 A 
ATOM     34  C   UNL A   1      38.547  31.120  29.380  1.00  0.00     0.010 A 
ATOM     35  C   UNL A   1      37.978  29.364  27.789  1.00  0.00     0.010 A 
ATOM     36  C   UNL A   1      38.834  29.907  28.738  1.00  0.00    -0.014 A 
BRANCH  36  37
ATOM     37  C   UNL A   1      40.046  29.160  29.019  1.00  0.00     0.031 A 
ATOM     38  C   UNL A   1      40.300  28.856  30.450  1.00  0.00     0.074 A 
ATOM     39  C   UNL A   1      40.736  28.575  28.019  1.00  0.00     0.049 A 
ATOM     40  N   UNL A   1      41.214  29.353  31.219  1.00  0.00    -0.248 NA
ATOM     41  C   UNL A   1      39.335  27.996  31.153  1.00  0.00     0.031 C 
ATOM     42  C   UNL A   1      40.399  28.486  26.588  1.00  0.00     0.029 A 
ATOM     43  N   UNL A   1      41.860  27.828  28.100  1.00  0.00    -0.354 N 
ATOM     44  C   UNL A   1      41.075  28.706  32.445  1.00  0.00     0.074 A 
ATOM     45  C   UNL A   1      39.795  28.042  32.405  1.00  0.00     0.031 C 
ATOM     46  C   UNL A   1      41.162  27.537  26.002  1.00  0.00     0.029 A 
ATOM     47  C   UNL A   1      42.160  27.102  26.959  1.00  0.00     0.049 A 
ATOM     48  H   UNL A   1      42.422  27.802  28.907  1.00  0.00     0.167 HD
ATOM     49  C   UNL A   1      42.118  28.571  33.315  1.00  0.00     0.034 A 
ATOM     50  C   UNL A   1      43.134  26.169  26.839  1.00  0.00     0.034 A 
ATOM     51  C   UNL A   1      43.240  29.379  32.920  1.00  0.00     0.049 A 
ATOM     52  C   UNL A   1      44.094  26.401  27.950  1.00  0.00     0.074 A 
ATOM     53  C   UNL A   1      43.462  30.733  32.779  1.00  0.00     0.029 A 
ATOM     54  N   UNL A   1      44.236  28.755  32.203  1.00  0.00    -0.354 N 
ATOM     55  N   UNL A   1      44.834  27.471  28.051  1.00  0.00    -0.248 NA
ATOM     56  C   UNL A   1      43.869  25.675  29.191  1.00  0.00     0.031 C 
ATOM     57  C   UNL A   1      44.264  30.851  31.607  1.00  0.00     0.029 A 
ATOM     58  C   UNL A   1      44.541  29.565  31.137  1.00  0.00     0.049 A 
ATOM     59  H   UNL A   1      44.653  27.890  32.416  1.00  0.00     0.167 HD
ATOM     60  C   UNL A   1      44.811  27.792  29.401  1.00  0.00     0.074 A 
ATOM     61  C   UNL A   1      44.269  26.603  30.064  1.00  0.00     0.031 C 
ATOM     62  C   UNL A   1      44.949  29.081  29.833  1.00  0.00     0.034 A 
BRANCH  49  63
ATOM     63  C   UNL A   1      42.249  27.454  34.316  1.00  0.00     0.023 A 
ATOM     64  C   UNL A   1      43.006  26.296  34.057  1.00  0.00     0.031 A 
ATOM     65  C   UNL A   1      41.806  27.618  35.643  1.00  0.00     0.131 A 
ATOM     66  C   UNL A   1      43.269  25.351  35.056  1.00  0.00     0.055 A 
ATOM     67  C   UNL A   1      42.125  26.708  36.660  1.00  0.00     0.041 A 
ATOM     68  F   UNL A   1      41.092  28.698  36.002  1.00  0.00    -0.206 F 
ATOM     69  C   UNL A   1      42.859  25.563  36.368  1.00  0.00     0.022 A 
BRANCH  66  70
ATOM     70  S   UNL A   1      44.178  23.833  34.660  1.00  0.00     0.124 S 
ATOM     71  O   UNL A   1      44.484  23.313  35.988  1.00  0.00    -0.237 OA
ATOM     72  O   UNL A   1      43.183  23.084  33.898  1.00  0.00    -0.237 OA
ATOM     73  O   UNL A   1      45.318  24.315  33.885  1.00  0.00    -0.744 OA
ENDBRANCH  66  70
ENDBRANCH  49  63
BRANCH  50  74
ATOM     74  C   UNL A   1      42.971  24.844  26.196  1.00  0.00     0.023 A 
ATOM     75  C   UNL A   1      41.894  24.012  26.561  1.00  0.00     0.031 A 
ATOM     76  C   UNL A   1      44.018  24.261  25.465  1.00  0.00     0.131 A 
ATOM     77  C   UNL A   1      41.910  22.646  26.252  1.00  0.00     0.055 A 
ATOM     78  C   UNL A   1      44.027  22.897  25.146  1.00  0.00     0.041 A 
ATOM     79  F   UNL A   1      45.085  24.991  25.107  1.00  0.00    -0.206 F 
ATOM     80  C   UNL A   1      42.976  22.079  25.555  1.00  0.00     0.022 A 
BRANCH  77  81
ATOM     81  S   UNL A   1      40.563  21.571  26.818  1.00  0.00     0.124 S 
ATOM     82  O   UNL A   1      40.888  20.299  26.176  1.00  0.00    -0.237 OA
ATOM     83  O   UNL A   1      40.739  21.609  28.265  1.00  0.00    -0.237 OA
ATOM     84  O   UNL A   1      39.365  22.229  26.303  1.00  0.00    -0.744 OA
ENDBRANCH  77  81
ENDBRANCH  50  74
BRANCH  62  85
ATOM     85  C   UNL A   1      45.325  30.148  28.828  1.00  0.00     0.023 A 
ATOM     86  C   UNL A   1      46.688  30.453  28.692  1.00  0.00     0.031 A 
ATOM     87  C   UNL A   1      44.403  31.015  28.211  1.00  0.00     0.131 A 
ATOM     88  C   UNL A   1      47.089  31.605  28.009  1.00  0.00     0.055 A 
ATOM     89  C   UNL A   1      44.808  32.137  27.479  1.00  0.00     0.041 A 
ATOM     90  F   UNL A   1      43.086  30.861  28.371  1.00  0.00    -0.206 F 
ATOM     91  C   UNL A   1      46.160  32.445  27.389  1.00  0.00     0.022 A 
BRANCH  88  92
ATOM     92  S   UNL A   1      48.826  32.111  28.018  1.00  0.00     0.124 S 
ATOM     93  O   UNL A   1      49.190  31.996  26.609  1.00  0.00    -0.237 OA
ATOM     94  O   UNL A   1      48.745  33.475  28.535  1.00  0.00    -0.237 OA
ATOM     95  O   UNL A   1      49.470  31.148  28.907  1.00  0.00    -0.744 OA
ENDBRANCH  88  92
ENDBRANCH  62  85
ENDBRANCH  36  37
ENDBRANCH  28  31
ENDBRANCH  26  27
ENDBRANCH   1  26
TORSDOF 16
ENDMDL
