MODEL 1
REMARK VINA RESULT:     -12.8      0.000      0.000
REMARK SMILES O=C(NCCCCNC(=O)[C@@H]1C=C[C@H](NC(=O)[C@@H]2Cc3ccccc3O2)C1)c1ccc(-c2c3nc(c(-c4cc(S(=O)(=O)[O-])ccc4F)c4ccc([nH]4)c(-c4cc(S(=O)(=O)[O-])ccc4F)c4nc(c(-c5cc(S(=O)(=O)[O-])ccc5F)c5ccc2[nH]5)C=C4)C=C3)cc1
REMARK SMILES IDX 5 1 4 2 3 3 1 4 2 5 28 7 29 8 90 9 30 10 89 11 31 12 32 13
REMARK SMILES IDX 33 14 83 15 34 16 88 17 82 18 84 19 35 20 87 21 81 22 80 23
REMARK SMILES IDX 36 25 68 26 48 27 67 28 49 29 52 30 66 31 85 32 50 33 51 34
REMARK SMILES IDX 65 36 86 37 53 38 37 39 38 40 46 41 39 42 45 43 47 44 44 45
REMARK SMILES IDX 40 46 41 47 42 48 43 49 69 50 70 51 78 52 71 53 77 54 79 55
REMARK SMILES IDX 76 56 72 57 73 58 74 59 75 60 54 61 55 62 63 63 56 64 62 65
REMARK SMILES IDX 64 66 61 67 57 68 58 69 59 70 60 71 6 72 7 73 8 74 9 75
REMARK SMILES IDX 10 77 11 78 12 79 27 80 13 81 14 82 15 83 16 84 17 86 18 87
REMARK SMILES IDX 19 88 26 89 20 90 25 91 21 92 24 93 22 94 23 95
REMARK H PARENT 3 6 84 24 52 35 8 76 15 85
REMARK Flexibility Score: inf
ROOT
ATOM      1  C   UNL A   1      31.501  29.269  25.188  1.00  0.00     0.023 C 
ENDROOT
BRANCH   1   2
ATOM      2  C   UNL A   1      32.678  29.950  25.876  1.00  0.00     0.116 C 
BRANCH   2   3
ATOM      3  N   UNL A   1      32.353  31.281  26.376  1.00  0.00    -0.352 N 
ATOM      4  O   UNL A   1      32.562  33.118  27.671  1.00  0.00    -0.269 OA
ATOM      5  C   UNL A   1      33.048  32.065  27.266  1.00  0.00     0.251 C 
ATOM      6  H   UNL A   1      31.521  31.673  26.028  1.00  0.00     0.163 HD
BRANCH   5   7
ATOM      7  C   UNL A   1      34.365  31.609  27.754  1.00  0.00     0.039 A 
ATOM      8  C   UNL A   1      34.564  30.270  28.092  1.00  0.00     0.014 A 
ATOM      9  C   UNL A   1      35.388  32.544  27.931  1.00  0.00     0.014 A 
ATOM     10  C   UNL A   1      35.719  29.900  28.768  1.00  0.00     0.010 A 
ATOM     11  C   UNL A   1      36.588  32.147  28.528  1.00  0.00     0.010 A 
ATOM     12  C   UNL A   1      36.743  30.834  28.998  1.00  0.00    -0.014 A 
BRANCH  12  13
ATOM     13  C   UNL A   1      37.963  30.403  29.731  1.00  0.00     0.031 A 
ATOM     14  C   UNL A   1      38.194  30.818  31.159  1.00  0.00     0.074 A 
ATOM     15  C   UNL A   1      38.838  29.587  29.111  1.00  0.00     0.049 A 
ATOM     16  N   UNL A   1      39.181  30.506  31.961  1.00  0.00    -0.248 NA
ATOM     17  C   UNL A   1      37.195  31.710  31.763  1.00  0.00     0.031 C 
ATOM     18  C   UNL A   1      38.716  29.122  27.727  1.00  0.00     0.029 A 
ATOM     19  N   UNL A   1      39.980  28.982  29.564  1.00  0.00    -0.354 N 
ATOM     20  C   UNL A   1      38.940  31.182  33.152  1.00  0.00     0.074 A 
ATOM     21  C   UNL A   1      37.726  31.948  32.955  1.00  0.00     0.031 C 
ATOM     22  C   UNL A   1      39.707  28.259  27.464  1.00  0.00     0.029 A 
ATOM     23  C   UNL A   1      40.572  28.160  28.634  1.00  0.00     0.049 A 
ATOM     24  H   UNL A   1      40.343  29.121  30.469  1.00  0.00     0.167 HD
ATOM     25  C   UNL A   1      39.660  31.161  34.303  1.00  0.00     0.034 A 
ATOM     26  C   UNL A   1      41.691  27.416  28.709  1.00  0.00     0.034 A 
ATOM     27  C   UNL A   1      40.858  30.375  34.486  1.00  0.00     0.049 A 
ATOM     28  C   UNL A   1      42.474  27.415  29.993  1.00  0.00     0.074 A 
ATOM     29  C   UNL A   1      41.646  30.252  35.620  1.00  0.00     0.029 A 
ATOM     30  N   UNL A   1      41.447  29.580  33.510  1.00  0.00    -0.354 N 
ATOM     31  N   UNL A   1      42.225  28.053  31.112  1.00  0.00    -0.248 NA
ATOM     32  C   UNL A   1      43.687  26.590  30.022  1.00  0.00     0.031 C 
ATOM     33  C   UNL A   1      42.740  29.435  35.310  1.00  0.00     0.029 A 
ATOM     34  C   UNL A   1      42.599  28.986  34.006  1.00  0.00     0.049 A 
ATOM     35  H   UNL A   1      41.098  29.455  32.598  1.00  0.00     0.167 HD
ATOM     36  C   UNL A   1      43.239  27.683  31.990  1.00  0.00     0.074 A 
ATOM     37  C   UNL A   1      44.090  26.754  31.273  1.00  0.00     0.031 C 
ATOM     38  C   UNL A   1      43.447  28.074  33.274  1.00  0.00     0.034 A 
BRANCH  25  39
ATOM     39  C   UNL A   1      39.196  32.054  35.431  1.00  0.00     0.023 A 
ATOM     40  C   UNL A   1      39.604  33.395  35.541  1.00  0.00     0.031 A 
ATOM     41  C   UNL A   1      38.348  31.543  36.433  1.00  0.00     0.131 A 
ATOM     42  C   UNL A   1      39.229  34.154  36.661  1.00  0.00     0.055 A 
ATOM     43  C   UNL A   1      37.913  32.327  37.503  1.00  0.00     0.041 A 
ATOM     44  F   UNL A   1      37.939  30.266  36.395  1.00  0.00    -0.206 F 
ATOM     45  C   UNL A   1      38.367  33.637  37.631  1.00  0.00     0.022 A 
BRANCH  42  46
ATOM     46  S   UNL A   1      40.002  35.776  36.910  1.00  0.00     0.124 S 
ATOM     47  O   UNL A   1      39.367  36.220  38.150  1.00  0.00    -0.237 OA
ATOM     48  O   UNL A   1      41.418  35.440  37.003  1.00  0.00    -0.237 OA
ATOM     49  O   UNL A   1      39.614  36.528  35.718  1.00  0.00    -0.744 OA
ENDBRANCH  42  46
ENDBRANCH  25  39
BRANCH  26  50
ATOM     50  C   UNL A   1      42.142  26.622  27.532  1.00  0.00     0.023 A 
ATOM     51  C   UNL A   1      41.839  25.257  27.419  1.00  0.00     0.031 A 
ATOM     52  C   UNL A   1      42.903  27.218  26.509  1.00  0.00     0.131 A 
ATOM     53  C   UNL A   1      42.324  24.522  26.327  1.00  0.00     0.055 A 
ATOM     54  C   UNL A   1      43.340  26.494  25.399  1.00  0.00     0.041 A 
ATOM     55  F   UNL A   1      43.213  28.522  26.566  1.00  0.00    -0.206 F 
ATOM     56  C   UNL A   1      43.061  25.134  25.311  1.00  0.00     0.022 A 
BRANCH  53  57
ATOM     57  S   UNL A   1      42.040  22.732  26.290  1.00  0.00     0.124 S 
ATOM     58  O   UNL A   1      42.755  22.293  27.484  1.00  0.00    -0.237 OA
ATOM     59  O   UNL A   1      40.584  22.656  26.349  1.00  0.00    -0.237 OA
ATOM     60  O   UNL A   1      42.632  22.319  25.021  1.00  0.00    -0.744 OA
ENDBRANCH  53  57
ENDBRANCH  26  50
BRANCH  38  61
ATOM     61  C   UNL A   1      44.620  27.451  33.987  1.00  0.00     0.023 A 
ATOM     62  C   UNL A   1      44.496  26.249  34.707  1.00  0.00     0.031 A 
ATOM     63  C   UNL A   1      45.871  28.091  33.979  1.00  0.00     0.131 A 
ATOM     64  C   UNL A   1      45.585  25.762  35.445  1.00  0.00     0.055 A 
ATOM     65  C   UNL A   1      46.968  27.570  34.666  1.00  0.00     0.041 A 
ATOM     66  F   UNL A   1      46.045  29.243  33.310  1.00  0.00    -0.206 F 
ATOM     67  C   UNL A   1      46.825  26.407  35.417  1.00  0.00     0.022 A 
BRANCH  64  68
ATOM     68  S   UNL A   1      45.331  24.330  36.530  1.00  0.00     0.124 S 
ATOM     69  O   UNL A   1      44.594  23.418  35.662  1.00  0.00    -0.237 OA
ATOM     70  O   UNL A   1      46.698  23.939  36.855  1.00  0.00    -0.237 OA
ATOM     71  O   UNL A   1      44.562  24.878  37.647  1.00  0.00    -0.744 OA
ENDBRANCH  64  68
ENDBRANCH  38  61
ENDBRANCH  12  13
ENDBRANCH   5   7
ENDBRANCH   2   3
ENDBRANCH   1   2
BRANCH   1  72
ATOM     72  C   UNL A   1      31.650  29.089  23.678  1.00  0.00     0.023 C 
BRANCH  72  73
ATOM     73  C   UNL A   1      33.091  28.974  23.196  1.00  0.00     0.116 C 
BRANCH  73  74
ATOM     74  N   UNL A   1      33.237  27.894  22.241  1.00  0.00    -0.356 N 
ATOM     75  C   UNL A   1      33.327  26.552  22.486  1.00  0.00     0.227 C 
ATOM     76  H   UNL A   1      33.276  28.161  21.294  1.00  0.00     0.163 HD
ATOM     77  O   UNL A   1      33.740  25.832  21.580  1.00  0.00    -0.274 OA
BRANCH  75  78
ATOM     78  C   UNL A   1      32.971  26.050  23.889  1.00  0.00     0.103 C 
ATOM     79  C   UNL A   1      33.911  26.489  24.967  1.00  0.00    -0.016 C 
ATOM     80  C   UNL A   1      33.033  24.516  23.990  1.00  0.00     0.047 C 
ATOM     81  C   UNL A   1      34.552  25.466  25.546  1.00  0.00    -0.006 C 
ATOM     82  C   UNL A   1      34.156  24.168  24.971  1.00  0.00     0.106 C 
BRANCH  82  83
ATOM     83  N   UNL A   1      35.206  23.358  24.373  1.00  0.00    -0.347 N 
ATOM     84  C   UNL A   1      35.688  22.095  24.460  1.00  0.00     0.261 C 
ATOM     85  H   UNL A   1      35.714  23.882  23.712  1.00  0.00     0.164 HD
ATOM     86  O   UNL A   1      36.810  21.936  23.954  1.00  0.00    -0.271 OA
BRANCH  84  87
ATOM     87  C   UNL A   1      34.922  20.870  24.972  1.00  0.00     0.266 C 
ATOM     88  C   UNL A   1      35.796  19.606  24.961  1.00  0.00     0.095 C 
ATOM     89  O   UNL A   1      33.652  20.612  24.372  1.00  0.00    -0.480 OA
ATOM     90  C   UNL A   1      34.801  18.612  24.507  1.00  0.00    -0.002 A 
ATOM     91  C   UNL A   1      33.602  19.249  24.232  1.00  0.00     0.123 A 
ATOM     92  C   UNL A   1      34.953  17.257  24.268  1.00  0.00     0.008 A 
ATOM     93  C   UNL A   1      32.505  18.565  23.750  1.00  0.00     0.047 A 
ATOM     94  C   UNL A   1      33.861  16.549  23.756  1.00  0.00     0.001 A 
ATOM     95  C   UNL A   1      32.640  17.198  23.506  1.00  0.00     0.004 A 
ENDBRANCH  84  87
ENDBRANCH  82  83
ENDBRANCH  75  78
ENDBRANCH  73  74
ENDBRANCH  72  73
ENDBRANCH   1  72
TORSDOF 16
ENDMDL
MODEL 2
REMARK VINA RESULT:     -12.7      1.711      2.127
REMARK SMILES O=C(NCCCCNC(=O)[C@@H]1C=C[C@H](NC(=O)[C@@H]2Cc3ccccc3O2)C1)c1ccc(-c2c3nc(c(-c4cc(S(=O)(=O)[O-])ccc4F)c4ccc([nH]4)c(-c4cc(S(=O)(=O)[O-])ccc4F)c4nc(c(-c5cc(S(=O)(=O)[O-])ccc5F)c5ccc2[nH]5)C=C4)C=C3)cc1
REMARK SMILES IDX 5 1 4 2 3 3 1 4 2 5 28 7 29 8 90 9 30 10 89 11 31 12 32 13
REMARK SMILES IDX 33 14 83 15 34 16 88 17 82 18 84 19 35 20 87 21 81 22 80 23
REMARK SMILES IDX 36 25 68 26 48 27 67 28 49 29 52 30 66 31 85 32 50 33 51 34
REMARK SMILES IDX 65 36 86 37 53 38 37 39 38 40 46 41 39 42 45 43 47 44 44 45
REMARK SMILES IDX 40 46 41 47 42 48 43 49 69 50 70 51 78 52 71 53 77 54 79 55
REMARK SMILES IDX 76 56 72 57 73 58 74 59 75 60 54 61 55 62 63 63 56 64 62 65
REMARK SMILES IDX 64 66 61 67 57 68 58 69 59 70 60 71 6 72 7 73 8 74 9 75
REMARK SMILES IDX 10 77 11 78 12 79 27 80 13 81 14 82 15 83 16 84 17 86 18 87
REMARK SMILES IDX 19 88 26 89 20 90 25 91 21 92 24 93 22 94 23 95
REMARK H PARENT 3 6 84 24 52 35 8 76 15 85
REMARK Flexibility Score: inf
ROOT
ATOM      1  C   UNL A   1      32.157  28.533  27.495  1.00  0.00     0.023 C 
ENDROOT
BRANCH   1   2
ATOM      2  C   UNL A   1      33.008  29.417  26.591  1.00  0.00     0.116 C 
BRANCH   2   3
ATOM      3  N   UNL A   1      32.875  30.837  26.893  1.00  0.00    -0.352 N 
ATOM      4  O   UNL A   1      33.415  32.819  27.828  1.00  0.00    -0.269 OA
ATOM      5  C   UNL A   1      33.746  31.667  27.556  1.00  0.00     0.251 C 
ATOM      6  H   UNL A   1      32.045  31.261  26.577  1.00  0.00     0.163 HD
BRANCH   5   7
ATOM      7  C   UNL A   1      35.066  31.148  27.966  1.00  0.00     0.039 A 
ATOM      8  C   UNL A   1      35.187  29.848  28.458  1.00  0.00     0.014 A 
ATOM      9  C   UNL A   1      36.178  31.992  27.914  1.00  0.00     0.014 A 
ATOM     10  C   UNL A   1      36.376  29.453  29.059  1.00  0.00     0.010 A 
ATOM     11  C   UNL A   1      37.400  31.557  28.435  1.00  0.00     0.010 A 
ATOM     12  C   UNL A   1      37.494  30.302  29.058  1.00  0.00    -0.014 A 
BRANCH  12  13
ATOM     13  C   UNL A   1      38.748  29.848  29.717  1.00  0.00     0.031 A 
ATOM     14  C   UNL A   1      39.107  30.315  31.102  1.00  0.00     0.074 A 
ATOM     15  C   UNL A   1      39.535  28.965  29.073  1.00  0.00     0.049 A 
ATOM     16  N   UNL A   1      40.139  29.993  31.841  1.00  0.00    -0.248 NA
ATOM     17  C   UNL A   1      38.198  31.280  31.736  1.00  0.00     0.031 C 
ATOM     18  C   UNL A   1      39.285  28.445  27.726  1.00  0.00     0.029 A 
ATOM     19  N   UNL A   1      40.681  28.327  29.467  1.00  0.00    -0.354 N 
ATOM     20  C   UNL A   1      40.021  30.733  33.012  1.00  0.00     0.074 A 
ATOM     21  C   UNL A   1      38.830  31.545  32.871  1.00  0.00     0.031 C 
ATOM     22  C   UNL A   1      40.215  27.524  27.430  1.00  0.00     0.029 A 
ATOM     23  C   UNL A   1      41.163  27.437  28.535  1.00  0.00     0.049 A 
ATOM     24  H   UNL A   1      41.119  28.489  30.333  1.00  0.00     0.167 HD
ATOM     25  C   UNL A   1      40.827  30.729  34.105  1.00  0.00     0.034 A 
ATOM     26  C   UNL A   1      42.250  26.645  28.561  1.00  0.00     0.034 A 
ATOM     27  C   UNL A   1      42.001  29.897  34.235  1.00  0.00     0.049 A 
ATOM     28  C   UNL A   1      43.131  26.665  29.780  1.00  0.00     0.074 A 
ATOM     29  C   UNL A   1      42.868  29.787  35.310  1.00  0.00     0.029 A 
ATOM     30  N   UNL A   1      42.476  29.031  33.256  1.00  0.00    -0.354 N 
ATOM     31  N   UNL A   1      42.998  27.363  30.883  1.00  0.00    -0.248 NA
ATOM     32  C   UNL A   1      44.305  25.785  29.757  1.00  0.00     0.031 C 
ATOM     33  C   UNL A   1      43.898  28.906  34.958  1.00  0.00     0.029 A 
ATOM     34  C   UNL A   1      43.637  28.407  33.692  1.00  0.00     0.049 A 
ATOM     35  H   UNL A   1      42.052  28.883  32.380  1.00  0.00     0.167 HD
ATOM     36  C   UNL A   1      44.060  26.986  31.698  1.00  0.00     0.074 A 
ATOM     37  C   UNL A   1      44.811  25.987  30.965  1.00  0.00     0.031 C 
ATOM     38  C   UNL A   1      44.384  27.423  32.942  1.00  0.00     0.034 A 
BRANCH  25  39
ATOM     39  C   UNL A   1      40.492  31.692  35.221  1.00  0.00     0.023 A 
ATOM     40  C   UNL A   1      39.501  31.413  36.179  1.00  0.00     0.031 A 
ATOM     41  C   UNL A   1      41.159  32.929  35.312  1.00  0.00     0.131 A 
ATOM     42  C   UNL A   1      39.154  32.381  37.134  1.00  0.00     0.055 A 
ATOM     43  C   UNL A   1      40.865  33.855  36.314  1.00  0.00     0.041 A 
ATOM     44  F   UNL A   1      42.101  33.263  34.416  1.00  0.00    -0.206 F 
ATOM     45  C   UNL A   1      39.845  33.591  37.224  1.00  0.00     0.022 A 
BRANCH  42  46
ATOM     46  S   UNL A   1      37.687  32.098  38.164  1.00  0.00     0.124 S 
ATOM     47  O   UNL A   1      37.334  30.725  37.808  1.00  0.00    -0.237 OA
ATOM     48  O   UNL A   1      38.207  32.294  39.513  1.00  0.00    -0.237 OA
ATOM     49  O   UNL A   1      36.743  33.114  37.704  1.00  0.00    -0.744 OA
ENDBRANCH  42  46
ENDBRANCH  25  39
BRANCH  26  50
ATOM     50  C   UNL A   1      42.574  25.779  27.393  1.00  0.00     0.023 A 
ATOM     51  C   UNL A   1      42.137  24.447  27.336  1.00  0.00     0.031 A 
ATOM     52  C   UNL A   1      43.344  26.270  26.322  1.00  0.00     0.131 A 
ATOM     53  C   UNL A   1      42.503  23.638  26.249  1.00  0.00     0.055 A 
ATOM     54  C   UNL A   1      43.662  25.477  25.220  1.00  0.00     0.041 A 
ATOM     55  F   UNL A   1      43.780  27.539  26.325  1.00  0.00    -0.206 F 
ATOM     56  C   UNL A   1      43.251  24.148  25.185  1.00  0.00     0.022 A 
BRANCH  53  57
ATOM     57  S   UNL A   1      42.048  21.884  26.280  1.00  0.00     0.124 S 
ATOM     58  O   UNL A   1      42.908  21.335  25.238  1.00  0.00    -0.237 OA
ATOM     59  O   UNL A   1      42.380  21.510  27.651  1.00  0.00    -0.237 OA
ATOM     60  O   UNL A   1      40.621  21.897  25.969  1.00  0.00    -0.744 OA
ENDBRANCH  53  57
ENDBRANCH  26  50
BRANCH  38  61
ATOM     61  C   UNL A   1      45.581  26.778  33.594  1.00  0.00     0.023 A 
ATOM     62  C   UNL A   1      45.467  25.595  34.345  1.00  0.00     0.031 A 
ATOM     63  C   UNL A   1      46.848  27.380  33.494  1.00  0.00     0.131 A 
ATOM     64  C   UNL A   1      46.586  25.089  35.024  1.00  0.00     0.055 A 
ATOM     65  C   UNL A   1      47.969  26.838  34.122  1.00  0.00     0.041 A 
ATOM     66  F   UNL A   1      47.013  28.512  32.790  1.00  0.00    -0.206 F 
ATOM     67  C   UNL A   1      47.840  25.695  34.905  1.00  0.00     0.022 A 
BRANCH  64  68
ATOM     68  S   UNL A   1      46.358  23.687  36.154  1.00  0.00     0.124 S 
ATOM     69  O   UNL A   1      44.904  23.608  36.250  1.00  0.00    -0.237 OA
ATOM     70  O   UNL A   1      47.011  22.599  35.435  1.00  0.00    -0.237 OA
ATOM     71  O   UNL A   1      47.037  24.117  37.375  1.00  0.00    -0.744 OA
ENDBRANCH  64  68
ENDBRANCH  38  61
ENDBRANCH  12  13
ENDBRANCH   5   7
ENDBRANCH   2   3
ENDBRANCH   1   2
BRANCH   1  72
ATOM     72  C   UNL A   1      31.429  27.392  26.786  1.00  0.00     0.023 C 
BRANCH  72  73
ATOM     73  C   UNL A   1      31.698  27.308  25.288  1.00  0.00     0.116 C 
BRANCH  73  74
ATOM     74  N   UNL A   1      31.380  25.992  24.773  1.00  0.00    -0.356 N 
ATOM     75  C   UNL A   1      32.199  25.118  24.114  1.00  0.00     0.227 C 
ATOM     76  H   UNL A   1      30.455  25.686  24.918  1.00  0.00     0.163 HD
ATOM     77  O   UNL A   1      31.674  24.190  23.504  1.00  0.00    -0.274 OA
BRANCH  75  78
ATOM     78  C   UNL A   1      33.706  25.395  24.125  1.00  0.00     0.103 C 
ATOM     79  C   UNL A   1      34.529  24.414  23.351  1.00  0.00    -0.016 C 
ATOM     80  C   UNL A   1      34.303  25.294  25.540  1.00  0.00     0.047 C 
ATOM     81  C   UNL A   1      35.378  23.724  24.122  1.00  0.00    -0.006 C 
ATOM     82  C   UNL A   1      35.284  24.118  25.539  1.00  0.00     0.106 C 
BRANCH  82  83
ATOM     83  N   UNL A   1      34.931  23.081  26.496  1.00  0.00    -0.347 N 
ATOM     84  C   UNL A   1      34.280  21.893  26.511  1.00  0.00     0.261 C 
ATOM     85  H   UNL A   1      35.263  23.309  27.394  1.00  0.00     0.164 HD
ATOM     86  O   UNL A   1      33.967  21.491  27.643  1.00  0.00    -0.271 OA
BRANCH  84  87
ATOM     87  C   UNL A   1      34.050  20.974  25.306  1.00  0.00     0.266 C 
ATOM     88  C   UNL A   1      32.684  20.273  25.377  1.00  0.00     0.095 C 
ATOM     89  O   UNL A   1      35.086  20.037  25.008  1.00  0.00    -0.480 OA
ATOM     90  C   UNL A   1      33.060  18.933  24.876  1.00  0.00    -0.002 A 
ATOM     91  C   UNL A   1      34.426  18.889  24.651  1.00  0.00     0.123 A 
ATOM     92  C   UNL A   1      32.278  17.803  24.708  1.00  0.00     0.008 A 
ATOM     93  C   UNL A   1      35.058  17.742  24.218  1.00  0.00     0.047 A 
ATOM     94  C   UNL A   1      32.903  16.623  24.292  1.00  0.00     0.001 A 
ATOM     95  C   UNL A   1      34.285  16.594  24.040  1.00  0.00     0.004 A 
ENDBRANCH  84  87
ENDBRANCH  82  83
ENDBRANCH  75  78
ENDBRANCH  73  74
ENDBRANCH  72  73
ENDBRANCH   1  72
TORSDOF 16
ENDMDL
MODEL 3
REMARK VINA RESULT:     -12.5      4.961     10.762
REMARK SMILES O=C(NCCCCNC(=O)[C@@H]1C=C[C@H](NC(=O)[C@@H]2Cc3ccccc3O2)C1)c1ccc(-c2c3nc(c(-c4cc(S(=O)(=O)[O-])ccc4F)c4ccc([nH]4)c(-c4cc(S(=O)(=O)[O-])ccc4F)c4nc(c(-c5cc(S(=O)(=O)[O-])ccc5F)c5ccc2[nH]5)C=C4)C=C3)cc1
REMARK SMILES IDX 5 1 4 2 3 3 1 4 2 5 28 7 29 8 90 9 30 10 89 11 31 12 32 13
REMARK SMILES IDX 33 14 83 15 34 16 88 17 82 18 84 19 35 20 87 21 81 22 80 23
REMARK SMILES IDX 36 25 68 26 48 27 67 28 49 29 52 30 66 31 85 32 50 33 51 34
REMARK SMILES IDX 65 36 86 37 53 38 37 39 38 40 46 41 39 42 45 43 47 44 44 45
REMARK SMILES IDX 40 46 41 47 42 48 43 49 69 50 70 51 78 52 71 53 77 54 79 55
REMARK SMILES IDX 76 56 72 57 73 58 74 59 75 60 54 61 55 62 63 63 56 64 62 65
REMARK SMILES IDX 64 66 61 67 57 68 58 69 59 70 60 71 6 72 7 73 8 74 9 75
REMARK SMILES IDX 10 77 11 78 12 79 27 80 13 81 14 82 15 83 16 84 17 86 18 87
REMARK SMILES IDX 19 88 26 89 20 90 25 91 21 92 24 93 22 94 23 95
REMARK H PARENT 3 6 84 24 52 35 8 76 15 85
REMARK Flexibility Score: inf
ROOT
ATOM      1  C   UNL A   1      35.892  21.610  24.977  1.00  0.00     0.023 C 
ENDROOT
BRANCH   1   2
ATOM      2  C   UNL A   1      37.382  21.903  24.854  1.00  0.00     0.116 C 
BRANCH   2   3
ATOM      3  N   UNL A   1      38.219  20.813  25.342  1.00  0.00    -0.352 N 
ATOM      4  O   UNL A   1      40.006  19.854  26.332  1.00  0.00    -0.269 OA
ATOM      5  C   UNL A   1      39.355  20.873  26.114  1.00  0.00     0.251 C 
ATOM      6  H   UNL A   1      37.931  19.909  25.084  1.00  0.00     0.163 HD
BRANCH   5   7
ATOM      7  C   UNL A   1      39.800  22.177  26.645  1.00  0.00     0.039 A 
ATOM      8  C   UNL A   1      39.224  23.359  26.176  1.00  0.00     0.014 A 
ATOM      9  C   UNL A   1      40.842  22.217  27.574  1.00  0.00     0.014 A 
ATOM     10  C   UNL A   1      39.806  24.578  26.501  1.00  0.00     0.010 A 
ATOM     11  C   UNL A   1      41.365  23.450  27.972  1.00  0.00     0.010 A 
ATOM     12  C   UNL A   1      40.884  24.638  27.398  1.00  0.00    -0.014 A 
BRANCH  12  13
ATOM     13  C   UNL A   1      41.486  25.961  27.717  1.00  0.00     0.031 A 
ATOM     14  C   UNL A   1      42.830  26.352  27.166  1.00  0.00     0.074 A 
ATOM     15  C   UNL A   1      40.782  26.829  28.468  1.00  0.00     0.049 A 
ATOM     16  N   UNL A   1      43.488  27.475  27.311  1.00  0.00    -0.248 NA
ATOM     17  C   UNL A   1      43.536  25.348  26.357  1.00  0.00     0.031 C 
ATOM     18  C   UNL A   1      39.468  26.555  29.058  1.00  0.00     0.029 A 
ATOM     19  N   UNL A   1      41.050  28.119  28.842  1.00  0.00    -0.354 N 
ATOM     20  C   UNL A   1      44.694  27.306  26.638  1.00  0.00     0.074 A 
ATOM     21  C   UNL A   1      44.688  25.957  26.111  1.00  0.00     0.031 C 
ATOM     22  C   UNL A   1      39.019  27.664  29.666  1.00  0.00     0.029 A 
ATOM     23  C   UNL A   1      40.038  28.702  29.569  1.00  0.00     0.049 A 
ATOM     24  H   UNL A   1      41.886  28.586  28.612  1.00  0.00     0.167 HD
ATOM     25  C   UNL A   1      45.706  28.195  26.471  1.00  0.00     0.034 A 
ATOM     26  C   UNL A   1      39.943  29.932  30.107  1.00  0.00     0.034 A 
ATOM     27  C   UNL A   1      45.684  29.544  26.989  1.00  0.00     0.049 A 
ATOM     28  C   UNL A   1      41.081  30.896  29.914  1.00  0.00     0.074 A 
ATOM     29  C   UNL A   1      46.638  30.539  26.850  1.00  0.00     0.029 A 
ATOM     30  N   UNL A   1      44.656  30.089  27.750  1.00  0.00    -0.354 N 
ATOM     31  N   UNL A   1      42.209  30.722  29.266  1.00  0.00    -0.248 NA
ATOM     32  C   UNL A   1      40.929  32.223  30.522  1.00  0.00     0.031 C 
ATOM     33  C   UNL A   1      46.217  31.660  27.576  1.00  0.00     0.029 A 
ATOM     34  C   UNL A   1      44.966  31.393  28.109  1.00  0.00     0.049 A 
ATOM     35  H   UNL A   1      43.828  29.618  27.999  1.00  0.00     0.167 HD
ATOM     36  C   UNL A   1      42.891  31.930  29.366  1.00  0.00     0.074 A 
ATOM     37  C   UNL A   1      42.039  32.826  30.122  1.00  0.00     0.031 C 
ATOM     38  C   UNL A   1      44.111  32.270  28.876  1.00  0.00     0.034 A 
BRANCH  25  39
ATOM     39  C   UNL A   1      46.941  27.716  25.742  1.00  0.00     0.023 A 
ATOM     40  C   UNL A   1      47.190  28.044  24.397  1.00  0.00     0.031 A 
ATOM     41  C   UNL A   1      47.873  26.891  26.398  1.00  0.00     0.131 A 
ATOM     42  C   UNL A   1      48.297  27.492  23.733  1.00  0.00     0.055 A 
ATOM     43  C   UNL A   1      49.015  26.410  25.756  1.00  0.00     0.041 A 
ATOM     44  F   UNL A   1      47.683  26.528  27.676  1.00  0.00    -0.206 F 
ATOM     45  C   UNL A   1      49.224  26.696  24.409  1.00  0.00     0.022 A 
BRANCH  42  46
ATOM     46  S   UNL A   1      48.428  27.706  21.937  1.00  0.00     0.124 S 
ATOM     47  O   UNL A   1      47.088  28.183  21.596  1.00  0.00    -0.237 OA
ATOM     48  O   UNL A   1      49.504  28.681  21.813  1.00  0.00    -0.237 OA
ATOM     49  O   UNL A   1      48.741  26.363  21.452  1.00  0.00    -0.744 OA
ENDBRANCH  42  46
ENDBRANCH  25  39
BRANCH  26  50
ATOM     50  C   UNL A   1      38.734  30.316  30.888  1.00  0.00     0.023 A 
ATOM     51  C   UNL A   1      37.673  31.010  30.286  1.00  0.00     0.031 A 
ATOM     52  C   UNL A   1      38.632  30.010  32.257  1.00  0.00     0.131 A 
ATOM     53  C   UNL A   1      36.572  31.407  31.058  1.00  0.00     0.055 A 
ATOM     54  C   UNL A   1      37.512  30.362  33.010  1.00  0.00     0.041 A 
ATOM     55  F   UNL A   1      39.617  29.341  32.878  1.00  0.00    -0.206 F 
ATOM     56  C   UNL A   1      36.478  31.076  32.412  1.00  0.00     0.022 A 
BRANCH  53  57
ATOM     57  S   UNL A   1      35.291  32.430  30.283  1.00  0.00     0.124 S 
ATOM     58  O   UNL A   1      34.350  32.610  31.383  1.00  0.00    -0.237 OA
ATOM     59  O   UNL A   1      36.048  33.612  29.885  1.00  0.00    -0.237 OA
ATOM     60  O   UNL A   1      34.812  31.599  29.182  1.00  0.00    -0.744 OA
ENDBRANCH  53  57
ENDBRANCH  26  50
BRANCH  38  61
ATOM     61  C   UNL A   1      44.561  33.690  29.111  1.00  0.00     0.023 A 
ATOM     62  C   UNL A   1      43.987  34.772  28.421  1.00  0.00     0.031 A 
ATOM     63  C   UNL A   1      45.608  33.958  30.010  1.00  0.00     0.131 A 
ATOM     64  C   UNL A   1      44.510  36.063  28.589  1.00  0.00     0.055 A 
ATOM     65  C   UNL A   1      46.083  35.253  30.219  1.00  0.00     0.041 A 
ATOM     66  F   UNL A   1      46.194  32.962  30.694  1.00  0.00    -0.206 F 
ATOM     67  C   UNL A   1      45.545  36.313  29.495  1.00  0.00     0.022 A 
BRANCH  64  68
ATOM     68  S   UNL A   1      43.890  37.399  27.528  1.00  0.00     0.124 S 
ATOM     69  O   UNL A   1      43.107  36.664  26.541  1.00  0.00    -0.237 OA
ATOM     70  O   UNL A   1      43.130  38.216  28.467  1.00  0.00    -0.237 OA
ATOM     71  O   UNL A   1      45.109  38.021  27.012  1.00  0.00    -0.744 OA
ENDBRANCH  64  68
ENDBRANCH  38  61
ENDBRANCH  12  13
ENDBRANCH   5   7
ENDBRANCH   2   3
ENDBRANCH   1   2
BRANCH   1  72
ATOM     72  C   UNL A   1      35.148  22.459  26.007  1.00  0.00     0.023 C 
BRANCH  72  73
ATOM     73  C   UNL A   1      33.708  22.028  26.258  1.00  0.00     0.116 C 
BRANCH  73  74
ATOM     74  N   UNL A   1      32.844  22.432  25.167  1.00  0.00    -0.356 N 
ATOM     75  C   UNL A   1      31.941  23.459  25.136  1.00  0.00     0.227 C 
ATOM     76  H   UNL A   1      32.917  21.900  24.343  1.00  0.00     0.163 HD
ATOM     77  O   UNL A   1      31.103  23.457  24.238  1.00  0.00    -0.274 OA
BRANCH  75  78
ATOM     78  C   UNL A   1      31.997  24.501  26.258  1.00  0.00     0.103 C 
ATOM     79  C   UNL A   1      30.772  25.352  26.381  1.00  0.00    -0.016 C 
ATOM     80  C   UNL A   1      33.109  25.540  26.031  1.00  0.00     0.047 C 
ATOM     81  C   UNL A   1      31.013  26.647  26.145  1.00  0.00    -0.006 C 
ATOM     82  C   UNL A   1      32.431  26.898  25.829  1.00  0.00     0.106 C 
BRANCH  82  83
ATOM     83  N   UNL A   1      32.729  27.498  24.538  1.00  0.00    -0.347 N 
ATOM     84  C   UNL A   1      32.058  28.001  23.473  1.00  0.00     0.261 C 
ATOM     85  H   UNL A   1      33.701  27.553  24.396  1.00  0.00     0.164 HD
ATOM     86  O   UNL A   1      32.746  28.140  22.449  1.00  0.00    -0.271 OA
BRANCH  84  87
ATOM     87  C   UNL A   1      30.621  28.536  23.483  1.00  0.00     0.266 C 
ATOM     88  C   UNL A   1      30.054  28.666  22.061  1.00  0.00     0.095 C 
ATOM     89  O   UNL A   1      30.387  29.729  24.233  1.00  0.00    -0.480 OA
ATOM     90  C   UNL A   1      29.311  29.938  22.199  1.00  0.00    -0.002 A 
ATOM     91  C   UNL A   1      29.514  30.457  23.466  1.00  0.00     0.123 A 
ATOM     92  C   UNL A   1      28.575  30.637  21.257  1.00  0.00     0.008 A 
ATOM     93  C   UNL A   1      28.969  31.662  23.858  1.00  0.00     0.047 A 
ATOM     94  C   UNL A   1      28.035  31.873  21.625  1.00  0.00     0.001 A 
ATOM     95  C   UNL A   1      28.223  32.380  22.922  1.00  0.00     0.004 A 
ENDBRANCH  84  87
ENDBRANCH  82  83
ENDBRANCH  75  78
ENDBRANCH  73  74
ENDBRANCH  72  73
ENDBRANCH   1  72
TORSDOF 16
ENDMDL
