MODEL 1
REMARK VINA RESULT:     -10.8      0.000      0.000
REMARK SMILES C[C@@H](NC(=O)C[C@H]1CCCCO1)C(=O)NCCCCNC(=O)c1ccc(-c2c3nc(c(-c4cc(S(=O)(=O)[O-])ccc4F)c4ccc([nH]4)c(-c4cc(S(=O)(=O)[O-])ccc4F)c4nc(c(-c5cc(S(=O)(=O)[O-])ccc5F)c5ccc2[nH]5)C=C4)C=C3)cc1
REMARK SMILES IDX 17 1 16 2 15 3 13 4 14 5 2 7 1 8 3 9 4 10 5 12 6 13 7 14
REMARK SMILES IDX 8 15 12 16 9 17 11 18 10 19 18 20 19 21 20 22 21 23 22 25
REMARK SMILES IDX 23 26 24 27 85 28 25 29 84 30 26 31 27 32 28 33 78 34 29 35
REMARK SMILES IDX 83 36 77 37 79 38 30 39 82 40 76 41 75 42 31 44 63 45 43 46
REMARK SMILES IDX 62 47 44 48 47 49 61 50 80 51 45 52 46 53 60 55 81 56 48 57
REMARK SMILES IDX 32 58 33 59 41 60 34 61 40 62 42 63 39 64 35 65 36 66 37 67
REMARK SMILES IDX 38 68 64 69 65 70 73 71 66 72 72 73 74 74 71 75 67 76 68 77
REMARK SMILES IDX 69 78 70 79 49 80 50 81 58 82 51 83 57 84 59 85 56 86 52 87
REMARK SMILES IDX 53 88 54 89 55 90
REMARK H PARENT 15 6 3 11 20 24 79 43 47 54
REMARK Flexibility Score: inf
ROOT
ATOM      1  C   UNL A   1      36.802  20.901  24.560  1.00  0.00     0.023 C 
ENDROOT
BRANCH   1   2
ATOM      2  C   UNL A   1      35.678  21.308  25.514  1.00  0.00     0.116 C 
BRANCH   2   3
ATOM      3  N   UNL A   1      34.627  20.300  25.571  1.00  0.00    -0.354 N 
ATOM      4  C   UNL A   1      33.280  20.380  25.366  1.00  0.00     0.242 C 
ATOM      5  O   UNL A   1      32.612  19.360  25.573  1.00  0.00    -0.273 OA
ATOM      6  H   UNL A   1      34.947  19.397  25.796  1.00  0.00     0.163 HD
BRANCH   4   7
ATOM      7  C   UNL A   1      32.569  21.706  25.052  1.00  0.00     0.168 C 
ATOM      8  C   UNL A   1      32.182  21.644  23.575  1.00  0.00     0.041 C 
BRANCH   7   9
ATOM      9  N   UNL A   1      31.417  21.965  25.903  1.00  0.00    -0.345 N 
ATOM     10  C   UNL A   1      31.165  23.048  26.697  1.00  0.00     0.223 C 
ATOM     11  H   UNL A   1      30.725  21.264  25.906  1.00  0.00     0.164 HD
ATOM     12  O   UNL A   1      30.201  22.974  27.461  1.00  0.00    -0.275 OA
BRANCH  10  13
ATOM     13  C   UNL A   1      32.039  24.288  26.639  1.00  0.00     0.132 C 
BRANCH  13  14
ATOM     14  C   UNL A   1      31.640  25.337  25.577  1.00  0.00     0.127 C 
ATOM     15  C   UNL A   1      32.860  25.882  24.816  1.00  0.00     0.033 C 
ATOM     16  O   UNL A   1      30.770  24.667  24.645  1.00  0.00    -0.378 OA
ATOM     17  C   UNL A   1      32.501  26.690  23.576  1.00  0.00     0.005 C 
ATOM     18  C   UNL A   1      30.344  25.484  23.553  1.00  0.00     0.160 C 
ATOM     19  C   UNL A   1      31.536  25.908  22.710  1.00  0.00     0.029 C 
ENDBRANCH  13  14
ENDBRANCH  10  13
ENDBRANCH   7   9
ENDBRANCH   4   7
ENDBRANCH   2   3
ENDBRANCH   1   2
BRANCH   1  20
ATOM     20  C   UNL A   1      37.813  19.919  25.183  1.00  0.00     0.023 C 
BRANCH  20  21
ATOM     21  C   UNL A   1      39.030  20.576  25.852  1.00  0.00     0.116 C 
BRANCH  21  22
ATOM     22  N   UNL A   1      40.097  19.611  26.051  1.00  0.00    -0.352 N 
ATOM     23  C   UNL A   1      41.462  19.754  26.080  1.00  0.00     0.251 C 
ATOM     24  H   UNL A   1      39.785  18.687  26.191  1.00  0.00     0.163 HD
ATOM     25  O   UNL A   1      42.142  18.738  25.926  1.00  0.00    -0.269 OA
BRANCH  23  26
ATOM     26  C   UNL A   1      42.144  21.057  26.300  1.00  0.00     0.039 A 
ATOM     27  C   UNL A   1      42.296  21.501  27.621  1.00  0.00     0.014 A 
ATOM     28  C   UNL A   1      42.495  21.916  25.254  1.00  0.00     0.014 A 
ATOM     29  C   UNL A   1      42.797  22.781  27.894  1.00  0.00     0.010 A 
ATOM     30  C   UNL A   1      43.037  23.184  25.530  1.00  0.00     0.010 A 
ATOM     31  C   UNL A   1      43.177  23.638  26.852  1.00  0.00    -0.014 A 
BRANCH  31  32
ATOM     32  C   UNL A   1      43.685  25.012  27.147  1.00  0.00     0.031 A 
ATOM     33  C   UNL A   1      42.781  26.052  27.763  1.00  0.00     0.074 A 
ATOM     34  C   UNL A   1      44.963  25.337  26.862  1.00  0.00     0.049 A 
ATOM     35  N   UNL A   1      43.036  27.301  28.068  1.00  0.00    -0.248 NA
ATOM     36  C   UNL A   1      41.404  25.634  28.061  1.00  0.00     0.031 C 
ATOM     37  C   UNL A   1      45.946  24.436  26.262  1.00  0.00     0.029 A 
ATOM     38  N   UNL A   1      45.654  26.513  27.036  1.00  0.00    -0.354 N 
ATOM     39  C   UNL A   1      41.853  27.823  28.581  1.00  0.00     0.074 A 
ATOM     40  C   UNL A   1      40.867  26.762  28.503  1.00  0.00     0.031 C 
ATOM     41  C   UNL A   1      47.115  25.084  26.133  1.00  0.00     0.029 A 
ATOM     42  C   UNL A   1      46.959  26.458  26.603  1.00  0.00     0.049 A 
ATOM     43  H   UNL A   1      45.252  27.319  27.433  1.00  0.00     0.167 HD
ATOM     44  C   UNL A   1      41.609  29.062  29.084  1.00  0.00     0.034 A 
ATOM     45  C   UNL A   1      47.920  27.405  26.574  1.00  0.00     0.034 A 
ATOM     46  C   UNL A   1      42.598  30.111  29.171  1.00  0.00     0.049 A 
ATOM     47  C   UNL A   1      47.617  28.784  27.103  1.00  0.00     0.074 A 
ATOM     48  C   UNL A   1      42.463  31.380  29.710  1.00  0.00     0.029 A 
ATOM     49  N   UNL A   1      43.902  30.023  28.700  1.00  0.00    -0.354 N 
ATOM     50  N   UNL A   1      46.501  29.246  27.616  1.00  0.00    -0.248 NA
ATOM     51  C   UNL A   1      48.711  29.765  27.058  1.00  0.00     0.031 C 
ATOM     52  C   UNL A   1      43.659  32.079  29.506  1.00  0.00     0.029 A 
ATOM     53  C   UNL A   1      44.568  31.223  28.906  1.00  0.00     0.049 A 
ATOM     54  H   UNL A   1      44.297  29.224  28.281  1.00  0.00     0.167 HD
ATOM     55  C   UNL A   1      46.770  30.564  27.981  1.00  0.00     0.074 A 
ATOM     56  C   UNL A   1      48.154  30.817  27.642  1.00  0.00     0.031 C 
ATOM     57  C   UNL A   1      45.945  31.478  28.553  1.00  0.00     0.034 A 
BRANCH  44  58
ATOM     58  C   UNL A   1      40.202  29.360  29.548  1.00  0.00     0.023 A 
ATOM     59  C   UNL A   1      39.873  29.449  30.912  1.00  0.00     0.031 A 
ATOM     60  C   UNL A   1      39.168  29.545  28.610  1.00  0.00     0.131 A 
ATOM     61  C   UNL A   1      38.537  29.641  31.300  1.00  0.00     0.055 A 
ATOM     62  C   UNL A   1      37.856  29.814  29.002  1.00  0.00     0.041 A 
ATOM     63  F   UNL A   1      39.417  29.458  27.294  1.00  0.00    -0.206 F 
ATOM     64  C   UNL A   1      37.530  29.847  30.355  1.00  0.00     0.022 A 
BRANCH  61  65
ATOM     65  S   UNL A   1      38.114  29.476  33.057  1.00  0.00     0.124 S 
ATOM     66  O   UNL A   1      37.315  28.252  33.054  1.00  0.00    -0.237 OA
ATOM     67  O   UNL A   1      39.423  29.384  33.690  1.00  0.00    -0.237 OA
ATOM     68  O   UNL A   1      37.365  30.698  33.345  1.00  0.00    -0.744 OA
ENDBRANCH  61  65
ENDBRANCH  44  58
BRANCH  45  69
ATOM     69  C   UNL A   1      49.264  27.095  26.005  1.00  0.00     0.023 A 
ATOM     70  C   UNL A   1      49.615  27.506  24.709  1.00  0.00     0.031 A 
ATOM     71  C   UNL A   1      50.199  26.340  26.734  1.00  0.00     0.131 A 
ATOM     72  C   UNL A   1      50.852  27.127  24.166  1.00  0.00     0.055 A 
ATOM     73  C   UNL A   1      51.448  26.006  26.209  1.00  0.00     0.041 A 
ATOM     74  F   UNL A   1      49.913  25.924  27.978  1.00  0.00    -0.206 F 
ATOM     75  C   UNL A   1      51.777  26.390  24.912  1.00  0.00     0.022 A 
BRANCH  72  76
ATOM     76  S   UNL A   1      51.209  27.543  22.438  1.00  0.00     0.124 S 
ATOM     77  O   UNL A   1      52.592  27.103  22.303  1.00  0.00    -0.237 OA
ATOM     78  O   UNL A   1      50.209  26.750  21.725  1.00  0.00    -0.237 OA
ATOM     79  O   UNL A   1      51.004  28.988  22.387  1.00  0.00    -0.744 OA
ENDBRANCH  72  76
ENDBRANCH  45  69
BRANCH  57  80
ATOM     80  C   UNL A   1      46.538  32.826  28.888  1.00  0.00     0.023 A 
ATOM     81  C   UNL A   1      46.494  33.902  27.983  1.00  0.00     0.031 A 
ATOM     82  C   UNL A   1      47.173  33.030  30.125  1.00  0.00     0.131 A 
ATOM     83  C   UNL A   1      47.120  35.115  28.308  1.00  0.00     0.055 A 
ATOM     84  C   UNL A   1      47.746  34.257  30.466  1.00  0.00     0.041 A 
ATOM     85  F   UNL A   1      47.248  32.038  31.027  1.00  0.00    -0.206 F 
ATOM     86  C   UNL A   1      47.733  35.304  29.550  1.00  0.00     0.022 A 
BRANCH  83  87
ATOM     87  S   UNL A   1      47.202  36.421  27.050  1.00  0.00     0.124 S 
ATOM     88  O   UNL A   1      48.369  36.021  26.271  1.00  0.00    -0.237 OA
ATOM     89  O   UNL A   1      45.911  36.290  26.379  1.00  0.00    -0.237 OA
ATOM     90  O   UNL A   1      47.368  37.644  27.834  1.00  0.00    -0.744 OA
ENDBRANCH  83  87
ENDBRANCH  57  80
ENDBRANCH  31  32
ENDBRANCH  23  26
ENDBRANCH  21  22
ENDBRANCH  20  21
ENDBRANCH   1  20
TORSDOF 17
ENDMDL
MODEL 2
REMARK VINA RESULT:     -10.8      5.597      8.814
REMARK SMILES C[C@@H](NC(=O)C[C@H]1CCCCO1)C(=O)NCCCCNC(=O)c1ccc(-c2c3nc(c(-c4cc(S(=O)(=O)[O-])ccc4F)c4ccc([nH]4)c(-c4cc(S(=O)(=O)[O-])ccc4F)c4nc(c(-c5cc(S(=O)(=O)[O-])ccc5F)c5ccc2[nH]5)C=C4)C=C3)cc1
REMARK SMILES IDX 17 1 16 2 15 3 13 4 14 5 2 7 1 8 3 9 4 10 5 12 6 13 7 14
REMARK SMILES IDX 8 15 12 16 9 17 11 18 10 19 18 20 19 21 20 22 21 23 22 25
REMARK SMILES IDX 23 26 24 27 85 28 25 29 84 30 26 31 27 32 28 33 78 34 29 35
REMARK SMILES IDX 83 36 77 37 79 38 30 39 82 40 76 41 75 42 31 44 63 45 43 46
REMARK SMILES IDX 62 47 44 48 47 49 61 50 80 51 45 52 46 53 60 55 81 56 48 57
REMARK SMILES IDX 32 58 33 59 41 60 34 61 40 62 42 63 39 64 35 65 36 66 37 67
REMARK SMILES IDX 38 68 64 69 65 70 73 71 66 72 72 73 74 74 71 75 67 76 68 77
REMARK SMILES IDX 69 78 70 79 49 80 50 81 58 82 51 83 57 84 59 85 56 86 52 87
REMARK SMILES IDX 53 88 54 89 55 90
REMARK H PARENT 15 6 3 11 20 24 79 43 47 54
REMARK Flexibility Score: inf
ROOT
ATOM      1  C   UNL A   1      33.515  28.671  24.368  1.00  0.00     0.023 C 
ENDROOT
BRANCH   1   2
ATOM      2  C   UNL A   1      33.560  27.143  24.406  1.00  0.00     0.116 C 
BRANCH   2   3
ATOM      3  N   UNL A   1      33.589  26.570  23.067  1.00  0.00    -0.354 N 
ATOM      4  C   UNL A   1      32.919  25.517  22.514  1.00  0.00     0.242 C 
ATOM      5  O   UNL A   1      33.216  25.199  21.356  1.00  0.00    -0.273 OA
ATOM      6  H   UNL A   1      34.203  27.026  22.447  1.00  0.00     0.163 HD
BRANCH   4   7
ATOM      7  C   UNL A   1      31.950  24.640  23.321  1.00  0.00     0.168 C 
ATOM      8  C   UNL A   1      30.691  25.479  23.537  1.00  0.00     0.041 C 
BRANCH   7   9
ATOM      9  N   UNL A   1      31.647  23.367  22.682  1.00  0.00    -0.345 N 
ATOM     10  C   UNL A   1      32.143  22.126  22.970  1.00  0.00     0.223 C 
ATOM     11  H   UNL A   1      30.998  23.406  21.944  1.00  0.00     0.164 HD
ATOM     12  O   UNL A   1      31.870  21.216  22.185  1.00  0.00    -0.275 OA
BRANCH  10  13
ATOM     13  C   UNL A   1      32.993  21.883  24.204  1.00  0.00     0.132 C 
BRANCH  13  14
ATOM     14  C   UNL A   1      34.508  21.715  23.950  1.00  0.00     0.127 C 
ATOM     15  C   UNL A   1      35.234  23.069  23.875  1.00  0.00     0.033 C 
ATOM     16  O   UNL A   1      35.030  20.966  25.064  1.00  0.00    -0.378 OA
ATOM     17  C   UNL A   1      36.752  22.956  23.918  1.00  0.00     0.005 C 
ATOM     18  C   UNL A   1      36.444  20.764  25.019  1.00  0.00     0.160 C 
ATOM     19  C   UNL A   1      37.173  22.096  25.092  1.00  0.00     0.029 C 
ENDBRANCH  13  14
ENDBRANCH  10  13
ENDBRANCH   7   9
ENDBRANCH   4   7
ENDBRANCH   2   3
ENDBRANCH   1   2
BRANCH   1  20
ATOM     20  C   UNL A   1      32.204  29.261  24.925  1.00  0.00     0.023 C 
BRANCH  20  21
ATOM     21  C   UNL A   1      32.261  29.692  26.399  1.00  0.00     0.116 C 
BRANCH  21  22
ATOM     22  N   UNL A   1      32.308  31.139  26.515  1.00  0.00    -0.352 N 
ATOM     23  C   UNL A   1      33.118  31.969  27.250  1.00  0.00     0.251 C 
ATOM     24  H   UNL A   1      31.639  31.611  25.967  1.00  0.00     0.163 HD
ATOM     25  O   UNL A   1      32.732  33.124  27.430  1.00  0.00    -0.269 OA
BRANCH  23  26
ATOM     26  C   UNL A   1      34.426  31.544  27.816  1.00  0.00     0.039 A 
ATOM     27  C   UNL A   1      34.539  30.228  28.286  1.00  0.00     0.014 A 
ATOM     28  C   UNL A   1      35.483  32.433  28.036  1.00  0.00     0.014 A 
ATOM     29  C   UNL A   1      35.692  29.804  28.961  1.00  0.00     0.010 A 
ATOM     30  C   UNL A   1      36.656  31.995  28.676  1.00  0.00     0.010 A 
ATOM     31  C   UNL A   1      36.767  30.682  29.162  1.00  0.00    -0.014 A 
BRANCH  31  32
ATOM     32  C   UNL A   1      37.982  30.234  29.907  1.00  0.00     0.031 A 
ATOM     33  C   UNL A   1      38.233  30.694  31.322  1.00  0.00     0.074 A 
ATOM     34  C   UNL A   1      38.873  29.411  29.315  1.00  0.00     0.049 A 
ATOM     35  N   UNL A   1      39.241  30.429  32.117  1.00  0.00    -0.248 NA
ATOM     36  C   UNL A   1      37.221  31.579  31.915  1.00  0.00     0.031 C 
ATOM     37  C   UNL A   1      38.762  28.892  27.952  1.00  0.00     0.029 A 
ATOM     38  N   UNL A   1      40.047  28.868  29.782  1.00  0.00    -0.354 N 
ATOM     39  C   UNL A   1      38.995  31.123  33.297  1.00  0.00     0.074 A 
ATOM     40  C   UNL A   1      37.760  31.856  33.093  1.00  0.00     0.031 C 
ATOM     41  C   UNL A   1      39.812  28.095  27.698  1.00  0.00     0.029 A 
ATOM     42  C   UNL A   1      40.695  28.075  28.862  1.00  0.00     0.049 A 
ATOM     43  H   UNL A   1      40.392  29.033  30.688  1.00  0.00     0.167 HD
ATOM     44  C   UNL A   1      39.717  31.140  34.448  1.00  0.00     0.034 A 
ATOM     45  C   UNL A   1      41.869  27.414  28.939  1.00  0.00     0.034 A 
ATOM     46  C   UNL A   1      40.940  30.398  34.650  1.00  0.00     0.049 A 
ATOM     47  C   UNL A   1      42.673  27.476  30.213  1.00  0.00     0.074 A 
ATOM     48  C   UNL A   1      41.716  30.310  35.795  1.00  0.00     0.029 A 
ATOM     49  N   UNL A   1      41.575  29.625  33.687  1.00  0.00    -0.354 N 
ATOM     50  N   UNL A   1      42.404  28.111  31.330  1.00  0.00    -0.248 NA
ATOM     51  C   UNL A   1      43.934  26.723  30.237  1.00  0.00     0.031 C 
ATOM     52  C   UNL A   1      42.849  29.541  35.504  1.00  0.00     0.029 A 
ATOM     53  C   UNL A   1      42.747  29.086  34.200  1.00  0.00     0.049 A 
ATOM     54  H   UNL A   1      41.242  29.480  32.772  1.00  0.00     0.167 HD
ATOM     55  C   UNL A   1      43.450  27.807  32.199  1.00  0.00     0.074 A 
ATOM     56  C   UNL A   1      44.345  26.924  31.481  1.00  0.00     0.031 C 
ATOM     57  C   UNL A   1      43.645  28.217  33.478  1.00  0.00     0.034 A 
BRANCH  44  58
ATOM     58  C   UNL A   1      39.217  32.021  35.570  1.00  0.00     0.023 A 
ATOM     59  C   UNL A   1      39.623  33.362  35.697  1.00  0.00     0.031 A 
ATOM     60  C   UNL A   1      38.332  31.510  36.537  1.00  0.00     0.131 A 
ATOM     61  C   UNL A   1      39.205  34.119  36.803  1.00  0.00     0.055 A 
ATOM     62  C   UNL A   1      37.857  32.292  37.591  1.00  0.00     0.041 A 
ATOM     63  F   UNL A   1      37.920  30.233  36.478  1.00  0.00    -0.206 F 
ATOM     64  C   UNL A   1      38.307  33.601  37.739  1.00  0.00     0.022 A 
BRANCH  61  65
ATOM     65  S   UNL A   1      39.964  35.744  37.077  1.00  0.00     0.124 S 
ATOM     66  O   UNL A   1      41.367  35.385  37.274  1.00  0.00    -0.237 OA
ATOM     67  O   UNL A   1      39.652  36.451  35.842  1.00  0.00    -0.237 OA
ATOM     68  O   UNL A   1      39.284  36.243  38.272  1.00  0.00    -0.744 OA
ENDBRANCH  61  65
ENDBRANCH  44  58
BRANCH  45  69
ATOM     69  C   UNL A   1      42.376  26.645  27.765  1.00  0.00     0.023 A 
ATOM     70  C   UNL A   1      42.012  25.304  27.565  1.00  0.00     0.031 A 
ATOM     71  C   UNL A   1      43.271  27.230  26.852  1.00  0.00     0.131 A 
ATOM     72  C   UNL A   1      42.571  24.579  26.502  1.00  0.00     0.055 A 
ATOM     73  C   UNL A   1      43.787  26.519  25.767  1.00  0.00     0.041 A 
ATOM     74  F   UNL A   1      43.649  28.510  26.996  1.00  0.00    -0.206 F 
ATOM     75  C   UNL A   1      43.447  25.181  25.594  1.00  0.00     0.022 A 
BRANCH  72  76
ATOM     76  S   UNL A   1      42.200  22.809  26.365  1.00  0.00     0.124 S 
ATOM     77  O   UNL A   1      43.035  22.246  27.418  1.00  0.00    -0.237 OA
ATOM     78  O   UNL A   1      40.759  22.784  26.605  1.00  0.00    -0.237 OA
ATOM     79  O   UNL A   1      42.606  22.480  25.001  1.00  0.00    -0.744 OA
ENDBRANCH  72  76
ENDBRANCH  45  69
BRANCH  57  80
ATOM     80  C   UNL A   1      44.858  27.674  34.197  1.00  0.00     0.023 A 
ATOM     81  C   UNL A   1      44.812  26.472  34.927  1.00  0.00     0.031 A 
ATOM     82  C   UNL A   1      46.072  28.381  34.166  1.00  0.00     0.131 A 
ATOM     83  C   UNL A   1      45.943  26.042  35.637  1.00  0.00     0.055 A 
ATOM     84  C   UNL A   1      47.210  27.920  34.830  1.00  0.00     0.041 A 
ATOM     85  F   UNL A   1      46.174  29.536  33.488  1.00  0.00    -0.206 F 
ATOM     86  C   UNL A   1      47.147  26.751  35.581  1.00  0.00     0.022 A 
BRANCH  83  87
ATOM     87  S   UNL A   1      45.799  24.587  36.712  1.00  0.00     0.124 S 
ATOM     88  O   UNL A   1      46.241  25.113  37.999  1.00  0.00    -0.237 OA
ATOM     89  O   UNL A   1      44.379  24.262  36.608  1.00  0.00    -0.237 OA
ATOM     90  O   UNL A   1      46.701  23.614  36.097  1.00  0.00    -0.744 OA
ENDBRANCH  83  87
ENDBRANCH  57  80
ENDBRANCH  31  32
ENDBRANCH  23  26
ENDBRANCH  21  22
ENDBRANCH  20  21
ENDBRANCH   1  20
TORSDOF 17
ENDMDL
MODEL 3
REMARK VINA RESULT:     -10.8      4.970     10.034
REMARK SMILES C[C@@H](NC(=O)C[C@H]1CCCCO1)C(=O)NCCCCNC(=O)c1ccc(-c2c3nc(c(-c4cc(S(=O)(=O)[O-])ccc4F)c4ccc([nH]4)c(-c4cc(S(=O)(=O)[O-])ccc4F)c4nc(c(-c5cc(S(=O)(=O)[O-])ccc5F)c5ccc2[nH]5)C=C4)C=C3)cc1
REMARK SMILES IDX 17 1 16 2 15 3 13 4 14 5 2 7 1 8 3 9 4 10 5 12 6 13 7 14
REMARK SMILES IDX 8 15 12 16 9 17 11 18 10 19 18 20 19 21 20 22 21 23 22 25
REMARK SMILES IDX 23 26 24 27 85 28 25 29 84 30 26 31 27 32 28 33 78 34 29 35
REMARK SMILES IDX 83 36 77 37 79 38 30 39 82 40 76 41 75 42 31 44 63 45 43 46
REMARK SMILES IDX 62 47 44 48 47 49 61 50 80 51 45 52 46 53 60 55 81 56 48 57
REMARK SMILES IDX 32 58 33 59 41 60 34 61 40 62 42 63 39 64 35 65 36 66 37 67
REMARK SMILES IDX 38 68 64 69 65 70 73 71 66 72 72 73 74 74 71 75 67 76 68 77
REMARK SMILES IDX 69 78 70 79 49 80 50 81 58 82 51 83 57 84 59 85 56 86 52 87
REMARK SMILES IDX 53 88 54 89 55 90
REMARK H PARENT 15 6 3 11 20 24 79 43 47 54
REMARK Flexibility Score: inf
ROOT
ATOM      1  C   UNL A   1      31.168  26.897  25.998  1.00  0.00     0.023 C 
ENDROOT
BRANCH   1   2
ATOM      2  C   UNL A   1      30.434  25.742  25.314  1.00  0.00     0.116 C 
BRANCH   2   3
ATOM      3  N   UNL A   1      29.911  24.786  26.282  1.00  0.00    -0.354 N 
ATOM      4  C   UNL A   1      30.430  23.628  26.787  1.00  0.00     0.242 C 
ATOM      5  O   UNL A   1      29.710  22.965  27.542  1.00  0.00    -0.273 OA
ATOM      6  H   UNL A   1      29.024  25.019  26.639  1.00  0.00     0.163 HD
BRANCH   4   7
ATOM      7  C   UNL A   1      31.781  23.059  26.328  1.00  0.00     0.168 C 
ATOM      8  C   UNL A   1      32.796  23.446  27.403  1.00  0.00     0.041 C 
BRANCH   7   9
ATOM      9  N   UNL A   1      31.759  21.623  26.096  1.00  0.00    -0.345 N 
ATOM     10  C   UNL A   1      32.137  20.929  24.980  1.00  0.00     0.223 C 
ATOM     11  H   UNL A   1      31.428  21.076  26.845  1.00  0.00     0.164 HD
ATOM     12  O   UNL A   1      31.873  19.726  24.949  1.00  0.00    -0.275 OA
BRANCH  10  13
ATOM     13  C   UNL A   1      32.852  21.616  23.830  1.00  0.00     0.132 C 
BRANCH  13  14
ATOM     14  C   UNL A   1      34.355  21.897  24.050  1.00  0.00     0.127 C 
ATOM     15  C   UNL A   1      34.648  23.400  24.184  1.00  0.00     0.033 C 
ATOM     16  O   UNL A   1      34.720  21.239  25.278  1.00  0.00    -0.378 OA
ATOM     17  C   UNL A   1      36.052  23.711  24.687  1.00  0.00     0.005 C 
ATOM     18  C   UNL A   1      36.080  21.442  25.667  1.00  0.00     0.160 C 
ATOM     19  C   UNL A   1      36.339  22.915  25.943  1.00  0.00     0.029 C 
ENDBRANCH  13  14
ENDBRANCH  10  13
ENDBRANCH   7   9
ENDBRANCH   4   7
ENDBRANCH   2   3
ENDBRANCH   1   2
BRANCH   1  20
ATOM     20  C   UNL A   1      31.686  27.964  25.014  1.00  0.00     0.023 C 
BRANCH  20  21
ATOM     21  C   UNL A   1      32.908  28.758  25.501  1.00  0.00     0.116 C 
BRANCH  21  22
ATOM     22  N   UNL A   1      32.562  30.149  25.738  1.00  0.00    -0.352 N 
ATOM     23  C   UNL A   1      32.935  31.026  26.725  1.00  0.00     0.251 C 
ATOM     24  H   UNL A   1      31.949  30.533  25.068  1.00  0.00     0.163 HD
ATOM     25  O   UNL A   1      32.240  32.031  26.884  1.00  0.00    -0.269 OA
BRANCH  23  26
ATOM     26  C   UNL A   1      34.130  30.827  27.588  1.00  0.00     0.039 A 
ATOM     27  C   UNL A   1      35.020  31.900  27.732  1.00  0.00     0.014 A 
ATOM     28  C   UNL A   1      34.477  29.585  28.128  1.00  0.00     0.014 A 
ATOM     29  C   UNL A   1      36.236  31.738  28.409  1.00  0.00     0.010 A 
ATOM     30  C   UNL A   1      35.678  29.434  28.844  1.00  0.00     0.010 A 
ATOM     31  C   UNL A   1      36.579  30.503  28.978  1.00  0.00    -0.014 A 
BRANCH  31  32
ATOM     32  C   UNL A   1      37.889  30.328  29.675  1.00  0.00     0.031 A 
ATOM     33  C   UNL A   1      39.002  29.533  29.036  1.00  0.00     0.074 A 
ATOM     34  C   UNL A   1      38.087  30.879  30.890  1.00  0.00     0.049 A 
ATOM     35  N   UNL A   1      40.197  29.255  29.499  1.00  0.00    -0.248 NA
ATOM     36  C   UNL A   1      38.729  28.968  27.708  1.00  0.00     0.031 C 
ATOM     37  C   UNL A   1      37.100  31.668  31.627  1.00  0.00     0.029 A 
ATOM     38  N   UNL A   1      39.184  30.861  31.719  1.00  0.00    -0.354 N 
ATOM     39  C   UNL A   1      40.814  28.471  28.528  1.00  0.00     0.074 A 
ATOM     40  C   UNL A   1      39.839  28.285  27.470  1.00  0.00     0.031 C 
ATOM     41  C   UNL A   1      37.639  32.071  32.789  1.00  0.00     0.029 A 
ATOM     42  C   UNL A   1      38.995  31.539  32.902  1.00  0.00     0.049 A 
ATOM     43  H   UNL A   1      40.025  30.405  31.489  1.00  0.00     0.167 HD
ATOM     44  C   UNL A   1      42.075  27.966  28.509  1.00  0.00     0.034 A 
ATOM     45  C   UNL A   1      39.811  31.707  33.963  1.00  0.00     0.034 A 
ATOM     46  C   UNL A   1      43.045  28.166  29.560  1.00  0.00     0.049 A 
ATOM     47  C   UNL A   1      41.194  31.107  33.937  1.00  0.00     0.074 A 
ATOM     48  C   UNL A   1      44.362  27.738  29.610  1.00  0.00     0.029 A 
ATOM     49  N   UNL A   1      42.807  28.838  30.752  1.00  0.00    -0.354 N 
ATOM     50  N   UNL A   1      41.770  30.399  32.994  1.00  0.00    -0.248 NA
ATOM     51  C   UNL A   1      42.040  31.339  35.116  1.00  0.00     0.031 C 
ATOM     52  C   UNL A   1      44.897  28.093  30.854  1.00  0.00     0.029 A 
ATOM     53  C   UNL A   1      43.940  28.808  31.554  1.00  0.00     0.049 A 
ATOM     54  H   UNL A   1      41.958  29.274  30.993  1.00  0.00     0.167 HD
ATOM     55  C   UNL A   1      43.056  30.127  33.456  1.00  0.00     0.074 A 
ATOM     56  C   UNL A   1      43.174  30.757  34.753  1.00  0.00     0.031 C 
ATOM     57  C   UNL A   1      44.050  29.425  32.854  1.00  0.00     0.034 A 
BRANCH  44  58
ATOM     58  C   UNL A   1      42.465  27.114  27.322  1.00  0.00     0.023 A 
ATOM     59  C   UNL A   1      42.198  25.734  27.280  1.00  0.00     0.031 A 
ATOM     60  C   UNL A   1      43.127  27.688  26.221  1.00  0.00     0.131 A 
ATOM     61  C   UNL A   1      42.656  24.965  26.199  1.00  0.00     0.055 A 
ATOM     62  C   UNL A   1      43.510  26.931  25.113  1.00  0.00     0.041 A 
ATOM     63  F   UNL A   1      43.423  28.998  26.209  1.00  0.00    -0.206 F 
ATOM     64  C   UNL A   1      43.289  25.556  25.105  1.00  0.00     0.022 A 
BRANCH  61  65
ATOM     65  S   UNL A   1      42.535  23.157  26.310  1.00  0.00     0.124 S 
ATOM     66  O   UNL A   1      43.483  22.864  27.383  1.00  0.00    -0.237 OA
ATOM     67  O   UNL A   1      41.127  22.954  26.628  1.00  0.00    -0.237 OA
ATOM     68  O   UNL A   1      42.949  22.704  24.983  1.00  0.00    -0.744 OA
ENDBRANCH  61  65
ENDBRANCH  44  58
BRANCH  45  69
ATOM     69  C   UNL A   1      39.342  32.464  35.160  1.00  0.00     0.023 A 
ATOM     70  C   UNL A   1      39.780  33.776  35.406  1.00  0.00     0.031 A 
ATOM     71  C   UNL A   1      38.484  31.867  36.101  1.00  0.00     0.131 A 
ATOM     72  C   UNL A   1      39.391  34.433  36.584  1.00  0.00     0.055 A 
ATOM     73  C   UNL A   1      38.061  32.543  37.246  1.00  0.00     0.041 A 
ATOM     74  F   UNL A   1      38.035  30.616  35.912  1.00  0.00    -0.206 F 
ATOM     75  C   UNL A   1      38.525  33.830  37.499  1.00  0.00     0.022 A 
BRANCH  72  76
ATOM     76  S   UNL A   1      40.099  36.064  36.943  1.00  0.00     0.124 S 
ATOM     77  O   UNL A   1      41.497  35.735  37.192  1.00  0.00    -0.237 OA
ATOM     78  O   UNL A   1      39.820  36.792  35.708  1.00  0.00    -0.237 OA
ATOM     79  O   UNL A   1      39.344  36.512  38.111  1.00  0.00    -0.744 OA
ENDBRANCH  72  76
ENDBRANCH  45  69
BRANCH  57  80
ATOM     80  C   UNL A   1      45.371  29.342  33.582  1.00  0.00     0.023 A 
ATOM     81  C   UNL A   1      46.384  30.301  33.395  1.00  0.00     0.031 A 
ATOM     82  C   UNL A   1      45.627  28.276  34.463  1.00  0.00     0.131 A 
ATOM     83  C   UNL A   1      47.622  30.146  34.038  1.00  0.00     0.055 A 
ATOM     84  C   UNL A   1      46.841  28.157  35.142  1.00  0.00     0.041 A 
ATOM     85  F   UNL A   1      44.699  27.330  34.677  1.00  0.00    -0.206 F 
ATOM     86  C   UNL A   1      47.851  29.088  34.922  1.00  0.00     0.022 A 
BRANCH  83  87
ATOM     87  S   UNL A   1      48.965  31.299  33.637  1.00  0.00     0.124 S 
ATOM     88  O   UNL A   1      49.414  30.804  32.340  1.00  0.00    -0.237 OA
ATOM     89  O   UNL A   1      48.278  32.587  33.627  1.00  0.00    -0.237 OA
ATOM     90  O   UNL A   1      49.915  31.114  34.733  1.00  0.00    -0.744 OA
ENDBRANCH  83  87
ENDBRANCH  57  80
ENDBRANCH  31  32
ENDBRANCH  23  26
ENDBRANCH  21  22
ENDBRANCH  20  21
ENDBRANCH   1  20
TORSDOF 17
ENDMDL
