MODEL 1
REMARK VINA RESULT:     -11.9      0.000      0.000
REMARK SMILES C[C@H]1SCCC[C@@]1(C(=O)NCCCCNC(=O)c1ccc(-c2c3nc(c(-c4cc(S(=O)(=O)[O-])ccc4F)c4ccc([nH]4)c(-c4cc(S(=O)(=O)[O-])ccc4F)c4nc(c(-c5cc(S(=O)(=O)[O-])ccc5F)c5ccc2[nH]5)C=C4)C=C3)cc1)[NH+]1CCCC1
REMARK SMILES IDX 13 1 12 2 11 3 10 4 8 5 9 6 7 8 1 9 2 10 3 11 4 12 6 13 5 14
REMARK SMILES IDX 81 15 82 16 85 17 83 19 84 20 14 21 15 22 16 23 17 25 18 26
REMARK SMILES IDX 19 27 80 28 20 29 79 30 21 31 22 32 23 33 73 34 24 35 78 36
REMARK SMILES IDX 72 37 74 38 25 39 77 40 71 41 70 42 26 44 58 45 38 46 57 47
REMARK SMILES IDX 39 48 42 49 56 50 75 51 40 52 41 53 55 55 76 56 43 57 27 58
REMARK SMILES IDX 28 59 36 60 29 61 35 62 37 63 34 64 30 65 31 66 32 67 33 68
REMARK SMILES IDX 59 69 60 70 68 71 61 72 67 73 69 74 66 75 62 76 63 77 64 78
REMARK SMILES IDX 65 79 44 80 45 81 53 82 46 83 52 84 54 85 51 86 47 87 48 88
REMARK SMILES IDX 49 89 50 90
REMARK H PARENT 10 7 81 18 15 24 74 43 42 54
REMARK Flexibility Score: inf
ROOT
ATOM      1  C   UNL A   1      31.752  30.147  25.419  1.00  0.00     0.023 C 
ENDROOT
BRANCH   1   2
ATOM      2  C   UNL A   1      32.915  29.317  24.893  1.00  0.00     0.023 C 
BRANCH   2   3
ATOM      3  C   UNL A   1      32.554  27.914  24.408  1.00  0.00     0.116 C 
BRANCH   3   4
ATOM      4  N   UNL A   1      31.591  27.243  25.257  1.00  0.00    -0.351 N 
ATOM      5  C   UNL A   1      31.443  25.963  25.705  1.00  0.00     0.282 C 
ATOM      6  O   UNL A   1      30.493  25.840  26.492  1.00  0.00    -0.268 OA
ATOM      7  H   UNL A   1      30.884  27.846  25.583  1.00  0.00     0.163 HD
BRANCH   5   8
ATOM      8  C   UNL A   1      32.367  24.710  25.288  1.00  0.00     0.188 C 
ATOM      9  C   UNL A   1      30.753  22.937  26.421  1.00  0.00     0.027 C 
ATOM     10  C   UNL A   1      32.111  23.665  26.478  1.00  0.00     0.115 C 
ATOM     11  S   UNL A   1      33.354  22.319  26.728  1.00  0.00    -0.152 SA
ATOM     12  C   UNL A   1      34.847  23.318  26.793  1.00  0.00     0.070 C 
ATOM     13  C   UNL A   1      33.858  25.167  25.327  1.00  0.00     0.081 C 
ATOM     14  C   UNL A   1      34.981  24.152  25.540  1.00  0.00     0.018 C 
BRANCH   8  15
ATOM     15  N   UNL A   1      31.861  24.101  24.011  1.00  0.00    -0.321 N 
ATOM     16  C   UNL A   1      32.832  23.678  23.003  1.00  0.00     0.263 C 
ATOM     17  C   UNL A   1      30.835  24.781  23.228  1.00  0.00     0.263 C 
ATOM     18  H   UNL A   1      31.460  23.313  24.520  1.00  0.00     0.349 HD
ATOM     19  C   UNL A   1      32.902  24.816  21.995  1.00  0.00     0.067 C 
ATOM     20  C   UNL A   1      31.563  25.525  22.118  1.00  0.00     0.067 C 
ENDBRANCH   8  15
ENDBRANCH   5   8
ENDBRANCH   3   4
ENDBRANCH   2   3
ENDBRANCH   1   2
BRANCH   1  21
ATOM     21  C   UNL A   1      31.915  30.645  26.848  1.00  0.00     0.116 C 
BRANCH  21  22
ATOM     22  N   UNL A   1      31.955  32.098  26.939  1.00  0.00    -0.352 N 
ATOM     23  C   UNL A   1      32.900  32.913  27.507  1.00  0.00     0.251 C 
ATOM     24  H   UNL A   1      31.190  32.564  26.531  1.00  0.00     0.163 HD
ATOM     25  O   UNL A   1      32.670  34.115  27.628  1.00  0.00    -0.269 OA
BRANCH  23  26
ATOM     26  C   UNL A   1      34.167  32.335  27.999  1.00  0.00     0.039 A 
ATOM     27  C   UNL A   1      35.266  33.174  28.178  1.00  0.00     0.014 A 
ATOM     28  C   UNL A   1      34.259  30.975  28.311  1.00  0.00     0.014 A 
ATOM     29  C   UNL A   1      36.437  32.660  28.735  1.00  0.00     0.010 A 
ATOM     30  C   UNL A   1      35.389  30.490  28.960  1.00  0.00     0.010 A 
ATOM     31  C   UNL A   1      36.493  31.324  29.171  1.00  0.00    -0.014 A 
BRANCH  31  32
ATOM     32  C   UNL A   1      37.706  30.804  29.854  1.00  0.00     0.031 A 
ATOM     33  C   UNL A   1      37.994  31.182  31.283  1.00  0.00     0.074 A 
ATOM     34  C   UNL A   1      38.556  30.011  29.170  1.00  0.00     0.049 A 
ATOM     35  N   UNL A   1      38.976  30.796  32.055  1.00  0.00    -0.248 NA
ATOM     36  C   UNL A   1      37.076  32.141  31.922  1.00  0.00     0.031 C 
ATOM     37  C   UNL A   1      38.411  29.635  27.760  1.00  0.00     0.029 A 
ATOM     38  N   UNL A   1      39.702  29.367  29.563  1.00  0.00    -0.354 N 
ATOM     39  C   UNL A   1      38.802  31.469  33.260  1.00  0.00     0.074 A 
ATOM     40  C   UNL A   1      37.656  32.334  33.097  1.00  0.00     0.031 C 
ATOM     41  C   UNL A   1      39.392  28.783  27.426  1.00  0.00     0.029 A 
ATOM     42  C   UNL A   1      40.266  28.588  28.577  1.00  0.00     0.049 A 
ATOM     43  H   UNL A   1      40.084  29.453  30.466  1.00  0.00     0.167 HD
ATOM     44  C   UNL A   1      39.520  31.355  34.403  1.00  0.00     0.034 A 
ATOM     45  C   UNL A   1      41.362  27.805  28.603  1.00  0.00     0.034 A 
ATOM     46  C   UNL A   1      40.647  30.467  34.552  1.00  0.00     0.049 A 
ATOM     47  C   UNL A   1      42.138  27.700  29.893  1.00  0.00     0.074 A 
ATOM     48  C   UNL A   1      41.393  30.208  35.688  1.00  0.00     0.029 A 
ATOM     49  N   UNL A   1      41.199  29.702  33.533  1.00  0.00    -0.354 N 
ATOM     50  N   UNL A   1      41.899  28.268  31.054  1.00  0.00    -0.248 NA
ATOM     51  C   UNL A   1      43.323  26.833  29.881  1.00  0.00     0.031 C 
ATOM     52  C   UNL A   1      42.445  29.356  35.337  1.00  0.00     0.029 A 
ATOM     53  C   UNL A   1      42.303  29.008  34.003  1.00  0.00     0.049 A 
ATOM     54  H   UNL A   1      40.856  29.659  32.611  1.00  0.00     0.167 HD
ATOM     55  C   UNL A   1      42.885  27.798  31.916  1.00  0.00     0.074 A 
ATOM     56  C   UNL A   1      43.695  26.874  31.150  1.00  0.00     0.031 C 
ATOM     57  C   UNL A   1      43.109  28.102  33.221  1.00  0.00     0.034 A 
BRANCH  44  58
ATOM     58  C   UNL A   1      39.131  32.226  35.574  1.00  0.00     0.023 A 
ATOM     59  C   UNL A   1      39.596  33.546  35.710  1.00  0.00     0.031 A 
ATOM     60  C   UNL A   1      38.264  31.729  36.564  1.00  0.00     0.131 A 
ATOM     61  C   UNL A   1      39.232  34.304  36.834  1.00  0.00     0.055 A 
ATOM     62  C   UNL A   1      37.846  32.514  37.640  1.00  0.00     0.041 A 
ATOM     63  F   UNL A   1      37.809  30.468  36.502  1.00  0.00    -0.206 F 
ATOM     64  C   UNL A   1      38.338  33.808  37.785  1.00  0.00     0.022 A 
BRANCH  61  65
ATOM     65  S   UNL A   1      40.033  35.911  37.096  1.00  0.00     0.124 S 
ATOM     66  O   UNL A   1      39.314  36.412  38.266  1.00  0.00    -0.237 OA
ATOM     67  O   UNL A   1      41.425  35.538  37.314  1.00  0.00    -0.237 OA
ATOM     68  O   UNL A   1      39.766  36.634  35.854  1.00  0.00    -0.744 OA
ENDBRANCH  61  65
ENDBRANCH  44  58
BRANCH  45  69
ATOM     69  C   UNL A   1      41.805  27.055  27.388  1.00  0.00     0.023 A 
ATOM     70  C   UNL A   1      41.619  25.666  27.291  1.00  0.00     0.031 A 
ATOM     71  C   UNL A   1      42.500  27.697  26.349  1.00  0.00     0.131 A 
ATOM     72  C   UNL A   1      42.187  24.955  26.222  1.00  0.00     0.055 A 
ATOM     73  C   UNL A   1      43.001  26.996  25.250  1.00  0.00     0.041 A 
ATOM     74  F   UNL A   1      42.707  29.023  26.386  1.00  0.00    -0.206 F 
ATOM     75  C   UNL A   1      42.865  25.612  25.193  1.00  0.00     0.022 A 
BRANCH  72  76
ATOM     76  S   UNL A   1      42.149  23.142  26.270  1.00  0.00     0.124 S 
ATOM     77  O   UNL A   1      42.988  22.859  27.429  1.00  0.00    -0.237 OA
ATOM     78  O   UNL A   1      40.723  22.874  26.429  1.00  0.00    -0.237 OA
ATOM     79  O   UNL A   1      42.714  22.756  24.979  1.00  0.00    -0.744 OA
ENDBRANCH  72  76
ENDBRANCH  45  69
BRANCH  57  80
ATOM     80  C   UNL A   1      44.258  27.391  33.896  1.00  0.00     0.023 A 
ATOM     81  C   UNL A   1      44.110  26.103  34.439  1.00  0.00     0.031 A 
ATOM     82  C   UNL A   1      45.503  28.030  34.039  1.00  0.00     0.131 A 
ATOM     83  C   UNL A   1      45.157  25.532  35.178  1.00  0.00     0.055 A 
ATOM     84  C   UNL A   1      46.568  27.420  34.704  1.00  0.00     0.041 A 
ATOM     85  F   UNL A   1      45.703  29.260  33.543  1.00  0.00    -0.206 F 
ATOM     86  C   UNL A   1      46.391  26.174  35.298  1.00  0.00     0.022 A 
BRANCH  83  87
ATOM     87  S   UNL A   1      44.830  24.005  36.101  1.00  0.00     0.124 S 
ATOM     88  O   UNL A   1      45.237  24.374  37.452  1.00  0.00    -0.237 OA
ATOM     89  O   UNL A   1      43.398  23.817  35.895  1.00  0.00    -0.237 OA
ATOM     90  O   UNL A   1      45.685  23.019  35.441  1.00  0.00    -0.744 OA
ENDBRANCH  83  87
ENDBRANCH  57  80
ENDBRANCH  31  32
ENDBRANCH  23  26
ENDBRANCH  21  22
ENDBRANCH   1  21
TORSDOF 15
ENDMDL
MODEL 2
REMARK VINA RESULT:     -11.8      4.898     10.256
REMARK SMILES C[C@H]1SCCC[C@@]1(C(=O)NCCCCNC(=O)c1ccc(-c2c3nc(c(-c4cc(S(=O)(=O)[O-])ccc4F)c4ccc([nH]4)c(-c4cc(S(=O)(=O)[O-])ccc4F)c4nc(c(-c5cc(S(=O)(=O)[O-])ccc5F)c5ccc2[nH]5)C=C4)C=C3)cc1)[NH+]1CCCC1
REMARK SMILES IDX 13 1 12 2 11 3 10 4 8 5 9 6 7 8 1 9 2 10 3 11 4 12 6 13 5 14
REMARK SMILES IDX 81 15 82 16 85 17 83 19 84 20 14 21 15 22 16 23 17 25 18 26
REMARK SMILES IDX 19 27 80 28 20 29 79 30 21 31 22 32 23 33 73 34 24 35 78 36
REMARK SMILES IDX 72 37 74 38 25 39 77 40 71 41 70 42 26 44 58 45 38 46 57 47
REMARK SMILES IDX 39 48 42 49 56 50 75 51 40 52 41 53 55 55 76 56 43 57 27 58
REMARK SMILES IDX 28 59 36 60 29 61 35 62 37 63 34 64 30 65 31 66 32 67 33 68
REMARK SMILES IDX 59 69 60 70 68 71 61 72 67 73 69 74 66 75 62 76 63 77 64 78
REMARK SMILES IDX 65 79 44 80 45 81 53 82 46 83 52 84 54 85 51 86 47 87 48 88
REMARK SMILES IDX 49 89 50 90
REMARK H PARENT 10 7 81 18 15 24 74 43 42 54
REMARK Flexibility Score: inf
ROOT
ATOM      1  C   UNL A   1      36.505  22.175  24.102  1.00  0.00     0.023 C 
ENDROOT
BRANCH   1   2
ATOM      2  C   UNL A   1      35.725  23.458  23.845  1.00  0.00     0.023 C 
BRANCH   2   3
ATOM      3  C   UNL A   1      34.224  23.278  23.619  1.00  0.00     0.116 C 
BRANCH   3   4
ATOM      4  N   UNL A   1      33.692  24.138  22.583  1.00  0.00    -0.351 N 
ATOM      5  C   UNL A   1      33.023  25.327  22.580  1.00  0.00     0.282 C 
ATOM      6  O   UNL A   1      32.816  25.756  21.435  1.00  0.00    -0.268 OA
ATOM      7  H   UNL A   1      33.847  23.786  21.676  1.00  0.00     0.163 HD
BRANCH   5   8
ATOM      8  C   UNL A   1      32.527  26.127  23.888  1.00  0.00     0.188 C 
ATOM      9  C   UNL A   1      31.055  27.829  22.486  1.00  0.00     0.027 C 
ATOM     10  C   UNL A   1      32.323  27.621  23.339  1.00  0.00     0.115 C 
ATOM     11  S   UNL A   1      32.291  28.998  24.571  1.00  0.00    -0.152 SA
ATOM     12  C   UNL A   1      33.814  28.628  25.452  1.00  0.00     0.070 C 
ATOM     13  C   UNL A   1      33.687  26.125  24.932  1.00  0.00     0.081 C 
ATOM     14  C   UNL A   1      33.781  27.218  25.996  1.00  0.00     0.018 C 
BRANCH   8  15
ATOM     15  N   UNL A   1      31.191  25.604  24.335  1.00  0.00    -0.321 N 
ATOM     16  C   UNL A   1      30.889  25.582  25.766  1.00  0.00     0.263 C 
ATOM     17  C   UNL A   1      30.717  24.306  23.870  1.00  0.00     0.263 C 
ATOM     18  H   UNL A   1      30.708  26.358  23.847  1.00  0.00     0.349 HD
ATOM     19  C   UNL A   1      31.182  24.161  26.227  1.00  0.00     0.067 C 
ATOM     20  C   UNL A   1      31.031  23.310  24.976  1.00  0.00     0.067 C 
ENDBRANCH   8  15
ENDBRANCH   5   8
ENDBRANCH   3   4
ENDBRANCH   2   3
ENDBRANCH   1   2
BRANCH   1  21
ATOM     21  C   UNL A   1      36.864  21.926  25.560  1.00  0.00     0.116 C 
BRANCH  21  22
ATOM     22  N   UNL A   1      37.918  20.935  25.721  1.00  0.00    -0.352 N 
ATOM     23  C   UNL A   1      39.217  21.098  26.131  1.00  0.00     0.251 C 
ATOM     24  H   UNL A   1      37.660  20.010  25.503  1.00  0.00     0.163 HD
ATOM     25  O   UNL A   1      40.002  20.157  26.043  1.00  0.00    -0.269 OA
BRANCH  23  26
ATOM     26  C   UNL A   1      39.666  22.409  26.641  1.00  0.00     0.039 A 
ATOM     27  C   UNL A   1      40.667  22.448  27.611  1.00  0.00     0.014 A 
ATOM     28  C   UNL A   1      39.121  23.596  26.141  1.00  0.00     0.014 A 
ATOM     29  C   UNL A   1      41.169  23.680  28.028  1.00  0.00     0.010 A 
ATOM     30  C   UNL A   1      39.694  24.816  26.481  1.00  0.00     0.010 A 
ATOM     31  C   UNL A   1      40.717  24.873  27.435  1.00  0.00    -0.014 A 
BRANCH  31  32
ATOM     32  C   UNL A   1      41.323  26.178  27.808  1.00  0.00     0.031 A 
ATOM     33  C   UNL A   1      42.705  26.537  27.333  1.00  0.00     0.074 A 
ATOM     34  C   UNL A   1      40.627  27.022  28.597  1.00  0.00     0.049 A 
ATOM     35  N   UNL A   1      43.379  27.642  27.522  1.00  0.00    -0.248 NA
ATOM     36  C   UNL A   1      43.440  25.515  26.569  1.00  0.00     0.031 C 
ATOM     37  C   UNL A   1      39.305  26.748  29.170  1.00  0.00     0.029 A 
ATOM     38  N   UNL A   1      40.921  28.285  29.045  1.00  0.00    -0.354 N 
ATOM     39  C   UNL A   1      44.615  27.444  26.914  1.00  0.00     0.074 A 
ATOM     40  C   UNL A   1      44.621  26.092  26.404  1.00  0.00     0.031 C 
ATOM     41  C   UNL A   1      38.882  27.829  29.842  1.00  0.00     0.029 A 
ATOM     42  C   UNL A   1      39.915  28.857  29.793  1.00  0.00     0.049 A 
ATOM     43  H   UNL A   1      41.772  28.740  28.851  1.00  0.00     0.167 HD
ATOM     44  C   UNL A   1      45.639  28.320  26.776  1.00  0.00     0.034 A 
ATOM     45  C   UNL A   1      39.837  30.072  30.369  1.00  0.00     0.034 A 
ATOM     46  C   UNL A   1      45.603  29.673  27.273  1.00  0.00     0.049 A 
ATOM     47  C   UNL A   1      40.996  31.024  30.194  1.00  0.00     0.074 A 
ATOM     48  C   UNL A   1      46.548  30.673  27.115  1.00  0.00     0.029 A 
ATOM     49  N   UNL A   1      44.576  30.216  28.034  1.00  0.00    -0.354 N 
ATOM     50  N   UNL A   1      42.116  30.853  29.529  1.00  0.00    -0.248 NA
ATOM     51  C   UNL A   1      40.870  32.339  30.833  1.00  0.00     0.031 C 
ATOM     52  C   UNL A   1      46.133  31.787  27.850  1.00  0.00     0.029 A 
ATOM     53  C   UNL A   1      44.886  31.519  28.392  1.00  0.00     0.049 A 
ATOM     54  H   UNL A   1      43.749  29.744  28.284  1.00  0.00     0.167 HD
ATOM     55  C   UNL A   1      42.811  32.054  29.644  1.00  0.00     0.074 A 
ATOM     56  C   UNL A   1      41.966  32.947  30.408  1.00  0.00     0.031 C 
ATOM     57  C   UNL A   1      44.038  32.391  29.168  1.00  0.00     0.034 A 
BRANCH  44  58
ATOM     58  C   UNL A   1      46.894  27.840  26.086  1.00  0.00     0.023 A 
ATOM     59  C   UNL A   1      47.111  28.033  24.710  1.00  0.00     0.031 A 
ATOM     60  C   UNL A   1      47.899  27.190  26.825  1.00  0.00     0.131 A 
ATOM     61  C   UNL A   1      48.279  27.539  24.109  1.00  0.00     0.055 A 
ATOM     62  C   UNL A   1      49.092  26.769  26.235  1.00  0.00     0.041 A 
ATOM     63  F   UNL A   1      47.738  26.955  28.137  1.00  0.00    -0.206 F 
ATOM     64  C   UNL A   1      49.283  26.933  24.867  1.00  0.00     0.022 A 
BRANCH  61  65
ATOM     65  S   UNL A   1      48.419  27.597  22.301  1.00  0.00     0.124 S 
ATOM     66  O   UNL A   1      48.529  26.178  21.967  1.00  0.00    -0.237 OA
ATOM     67  O   UNL A   1      47.175  28.250  21.909  1.00  0.00    -0.237 OA
ATOM     68  O   UNL A   1      49.633  28.378  22.076  1.00  0.00    -0.744 OA
ENDBRANCH  61  65
ENDBRANCH  44  58
BRANCH  45  69
ATOM     69  C   UNL A   1      38.637  30.476  31.162  1.00  0.00     0.023 A 
ATOM     70  C   UNL A   1      37.549  31.119  30.548  1.00  0.00     0.031 A 
ATOM     71  C   UNL A   1      38.596  30.308  32.558  1.00  0.00     0.131 A 
ATOM     72  C   UNL A   1      36.507  31.638  31.332  1.00  0.00     0.055 A 
ATOM     73  C   UNL A   1      37.523  30.763  33.326  1.00  0.00     0.041 A 
ATOM     74  F   UNL A   1      39.606  29.700  33.200  1.00  0.00    -0.206 F 
ATOM     75  C   UNL A   1      36.479  31.452  32.716  1.00  0.00     0.022 A 
BRANCH  72  76
ATOM     76  S   UNL A   1      35.260  32.685  30.532  1.00  0.00     0.124 S 
ATOM     77  O   UNL A   1      36.010  33.915  30.301  1.00  0.00    -0.237 OA
ATOM     78  O   UNL A   1      34.927  31.904  29.346  1.00  0.00    -0.237 OA
ATOM     79  O   UNL A   1      34.201  32.777  31.533  1.00  0.00    -0.744 OA
ENDBRANCH  72  76
ENDBRANCH  45  69
BRANCH  57  80
ATOM     80  C   UNL A   1      44.506  33.801  29.437  1.00  0.00     0.023 A 
ATOM     81  C   UNL A   1      44.267  34.845  28.526  1.00  0.00     0.031 A 
ATOM     82  C   UNL A   1      45.242  34.096  30.599  1.00  0.00     0.131 A 
ATOM     83  C   UNL A   1      44.835  36.108  28.744  1.00  0.00     0.055 A 
ATOM     84  C   UNL A   1      45.734  35.377  30.852  1.00  0.00     0.041 A 
ATOM     85  F   UNL A   1      45.504  33.141  31.505  1.00  0.00    -0.206 F 
ATOM     86  C   UNL A   1      45.550  36.386  29.911  1.00  0.00     0.022 A 
BRANCH  83  87
ATOM     87  S   UNL A   1      44.746  37.338  27.414  1.00  0.00     0.124 S 
ATOM     88  O   UNL A   1      45.810  36.894  26.520  1.00  0.00    -0.237 OA
ATOM     89  O   UNL A   1      43.385  37.164  26.920  1.00  0.00    -0.237 OA
ATOM     90  O   UNL A   1      44.999  38.603  28.101  1.00  0.00    -0.744 OA
ENDBRANCH  83  87
ENDBRANCH  57  80
ENDBRANCH  31  32
ENDBRANCH  23  26
ENDBRANCH  21  22
ENDBRANCH   1  21
TORSDOF 15
ENDMDL
MODEL 3
REMARK VINA RESULT:     -11.7      1.152      1.752
REMARK SMILES C[C@H]1SCCC[C@@]1(C(=O)NCCCCNC(=O)c1ccc(-c2c3nc(c(-c4cc(S(=O)(=O)[O-])ccc4F)c4ccc([nH]4)c(-c4cc(S(=O)(=O)[O-])ccc4F)c4nc(c(-c5cc(S(=O)(=O)[O-])ccc5F)c5ccc2[nH]5)C=C4)C=C3)cc1)[NH+]1CCCC1
REMARK SMILES IDX 13 1 12 2 11 3 10 4 8 5 9 6 7 8 1 9 2 10 3 11 4 12 6 13 5 14
REMARK SMILES IDX 81 15 82 16 85 17 83 19 84 20 14 21 15 22 16 23 17 25 18 26
REMARK SMILES IDX 19 27 80 28 20 29 79 30 21 31 22 32 23 33 73 34 24 35 78 36
REMARK SMILES IDX 72 37 74 38 25 39 77 40 71 41 70 42 26 44 58 45 38 46 57 47
REMARK SMILES IDX 39 48 42 49 56 50 75 51 40 52 41 53 55 55 76 56 43 57 27 58
REMARK SMILES IDX 28 59 36 60 29 61 35 62 37 63 34 64 30 65 31 66 32 67 33 68
REMARK SMILES IDX 59 69 60 70 68 71 61 72 67 73 69 74 66 75 62 76 63 77 64 78
REMARK SMILES IDX 65 79 44 80 45 81 53 82 46 83 52 84 54 85 51 86 47 87 48 88
REMARK SMILES IDX 49 89 50 90
REMARK H PARENT 10 7 81 18 15 24 74 43 42 54
REMARK Flexibility Score: inf
ROOT
ATOM      1  C   UNL A   1      31.770  28.848  26.419  1.00  0.00     0.023 C 
ENDROOT
BRANCH   1   2
ATOM      2  C   UNL A   1      32.290  27.431  26.620  1.00  0.00     0.023 C 
BRANCH   2   3
ATOM      3  C   UNL A   1      31.585  26.351  25.799  1.00  0.00     0.116 C 
BRANCH   3   4
ATOM      4  N   UNL A   1      31.235  25.179  26.574  1.00  0.00    -0.351 N 
ATOM      5  C   UNL A   1      31.609  23.867  26.540  1.00  0.00     0.282 C 
ATOM      6  O   UNL A   1      31.105  23.204  27.458  1.00  0.00    -0.268 OA
ATOM      7  H   UNL A   1      30.580  25.370  27.283  1.00  0.00     0.163 HD
BRANCH   5   8
ATOM      8  C   UNL A   1      32.589  23.198  25.448  1.00  0.00     0.188 C 
ATOM      9  C   UNL A   1      31.057  23.907  23.403  1.00  0.00     0.027 C 
ATOM     10  C   UNL A   1      31.579  22.754  24.284  1.00  0.00     0.115 C 
ATOM     11  S   UNL A   1      32.153  21.470  23.085  1.00  0.00    -0.152 SA
ATOM     12  C   UNL A   1      32.697  20.214  24.250  1.00  0.00     0.070 C 
ATOM     13  C   UNL A   1      33.227  21.923  26.080  1.00  0.00     0.081 C 
ATOM     14  C   UNL A   1      33.730  20.782  25.196  1.00  0.00     0.018 C 
BRANCH   8  15
ATOM     15  N   UNL A   1      33.521  24.237  24.890  1.00  0.00    -0.321 N 
ATOM     16  C   UNL A   1      33.982  24.096  23.510  1.00  0.00     0.263 C 
ATOM     17  C   UNL A   1      34.732  24.603  25.616  1.00  0.00     0.263 C 
ATOM     18  H   UNL A   1      32.810  24.961  24.992  1.00  0.00     0.349 HD
ATOM     19  C   UNL A   1      35.356  23.447  23.598  1.00  0.00     0.067 C 
ATOM     20  C   UNL A   1      35.869  23.815  24.981  1.00  0.00     0.067 C 
ENDBRANCH   8  15
ENDBRANCH   5   8
ENDBRANCH   3   4
ENDBRANCH   2   3
ENDBRANCH   1   2
BRANCH   1  21
ATOM     21  C   UNL A   1      32.802  29.842  25.906  1.00  0.00     0.116 C 
BRANCH  21  22
ATOM     22  N   UNL A   1      32.542  31.205  26.346  1.00  0.00    -0.352 N 
ATOM     23  C   UNL A   1      33.225  31.978  27.250  1.00  0.00     0.251 C 
ATOM     24  H   UNL A   1      31.758  31.636  25.934  1.00  0.00     0.163 HD
ATOM     25  O   UNL A   1      32.748  33.052  27.611  1.00  0.00    -0.269 OA
BRANCH  23  26
ATOM     26  C   UNL A   1      34.507  31.499  27.803  1.00  0.00     0.039 A 
ATOM     27  C   UNL A   1      35.522  32.422  28.051  1.00  0.00     0.014 A 
ATOM     28  C   UNL A   1      34.694  30.146  28.106  1.00  0.00     0.014 A 
ATOM     29  C   UNL A   1      36.700  31.998  28.665  1.00  0.00     0.010 A 
ATOM     30  C   UNL A   1      35.824  29.746  28.810  1.00  0.00     0.010 A 
ATOM     31  C   UNL A   1      36.843  30.664  29.089  1.00  0.00    -0.014 A 
BRANCH  31  32
ATOM     32  C   UNL A   1      38.056  30.235  29.833  1.00  0.00     0.031 A 
ATOM     33  C   UNL A   1      38.279  30.691  31.250  1.00  0.00     0.074 A 
ATOM     34  C   UNL A   1      38.964  29.455  29.212  1.00  0.00     0.049 A 
ATOM     35  N   UNL A   1      39.254  30.388  32.068  1.00  0.00    -0.248 NA
ATOM     36  C   UNL A   1      37.297  31.631  31.816  1.00  0.00     0.031 C 
ATOM     37  C   UNL A   1      38.882  29.009  27.817  1.00  0.00     0.029 A 
ATOM     38  N   UNL A   1      40.126  28.885  29.669  1.00  0.00    -0.354 N 
ATOM     39  C   UNL A   1      39.009  31.105  33.235  1.00  0.00     0.074 A 
ATOM     40  C   UNL A   1      37.829  31.905  32.998  1.00  0.00     0.031 C 
ATOM     41  C   UNL A   1      39.914  28.192  27.553  1.00  0.00     0.029 A 
ATOM     42  C   UNL A   1      40.758  28.091  28.738  1.00  0.00     0.049 A 
ATOM     43  H   UNL A   1      40.475  29.030  30.577  1.00  0.00     0.167 HD
ATOM     44  C   UNL A   1      39.695  31.077  34.404  1.00  0.00     0.034 A 
ATOM     45  C   UNL A   1      41.889  27.364  28.832  1.00  0.00     0.034 A 
ATOM     46  C   UNL A   1      40.856  30.253  34.627  1.00  0.00     0.049 A 
ATOM     47  C   UNL A   1      42.627  27.355  30.149  1.00  0.00     0.074 A 
ATOM     48  C   UNL A   1      41.577  30.082  35.796  1.00  0.00     0.029 A 
ATOM     49  N   UNL A   1      41.476  29.470  33.662  1.00  0.00    -0.354 N 
ATOM     50  N   UNL A   1      42.323  27.963  31.274  1.00  0.00    -0.248 NA
ATOM     51  C   UNL A   1      43.850  26.547  30.213  1.00  0.00     0.031 C 
ATOM     52  C   UNL A   1      42.679  29.267  35.517  1.00  0.00     0.029 A 
ATOM     53  C   UNL A   1      42.596  28.853  34.196  1.00  0.00     0.049 A 
ATOM     54  H   UNL A   1      41.166  29.370  32.733  1.00  0.00     0.167 HD
ATOM     55  C   UNL A   1      43.302  27.580  32.186  1.00  0.00     0.074 A 
ATOM     56  C   UNL A   1      44.179  26.663  31.489  1.00  0.00     0.031 C 
ATOM     57  C   UNL A   1      43.469  27.953  33.482  1.00  0.00     0.034 A 
BRANCH  44  58
ATOM     58  C   UNL A   1      39.227  31.980  35.520  1.00  0.00     0.023 A 
ATOM     59  C   UNL A   1      39.661  33.313  35.636  1.00  0.00     0.031 A 
ATOM     60  C   UNL A   1      38.316  31.501  36.479  1.00  0.00     0.131 A 
ATOM     61  C   UNL A   1      39.224  34.102  36.711  1.00  0.00     0.055 A 
ATOM     62  C   UNL A   1      37.826  32.314  37.502  1.00  0.00     0.041 A 
ATOM     63  F   UNL A   1      37.885  30.230  36.436  1.00  0.00    -0.206 F 
ATOM     64  C   UNL A   1      38.287  33.621  37.628  1.00  0.00     0.022 A 
BRANCH  61  65
ATOM     65  S   UNL A   1      39.982  35.731  36.960  1.00  0.00     0.124 S 
ATOM     66  O   UNL A   1      41.388  35.378  37.142  1.00  0.00    -0.237 OA
ATOM     67  O   UNL A   1      39.653  36.425  35.721  1.00  0.00    -0.237 OA
ATOM     68  O   UNL A   1      39.315  36.241  38.157  1.00  0.00    -0.744 OA
ENDBRANCH  61  65
ENDBRANCH  44  58
BRANCH  45  69
ATOM     69  C   UNL A   1      42.405  26.583  27.668  1.00  0.00     0.023 A 
ATOM     70  C   UNL A   1      41.968  25.269  27.430  1.00  0.00     0.031 A 
ATOM     71  C   UNL A   1      43.407  27.102  26.829  1.00  0.00     0.131 A 
ATOM     72  C   UNL A   1      42.584  24.494  26.435  1.00  0.00     0.055 A 
ATOM     73  C   UNL A   1      43.967  26.351  25.793  1.00  0.00     0.041 A 
ATOM     74  F   UNL A   1      43.863  28.352  27.007  1.00  0.00    -0.206 F 
ATOM     75  C   UNL A   1      43.570  25.031  25.605  1.00  0.00     0.022 A 
BRANCH  72  76
ATOM     76  S   UNL A   1      42.176  22.729  26.335  1.00  0.00     0.124 S 
ATOM     77  O   UNL A   1      42.661  22.387  25.003  1.00  0.00    -0.237 OA
ATOM     78  O   UNL A   1      42.933  22.181  27.455  1.00  0.00    -0.237 OA
ATOM     79  O   UNL A   1      40.724  22.707  26.496  1.00  0.00    -0.744 OA
ENDBRANCH  72  76
ENDBRANCH  45  69
BRANCH  57  80
ATOM     80  C   UNL A   1      44.628  27.330  34.223  1.00  0.00     0.023 A 
ATOM     81  C   UNL A   1      44.538  26.044  34.783  1.00  0.00     0.031 A 
ATOM     82  C   UNL A   1      45.820  28.051  34.414  1.00  0.00     0.131 A 
ATOM     83  C   UNL A   1      45.583  25.554  35.581  1.00  0.00     0.055 A 
ATOM     84  C   UNL A   1      46.890  27.524  35.139  1.00  0.00     0.041 A 
ATOM     85  F   UNL A   1      45.964  29.284  33.905  1.00  0.00    -0.206 F 
ATOM     86  C   UNL A   1      46.765  26.278  35.747  1.00  0.00     0.022 A 
BRANCH  83  87
ATOM     87  S   UNL A   1      45.312  24.023  36.516  1.00  0.00     0.124 S 
ATOM     88  O   UNL A   1      46.548  23.292  36.263  1.00  0.00    -0.237 OA
ATOM     89  O   UNL A   1      45.130  24.517  37.876  1.00  0.00    -0.237 OA
ATOM     90  O   UNL A   1      44.116  23.454  35.898  1.00  0.00    -0.744 OA
ENDBRANCH  83  87
ENDBRANCH  57  80
ENDBRANCH  31  32
ENDBRANCH  23  26
ENDBRANCH  21  22
ENDBRANCH   1  21
TORSDOF 15
ENDMDL
