MODEL 1
REMARK VINA RESULT:     -10.9      0.000      0.000
REMARK SMILES CCCCCCNC(=O)Oc1cccc(-c2ccc([C@@H](C)C(=O)NCCCCNC(=O)c3ccc(-c4c5nc(c(-c6cc(S(=O)(=O)[O-])ccc6F)c6ccc([nH]6)c(-c6cc(S(=O)(=O)[O-])ccc6F)c6nc(c(-c7cc(S(=O)(=O)[O-])ccc7F)c7ccc4[nH]7)C=C6)C=C5)cc3)cc2)c1
REMARK SMILES IDX 20 1 21 2 19 3 16 4 17 5 96 6 18 7 95 8 15 9 11 10 12 11
REMARK SMILES IDX 97 12 13 13 14 14 10 15 8 16 7 17 9 19 6 20 5 21 4 22 3 23
REMARK SMILES IDX 2 24 1 25 22 26 23 27 24 28 25 30 26 31 27 32 28 33 29 34
REMARK SMILES IDX 30 35 31 37 32 38 33 39 94 40 34 41 93 42 35 43 36 44 37 45
REMARK SMILES IDX 87 46 38 47 92 48 86 49 88 50 39 51 91 52 85 53 84 54 40 56
REMARK SMILES IDX 72 57 52 58 71 59 53 60 56 61 70 62 89 63 54 64 55 65 69 67
REMARK SMILES IDX 90 68 57 69 41 70 42 71 50 72 43 73 49 74 51 75 48 76 44 77
REMARK SMILES IDX 45 78 46 79 47 80 73 81 74 82 82 83 75 84 81 85 83 86 80 87
REMARK SMILES IDX 76 88 77 89 78 90 79 91 58 92 59 93 67 94 60 95 66 96 68 97
REMARK SMILES IDX 65 98 61 99 62 100 63 101 64 102
REMARK H PARENT 7 18 24 29 29 36 88 55 56 66
REMARK Flexibility Score: inf
ROOT
ATOM      1  C   UNL A   1      29.015  28.223  22.781  1.00  0.00     0.105 C 
ATOM      2  C   UNL A   1      27.627  28.116  23.412  1.00  0.00     0.023 C 
ENDROOT
BRANCH   1   3
ATOM      3  C   UNL A   1      30.128  27.480  23.502  1.00  0.00    -0.036 A 
ATOM      4  C   UNL A   1      32.098  25.837  24.758  1.00  0.00    -0.018 A 
ATOM      5  C   UNL A   1      32.382  26.577  23.601  1.00  0.00     0.009 A 
ATOM      6  C   UNL A   1      30.816  25.989  25.309  1.00  0.00     0.009 A 
ATOM      7  C   UNL A   1      31.433  27.416  23.012  1.00  0.00     0.005 A 
ATOM      8  C   UNL A   1      29.841  26.776  24.681  1.00  0.00     0.005 A 
BRANCH   4   9
ATOM      9  C   UNL A   1      33.105  24.920  25.333  1.00  0.00    -0.015 A 
ATOM     10  C   UNL A   1      35.375  24.056  25.449  1.00  0.00     0.133 A 
ATOM     11  C   UNL A   1      35.046  23.228  26.518  1.00  0.00     0.047 A 
ATOM     12  C   UNL A   1      34.424  24.887  24.851  1.00  0.00     0.056 A 
ATOM     13  C   UNL A   1      33.746  23.242  27.006  1.00  0.00     0.004 A 
ATOM     14  C   UNL A   1      32.787  24.071  26.413  1.00  0.00     0.009 A 
BRANCH  10  15
ATOM     15  O   UNL A   1      36.668  23.932  24.924  1.00  0.00    -0.410 OA
BRANCH  15  16
ATOM     16  C   UNL A   1      37.673  23.499  25.775  1.00  0.00     0.412 C 
ATOM     17  N   UNL A   1      38.063  22.213  25.523  1.00  0.00    -0.321 N 
ATOM     18  H   UNL A   1      38.760  21.839  26.109  1.00  0.00     0.167 HD
ATOM     19  O   UNL A   1      38.192  24.149  26.673  1.00  0.00    -0.224 OA
BRANCH  17  20
ATOM     20  C   UNL A   1      37.554  21.344  24.481  1.00  0.00     0.119 C 
BRANCH  20  21
ATOM     21  C   UNL A   1      36.696  20.216  25.051  1.00  0.00     0.021 C 
BRANCH  21  22
ATOM     22  C   UNL A   1      35.185  20.405  24.860  1.00  0.00     0.002 C 
BRANCH  22  23
ATOM     23  C   UNL A   1      34.390  19.120  24.605  1.00  0.00    -0.000 C 
BRANCH  23  24
ATOM     24  C   UNL A   1      32.872  19.296  24.516  1.00  0.00    -0.003 C 
ATOM     25  C   UNL A   1      32.435  20.752  24.545  1.00  0.00     0.004 C 
ENDBRANCH  23  24
ENDBRANCH  22  23
ENDBRANCH  21  22
ENDBRANCH  20  21
ENDBRANCH  17  20
ENDBRANCH  15  16
ENDBRANCH  10  15
ENDBRANCH   4   9
ENDBRANCH   1   3
BRANCH   1  26
ATOM     26  C   UNL A   1      29.398  29.652  22.360  1.00  0.00     0.227 C 
ATOM     27  O   UNL A   1      29.332  29.976  21.167  1.00  0.00    -0.274 OA
ATOM     28  N   UNL A   1      29.794  30.621  23.231  1.00  0.00    -0.356 N 
ATOM     29  H   UNL A   1      29.935  31.503  22.816  1.00  0.00     0.163 HD
BRANCH  28  30
ATOM     30  C   UNL A   1      30.045  30.590  24.657  1.00  0.00     0.116 C 
BRANCH  30  31
ATOM     31  C   UNL A   1      31.525  30.367  24.975  1.00  0.00     0.023 C 
BRANCH  31  32
ATOM     32  C   UNL A   1      31.793  29.445  26.162  1.00  0.00     0.023 C 
BRANCH  32  33
ATOM     33  C   UNL A   1      32.632  30.055  27.278  1.00  0.00     0.116 C 
BRANCH  33  34
ATOM     34  N   UNL A   1      32.677  31.511  27.254  1.00  0.00    -0.352 N 
ATOM     35  C   UNL A   1      33.725  32.330  27.610  1.00  0.00     0.251 C 
ATOM     36  H   UNL A   1      31.859  31.964  26.944  1.00  0.00     0.163 HD
ATOM     37  O   UNL A   1      33.583  33.548  27.628  1.00  0.00    -0.269 OA
BRANCH  35  38
ATOM     38  C   UNL A   1      35.004  31.711  28.016  1.00  0.00     0.039 A 
ATOM     39  C   UNL A   1      36.138  32.516  28.139  1.00  0.00     0.014 A 
ATOM     40  C   UNL A   1      35.055  30.357  28.360  1.00  0.00     0.014 A 
ATOM     41  C   UNL A   1      37.305  31.977  28.686  1.00  0.00     0.010 A 
ATOM     42  C   UNL A   1      36.188  29.849  28.985  1.00  0.00     0.010 A 
ATOM     43  C   UNL A   1      37.326  30.653  29.156  1.00  0.00    -0.014 A 
BRANCH  43  44
ATOM     44  C   UNL A   1      38.527  30.089  29.829  1.00  0.00     0.031 A 
ATOM     45  C   UNL A   1      38.871  30.526  31.229  1.00  0.00     0.074 A 
ATOM     46  C   UNL A   1      39.340  29.247  29.158  1.00  0.00     0.049 A 
ATOM     47  N   UNL A   1      39.912  30.215  31.959  1.00  0.00    -0.248 NA
ATOM     48  C   UNL A   1      37.939  31.458  31.885  1.00  0.00     0.031 C 
ATOM     49  C   UNL A   1      39.137  28.794  27.779  1.00  0.00     0.029 A 
ATOM     50  N   UNL A   1      40.506  28.627  29.536  1.00  0.00    -0.354 N 
ATOM     51  C   UNL A   1      39.772  30.930  33.144  1.00  0.00     0.074 A 
ATOM     52  C   UNL A   1      38.573  31.728  33.016  1.00  0.00     0.031 C 
ATOM     53  C   UNL A   1      40.129  27.956  27.438  1.00  0.00     0.029 A 
ATOM     54  C   UNL A   1      41.069  27.847  28.549  1.00  0.00     0.049 A 
ATOM     55  H   UNL A   1      40.903  28.730  30.430  1.00  0.00     0.167 HD
ATOM     56  C   UNL A   1      40.563  30.906  34.243  1.00  0.00     0.034 A 
ATOM     57  C   UNL A   1      42.219  27.144  28.534  1.00  0.00     0.034 A 
ATOM     58  C   UNL A   1      41.736  30.078  34.366  1.00  0.00     0.049 A 
ATOM     59  C   UNL A   1      43.079  27.136  29.777  1.00  0.00     0.074 A 
ATOM     60  C   UNL A   1      42.556  29.912  35.468  1.00  0.00     0.029 A 
ATOM     61  N   UNL A   1      42.263  29.287  33.355  1.00  0.00    -0.354 N 
ATOM     62  N   UNL A   1      42.885  27.756  30.919  1.00  0.00    -0.248 NA
ATOM     63  C   UNL A   1      44.304  26.327  29.735  1.00  0.00     0.031 C 
ATOM     64  C   UNL A   1      43.622  29.087  35.099  1.00  0.00     0.029 A 
ATOM     65  C   UNL A   1      43.419  28.663  33.796  1.00  0.00     0.049 A 
ATOM     66  H   UNL A   1      41.873  29.183  32.457  1.00  0.00     0.167 HD
ATOM     67  C   UNL A   1      43.944  27.377  31.741  1.00  0.00     0.074 A 
ATOM     68  C   UNL A   1      44.759  26.462  30.971  1.00  0.00     0.031 C 
ATOM     69  C   UNL A   1      44.220  27.749  33.016  1.00  0.00     0.034 A 
BRANCH  56  70
ATOM     70  C   UNL A   1      40.206  31.817  35.393  1.00  0.00     0.023 A 
ATOM     71  C   UNL A   1      39.245  31.462  36.354  1.00  0.00     0.031 A 
ATOM     72  C   UNL A   1      40.866  33.050  35.542  1.00  0.00     0.131 A 
ATOM     73  C   UNL A   1      38.936  32.352  37.395  1.00  0.00     0.055 A 
ATOM     74  C   UNL A   1      40.608  33.897  36.621  1.00  0.00     0.041 A 
ATOM     75  F   UNL A   1      41.777  33.451  34.641  1.00  0.00    -0.206 F 
ATOM     76  C   UNL A   1      39.632  33.554  37.551  1.00  0.00     0.022 A 
BRANCH  73  77
ATOM     77  S   UNL A   1      37.543  31.963  38.487  1.00  0.00     0.124 S 
ATOM     78  O   UNL A   1      38.187  31.958  39.798  1.00  0.00    -0.237 OA
ATOM     79  O   UNL A   1      36.622  33.064  38.231  1.00  0.00    -0.237 OA
ATOM     80  O   UNL A   1      37.094  30.653  38.017  1.00  0.00    -0.744 OA
ENDBRANCH  73  77
ENDBRANCH  56  70
BRANCH  57  81
ATOM     81  C   UNL A   1      42.657  26.407  27.309  1.00  0.00     0.023 A 
ATOM     82  C   UNL A   1      42.279  25.071  27.090  1.00  0.00     0.031 A 
ATOM     83  C   UNL A   1      43.534  26.999  26.382  1.00  0.00     0.131 A 
ATOM     84  C   UNL A   1      42.838  24.351  26.022  1.00  0.00     0.055 A 
ATOM     85  C   UNL A   1      44.029  26.300  25.280  1.00  0.00     0.041 A 
ATOM     86  F   UNL A   1      43.930  28.272  26.539  1.00  0.00    -0.206 F 
ATOM     87  C   UNL A   1      43.698  24.960  25.106  1.00  0.00     0.022 A 
BRANCH  84  88
ATOM     88  S   UNL A   1      42.534  22.564  25.929  1.00  0.00     0.124 S 
ATOM     89  O   UNL A   1      41.080  22.505  26.022  1.00  0.00    -0.237 OA
ATOM     90  O   UNL A   1      43.110  22.227  24.632  1.00  0.00    -0.237 OA
ATOM     91  O   UNL A   1      43.255  22.036  27.086  1.00  0.00    -0.744 OA
ENDBRANCH  84  88
ENDBRANCH  57  81
BRANCH  69  92
ATOM     92  C   UNL A   1      45.422  27.118  33.676  1.00  0.00     0.023 A 
ATOM     93  C   UNL A   1      46.704  27.687  33.586  1.00  0.00     0.031 A 
ATOM     94  C   UNL A   1      45.279  25.923  34.404  1.00  0.00     0.131 A 
ATOM     95  C   UNL A   1      47.801  27.030  34.162  1.00  0.00     0.055 A 
ATOM     96  C   UNL A   1      46.362  25.311  35.034  1.00  0.00     0.041 A 
ATOM     97  F   UNL A   1      44.078  25.333  34.521  1.00  0.00    -0.206 F 
ATOM     98  C   UNL A   1      47.635  25.858  34.903  1.00  0.00     0.022 A 
BRANCH  95  99
ATOM     99  S   UNL A   1      49.466  27.678  33.848  1.00  0.00     0.124 S 
ATOM    100  O   UNL A   1      50.100  26.561  33.155  1.00  0.00    -0.237 OA
ATOM    101  O   UNL A   1      49.194  28.860  33.037  1.00  0.00    -0.237 OA
ATOM    102  O   UNL A   1      49.985  27.952  35.187  1.00  0.00    -0.744 OA
ENDBRANCH  95  99
ENDBRANCH  69  92
ENDBRANCH  43  44
ENDBRANCH  35  38
ENDBRANCH  33  34
ENDBRANCH  32  33
ENDBRANCH  31  32
ENDBRANCH  30  31
ENDBRANCH  28  30
ENDBRANCH   1  26
TORSDOF 23
ENDMDL
MODEL 2
REMARK VINA RESULT:     -10.7      2.875      8.109
REMARK SMILES CCCCCCNC(=O)Oc1cccc(-c2ccc([C@@H](C)C(=O)NCCCCNC(=O)c3ccc(-c4c5nc(c(-c6cc(S(=O)(=O)[O-])ccc6F)c6ccc([nH]6)c(-c6cc(S(=O)(=O)[O-])ccc6F)c6nc(c(-c7cc(S(=O)(=O)[O-])ccc7F)c7ccc4[nH]7)C=C6)C=C5)cc3)cc2)c1
REMARK SMILES IDX 20 1 21 2 19 3 16 4 17 5 96 6 18 7 95 8 15 9 11 10 12 11
REMARK SMILES IDX 97 12 13 13 14 14 10 15 8 16 7 17 9 19 6 20 5 21 4 22 3 23
REMARK SMILES IDX 2 24 1 25 22 26 23 27 24 28 25 30 26 31 27 32 28 33 29 34
REMARK SMILES IDX 30 35 31 37 32 38 33 39 94 40 34 41 93 42 35 43 36 44 37 45
REMARK SMILES IDX 87 46 38 47 92 48 86 49 88 50 39 51 91 52 85 53 84 54 40 56
REMARK SMILES IDX 72 57 52 58 71 59 53 60 56 61 70 62 89 63 54 64 55 65 69 67
REMARK SMILES IDX 90 68 57 69 41 70 42 71 50 72 43 73 49 74 51 75 48 76 44 77
REMARK SMILES IDX 45 78 46 79 47 80 73 81 74 82 82 83 75 84 81 85 83 86 80 87
REMARK SMILES IDX 76 88 77 89 78 90 79 91 58 92 59 93 67 94 60 95 66 96 68 97
REMARK SMILES IDX 65 98 61 99 62 100 63 101 64 102
REMARK H PARENT 7 18 24 29 29 36 88 55 56 66
REMARK Flexibility Score: inf
ROOT
ATOM      1  C   UNL A   1      29.474  27.974  22.881  1.00  0.00     0.105 C 
ATOM      2  C   UNL A   1      28.082  28.158  23.485  1.00  0.00     0.023 C 
ENDROOT
BRANCH   1   3
ATOM      3  C   UNL A   1      30.334  26.895  23.519  1.00  0.00    -0.036 A 
ATOM      4  C   UNL A   1      32.115  25.084  24.824  1.00  0.00    -0.018 A 
ATOM      5  C   UNL A   1      30.828  25.338  25.319  1.00  0.00     0.009 A 
ATOM      6  C   UNL A   1      32.469  25.713  23.620  1.00  0.00     0.009 A 
ATOM      7  C   UNL A   1      29.940  26.189  24.655  1.00  0.00     0.005 A 
ATOM      8  C   UNL A   1      31.605  26.620  22.992  1.00  0.00     0.005 A 
BRANCH   4   9
ATOM      9  C   UNL A   1      33.053  24.218  25.571  1.00  0.00    -0.015 A 
ATOM     10  C   UNL A   1      35.281  23.319  25.943  1.00  0.00     0.133 A 
ATOM     11  C   UNL A   1      34.858  22.634  27.078  1.00  0.00     0.047 A 
ATOM     12  C   UNL A   1      34.399  24.094  25.188  1.00  0.00     0.056 A 
ATOM     13  C   UNL A   1      33.530  22.739  27.472  1.00  0.00     0.004 A 
ATOM     14  C   UNL A   1      32.639  23.514  26.720  1.00  0.00     0.009 A 
BRANCH  10  15
ATOM     15  O   UNL A   1      36.601  23.100  25.525  1.00  0.00    -0.410 OA
BRANCH  15  16
ATOM     16  C   UNL A   1      36.987  21.796  25.257  1.00  0.00     0.412 C 
ATOM     17  N   UNL A   1      38.283  21.545  25.610  1.00  0.00    -0.321 N 
ATOM     18  H   UNL A   1      38.624  20.640  25.424  1.00  0.00     0.167 HD
ATOM     19  O   UNL A   1      36.290  20.923  24.757  1.00  0.00    -0.224 OA
BRANCH  17  20
ATOM     20  C   UNL A   1      39.207  22.473  26.230  1.00  0.00     0.119 C 
BRANCH  20  21
ATOM     21  C   UNL A   1      40.242  21.754  27.093  1.00  0.00     0.021 C 
BRANCH  21  22
ATOM     22  C   UNL A   1      40.484  20.288  26.710  1.00  0.00     0.002 C 
BRANCH  22  23
ATOM     23  C   UNL A   1      41.687  20.037  25.796  1.00  0.00    -0.000 C 
BRANCH  23  24
ATOM     24  C   UNL A   1      42.655  18.950  26.270  1.00  0.00    -0.003 C 
ATOM     25  C   UNL A   1      43.876  18.803  25.376  1.00  0.00     0.004 C 
ENDBRANCH  23  24
ENDBRANCH  22  23
ENDBRANCH  21  22
ENDBRANCH  20  21
ENDBRANCH  17  20
ENDBRANCH  15  16
ENDBRANCH  10  15
ENDBRANCH   4   9
ENDBRANCH   1   3
BRANCH   1  26
ATOM     26  C   UNL A   1      30.223  29.294  22.631  1.00  0.00     0.227 C 
ATOM     27  O   UNL A   1      30.402  29.684  21.469  1.00  0.00    -0.274 OA
ATOM     28  N   UNL A   1      30.698  30.098  23.621  1.00  0.00    -0.356 N 
ATOM     29  H   UNL A   1      31.089  30.943  23.301  1.00  0.00     0.163 HD
BRANCH  28  30
ATOM     30  C   UNL A   1      30.729  29.938  25.060  1.00  0.00     0.116 C 
BRANCH  30  31
ATOM     31  C   UNL A   1      32.141  30.101  25.626  1.00  0.00     0.023 C 
BRANCH  31  32
ATOM     32  C   UNL A   1      32.206  30.737  27.012  1.00  0.00     0.023 C 
BRANCH  32  33
ATOM     33  C   UNL A   1      33.297  31.785  27.191  1.00  0.00     0.116 C 
BRANCH  33  34
ATOM     34  N   UNL A   1      32.791  33.133  27.415  1.00  0.00    -0.352 N 
ATOM     35  C   UNL A   1      33.214  34.051  28.350  1.00  0.00     0.251 C 
ATOM     36  H   UNL A   1      32.058  33.422  26.825  1.00  0.00     0.163 HD
ATOM     37  O   UNL A   1      32.625  35.118  28.485  1.00  0.00    -0.269 OA
BRANCH  35  38
ATOM     38  C   UNL A   1      34.359  33.703  29.219  1.00  0.00     0.039 A 
ATOM     39  C   UNL A   1      34.140  32.900  30.340  1.00  0.00     0.014 A 
ATOM     40  C   UNL A   1      35.654  34.095  28.869  1.00  0.00     0.014 A 
ATOM     41  C   UNL A   1      35.234  32.424  31.066  1.00  0.00     0.010 A 
ATOM     42  C   UNL A   1      36.742  33.548  29.540  1.00  0.00     0.010 A 
ATOM     43  C   UNL A   1      36.545  32.706  30.646  1.00  0.00    -0.014 A 
BRANCH  43  44
ATOM     44  C   UNL A   1      37.723  32.130  31.348  1.00  0.00     0.031 A 
ATOM     45  C   UNL A   1      38.519  31.031  30.693  1.00  0.00     0.074 A 
ATOM     46  C   UNL A   1      38.031  32.544  32.595  1.00  0.00     0.049 A 
ATOM     47  N   UNL A   1      39.527  30.345  31.168  1.00  0.00    -0.248 NA
ATOM     48  C   UNL A   1      38.109  30.628  29.337  1.00  0.00     0.031 C 
ATOM     49  C   UNL A   1      37.301  33.566  33.351  1.00  0.00     0.029 A 
ATOM     50  N   UNL A   1      39.030  32.153  33.454  1.00  0.00    -0.354 N 
ATOM     51  C   UNL A   1      39.852  29.417  30.183  1.00  0.00     0.074 A 
ATOM     52  C   UNL A   1      38.904  29.595  29.106  1.00  0.00     0.031 C 
ATOM     53  C   UNL A   1      37.888  33.734  34.547  1.00  0.00     0.029 A 
ATOM     54  C   UNL A   1      39.004  32.801  34.670  1.00  0.00     0.049 A 
ATOM     55  H   UNL A   1      39.702  31.474  33.222  1.00  0.00     0.167 HD
ATOM     56  C   UNL A   1      40.862  28.515  30.174  1.00  0.00     0.034 A 
ATOM     57  C   UNL A   1      39.776  32.646  35.764  1.00  0.00     0.034 A 
ATOM     58  C   UNL A   1      41.820  28.376  31.242  1.00  0.00     0.049 A 
ATOM     59  C   UNL A   1      40.896  31.631  35.722  1.00  0.00     0.074 A 
ATOM     60  C   UNL A   1      42.933  27.555  31.294  1.00  0.00     0.029 A 
ATOM     61  N   UNL A   1      41.774  29.062  32.448  1.00  0.00    -0.354 N 
ATOM     62  N   UNL A   1      41.238  30.820  34.747  1.00  0.00    -0.248 NA
ATOM     63  C   UNL A   1      41.739  31.519  36.919  1.00  0.00     0.031 C 
ATOM     64  C   UNL A   1      43.512  27.684  32.559  1.00  0.00     0.029 A 
ATOM     65  C   UNL A   1      42.817  28.653  33.265  1.00  0.00     0.049 A 
ATOM     66  H   UNL A   1      41.102  29.739  32.687  1.00  0.00     0.167 HD
ATOM     67  C   UNL A   1      42.361  30.133  35.203  1.00  0.00     0.074 A 
ATOM     68  C   UNL A   1      42.647  30.638  36.528  1.00  0.00     0.031 C 
ATOM     69  C   UNL A   1      43.091  29.171  34.584  1.00  0.00     0.034 A 
BRANCH  56  70
ATOM     70  C   UNL A   1      40.975  27.589  28.988  1.00  0.00     0.023 A 
ATOM     71  C   UNL A   1      41.944  27.774  27.987  1.00  0.00     0.031 A 
ATOM     72  C   UNL A   1      40.111  26.484  28.876  1.00  0.00     0.131 A 
ATOM     73  C   UNL A   1      41.996  26.894  26.894  1.00  0.00     0.055 A 
ATOM     74  C   UNL A   1      40.217  25.571  27.825  1.00  0.00     0.041 A 
ATOM     75  F   UNL A   1      39.152  26.271  29.789  1.00  0.00    -0.206 F 
ATOM     76  C   UNL A   1      41.158  25.778  26.821  1.00  0.00     0.022 A 
BRANCH  73  77
ATOM     77  S   UNL A   1      43.107  27.285  25.516  1.00  0.00     0.124 S 
ATOM     78  O   UNL A   1      44.176  28.013  26.196  1.00  0.00    -0.237 OA
ATOM     79  O   UNL A   1      43.457  25.965  25.006  1.00  0.00    -0.237 OA
ATOM     80  O   UNL A   1      42.278  28.097  24.626  1.00  0.00    -0.744 OA
ENDBRANCH  73  77
ENDBRANCH  56  70
BRANCH  57  81
ATOM     81  C   UNL A   1      39.520  33.436  37.008  1.00  0.00     0.023 A 
ATOM     82  C   UNL A   1      40.225  34.622  37.274  1.00  0.00     0.031 A 
ATOM     83  C   UNL A   1      38.631  32.969  37.992  1.00  0.00     0.131 A 
ATOM     84  C   UNL A   1      40.089  35.254  38.520  1.00  0.00     0.055 A 
ATOM     85  C   UNL A   1      38.444  33.641  39.202  1.00  0.00     0.041 A 
ATOM     86  F   UNL A   1      37.930  31.840  37.794  1.00  0.00    -0.206 F 
ATOM     87  C   UNL A   1      39.192  34.780  39.480  1.00  0.00     0.022 A 
BRANCH  84  88
ATOM     88  S   UNL A   1      41.209  36.624  38.924  1.00  0.00     0.124 S 
ATOM     89  O   UNL A   1      40.279  37.626  39.431  1.00  0.00    -0.237 OA
ATOM     90  O   UNL A   1      42.092  36.011  39.909  1.00  0.00    -0.237 OA
ATOM     91  O   UNL A   1      41.832  36.943  37.641  1.00  0.00    -0.744 OA
ENDBRANCH  84  88
ENDBRANCH  57  81
BRANCH  69  92
ATOM     92  C   UNL A   1      44.305  28.647  35.313  1.00  0.00     0.023 A 
ATOM     93  C   UNL A   1      44.214  27.613  36.261  1.00  0.00     0.031 A 
ATOM     94  C   UNL A   1      45.573  29.199  35.056  1.00  0.00     0.131 A 
ATOM     95  C   UNL A   1      45.360  27.204  36.958  1.00  0.00     0.055 A 
ATOM     96  C   UNL A   1      46.720  28.741  35.703  1.00  0.00     0.041 A 
ATOM     97  F   UNL A   1      45.718  30.192  34.164  1.00  0.00    -0.206 F 
ATOM     98  C   UNL A   1      46.615  27.747  36.672  1.00  0.00     0.022 A 
BRANCH  95  99
ATOM     99  S   UNL A   1      45.174  26.019  38.320  1.00  0.00     0.124 S 
ATOM    100  O   UNL A   1      44.045  26.579  39.056  1.00  0.00    -0.237 OA
ATOM    101  O   UNL A   1      44.916  24.769  37.613  1.00  0.00    -0.237 OA
ATOM    102  O   UNL A   1      46.460  26.086  39.011  1.00  0.00    -0.744 OA
ENDBRANCH  95  99
ENDBRANCH  69  92
ENDBRANCH  43  44
ENDBRANCH  35  38
ENDBRANCH  33  34
ENDBRANCH  32  33
ENDBRANCH  31  32
ENDBRANCH  30  31
ENDBRANCH  28  30
ENDBRANCH   1  26
TORSDOF 23
ENDMDL
MODEL 3
REMARK VINA RESULT:     -10.5      1.463      2.123
REMARK SMILES CCCCCCNC(=O)Oc1cccc(-c2ccc([C@@H](C)C(=O)NCCCCNC(=O)c3ccc(-c4c5nc(c(-c6cc(S(=O)(=O)[O-])ccc6F)c6ccc([nH]6)c(-c6cc(S(=O)(=O)[O-])ccc6F)c6nc(c(-c7cc(S(=O)(=O)[O-])ccc7F)c7ccc4[nH]7)C=C6)C=C5)cc3)cc2)c1
REMARK SMILES IDX 20 1 21 2 19 3 16 4 17 5 96 6 18 7 95 8 15 9 11 10 12 11
REMARK SMILES IDX 97 12 13 13 14 14 10 15 8 16 7 17 9 19 6 20 5 21 4 22 3 23
REMARK SMILES IDX 2 24 1 25 22 26 23 27 24 28 25 30 26 31 27 32 28 33 29 34
REMARK SMILES IDX 30 35 31 37 32 38 33 39 94 40 34 41 93 42 35 43 36 44 37 45
REMARK SMILES IDX 87 46 38 47 92 48 86 49 88 50 39 51 91 52 85 53 84 54 40 56
REMARK SMILES IDX 72 57 52 58 71 59 53 60 56 61 70 62 89 63 54 64 55 65 69 67
REMARK SMILES IDX 90 68 57 69 41 70 42 71 50 72 43 73 49 74 51 75 48 76 44 77
REMARK SMILES IDX 45 78 46 79 47 80 73 81 74 82 82 83 75 84 81 85 83 86 80 87
REMARK SMILES IDX 76 88 77 89 78 90 79 91 58 92 59 93 67 94 60 95 66 96 68 97
REMARK SMILES IDX 65 98 61 99 62 100 63 101 64 102
REMARK H PARENT 7 18 24 29 29 36 88 55 56 66
REMARK Flexibility Score: inf
ROOT
ATOM      1  C   UNL A   1      28.466  29.302  22.521  1.00  0.00     0.105 C 
ATOM      2  C   UNL A   1      27.151  29.185  23.292  1.00  0.00     0.023 C 
ENDROOT
BRANCH   1   3
ATOM      3  C   UNL A   1      29.506  28.235  22.823  1.00  0.00    -0.036 A 
ATOM      4  C   UNL A   1      31.302  26.050  23.223  1.00  0.00    -0.018 A 
ATOM      5  C   UNL A   1      31.621  27.123  22.378  1.00  0.00     0.009 A 
ATOM      6  C   UNL A   1      30.083  26.128  23.914  1.00  0.00     0.009 A 
ATOM      7  C   UNL A   1      30.763  28.214  22.217  1.00  0.00     0.005 A 
ATOM      8  C   UNL A   1      29.190  27.187  23.700  1.00  0.00     0.005 A 
BRANCH   4   9
ATOM      9  C   UNL A   1      32.206  24.886  23.337  1.00  0.00    -0.015 A 
ATOM     10  C   UNL A   1      32.575  22.489  23.512  1.00  0.00     0.133 A 
ATOM     11  C   UNL A   1      33.954  22.657  23.450  1.00  0.00     0.047 A 
ATOM     12  C   UNL A   1      31.704  23.580  23.466  1.00  0.00     0.056 A 
ATOM     13  C   UNL A   1      34.471  23.941  23.328  1.00  0.00     0.004 A 
ATOM     14  C   UNL A   1      33.606  25.040  23.282  1.00  0.00     0.009 A 
BRANCH  10  15
ATOM     15  O   UNL A   1      32.104  21.189  23.740  1.00  0.00    -0.410 OA
BRANCH  15  16
ATOM     16  C   UNL A   1      32.098  20.305  22.672  1.00  0.00     0.412 C 
ATOM     17  N   UNL A   1      32.486  19.044  23.027  1.00  0.00    -0.321 N 
ATOM     18  H   UNL A   1      32.524  18.374  22.306  1.00  0.00     0.167 HD
ATOM     19  O   UNL A   1      31.792  20.569  21.516  1.00  0.00    -0.224 OA
BRANCH  17  20
ATOM     20  C   UNL A   1      32.848  18.591  24.355  1.00  0.00     0.119 C 
BRANCH  20  21
ATOM     21  C   UNL A   1      34.353  18.363  24.486  1.00  0.00     0.021 C 
BRANCH  21  22
ATOM     22  C   UNL A   1      35.153  19.605  24.899  1.00  0.00     0.002 C 
BRANCH  22  23
ATOM     23  C   UNL A   1      36.676  19.472  24.788  1.00  0.00    -0.000 C 
BRANCH  23  24
ATOM     24  C   UNL A   1      37.457  20.785  24.889  1.00  0.00    -0.003 C 
ATOM     25  C   UNL A   1      36.730  21.855  25.688  1.00  0.00     0.004 C 
ENDBRANCH  23  24
ENDBRANCH  22  23
ENDBRANCH  21  22
ENDBRANCH  20  21
ENDBRANCH  17  20
ENDBRANCH  15  16
ENDBRANCH  10  15
ENDBRANCH   4   9
ENDBRANCH   1   3
BRANCH   1  26
ATOM     26  C   UNL A   1      29.039  30.729  22.482  1.00  0.00     0.227 C 
ATOM     27  O   UNL A   1      28.914  31.408  21.454  1.00  0.00    -0.274 OA
ATOM     28  N   UNL A   1      29.670  31.324  23.531  1.00  0.00    -0.356 N 
ATOM     29  H   UNL A   1      29.914  32.265  23.373  1.00  0.00     0.163 HD
BRANCH  28  30
ATOM     30  C   UNL A   1      30.046  30.825  24.838  1.00  0.00     0.116 C 
BRANCH  30  31
ATOM     31  C   UNL A   1      31.464  30.252  24.848  1.00  0.00     0.023 C 
BRANCH  31  32
ATOM     32  C   UNL A   1      31.777  29.336  26.027  1.00  0.00     0.023 C 
BRANCH  32  33
ATOM     33  C   UNL A   1      32.908  29.809  26.932  1.00  0.00     0.116 C 
BRANCH  33  34
ATOM     34  N   UNL A   1      32.891  31.241  27.199  1.00  0.00    -0.352 N 
ATOM     35  C   UNL A   1      33.877  32.004  27.784  1.00  0.00     0.251 C 
ATOM     36  H   UNL A   1      32.076  31.722  26.927  1.00  0.00     0.163 HD
ATOM     37  O   UNL A   1      33.680  33.189  28.032  1.00  0.00    -0.269 OA
BRANCH  35  38
ATOM     38  C   UNL A   1      35.154  31.355  28.150  1.00  0.00     0.039 A 
ATOM     39  C   UNL A   1      36.334  32.098  28.088  1.00  0.00     0.014 A 
ATOM     40  C   UNL A   1      35.165  30.046  28.639  1.00  0.00     0.014 A 
ATOM     41  C   UNL A   1      37.515  31.551  28.594  1.00  0.00     0.010 A 
ATOM     42  C   UNL A   1      36.321  29.540  29.222  1.00  0.00     0.010 A 
ATOM     43  C   UNL A   1      37.510  30.286  29.207  1.00  0.00    -0.014 A 
BRANCH  43  44
ATOM     44  C   UNL A   1      38.735  29.727  29.837  1.00  0.00     0.031 A 
ATOM     45  C   UNL A   1      39.200  30.260  31.168  1.00  0.00     0.074 A 
ATOM     46  C   UNL A   1      39.462  28.796  29.184  1.00  0.00     0.049 A 
ATOM     47  N   UNL A   1      40.280  29.963  31.844  1.00  0.00    -0.248 NA
ATOM     48  C   UNL A   1      38.357  31.283  31.807  1.00  0.00     0.031 C 
ATOM     49  C   UNL A   1      39.139  28.242  27.866  1.00  0.00     0.029 A 
ATOM     50  N   UNL A   1      40.629  28.158  29.529  1.00  0.00    -0.354 N 
ATOM     51  C   UNL A   1      40.257  30.779  32.971  1.00  0.00     0.074 A 
ATOM     52  C   UNL A   1      39.084  31.617  32.862  1.00  0.00     0.031 C 
ATOM     53  C   UNL A   1      40.070  27.336  27.527  1.00  0.00     0.029 A 
ATOM     54  C   UNL A   1      41.085  27.276  28.573  1.00  0.00     0.049 A 
ATOM     55  H   UNL A   1      41.096  28.316  30.380  1.00  0.00     0.167 HD
ATOM     56  C   UNL A   1      41.127  30.810  34.009  1.00  0.00     0.034 A 
ATOM     57  C   UNL A   1      42.203  26.523  28.536  1.00  0.00     0.034 A 
ATOM     58  C   UNL A   1      42.273  29.942  34.118  1.00  0.00     0.049 A 
ATOM     59  C   UNL A   1      43.153  26.578  29.710  1.00  0.00     0.074 A 
ATOM     60  C   UNL A   1      43.166  29.830  35.169  1.00  0.00     0.029 A 
ATOM     61  N   UNL A   1      42.691  29.048  33.143  1.00  0.00    -0.354 N 
ATOM     62  N   UNL A   1      43.069  27.297  30.807  1.00  0.00    -0.248 NA
ATOM     63  C   UNL A   1      44.339  25.714  29.650  1.00  0.00     0.031 C 
ATOM     64  C   UNL A   1      44.169  28.931  34.796  1.00  0.00     0.029 A 
ATOM     65  C   UNL A   1      43.853  28.411  33.551  1.00  0.00     0.049 A 
ATOM     66  H   UNL A   1      42.231  28.889  32.287  1.00  0.00     0.167 HD
ATOM     67  C   UNL A   1      44.171  26.939  31.580  1.00  0.00     0.074 A 
ATOM     68  C   UNL A   1      44.890  25.929  30.834  1.00  0.00     0.031 C 
ATOM     69  C   UNL A   1      44.556  27.402  32.796  1.00  0.00     0.034 A 
BRANCH  56  70
ATOM     70  C   UNL A   1      40.893  31.826  35.100  1.00  0.00     0.023 A 
ATOM     71  C   UNL A   1      39.926  31.635  36.102  1.00  0.00     0.031 A 
ATOM     72  C   UNL A   1      41.676  32.993  35.151  1.00  0.00     0.131 A 
ATOM     73  C   UNL A   1      39.735  32.619  37.085  1.00  0.00     0.055 A 
ATOM     74  C   UNL A   1      41.532  33.932  36.175  1.00  0.00     0.041 A 
ATOM     75  F   UNL A   1      42.598  33.239  34.208  1.00  0.00    -0.206 F 
ATOM     76  C   UNL A   1      40.551  33.752  37.145  1.00  0.00     0.022 A 
BRANCH  73  77
ATOM     77  S   UNL A   1      38.339  32.446  38.228  1.00  0.00     0.124 S 
ATOM     78  O   UNL A   1      37.665  33.732  38.067  1.00  0.00    -0.237 OA
ATOM     79  O   UNL A   1      37.635  31.285  37.697  1.00  0.00    -0.237 OA
ATOM     80  O   UNL A   1      38.980  32.247  39.527  1.00  0.00    -0.744 OA
ENDBRANCH  73  77
ENDBRANCH  56  70
BRANCH  57  81
ATOM     81  C   UNL A   1      42.519  25.669  27.349  1.00  0.00     0.023 A 
ATOM     82  C   UNL A   1      42.060  24.344  27.264  1.00  0.00     0.031 A 
ATOM     83  C   UNL A   1      43.360  26.137  26.324  1.00  0.00     0.131 A 
ATOM     84  C   UNL A   1      42.507  23.512  26.225  1.00  0.00     0.055 A 
ATOM     85  C   UNL A   1      43.744  25.328  25.253  1.00  0.00     0.041 A 
ATOM     86  F   UNL A   1      43.830  27.395  26.352  1.00  0.00    -0.206 F 
ATOM     87  C   UNL A   1      43.334  24.000  25.210  1.00  0.00     0.022 A 
BRANCH  84  88
ATOM     88  S   UNL A   1      42.108  21.743  26.297  1.00  0.00     0.124 S 
ATOM     89  O   UNL A   1      40.696  21.744  25.933  1.00  0.00    -0.237 OA
ATOM     90  O   UNL A   1      43.026  21.186  25.311  1.00  0.00    -0.237 OA
ATOM     91  O   UNL A   1      42.394  21.386  27.686  1.00  0.00    -0.744 OA
ENDBRANCH  84  88
ENDBRANCH  57  81
BRANCH  69  92
ATOM     92  C   UNL A   1      45.779  26.774  33.420  1.00  0.00     0.023 A 
ATOM     93  C   UNL A   1      47.065  27.311  33.238  1.00  0.00     0.031 A 
ATOM     94  C   UNL A   1      45.652  25.614  34.205  1.00  0.00     0.131 A 
ATOM     95  C   UNL A   1      48.178  26.656  33.785  1.00  0.00     0.055 A 
ATOM     96  C   UNL A   1      46.755  25.006  34.804  1.00  0.00     0.041 A 
ATOM     97  F   UNL A   1      44.448  25.055  34.409  1.00  0.00    -0.206 F 
ATOM     98  C   UNL A   1      48.030  25.519  34.583  1.00  0.00     0.022 A 
BRANCH  95  99
ATOM     99  S   UNL A   1      49.837  27.253  33.357  1.00  0.00     0.124 S 
ATOM    100  O   UNL A   1      50.038  26.669  32.035  1.00  0.00    -0.237 OA
ATOM    101  O   UNL A   1      49.666  28.702  33.395  1.00  0.00    -0.237 OA
ATOM    102  O   UNL A   1      50.683  26.702  34.415  1.00  0.00    -0.744 OA
ENDBRANCH  95  99
ENDBRANCH  69  92
ENDBRANCH  43  44
ENDBRANCH  35  38
ENDBRANCH  33  34
ENDBRANCH  32  33
ENDBRANCH  31  32
ENDBRANCH  30  31
ENDBRANCH  28  30
ENDBRANCH   1  26
TORSDOF 23
ENDMDL
