MODEL 1
REMARK VINA RESULT:     -12.9      0.000      0.000
REMARK SMILES Cc1ccccc1C(=O)Nc1cc(C(=O)NCCCCNC(=O)c2ccc(-c3c4nc(c(-c5cc(S(=O)(=O)[O-])ccc5F)c5ccc([nH]5)c(-c5cc(S(=O)(=O)[O-])ccc5F)c5nc(c(-c6cc(S(=O)(=O)[O-])ccc6F)c6ccc3[nH]6)C=C5)C=C4)cc2)ccc1N1CC[NH+](CC(=O)Nc2ccc(F)cc2)CC1
REMARK SMILES IDX 18 1 17 2 16 3 14 4 15 5 13 7 11 8 12 9 89 10 88 11 87 12
REMARK SMILES IDX 10 13 8 14 9 15 7 17 1 18 2 19 3 20 4 21 6 22 5 23 90 24
REMARK SMILES IDX 91 25 106 26 92 27 105 28 93 29 94 31 95 32 96 33 97 34
REMARK SMILES IDX 98 36 99 37 104 38 100 39 103 40 101 41 102 42 19 43 20 44
REMARK SMILES IDX 21 45 22 46 23 48 24 49 25 50 86 51 26 52 85 53 27 54 28 55
REMARK SMILES IDX 29 56 79 57 30 58 84 59 78 60 80 61 31 62 83 63 77 64 76 65
REMARK SMILES IDX 32 67 64 68 44 69 63 70 45 71 48 72 62 73 81 74 46 75 47 76
REMARK SMILES IDX 61 78 82 79 49 80 33 81 34 82 42 83 35 84 41 85 43 86 40 87
REMARK SMILES IDX 36 88 37 89 38 90 39 91 65 92 66 93 74 94 67 95 73 96 75 97
REMARK SMILES IDX 72 98 68 99 69 100 70 101 71 102 50 103 51 104 59 105 52 106
REMARK SMILES IDX 58 107 60 108 57 109 53 110 54 111 55 112 56 113
REMARK H PARENT 16 6 10 16 93 30 97 35 21 47 80 66 48 77
REMARK Flexibility Score: inf
ROOT
ATOM      1  C   UNL A   1      35.274  32.309  27.802  1.00  0.00     0.023 C 
ENDROOT
BRANCH   1   2
ATOM      2  C   UNL A   1      34.067  31.371  27.994  1.00  0.00     0.116 C 
BRANCH   2   3
ATOM      3  N   UNL A   1      32.891  31.785  27.232  1.00  0.00    -0.352 N 
ATOM      4  C   UNL A   1      31.915  31.101  26.540  1.00  0.00     0.251 C 
ATOM      5  O   UNL A   1      30.996  31.770  26.060  1.00  0.00    -0.269 OA
ATOM      6  H   UNL A   1      32.768  32.761  27.209  1.00  0.00     0.163 HD
BRANCH   4   7
ATOM      7  C   UNL A   1      31.887  29.619  26.344  1.00  0.00     0.042 A 
ATOM      8  C   UNL A   1      31.929  27.625  24.968  1.00  0.00     0.065 A 
ATOM      9  C   UNL A   1      31.833  29.008  25.109  1.00  0.00     0.042 A 
ATOM     10  C   UNL A   1      31.984  26.741  26.078  1.00  0.00     0.061 A 
ATOM     11  C   UNL A   1      31.966  27.366  27.333  1.00  0.00     0.029 A 
ATOM     12  C   UNL A   1      31.946  28.774  27.464  1.00  0.00     0.016 A 
BRANCH   8  13
ATOM     13  N   UNL A   1      31.990  27.144  23.652  1.00  0.00    -0.320 N 
ATOM     14  C   UNL A   1      31.067  27.409  22.647  1.00  0.00     0.255 C 
ATOM     15  O   UNL A   1      31.454  27.346  21.477  1.00  0.00    -0.269 OA
ATOM     16  H   UNL A   1      32.753  26.567  23.420  1.00  0.00     0.170 HD
BRANCH  14  17
ATOM     17  C   UNL A   1      29.655  27.788  22.920  1.00  0.00     0.043 A 
ATOM     18  C   UNL A   1      29.598  30.153  21.860  1.00  0.00     0.045 C 
ATOM     19  C   UNL A   1      29.002  29.006  22.618  1.00  0.00    -0.038 A 
ATOM     20  C   UNL A   1      27.671  29.186  23.051  1.00  0.00     0.004 A 
ATOM     21  C   UNL A   1      26.986  28.168  23.705  1.00  0.00     0.000 A 
ATOM     22  C   UNL A   1      28.935  26.759  23.532  1.00  0.00     0.014 A 
ATOM     23  C   UNL A   1      27.619  26.954  23.928  1.00  0.00     0.001 A 
ENDBRANCH  14  17
ENDBRANCH   8  13
BRANCH  10  24
ATOM     24  N   UNL A   1      32.127  25.366  25.939  1.00  0.00    -0.359 N 
ATOM     25  C   UNL A   1      31.243  24.340  26.540  1.00  0.00     0.178 C 
ATOM     26  C   UNL A   1      33.446  24.803  25.667  1.00  0.00     0.178 C 
ATOM     27  C   UNL A   1      31.418  22.910  25.863  1.00  0.00     0.284 C 
ATOM     28  C   UNL A   1      33.263  23.744  24.584  1.00  0.00     0.284 C 
ATOM     29  N   UNL A   1      32.686  22.542  25.179  1.00  0.00    -0.324 N 
ATOM     30  H   UNL A   1      32.406  21.864  24.470  1.00  0.00     0.348 HD
BRANCH  29  31
ATOM     31  C   UNL A   1      33.688  21.729  25.913  1.00  0.00     0.364 C 
BRANCH  31  32
ATOM     32  C   UNL A   1      34.621  20.829  25.103  1.00  0.00     0.279 C 
ATOM     33  O   UNL A   1      34.167  19.792  24.593  1.00  0.00    -0.268 OA
ATOM     34  N   UNL A   1      35.936  21.098  24.832  1.00  0.00    -0.321 N 
ATOM     35  H   UNL A   1      36.262  20.545  24.085  1.00  0.00     0.170 HD
BRANCH  34  36
ATOM     36  C   UNL A   1      36.959  21.943  25.321  1.00  0.00     0.041 A 
ATOM     37  C   UNL A   1      38.185  21.318  25.620  1.00  0.00     0.029 A 
ATOM     38  C   UNL A   1      36.840  23.294  25.629  1.00  0.00     0.029 A 
ATOM     39  C   UNL A   1      39.234  22.013  26.239  1.00  0.00     0.041 A 
ATOM     40  C   UNL A   1      37.866  23.983  26.301  1.00  0.00     0.041 A 
ATOM     41  C   UNL A   1      39.055  23.338  26.596  1.00  0.00     0.123 A 
ATOM     42  F   UNL A   1      40.041  23.999  27.215  1.00  0.00    -0.207 F 
ENDBRANCH  34  36
ENDBRANCH  31  32
ENDBRANCH  29  31
ENDBRANCH  10  24
ENDBRANCH   4   7
ENDBRANCH   2   3
ENDBRANCH   1   2
BRANCH   1  43
ATOM     43  C   UNL A   1      36.453  31.996  28.718  1.00  0.00     0.023 C 
BRANCH  43  44
ATOM     44  C   UNL A   1      36.036  31.866  30.177  1.00  0.00     0.116 C 
BRANCH  44  45
ATOM     45  N   UNL A   1      36.807  32.651  31.127  1.00  0.00    -0.352 N 
ATOM     46  C   UNL A   1      38.053  32.373  31.673  1.00  0.00     0.251 C 
ATOM     47  H   UNL A   1      36.390  33.494  31.422  1.00  0.00     0.163 HD
ATOM     48  O   UNL A   1      38.520  33.074  32.556  1.00  0.00    -0.269 OA
BRANCH  46  49
ATOM     49  C   UNL A   1      38.875  31.276  31.093  1.00  0.00     0.039 A 
ATOM     50  C   UNL A   1      38.722  29.990  31.631  1.00  0.00     0.014 A 
ATOM     51  C   UNL A   1      39.912  31.538  30.206  1.00  0.00     0.014 A 
ATOM     52  C   UNL A   1      39.743  29.055  31.477  1.00  0.00     0.010 A 
ATOM     53  C   UNL A   1      40.981  30.671  30.162  1.00  0.00     0.010 A 
ATOM     54  C   UNL A   1      40.920  29.456  30.848  1.00  0.00    -0.014 A 
BRANCH  54  55
ATOM     55  C   UNL A   1      42.187  28.746  30.954  1.00  0.00     0.031 A 
ATOM     56  C   UNL A   1      42.461  27.584  30.096  1.00  0.00     0.074 A 
ATOM     57  C   UNL A   1      43.154  29.248  31.750  1.00  0.00     0.049 A 
ATOM     58  N   UNL A   1      43.402  26.730  30.306  1.00  0.00    -0.248 NA
ATOM     59  C   UNL A   1      41.622  27.241  28.955  1.00  0.00     0.031 C 
ATOM     60  C   UNL A   1      44.574  28.909  31.771  1.00  0.00     0.029 A 
ATOM     61  N   UNL A   1      42.982  30.030  32.884  1.00  0.00    -0.354 N 
ATOM     62  C   UNL A   1      43.503  25.936  29.188  1.00  0.00     0.074 A 
ATOM     63  C   UNL A   1      42.291  26.198  28.455  1.00  0.00     0.031 C 
ATOM     64  C   UNL A   1      45.064  29.203  32.987  1.00  0.00     0.029 A 
ATOM     65  C   UNL A   1      43.938  29.604  33.813  1.00  0.00     0.049 A 
ATOM     66  H   UNL A   1      42.318  30.746  33.010  1.00  0.00     0.167 HD
ATOM     67  C   UNL A   1      44.678  25.280  28.963  1.00  0.00     0.034 A 
ATOM     68  C   UNL A   1      43.621  29.097  35.038  1.00  0.00     0.034 A 
ATOM     69  C   UNL A   1      45.540  25.341  30.156  1.00  0.00     0.049 A 
ATOM     70  C   UNL A   1      44.176  27.693  35.190  1.00  0.00     0.074 A 
ATOM     71  C   UNL A   1      46.690  26.049  30.466  1.00  0.00     0.029 A 
ATOM     72  N   UNL A   1      45.077  24.811  31.362  1.00  0.00    -0.354 N 
ATOM     73  N   UNL A   1      44.514  26.935  34.179  1.00  0.00    -0.248 NA
ATOM     74  C   UNL A   1      44.416  27.045  36.473  1.00  0.00     0.031 C 
ATOM     75  C   UNL A   1      46.855  26.021  31.880  1.00  0.00     0.029 A 
ATOM     76  C   UNL A   1      45.837  25.256  32.426  1.00  0.00     0.049 A 
ATOM     77  H   UNL A   1      44.309  24.200  31.443  1.00  0.00     0.167 HD
ATOM     78  C   UNL A   1      45.056  25.763  34.638  1.00  0.00     0.074 A 
ATOM     79  C   UNL A   1      44.956  25.876  36.085  1.00  0.00     0.031 C 
ATOM     80  C   UNL A   1      45.556  24.810  33.790  1.00  0.00     0.034 A 
BRANCH  67  81
ATOM     81  C   UNL A   1      45.175  24.824  27.593  1.00  0.00     0.023 A 
ATOM     82  C   UNL A   1      44.667  23.622  27.047  1.00  0.00     0.031 A 
ATOM     83  C   UNL A   1      46.191  25.429  26.820  1.00  0.00     0.131 A 
ATOM     84  C   UNL A   1      45.198  23.058  25.865  1.00  0.00     0.055 A 
ATOM     85  C   UNL A   1      46.721  24.868  25.649  1.00  0.00     0.041 A 
ATOM     86  F   UNL A   1      46.736  26.606  27.126  1.00  0.00    -0.206 F 
ATOM     87  C   UNL A   1      46.234  23.669  25.171  1.00  0.00     0.022 A 
BRANCH  84  88
ATOM     88  S   UNL A   1      44.538  21.486  25.247  1.00  0.00     0.124 S 
ATOM     89  O   UNL A   1      45.647  20.570  25.490  1.00  0.00    -0.237 OA
ATOM     90  O   UNL A   1      43.350  21.302  26.073  1.00  0.00    -0.237 OA
ATOM     91  O   UNL A   1      44.268  21.762  23.835  1.00  0.00    -0.744 OA
ENDBRANCH  84  88
ENDBRANCH  67  81
BRANCH  68  92
ATOM     92  C   UNL A   1      42.332  29.616  35.587  1.00  0.00     0.023 A 
ATOM     93  C   UNL A   1      42.375  30.841  36.296  1.00  0.00     0.031 A 
ATOM     94  C   UNL A   1      41.093  29.202  35.081  1.00  0.00     0.131 A 
ATOM     95  C   UNL A   1      41.254  31.685  36.316  1.00  0.00     0.055 A 
ATOM     96  C   UNL A   1      39.956  30.020  35.172  1.00  0.00     0.041 A 
ATOM     97  F   UNL A   1      40.990  28.074  34.364  1.00  0.00    -0.206 F 
ATOM     98  C   UNL A   1      40.042  31.284  35.756  1.00  0.00     0.022 A 
BRANCH  95  99
ATOM     99  S   UNL A   1      41.444  33.392  36.914  1.00  0.00     0.124 S 
ATOM    100  O   UNL A   1      42.870  33.468  37.204  1.00  0.00    -0.237 OA
ATOM    101  O   UNL A   1      40.986  34.161  35.759  1.00  0.00    -0.237 OA
ATOM    102  O   UNL A   1      40.568  33.446  38.081  1.00  0.00    -0.744 OA
ENDBRANCH  95  99
ENDBRANCH  68  92
BRANCH  80 103
ATOM    103  C   UNL A   1      45.929  23.392  34.180  1.00  0.00     0.023 A 
ATOM    104  C   UNL A   1      47.252  22.965  34.366  1.00  0.00     0.031 A 
ATOM    105  C   UNL A   1      44.931  22.431  34.485  1.00  0.00     0.131 A 
ATOM    106  C   UNL A   1      47.546  21.642  34.746  1.00  0.00     0.055 A 
ATOM    107  C   UNL A   1      45.222  21.144  34.945  1.00  0.00     0.041 A 
ATOM    108  F   UNL A   1      43.623  22.704  34.365  1.00  0.00    -0.206 F 
ATOM    109  C   UNL A   1      46.540  20.734  35.064  1.00  0.00     0.022 A 
BRANCH 106 110
ATOM    110  S   UNL A   1      49.279  21.120  34.760  1.00  0.00     0.124 S 
ATOM    111  O   UNL A   1      49.970  22.385  34.996  1.00  0.00    -0.237 OA
ATOM    112  O   UNL A   1      49.313  20.166  35.865  1.00  0.00    -0.237 OA
ATOM    113  O   UNL A   1      49.478  20.540  33.434  1.00  0.00    -0.744 OA
ENDBRANCH 106 110
ENDBRANCH  80 103
ENDBRANCH  54  55
ENDBRANCH  46  49
ENDBRANCH  44  45
ENDBRANCH  43  44
ENDBRANCH   1  43
TORSDOF 20
ENDMDL
MODEL 2
REMARK VINA RESULT:     -12.8      2.153      3.028
REMARK SMILES Cc1ccccc1C(=O)Nc1cc(C(=O)NCCCCNC(=O)c2ccc(-c3c4nc(c(-c5cc(S(=O)(=O)[O-])ccc5F)c5ccc([nH]5)c(-c5cc(S(=O)(=O)[O-])ccc5F)c5nc(c(-c6cc(S(=O)(=O)[O-])ccc6F)c6ccc3[nH]6)C=C5)C=C4)cc2)ccc1N1CC[NH+](CC(=O)Nc2ccc(F)cc2)CC1
REMARK SMILES IDX 18 1 17 2 16 3 14 4 15 5 13 7 11 8 12 9 89 10 88 11 87 12
REMARK SMILES IDX 10 13 8 14 9 15 7 17 1 18 2 19 3 20 4 21 6 22 5 23 90 24
REMARK SMILES IDX 91 25 106 26 92 27 105 28 93 29 94 31 95 32 96 33 97 34
REMARK SMILES IDX 98 36 99 37 104 38 100 39 103 40 101 41 102 42 19 43 20 44
REMARK SMILES IDX 21 45 22 46 23 48 24 49 25 50 86 51 26 52 85 53 27 54 28 55
REMARK SMILES IDX 29 56 79 57 30 58 84 59 78 60 80 61 31 62 83 63 77 64 76 65
REMARK SMILES IDX 32 67 64 68 44 69 63 70 45 71 48 72 62 73 81 74 46 75 47 76
REMARK SMILES IDX 61 78 82 79 49 80 33 81 34 82 42 83 35 84 41 85 43 86 40 87
REMARK SMILES IDX 36 88 37 89 38 90 39 91 65 92 66 93 74 94 67 95 73 96 75 97
REMARK SMILES IDX 72 98 68 99 69 100 70 101 71 102 50 103 51 104 59 105 52 106
REMARK SMILES IDX 58 107 60 108 57 109 53 110 54 111 55 112 56 113
REMARK H PARENT 16 6 10 16 93 30 97 35 21 47 80 66 48 77
REMARK Flexibility Score: inf
ROOT
ATOM      1  C   UNL A   1      35.280  31.858  28.696  1.00  0.00     0.023 C 
ENDROOT
BRANCH   1   2
ATOM      2  C   UNL A   1      34.571  31.016  27.618  1.00  0.00     0.116 C 
BRANCH   2   3
ATOM      3  N   UNL A   1      33.306  31.598  27.175  1.00  0.00    -0.352 N 
ATOM      4  C   UNL A   1      32.123  31.066  26.712  1.00  0.00     0.251 C 
ATOM      5  O   UNL A   1      31.201  31.855  26.490  1.00  0.00    -0.269 OA
ATOM      6  H   UNL A   1      33.296  32.582  27.217  1.00  0.00     0.163 HD
BRANCH   4   7
ATOM      7  C   UNL A   1      31.877  29.609  26.475  1.00  0.00     0.042 A 
ATOM      8  C   UNL A   1      31.715  27.654  25.054  1.00  0.00     0.065 A 
ATOM      9  C   UNL A   1      31.827  29.032  25.223  1.00  0.00     0.042 A 
ATOM     10  C   UNL A   1      31.540  26.757  26.141  1.00  0.00     0.061 A 
ATOM     11  C   UNL A   1      31.519  27.360  27.407  1.00  0.00     0.029 A 
ATOM     12  C   UNL A   1      31.711  28.750  27.574  1.00  0.00     0.016 A 
BRANCH   8  13
ATOM     13  N   UNL A   1      31.805  27.187  23.735  1.00  0.00    -0.320 N 
ATOM     14  C   UNL A   1      30.881  27.425  22.724  1.00  0.00     0.255 C 
ATOM     15  O   UNL A   1      31.279  27.387  21.557  1.00  0.00    -0.269 OA
ATOM     16  H   UNL A   1      32.592  26.643  23.503  1.00  0.00     0.170 HD
BRANCH  14  17
ATOM     17  C   UNL A   1      29.453  27.745  22.988  1.00  0.00     0.043 A 
ATOM     18  C   UNL A   1      29.295  30.091  21.896  1.00  0.00     0.045 C 
ATOM     19  C   UNL A   1      28.748  28.929  22.668  1.00  0.00    -0.038 A 
ATOM     20  C   UNL A   1      27.409  29.056  23.095  1.00  0.00     0.004 A 
ATOM     21  C   UNL A   1      26.767  28.018  23.762  1.00  0.00     0.000 A 
ATOM     22  C   UNL A   1      28.777  26.694  23.613  1.00  0.00     0.014 A 
ATOM     23  C   UNL A   1      27.452  26.836  24.003  1.00  0.00     0.001 A 
ENDBRANCH  14  17
ENDBRANCH   8  13
BRANCH  10  24
ATOM     24  N   UNL A   1      31.474  25.379  25.977  1.00  0.00    -0.359 N 
ATOM     25  C   UNL A   1      30.409  24.494  26.506  1.00  0.00     0.178 C 
ATOM     26  C   UNL A   1      32.703  24.620  25.763  1.00  0.00     0.178 C 
ATOM     27  C   UNL A   1      30.398  23.065  25.805  1.00  0.00     0.284 C 
ATOM     28  C   UNL A   1      32.419  23.620  24.647  1.00  0.00     0.284 C 
ATOM     29  N   UNL A   1      31.630  22.513  25.181  1.00  0.00    -0.324 N 
ATOM     30  H   UNL A   1      31.289  21.899  24.442  1.00  0.00     0.348 HD
BRANCH  29  31
ATOM     31  C   UNL A   1      32.450  21.543  25.948  1.00  0.00     0.364 C 
BRANCH  31  32
ATOM     32  C   UNL A   1      33.001  20.322  25.211  1.00  0.00     0.279 C 
ATOM     33  O   UNL A   1      32.245  19.365  24.980  1.00  0.00    -0.268 OA
ATOM     34  N   UNL A   1      34.272  20.207  24.717  1.00  0.00    -0.321 N 
ATOM     35  H   UNL A   1      34.329  19.480  24.055  1.00  0.00     0.170 HD
BRANCH  34  36
ATOM     36  C   UNL A   1      35.528  20.836  24.888  1.00  0.00     0.041 A 
ATOM     37  C   UNL A   1      36.651  19.986  24.867  1.00  0.00     0.029 A 
ATOM     38  C   UNL A   1      35.749  22.178  25.177  1.00  0.00     0.029 A 
ATOM     39  C   UNL A   1      37.938  20.460  25.161  1.00  0.00     0.041 A 
ATOM     40  C   UNL A   1      37.027  22.649  25.528  1.00  0.00     0.041 A 
ATOM     41  C   UNL A   1      38.111  21.787  25.514  1.00  0.00     0.123 A 
ATOM     42  F   UNL A   1      39.331  22.238  25.825  1.00  0.00    -0.207 F 
ENDBRANCH  34  36
ENDBRANCH  31  32
ENDBRANCH  29  31
ENDBRANCH  10  24
ENDBRANCH   4   7
ENDBRANCH   2   3
ENDBRANCH   1   2
BRANCH   1  43
ATOM     43  C   UNL A   1      35.775  31.046  29.889  1.00  0.00     0.023 C 
BRANCH  43  44
ATOM     44  C   UNL A   1      35.233  31.569  31.213  1.00  0.00     0.116 C 
BRANCH  44  45
ATOM     45  N   UNL A   1      34.840  32.970  31.225  1.00  0.00    -0.352 N 
ATOM     46  C   UNL A   1      35.595  34.079  31.581  1.00  0.00     0.251 C 
ATOM     47  H   UNL A   1      33.915  33.155  30.943  1.00  0.00     0.163 HD
ATOM     48  O   UNL A   1      35.085  35.185  31.656  1.00  0.00    -0.269 OA
BRANCH  46  49
ATOM     49  C   UNL A   1      37.066  33.934  31.758  1.00  0.00     0.039 A 
ATOM     50  C   UNL A   1      37.884  34.155  30.640  1.00  0.00     0.014 A 
ATOM     51  C   UNL A   1      37.606  33.389  32.917  1.00  0.00     0.014 A 
ATOM     52  C   UNL A   1      39.163  33.603  30.606  1.00  0.00     0.010 A 
ATOM     53  C   UNL A   1      38.812  32.728  32.838  1.00  0.00     0.010 A 
ATOM     54  C   UNL A   1      39.561  32.785  31.661  1.00  0.00    -0.014 A 
BRANCH  54  55
ATOM     55  C   UNL A   1      40.672  31.846  31.594  1.00  0.00     0.031 A 
ATOM     56  C   UNL A   1      40.566  30.629  30.776  1.00  0.00     0.074 A 
ATOM     57  C   UNL A   1      41.843  32.174  32.180  1.00  0.00     0.049 A 
ATOM     58  N   UNL A   1      41.354  29.615  30.876  1.00  0.00    -0.248 NA
ATOM     59  C   UNL A   1      39.488  30.423  29.819  1.00  0.00     0.031 C 
ATOM     60  C   UNL A   1      43.155  31.566  31.980  1.00  0.00     0.029 A 
ATOM     61  N   UNL A   1      42.025  33.007  33.275  1.00  0.00    -0.354 N 
ATOM     62  C   UNL A   1      41.103  28.784  29.809  1.00  0.00     0.074 A 
ATOM     63  C   UNL A   1      39.850  29.256  29.279  1.00  0.00     0.031 C 
ATOM     64  C   UNL A   1      43.901  31.794  33.073  1.00  0.00     0.029 A 
ATOM     65  C   UNL A   1      43.036  32.430  34.052  1.00  0.00     0.049 A 
ATOM     66  H   UNL A   1      41.539  33.841  33.468  1.00  0.00     0.167 HD
ATOM     67  C   UNL A   1      42.076  27.906  29.429  1.00  0.00     0.034 A 
ATOM     68  C   UNL A   1      42.856  32.030  35.343  1.00  0.00     0.034 A 
ATOM     69  C   UNL A   1      43.134  27.834  30.450  1.00  0.00     0.049 A 
ATOM     70  C   UNL A   1      43.158  30.549  35.486  1.00  0.00     0.074 A 
ATOM     71  C   UNL A   1      44.433  28.313  30.515  1.00  0.00     0.029 A 
ATOM     72  N   UNL A   1      42.804  27.438  31.749  1.00  0.00    -0.354 N 
ATOM     73  N   UNL A   1      43.162  29.712  34.481  1.00  0.00    -0.248 NA
ATOM     74  C   UNL A   1      43.499  29.905  36.748  1.00  0.00     0.031 C 
ATOM     75  C   UNL A   1      44.840  28.294  31.879  1.00  0.00     0.029 A 
ATOM     76  C   UNL A   1      43.813  27.757  32.638  1.00  0.00     0.049 A 
ATOM     77  H   UNL A   1      41.964  26.990  31.998  1.00  0.00     0.167 HD
ATOM     78  C   UNL A   1      43.549  28.470  34.914  1.00  0.00     0.074 A 
ATOM     79  C   UNL A   1      43.734  28.642  36.348  1.00  0.00     0.031 C 
ATOM     80  C   UNL A   1      43.703  27.414  34.055  1.00  0.00     0.034 A 
BRANCH  67  81
ATOM     81  C   UNL A   1      42.226  27.323  28.025  1.00  0.00     0.023 A 
ATOM     82  C   UNL A   1      42.454  25.934  27.883  1.00  0.00     0.031 A 
ATOM     83  C   UNL A   1      42.262  28.044  26.811  1.00  0.00     0.131 A 
ATOM     84  C   UNL A   1      42.762  25.354  26.632  1.00  0.00     0.055 A 
ATOM     85  C   UNL A   1      42.571  27.470  25.570  1.00  0.00     0.041 A 
ATOM     86  F   UNL A   1      41.989  29.346  26.730  1.00  0.00    -0.206 F 
ATOM     87  C   UNL A   1      42.836  26.120  25.475  1.00  0.00     0.022 A 
BRANCH  84  88
ATOM     88  S   UNL A   1      43.098  23.575  26.527  1.00  0.00     0.124 S 
ATOM     89  O   UNL A   1      42.215  23.033  27.554  1.00  0.00    -0.237 OA
ATOM     90  O   UNL A   1      42.748  23.274  25.143  1.00  0.00    -0.237 OA
ATOM     91  O   UNL A   1      44.526  23.481  26.833  1.00  0.00    -0.744 OA
ENDBRANCH  84  88
ENDBRANCH  67  81
BRANCH  68  92
ATOM     92  C   UNL A   1      41.805  32.805  36.071  1.00  0.00     0.023 A 
ATOM     93  C   UNL A   1      40.477  32.318  36.005  1.00  0.00     0.031 A 
ATOM     94  C   UNL A   1      42.125  33.681  37.117  1.00  0.00     0.131 A 
ATOM     95  C   UNL A   1      39.583  32.561  37.059  1.00  0.00     0.055 A 
ATOM     96  C   UNL A   1      41.199  33.980  38.128  1.00  0.00     0.041 A 
ATOM     97  F   UNL A   1      43.374  34.144  37.262  1.00  0.00    -0.206 F 
ATOM     98  C   UNL A   1      39.935  33.389  38.124  1.00  0.00     0.022 A 
BRANCH  95  99
ATOM     99  S   UNL A   1      38.020  31.635  37.122  1.00  0.00     0.124 S 
ATOM    100  O   UNL A   1      37.707  31.640  38.546  1.00  0.00    -0.237 OA
ATOM    101  O   UNL A   1      37.156  32.456  36.277  1.00  0.00    -0.237 OA
ATOM    102  O   UNL A   1      38.372  30.330  36.568  1.00  0.00    -0.744 OA
ENDBRANCH  95  99
ENDBRANCH  68  92
BRANCH  80 103
ATOM    103  C   UNL A   1      43.869  25.963  34.464  1.00  0.00     0.023 A 
ATOM    104  C   UNL A   1      45.116  25.332  34.579  1.00  0.00     0.031 A 
ATOM    105  C   UNL A   1      42.753  25.182  34.860  1.00  0.00     0.131 A 
ATOM    106  C   UNL A   1      45.219  23.985  34.980  1.00  0.00     0.055 A 
ATOM    107  C   UNL A   1      42.865  23.874  35.340  1.00  0.00     0.041 A 
ATOM    108  F   UNL A   1      41.501  25.660  34.814  1.00  0.00    -0.206 F 
ATOM    109  C   UNL A   1      44.104  23.259  35.388  1.00  0.00     0.022 A 
BRANCH 106 110
ATOM    110  S   UNL A   1      46.844  23.190  34.901  1.00  0.00     0.124 S 
ATOM    111  O   UNL A   1      47.268  23.241  36.298  1.00  0.00    -0.237 OA
ATOM    112  O   UNL A   1      46.521  21.863  34.386  1.00  0.00    -0.237 OA
ATOM    113  O   UNL A   1      47.603  24.043  33.989  1.00  0.00    -0.744 OA
ENDBRANCH 106 110
ENDBRANCH  80 103
ENDBRANCH  54  55
ENDBRANCH  46  49
ENDBRANCH  44  45
ENDBRANCH  43  44
ENDBRANCH   1  43
TORSDOF 20
ENDMDL
MODEL 3
REMARK VINA RESULT:     -11.9      1.834      2.085
REMARK SMILES Cc1ccccc1C(=O)Nc1cc(C(=O)NCCCCNC(=O)c2ccc(-c3c4nc(c(-c5cc(S(=O)(=O)[O-])ccc5F)c5ccc([nH]5)c(-c5cc(S(=O)(=O)[O-])ccc5F)c5nc(c(-c6cc(S(=O)(=O)[O-])ccc6F)c6ccc3[nH]6)C=C5)C=C4)cc2)ccc1N1CC[NH+](CC(=O)Nc2ccc(F)cc2)CC1
REMARK SMILES IDX 18 1 17 2 16 3 14 4 15 5 13 7 11 8 12 9 89 10 88 11 87 12
REMARK SMILES IDX 10 13 8 14 9 15 7 17 1 18 2 19 3 20 4 21 6 22 5 23 90 24
REMARK SMILES IDX 91 25 106 26 92 27 105 28 93 29 94 31 95 32 96 33 97 34
REMARK SMILES IDX 98 36 99 37 104 38 100 39 103 40 101 41 102 42 19 43 20 44
REMARK SMILES IDX 21 45 22 46 23 48 24 49 25 50 86 51 26 52 85 53 27 54 28 55
REMARK SMILES IDX 29 56 79 57 30 58 84 59 78 60 80 61 31 62 83 63 77 64 76 65
REMARK SMILES IDX 32 67 64 68 44 69 63 70 45 71 48 72 62 73 81 74 46 75 47 76
REMARK SMILES IDX 61 78 82 79 49 80 33 81 34 82 42 83 35 84 41 85 43 86 40 87
REMARK SMILES IDX 36 88 37 89 38 90 39 91 65 92 66 93 74 94 67 95 73 96 75 97
REMARK SMILES IDX 72 98 68 99 69 100 70 101 71 102 50 103 51 104 59 105 52 106
REMARK SMILES IDX 58 107 60 108 57 109 53 110 54 111 55 112 56 113
REMARK H PARENT 16 6 10 16 93 30 97 35 21 47 80 66 48 77
REMARK Flexibility Score: inf
ROOT
ATOM      1  C   UNL A   1      35.135  32.225  27.953  1.00  0.00     0.023 C 
ENDROOT
BRANCH   1   2
ATOM      2  C   UNL A   1      33.997  31.187  27.941  1.00  0.00     0.116 C 
BRANCH   2   3
ATOM      3  N   UNL A   1      32.845  31.607  27.146  1.00  0.00    -0.352 N 
ATOM      4  C   UNL A   1      31.874  30.927  26.444  1.00  0.00     0.251 C 
ATOM      5  O   UNL A   1      30.977  31.602  25.932  1.00  0.00    -0.269 OA
ATOM      6  H   UNL A   1      32.740  32.585  27.102  1.00  0.00     0.163 HD
BRANCH   4   7
ATOM      7  C   UNL A   1      31.825  29.442  26.273  1.00  0.00     0.042 A 
ATOM      8  C   UNL A   1      31.803  27.426  24.931  1.00  0.00     0.065 A 
ATOM      9  C   UNL A   1      31.725  28.811  25.051  1.00  0.00     0.042 A 
ATOM     10  C   UNL A   1      31.885  26.560  26.053  1.00  0.00     0.061 A 
ATOM     11  C   UNL A   1      31.913  27.205  27.297  1.00  0.00     0.029 A 
ATOM     12  C   UNL A   1      31.911  28.615  27.405  1.00  0.00     0.016 A 
BRANCH   8  13
ATOM     13  N   UNL A   1      31.817  26.923  23.622  1.00  0.00    -0.320 N 
ATOM     14  C   UNL A   1      30.895  27.223  22.626  1.00  0.00     0.255 C 
ATOM     15  O   UNL A   1      31.259  27.121  21.452  1.00  0.00    -0.269 OA
ATOM     16  H   UNL A   1      32.544  26.301  23.387  1.00  0.00     0.170 HD
BRANCH  14  17
ATOM     17  C   UNL A   1      29.510  27.683  22.914  1.00  0.00     0.043 A 
ATOM     18  C   UNL A   1      29.560  30.025  21.805  1.00  0.00     0.045 C 
ATOM     19  C   UNL A   1      28.918  28.927  22.596  1.00  0.00    -0.038 A 
ATOM     20  C   UNL A   1      27.606  29.187  23.047  1.00  0.00     0.004 A 
ATOM     21  C   UNL A   1      26.879  28.221  23.734  1.00  0.00     0.000 A 
ATOM     22  C   UNL A   1      28.747  26.706  23.560  1.00  0.00     0.014 A 
ATOM     23  C   UNL A   1      27.450  26.979  23.973  1.00  0.00     0.001 A 
ENDBRANCH  14  17
ENDBRANCH   8  13
BRANCH  10  24
ATOM     24  N   UNL A   1      32.009  25.181  25.932  1.00  0.00    -0.359 N 
ATOM     25  C   UNL A   1      31.125  24.174  26.565  1.00  0.00     0.178 C 
ATOM     26  C   UNL A   1      33.316  24.599  25.644  1.00  0.00     0.178 C 
ATOM     27  C   UNL A   1      31.272  22.732  25.907  1.00  0.00     0.284 C 
ATOM     28  C   UNL A   1      33.102  23.526  24.581  1.00  0.00     0.284 C 
ATOM     29  N   UNL A   1      32.523  22.339  25.205  1.00  0.00    -0.324 N 
ATOM     30  H   UNL A   1      32.222  21.655  24.512  1.00  0.00     0.348 HD
BRANCH  29  31
ATOM     31  C   UNL A   1      33.528  21.526  25.933  1.00  0.00     0.364 C 
BRANCH  31  32
ATOM     32  C   UNL A   1      34.479  20.652  25.114  1.00  0.00     0.279 C 
ATOM     33  O   UNL A   1      34.056  19.588  24.633  1.00  0.00    -0.268 OA
ATOM     34  N   UNL A   1      35.774  20.970  24.806  1.00  0.00    -0.321 N 
ATOM     35  H   UNL A   1      36.105  20.419  24.060  1.00  0.00     0.170 HD
BRANCH  34  36
ATOM     36  C   UNL A   1      36.772  21.865  25.256  1.00  0.00     0.041 A 
ATOM     37  C   UNL A   1      38.039  21.302  25.507  1.00  0.00     0.029 A 
ATOM     38  C   UNL A   1      36.599  23.209  25.569  1.00  0.00     0.029 A 
ATOM     39  C   UNL A   1      39.075  22.049  26.085  1.00  0.00     0.041 A 
ATOM     40  C   UNL A   1      37.615  23.949  26.201  1.00  0.00     0.041 A 
ATOM     41  C   UNL A   1      38.845  23.364  26.450  1.00  0.00     0.123 A 
ATOM     42  F   UNL A   1      39.820  24.073  27.030  1.00  0.00    -0.207 F 
ENDBRANCH  34  36
ENDBRANCH  31  32
ENDBRANCH  29  31
ENDBRANCH  10  24
ENDBRANCH   4   7
ENDBRANCH   2   3
ENDBRANCH   1   2
BRANCH   1  43
ATOM     43  C   UNL A   1      36.391  31.757  28.683  1.00  0.00     0.023 C 
BRANCH  43  44
ATOM     44  C   UNL A   1      36.130  31.453  30.151  1.00  0.00     0.116 C 
BRANCH  44  45
ATOM     45  N   UNL A   1      36.797  32.324  31.106  1.00  0.00    -0.352 N 
ATOM     46  C   UNL A   1      38.043  32.169  31.698  1.00  0.00     0.251 C 
ATOM     47  H   UNL A   1      36.298  33.132  31.366  1.00  0.00     0.163 HD
ATOM     48  O   UNL A   1      38.417  32.928  32.577  1.00  0.00    -0.269 OA
BRANCH  46  49
ATOM     49  C   UNL A   1      38.978  31.137  31.171  1.00  0.00     0.039 A 
ATOM     50  C   UNL A   1      39.052  29.913  31.852  1.00  0.00     0.014 A 
ATOM     51  C   UNL A   1      39.904  31.436  30.178  1.00  0.00     0.014 A 
ATOM     52  C   UNL A   1      40.187  29.118  31.714  1.00  0.00     0.010 A 
ATOM     53  C   UNL A   1      41.084  30.727  30.139  1.00  0.00     0.010 A 
ATOM     54  C   UNL A   1      41.248  29.603  30.951  1.00  0.00    -0.014 A 
BRANCH  54  55
ATOM     55  C   UNL A   1      42.610  29.093  31.027  1.00  0.00     0.031 A 
ATOM     56  C   UNL A   1      43.028  27.964  30.184  1.00  0.00     0.074 A 
ATOM     57  C   UNL A   1      43.516  29.754  31.779  1.00  0.00     0.049 A 
ATOM     58  N   UNL A   1      44.093  27.266  30.378  1.00  0.00    -0.248 NA
ATOM     59  C   UNL A   1      42.214  27.471  29.080  1.00  0.00     0.031 C 
ATOM     60  C   UNL A   1      44.970  29.632  31.757  1.00  0.00     0.029 A 
ATOM     61  N   UNL A   1      43.264  30.530  32.901  1.00  0.00    -0.354 N 
ATOM     62  C   UNL A   1      44.276  26.468  29.274  1.00  0.00     0.074 A 
ATOM     63  C   UNL A   1      43.016  26.528  28.579  1.00  0.00     0.031 C 
ATOM     64  C   UNL A   1      45.449  30.027  32.948  1.00  0.00     0.029 A 
ATOM     65  C   UNL A   1      44.301  30.275  33.805  1.00  0.00     0.049 A 
ATOM     66  H   UNL A   1      42.504  31.142  33.036  1.00  0.00     0.167 HD
ATOM     67  C   UNL A   1      45.529  25.989  29.021  1.00  0.00     0.034 A 
ATOM     68  C   UNL A   1      44.104  29.758  35.050  1.00  0.00     0.034 A 
ATOM     69  C   UNL A   1      46.409  26.209  30.181  1.00  0.00     0.049 A 
ATOM     70  C   UNL A   1      44.868  28.456  35.212  1.00  0.00     0.074 A 
ATOM     71  C   UNL A   1      47.449  27.088  30.436  1.00  0.00     0.029 A 
ATOM     72  N   UNL A   1      46.069  25.646  31.413  1.00  0.00    -0.354 N 
ATOM     73  N   UNL A   1      45.284  27.733  34.205  1.00  0.00    -0.248 NA
ATOM     74  C   UNL A   1      45.243  27.885  36.498  1.00  0.00     0.031 C 
ATOM     75  C   UNL A   1      47.661  27.121  31.844  1.00  0.00     0.029 A 
ATOM     76  C   UNL A   1      46.787  26.226  32.441  1.00  0.00     0.049 A 
ATOM     77  H   UNL A   1      45.405  24.929  31.533  1.00  0.00     0.167 HD
ATOM     78  C   UNL A   1      46.009  26.666  34.668  1.00  0.00     0.074 A 
ATOM     79  C   UNL A   1      45.939  26.800  36.116  1.00  0.00     0.031 C 
ATOM     80  C   UNL A   1      46.620  25.777  33.823  1.00  0.00     0.034 A 
BRANCH  67  81
ATOM     81  C   UNL A   1      46.046  25.578  27.644  1.00  0.00     0.023 A 
ATOM     82  C   UNL A   1      46.573  26.572  26.787  1.00  0.00     0.031 A 
ATOM     83  C   UNL A   1      45.969  24.292  27.063  1.00  0.00     0.131 A 
ATOM     84  C   UNL A   1      46.918  26.293  25.445  1.00  0.00     0.055 A 
ATOM     85  C   UNL A   1      46.307  24.015  25.731  1.00  0.00     0.041 A 
ATOM     86  F   UNL A   1      45.578  23.211  27.737  1.00  0.00    -0.206 F 
ATOM     87  C   UNL A   1      46.773  25.020  24.908  1.00  0.00     0.022 A 
BRANCH  84  88
ATOM     88  S   UNL A   1      47.537  27.626  24.383  1.00  0.00     0.124 S 
ATOM     89  O   UNL A   1      46.426  28.572  24.397  1.00  0.00    -0.237 OA
ATOM     90  O   UNL A   1      48.751  28.038  25.078  1.00  0.00    -0.237 OA
ATOM     91  O   UNL A   1      47.760  26.960  23.099  1.00  0.00    -0.744 OA
ENDBRANCH  84  88
ENDBRANCH  67  81
BRANCH  68  92
ATOM     92  C   UNL A   1      42.769  30.092  35.634  1.00  0.00     0.023 A 
ATOM     93  C   UNL A   1      42.609  31.385  36.190  1.00  0.00     0.031 A 
ATOM     94  C   UNL A   1      41.609  29.391  35.277  1.00  0.00     0.131 A 
ATOM     95  C   UNL A   1      41.347  31.999  36.199  1.00  0.00     0.055 A 
ATOM     96  C   UNL A   1      40.341  29.986  35.361  1.00  0.00     0.041 A 
ATOM     97  F   UNL A   1      41.692  28.181  34.706  1.00  0.00    -0.206 F 
ATOM     98  C   UNL A   1      40.209  31.308  35.785  1.00  0.00     0.022 A 
BRANCH  95  99
ATOM     99  S   UNL A   1      41.231  33.773  36.578  1.00  0.00     0.124 S 
ATOM    100  O   UNL A   1      42.627  34.146  36.774  1.00  0.00    -0.237 OA
ATOM    101  O   UNL A   1      40.597  34.291  35.368  1.00  0.00    -0.237 OA
ATOM    102  O   UNL A   1      40.402  33.814  37.779  1.00  0.00    -0.744 OA
ENDBRANCH  95  99
ENDBRANCH  68  92
BRANCH  80 103
ATOM    103  C   UNL A   1      47.213  24.442  34.228  1.00  0.00     0.023 A 
ATOM    104  C   UNL A   1      46.438  23.336  34.607  1.00  0.00     0.031 A 
ATOM    105  C   UNL A   1      48.609  24.205  34.142  1.00  0.00     0.131 A 
ATOM    106  C   UNL A   1      47.036  22.110  34.958  1.00  0.00     0.055 A 
ATOM    107  C   UNL A   1      49.193  22.964  34.407  1.00  0.00     0.041 A 
ATOM    108  F   UNL A   1      49.471  25.167  33.780  1.00  0.00    -0.206 F 
ATOM    109  C   UNL A   1      48.407  21.907  34.834  1.00  0.00     0.022 A 
BRANCH 106 110
ATOM    110  S   UNL A   1      45.980  20.804  35.633  1.00  0.00     0.124 S 
ATOM    111  O   UNL A   1      45.807  21.245  37.015  1.00  0.00    -0.237 OA
ATOM    112  O   UNL A   1      44.792  20.890  34.789  1.00  0.00    -0.237 OA
ATOM    113  O   UNL A   1      46.776  19.592  35.463  1.00  0.00    -0.744 OA
ENDBRANCH 106 110
ENDBRANCH  80 103
ENDBRANCH  54  55
ENDBRANCH  46  49
ENDBRANCH  44  45
ENDBRANCH  43  44
ENDBRANCH   1  43
TORSDOF 20
ENDMDL
