MODEL 1
REMARK VINA RESULT:     -10.9      0.000      0.000
REMARK SMILES C[C@@H]1CCC[C@](CCSc2ccccc2)(C(=O)NCCCCNC(=O)c2ccc(-c3c4nc(c(-c5cc(S(=O)(=O)[O-])ccc5F)c5ccc([nH]5)c(-c5cc(S(=O)(=O)[O-])ccc5F)c5nc(c(-c6cc(S(=O)(=O)[O-])ccc6F)c6ccc3[nH]6)C=C5)C=C4)cc2)C1
REMARK SMILES IDX 20 1 19 2 18 3 16 4 17 5 6 7 1 8 2 9 3 10 89 11 4 12 5 13
REMARK SMILES IDX 7 14 8 15 9 16 10 17 11 18 15 19 12 20 14 21 13 22 21 23
REMARK SMILES IDX 22 24 23 25 24 26 25 28 26 29 27 30 88 31 28 32 87 33 29 34
REMARK SMILES IDX 30 35 31 36 81 37 32 38 86 39 80 40 82 41 33 42 85 43 79 44
REMARK SMILES IDX 78 45 34 47 66 48 46 49 65 50 47 51 50 52 64 53 83 54 48 55
REMARK SMILES IDX 49 56 63 58 84 59 51 60 35 61 36 62 44 63 37 64 43 65 45 66
REMARK SMILES IDX 42 67 38 68 39 69 40 70 41 71 67 72 68 73 76 74 69 75 75 76
REMARK SMILES IDX 77 77 74 78 70 79 71 80 72 81 73 82 52 83 53 84 61 85 54 86
REMARK SMILES IDX 60 87 62 88 59 89 55 90 56 91 57 92 58 93
REMARK H PARENT 18 6 23 27 82 46 50 57
REMARK Flexibility Score: inf
ROOT
ATOM      1  C   UNL A   1      31.492  28.209  26.892  1.00  0.00     0.023 C 
ENDROOT
BRANCH   1   2
ATOM      2  C   UNL A   1      31.168  27.050  25.952  1.00  0.00     0.116 C 
BRANCH   2   3
ATOM      3  N   UNL A   1      30.714  25.909  26.701  1.00  0.00    -0.356 N 
ATOM      4  C   UNL A   1      30.807  24.576  26.499  1.00  0.00     0.226 C 
ATOM      5  O   UNL A   1      30.029  23.916  27.202  1.00  0.00    -0.274 OA
ATOM      6  H   UNL A   1      30.239  26.148  27.530  1.00  0.00     0.163 HD
BRANCH   4   7
ATOM      7  C   UNL A   1      31.709  23.874  25.435  1.00  0.00     0.050 C 
ATOM      8  C   UNL A   1      33.928  26.623  23.878  1.00  0.00     0.007 C 
ATOM      9  C   UNL A   1      33.207  25.274  23.695  1.00  0.00    -0.013 C 
ATOM     10  C   UNL A   1      31.998  25.376  22.756  1.00  0.00     0.003 C 
ATOM     11  C   UNL A   1      33.024  24.589  25.062  1.00  0.00     0.020 C 
ATOM     12  C   UNL A   1      30.694  24.736  23.213  1.00  0.00     0.001 C 
ATOM     13  C   UNL A   1      30.858  23.575  24.178  1.00  0.00     0.017 C 
BRANCH   7  14
ATOM     14  C   UNL A   1      32.076  22.466  26.078  1.00  0.00     0.028 C 
BRANCH  14  15
ATOM     15  C   UNL A   1      32.229  21.218  25.177  1.00  0.00     0.076 C 
BRANCH  15  16
ATOM     16  S   UNL A   1      33.831  20.341  25.134  1.00  0.00    -0.126 SA
BRANCH  16  17
ATOM     17  C   UNL A   1      35.020  21.669  25.069  1.00  0.00     0.007 A 
ATOM     18  C   UNL A   1      35.390  22.165  23.812  1.00  0.00     0.015 A 
ATOM     19  C   UNL A   1      35.572  22.256  26.212  1.00  0.00     0.015 A 
ATOM     20  C   UNL A   1      36.351  23.173  23.697  1.00  0.00     0.001 A 
ATOM     21  C   UNL A   1      36.538  23.261  26.098  1.00  0.00     0.001 A 
ATOM     22  C   UNL A   1      36.936  23.710  24.840  1.00  0.00     0.000 A 
ENDBRANCH  16  17
ENDBRANCH  15  16
ENDBRANCH  14  15
ENDBRANCH   7  14
ENDBRANCH   4   7
ENDBRANCH   2   3
ENDBRANCH   1   2
BRANCH   1  23
ATOM     23  C   UNL A   1      32.976  28.329  27.226  1.00  0.00     0.023 C 
BRANCH  23  24
ATOM     24  C   UNL A   1      33.718  29.395  26.428  1.00  0.00     0.116 C 
BRANCH  24  25
ATOM     25  N   UNL A   1      33.689  30.712  27.055  1.00  0.00    -0.352 N 
ATOM     26  C   UNL A   1      34.603  31.236  27.938  1.00  0.00     0.251 C 
ATOM     27  H   UNL A   1      32.928  31.291  26.819  1.00  0.00     0.163 HD
ATOM     28  O   UNL A   1      34.422  32.328  28.466  1.00  0.00    -0.269 OA
BRANCH  26  29
ATOM     29  C   UNL A   1      35.787  30.420  28.254  1.00  0.00     0.039 A 
ATOM     30  C   UNL A   1      36.980  30.654  27.568  1.00  0.00     0.014 A 
ATOM     31  C   UNL A   1      35.734  29.537  29.336  1.00  0.00     0.014 A 
ATOM     32  C   UNL A   1      38.153  30.048  28.018  1.00  0.00     0.010 A 
ATOM     33  C   UNL A   1      36.914  28.992  29.821  1.00  0.00     0.010 A 
ATOM     34  C   UNL A   1      38.134  29.246  29.170  1.00  0.00    -0.014 A 
BRANCH  34  35
ATOM     35  C   UNL A   1      39.368  28.622  29.711  1.00  0.00     0.031 A 
ATOM     36  C   UNL A   1      40.010  29.223  30.929  1.00  0.00     0.074 A 
ATOM     37  C   UNL A   1      39.956  27.600  29.060  1.00  0.00     0.049 A 
ATOM     38  N   UNL A   1      41.176  28.975  31.461  1.00  0.00    -0.248 NA
ATOM     39  C   UNL A   1      39.247  30.281  31.607  1.00  0.00     0.031 C 
ATOM     40  C   UNL A   1      39.440  26.954  27.850  1.00  0.00     0.029 A 
ATOM     41  N   UNL A   1      41.131  26.937  29.313  1.00  0.00    -0.354 N 
ATOM     42  C   UNL A   1      41.303  29.870  32.519  1.00  0.00     0.074 A 
ATOM     43  C   UNL A   1      40.119  30.703  32.509  1.00  0.00     0.031 C 
ATOM     44  C   UNL A   1      40.291  25.984  27.474  1.00  0.00     0.029 A 
ATOM     45  C   UNL A   1      41.433  25.969  28.383  1.00  0.00     0.049 A 
ATOM     46  H   UNL A   1      41.705  27.137  30.087  1.00  0.00     0.167 HD
ATOM     47  C   UNL A   1      42.305  29.972  33.426  1.00  0.00     0.034 A 
ATOM     48  C   UNL A   1      42.516  25.175  28.269  1.00  0.00     0.034 A 
ATOM     49  C   UNL A   1      43.462  29.112  33.433  1.00  0.00     0.049 A 
ATOM     50  C   UNL A   1      43.619  25.300  29.292  1.00  0.00     0.074 A 
ATOM     51  C   UNL A   1      44.521  29.095  34.322  1.00  0.00     0.029 A 
ATOM     52  N   UNL A   1      43.709  28.109  32.503  1.00  0.00    -0.354 N 
ATOM     53  N   UNL A   1      43.718  26.138  30.299  1.00  0.00    -0.248 NA
ATOM     54  C   UNL A   1      44.749  24.370  29.169  1.00  0.00     0.031 C 
ATOM     55  C   UNL A   1      45.430  28.117  33.903  1.00  0.00     0.029 A 
ATOM     56  C   UNL A   1      44.907  27.477  32.791  1.00  0.00     0.049 A 
ATOM     57  H   UNL A   1      43.117  27.882  31.750  1.00  0.00     0.167 HD
ATOM     58  C   UNL A   1      44.902  25.805  30.952  1.00  0.00     0.074 A 
ATOM     59  C   UNL A   1      45.481  24.695  30.226  1.00  0.00     0.031 C 
ATOM     60  C   UNL A   1      45.457  26.362  32.060  1.00  0.00     0.034 A 
BRANCH  47  61
ATOM     61  C   UNL A   1      42.188  31.066  34.459  1.00  0.00     0.023 A 
ATOM     62  C   UNL A   1      42.757  32.335  34.254  1.00  0.00     0.031 A 
ATOM     63  C   UNL A   1      41.555  30.822  35.691  1.00  0.00     0.131 A 
ATOM     64  C   UNL A   1      42.771  33.274  35.295  1.00  0.00     0.055 A 
ATOM     65  C   UNL A   1      41.489  31.795  36.690  1.00  0.00     0.041 A 
ATOM     66  F   UNL A   1      41.012  29.623  35.954  1.00  0.00    -0.206 F 
ATOM     67  C   UNL A   1      42.117  33.023  36.503  1.00  0.00     0.022 A 
BRANCH  64  68
ATOM     68  S   UNL A   1      43.799  34.756  35.106  1.00  0.00     0.124 S 
ATOM     69  O   UNL A   1      43.651  35.383  36.418  1.00  0.00    -0.237 OA
ATOM     70  O   UNL A   1      45.112  34.194  34.813  1.00  0.00    -0.237 OA
ATOM     71  O   UNL A   1      43.165  35.475  34.003  1.00  0.00    -0.744 OA
ENDBRANCH  64  68
ENDBRANCH  47  61
BRANCH  48  72
ATOM     72  C   UNL A   1      42.625  24.198  27.148  1.00  0.00     0.023 A 
ATOM     73  C   UNL A   1      42.020  22.935  27.231  1.00  0.00     0.031 A 
ATOM     74  C   UNL A   1      43.370  24.498  25.993  1.00  0.00     0.131 A 
ATOM     75  C   UNL A   1      42.206  22.000  26.202  1.00  0.00     0.055 A 
ATOM     76  C   UNL A   1      43.512  23.582  24.950  1.00  0.00     0.041 A 
ATOM     77  F   UNL A   1      43.961  25.696  25.860  1.00  0.00    -0.206 F 
ATOM     78  C   UNL A   1      42.939  22.318  25.057  1.00  0.00     0.022 A 
BRANCH  75  79
ATOM     79  S   UNL A   1      41.540  20.326  26.419  1.00  0.00     0.124 S 
ATOM     80  O   UNL A   1      42.062  19.966  27.731  1.00  0.00    -0.237 OA
ATOM     81  O   UNL A   1      40.103  20.562  26.341  1.00  0.00    -0.237 OA
ATOM     82  O   UNL A   1      42.109  19.586  25.294  1.00  0.00    -0.744 OA
ENDBRANCH  75  79
ENDBRANCH  48  72
BRANCH  60  83
ATOM     83  C   UNL A   1      46.713  25.725  32.594  1.00  0.00     0.023 A 
ATOM     84  C   UNL A   1      47.978  26.001  32.050  1.00  0.00     0.031 A 
ATOM     85  C   UNL A   1      46.635  24.839  33.684  1.00  0.00     0.131 A 
ATOM     86  C   UNL A   1      49.114  25.367  32.576  1.00  0.00     0.055 A 
ATOM     87  C   UNL A   1      47.774  24.250  34.233  1.00  0.00     0.041 A 
ATOM     88  F   UNL A   1      45.449  24.544  34.240  1.00  0.00    -0.206 F 
ATOM     89  C   UNL A   1      49.022  24.506  33.673  1.00  0.00     0.022 A 
BRANCH  86  90
ATOM     90  S   UNL A   1      50.717  25.639  31.771  1.00  0.00     0.124 S 
ATOM     91  O   UNL A   1      51.526  24.564  32.336  1.00  0.00    -0.237 OA
ATOM     92  O   UNL A   1      50.384  25.510  30.356  1.00  0.00    -0.237 OA
ATOM     93  O   UNL A   1      51.091  26.986  32.198  1.00  0.00    -0.744 OA
ENDBRANCH  86  90
ENDBRANCH  60  83
ENDBRANCH  34  35
ENDBRANCH  26  29
ENDBRANCH  24  25
ENDBRANCH  23  24
ENDBRANCH   1  23
TORSDOF 18
ENDMDL
MODEL 2
REMARK VINA RESULT:     -10.9      4.392      9.323
REMARK SMILES C[C@@H]1CCC[C@](CCSc2ccccc2)(C(=O)NCCCCNC(=O)c2ccc(-c3c4nc(c(-c5cc(S(=O)(=O)[O-])ccc5F)c5ccc([nH]5)c(-c5cc(S(=O)(=O)[O-])ccc5F)c5nc(c(-c6cc(S(=O)(=O)[O-])ccc6F)c6ccc3[nH]6)C=C5)C=C4)cc2)C1
REMARK SMILES IDX 20 1 19 2 18 3 16 4 17 5 6 7 1 8 2 9 3 10 89 11 4 12 5 13
REMARK SMILES IDX 7 14 8 15 9 16 10 17 11 18 15 19 12 20 14 21 13 22 21 23
REMARK SMILES IDX 22 24 23 25 24 26 25 28 26 29 27 30 88 31 28 32 87 33 29 34
REMARK SMILES IDX 30 35 31 36 81 37 32 38 86 39 80 40 82 41 33 42 85 43 79 44
REMARK SMILES IDX 78 45 34 47 66 48 46 49 65 50 47 51 50 52 64 53 83 54 48 55
REMARK SMILES IDX 49 56 63 58 84 59 51 60 35 61 36 62 44 63 37 64 43 65 45 66
REMARK SMILES IDX 42 67 38 68 39 69 40 70 41 71 67 72 68 73 76 74 69 75 75 76
REMARK SMILES IDX 77 77 74 78 70 79 71 80 72 81 73 82 52 83 53 84 61 85 54 86
REMARK SMILES IDX 60 87 62 88 59 89 55 90 56 91 57 92 58 93
REMARK H PARENT 18 6 23 27 82 46 50 57
REMARK Flexibility Score: inf
ROOT
ATOM      1  C   UNL A   1      32.655  29.547  27.009  1.00  0.00     0.023 C 
ENDROOT
BRANCH   1   2
ATOM      2  C   UNL A   1      33.855  29.015  26.228  1.00  0.00     0.116 C 
BRANCH   2   3
ATOM      3  N   UNL A   1      33.740  29.359  24.836  1.00  0.00    -0.356 N 
ATOM      4  C   UNL A   1      33.210  28.723  23.768  1.00  0.00     0.226 C 
ATOM      5  O   UNL A   1      33.573  29.196  22.683  1.00  0.00    -0.274 OA
ATOM      6  H   UNL A   1      34.127  30.238  24.617  1.00  0.00     0.163 HD
BRANCH   4   7
ATOM      7  C   UNL A   1      32.303  27.453  23.820  1.00  0.00     0.050 C 
ATOM      8  C   UNL A   1      34.302  24.740  25.705  1.00  0.00     0.007 C 
ATOM      9  C   UNL A   1      33.239  25.069  24.638  1.00  0.00    -0.013 C 
ATOM     10  C   UNL A   1      33.731  24.787  23.212  1.00  0.00     0.003 C 
ATOM     11  C   UNL A   1      32.599  26.436  24.941  1.00  0.00     0.020 C 
ATOM     12  C   UNL A   1      33.501  25.865  22.161  1.00  0.00     0.001 C 
ATOM     13  C   UNL A   1      32.315  26.775  22.430  1.00  0.00     0.017 C 
BRANCH   7  14
ATOM     14  C   UNL A   1      30.830  28.014  24.037  1.00  0.00     0.028 C 
BRANCH  14  15
ATOM     15  C   UNL A   1      29.718  27.692  23.011  1.00  0.00     0.076 C 
BRANCH  15  16
ATOM     16  S   UNL A   1      28.033  28.340  23.290  1.00  0.00    -0.126 SA
BRANCH  16  17
ATOM     17  C   UNL A   1      28.159  30.041  22.765  1.00  0.00     0.007 A 
ATOM     18  C   UNL A   1      28.123  30.313  21.392  1.00  0.00     0.015 A 
ATOM     19  C   UNL A   1      28.260  31.110  23.661  1.00  0.00     0.015 A 
ATOM     20  C   UNL A   1      28.263  31.621  20.919  1.00  0.00     0.001 A 
ATOM     21  C   UNL A   1      28.406  32.419  23.190  1.00  0.00     0.001 A 
ATOM     22  C   UNL A   1      28.421  32.672  21.819  1.00  0.00     0.000 A 
ENDBRANCH  16  17
ENDBRANCH  15  16
ENDBRANCH  14  15
ENDBRANCH   7  14
ENDBRANCH   4   7
ENDBRANCH   2   3
ENDBRANCH   1   2
BRANCH   1  23
ATOM     23  C   UNL A   1      32.406  31.039  26.806  1.00  0.00     0.023 C 
BRANCH  23  24
ATOM     24  C   UNL A   1      33.308  31.947  27.635  1.00  0.00     0.116 C 
BRANCH  24  25
ATOM     25  N   UNL A   1      32.837  33.325  27.702  1.00  0.00    -0.352 N 
ATOM     26  C   UNL A   1      33.292  34.323  28.531  1.00  0.00     0.251 C 
ATOM     27  H   UNL A   1      32.109  33.569  27.084  1.00  0.00     0.163 HD
ATOM     28  O   UNL A   1      32.754  35.425  28.554  1.00  0.00    -0.269 OA
BRANCH  26  29
ATOM     29  C   UNL A   1      34.426  34.006  29.415  1.00  0.00     0.039 A 
ATOM     30  C   UNL A   1      34.225  33.155  30.503  1.00  0.00     0.014 A 
ATOM     31  C   UNL A   1      35.707  34.438  29.060  1.00  0.00     0.014 A 
ATOM     32  C   UNL A   1      35.331  32.672  31.203  1.00  0.00     0.010 A 
ATOM     33  C   UNL A   1      36.806  33.902  29.715  1.00  0.00     0.010 A 
ATOM     34  C   UNL A   1      36.629  33.011  30.788  1.00  0.00    -0.014 A 
BRANCH  34  35
ATOM     35  C   UNL A   1      37.834  32.481  31.474  1.00  0.00     0.031 A 
ATOM     36  C   UNL A   1      38.603  31.364  30.828  1.00  0.00     0.074 A 
ATOM     37  C   UNL A   1      38.171  32.926  32.700  1.00  0.00     0.049 A 
ATOM     38  N   UNL A   1      39.558  30.620  31.319  1.00  0.00    -0.248 NA
ATOM     39  C   UNL A   1      38.201  31.008  29.458  1.00  0.00     0.031 C 
ATOM     40  C   UNL A   1      37.480  33.986  33.439  1.00  0.00     0.029 A 
ATOM     41  N   UNL A   1      39.168  32.525  33.553  1.00  0.00    -0.354 N 
ATOM     42  C   UNL A   1      39.851  29.687  30.330  1.00  0.00     0.074 A 
ATOM     43  C   UNL A   1      38.928  29.924  29.240  1.00  0.00     0.031 C 
ATOM     44  C   UNL A   1      38.082  34.156  34.629  1.00  0.00     0.029 A 
ATOM     45  C   UNL A   1      39.167  33.187  34.759  1.00  0.00     0.049 A 
ATOM     46  H   UNL A   1      39.823  31.826  33.324  1.00  0.00     0.167 HD
ATOM     47  C   UNL A   1      40.816  28.734  30.324  1.00  0.00     0.034 A 
ATOM     48  C   UNL A   1      39.941  33.018  35.850  1.00  0.00     0.034 A 
ATOM     49  C   UNL A   1      41.742  28.534  31.410  1.00  0.00     0.049 A 
ATOM     50  C   UNL A   1      41.012  31.956  35.822  1.00  0.00     0.074 A 
ATOM     51  C   UNL A   1      42.784  27.629  31.503  1.00  0.00     0.029 A 
ATOM     52  N   UNL A   1      41.741  29.259  32.596  1.00  0.00    -0.354 N 
ATOM     53  N   UNL A   1      41.291  31.092  34.873  1.00  0.00    -0.248 NA
ATOM     54  C   UNL A   1      41.875  31.851  37.005  1.00  0.00     0.031 C 
ATOM     55  C   UNL A   1      43.379  27.772  32.761  1.00  0.00     0.029 A 
ATOM     56  C   UNL A   1      42.754  28.814  33.428  1.00  0.00     0.049 A 
ATOM     57  H   UNL A   1      41.111  29.984  32.812  1.00  0.00     0.167 HD
ATOM     58  C   UNL A   1      42.390  30.370  35.331  1.00  0.00     0.074 A 
ATOM     59  C   UNL A   1      42.720  30.898  36.638  1.00  0.00     0.031 C 
ATOM     60  C   UNL A   1      43.073  29.366  34.722  1.00  0.00     0.034 A 
BRANCH  47  61
ATOM     61  C   UNL A   1      40.886  27.834  29.115  1.00  0.00     0.023 A 
ATOM     62  C   UNL A   1      41.809  28.064  28.079  1.00  0.00     0.031 A 
ATOM     63  C   UNL A   1      39.980  26.770  28.962  1.00  0.00     0.131 A 
ATOM     64  C   UNL A   1      41.741  27.309  26.900  1.00  0.00     0.055 A 
ATOM     65  C   UNL A   1      39.980  25.960  27.824  1.00  0.00     0.041 A 
ATOM     66  F   UNL A   1      39.062  26.513  29.907  1.00  0.00    -0.206 F 
ATOM     67  C   UNL A   1      40.851  26.241  26.775  1.00  0.00     0.022 A 
BRANCH  64  68
ATOM     68  S   UNL A   1      42.716  27.853  25.471  1.00  0.00     0.124 S 
ATOM     69  O   UNL A   1      41.897  28.951  24.959  1.00  0.00    -0.237 OA
ATOM     70  O   UNL A   1      43.985  28.235  26.080  1.00  0.00    -0.237 OA
ATOM     71  O   UNL A   1      42.763  26.669  24.616  1.00  0.00    -0.744 OA
ENDBRANCH  64  68
ENDBRANCH  47  61
BRANCH  48  72
ATOM     72  C   UNL A   1      39.735  33.861  37.062  1.00  0.00     0.023 A 
ATOM     73  C   UNL A   1      39.071  33.353  38.189  1.00  0.00     0.031 A 
ATOM     74  C   UNL A   1      40.163  35.200  37.097  1.00  0.00     0.131 A 
ATOM     75  C   UNL A   1      38.812  34.188  39.286  1.00  0.00     0.055 A 
ATOM     76  C   UNL A   1      39.946  36.014  38.211  1.00  0.00     0.041 A 
ATOM     77  F   UNL A   1      40.811  35.733  36.049  1.00  0.00    -0.206 F 
ATOM     78  C   UNL A   1      39.254  35.512  39.309  1.00  0.00     0.022 A 
BRANCH  75  79
ATOM     79  S   UNL A   1      37.815  33.539  40.656  1.00  0.00     0.124 S 
ATOM     80  O   UNL A   1      38.721  32.559  41.244  1.00  0.00    -0.237 OA
ATOM     81  O   UNL A   1      37.567  34.741  41.444  1.00  0.00    -0.237 OA
ATOM     82  O   UNL A   1      36.641  32.981  39.987  1.00  0.00    -0.744 OA
ENDBRANCH  75  79
ENDBRANCH  48  72
BRANCH  60  83
ATOM     83  C   UNL A   1      44.289  28.831  35.431  1.00  0.00     0.023 A 
ATOM     84  C   UNL A   1      44.235  27.684  36.241  1.00  0.00     0.031 A 
ATOM     85  C   UNL A   1      45.528  29.478  35.273  1.00  0.00     0.131 A 
ATOM     86  C   UNL A   1      45.396  27.238  36.893  1.00  0.00     0.055 A 
ATOM     87  C   UNL A   1      46.687  29.001  35.885  1.00  0.00     0.041 A 
ATOM     88  F   UNL A   1      45.631  30.577  34.509  1.00  0.00    -0.206 F 
ATOM     89  C   UNL A   1      46.624  27.880  36.707  1.00  0.00     0.022 A 
BRANCH  86  90
ATOM     90  S   UNL A   1      45.272  25.834  38.034  1.00  0.00     0.124 S 
ATOM     91  O   UNL A   1      46.116  24.839  37.383  1.00  0.00    -0.237 OA
ATOM     92  O   UNL A   1      45.790  26.395  39.278  1.00  0.00    -0.237 OA
ATOM     93  O   UNL A   1      43.843  25.525  38.044  1.00  0.00    -0.744 OA
ENDBRANCH  86  90
ENDBRANCH  60  83
ENDBRANCH  34  35
ENDBRANCH  26  29
ENDBRANCH  24  25
ENDBRANCH  23  24
ENDBRANCH   1  23
TORSDOF 18
ENDMDL
MODEL 3
REMARK VINA RESULT:     -10.8      2.735      7.931
REMARK SMILES C[C@@H]1CCC[C@](CCSc2ccccc2)(C(=O)NCCCCNC(=O)c2ccc(-c3c4nc(c(-c5cc(S(=O)(=O)[O-])ccc5F)c5ccc([nH]5)c(-c5cc(S(=O)(=O)[O-])ccc5F)c5nc(c(-c6cc(S(=O)(=O)[O-])ccc6F)c6ccc3[nH]6)C=C5)C=C4)cc2)C1
REMARK SMILES IDX 20 1 19 2 18 3 16 4 17 5 6 7 1 8 2 9 3 10 89 11 4 12 5 13
REMARK SMILES IDX 7 14 8 15 9 16 10 17 11 18 15 19 12 20 14 21 13 22 21 23
REMARK SMILES IDX 22 24 23 25 24 26 25 28 26 29 27 30 88 31 28 32 87 33 29 34
REMARK SMILES IDX 30 35 31 36 81 37 32 38 86 39 80 40 82 41 33 42 85 43 79 44
REMARK SMILES IDX 78 45 34 47 66 48 46 49 65 50 47 51 50 52 64 53 83 54 48 55
REMARK SMILES IDX 49 56 63 58 84 59 51 60 35 61 36 62 44 63 37 64 43 65 45 66
REMARK SMILES IDX 42 67 38 68 39 69 40 70 41 71 67 72 68 73 76 74 69 75 75 76
REMARK SMILES IDX 77 77 74 78 70 79 71 80 72 81 73 82 52 83 53 84 61 85 54 86
REMARK SMILES IDX 60 87 62 88 59 89 55 90 56 91 57 92 58 93
REMARK H PARENT 18 6 23 27 82 46 50 57
REMARK Flexibility Score: inf
ROOT
ATOM      1  C   UNL A   1      31.458  28.151  26.960  1.00  0.00     0.023 C 
ENDROOT
BRANCH   1   2
ATOM      2  C   UNL A   1      31.055  27.084  25.945  1.00  0.00     0.116 C 
BRANCH   2   3
ATOM      3  N   UNL A   1      30.488  25.944  26.614  1.00  0.00    -0.356 N 
ATOM      4  C   UNL A   1      30.565  24.612  26.395  1.00  0.00     0.226 C 
ATOM      5  O   UNL A   1      29.696  23.964  26.992  1.00  0.00    -0.274 OA
ATOM      6  H   UNL A   1      29.930  26.182  27.389  1.00  0.00     0.163 HD
BRANCH   4   7
ATOM      7  C   UNL A   1      31.562  23.903  25.424  1.00  0.00     0.050 C 
ATOM      8  C   UNL A   1      33.882  26.650  24.016  1.00  0.00     0.007 C 
ATOM      9  C   UNL A   1      33.191  25.290  23.795  1.00  0.00    -0.013 C 
ATOM     10  C   UNL A   1      32.066  25.364  22.754  1.00  0.00     0.003 C 
ATOM     11  C   UNL A   1      32.898  24.626  25.153  1.00  0.00     0.020 C 
ATOM     12  C   UNL A   1      30.733  24.718  23.109  1.00  0.00     0.001 C 
ATOM     13  C   UNL A   1      30.824  23.574  24.105  1.00  0.00     0.017 C 
BRANCH   7  14
ATOM     14  C   UNL A   1      31.886  22.510  26.121  1.00  0.00     0.028 C 
BRANCH  14  15
ATOM     15  C   UNL A   1      32.083  21.240  25.259  1.00  0.00     0.076 C 
BRANCH  15  16
ATOM     16  S   UNL A   1      33.680  20.353  25.332  1.00  0.00    -0.126 SA
BRANCH  16  17
ATOM     17  C   UNL A   1      34.879  21.657  25.119  1.00  0.00     0.007 A 
ATOM     18  C   UNL A   1      35.171  22.081  23.817  1.00  0.00     0.015 A 
ATOM     19  C   UNL A   1      35.512  22.294  26.192  1.00  0.00     0.015 A 
ATOM     20  C   UNL A   1      36.134  23.066  23.585  1.00  0.00     0.001 A 
ATOM     21  C   UNL A   1      36.481  23.276  25.962  1.00  0.00     0.001 A 
ATOM     22  C   UNL A   1      36.801  23.652  24.658  1.00  0.00     0.000 A 
ENDBRANCH  16  17
ENDBRANCH  15  16
ENDBRANCH  14  15
ENDBRANCH   7  14
ENDBRANCH   4   7
ENDBRANCH   2   3
ENDBRANCH   1   2
BRANCH   1  23
ATOM     23  C   UNL A   1      32.956  28.441  26.981  1.00  0.00     0.023 C 
BRANCH  23  24
ATOM     24  C   UNL A   1      33.384  29.608  26.097  1.00  0.00     0.116 C 
BRANCH  24  25
ATOM     25  N   UNL A   1      32.926  30.902  26.585  1.00  0.00    -0.352 N 
ATOM     26  C   UNL A   1      33.578  31.745  27.453  1.00  0.00     0.251 C 
ATOM     27  H   UNL A   1      32.049  31.208  26.256  1.00  0.00     0.163 HD
ATOM     28  O   UNL A   1      33.048  32.775  27.858  1.00  0.00    -0.269 OA
BRANCH  26  29
ATOM     29  C   UNL A   1      34.921  31.346  27.906  1.00  0.00     0.039 A 
ATOM     30  C   UNL A   1      35.954  32.285  27.889  1.00  0.00     0.014 A 
ATOM     31  C   UNL A   1      35.096  30.086  28.486  1.00  0.00     0.014 A 
ATOM     32  C   UNL A   1      37.158  31.983  28.526  1.00  0.00     0.010 A 
ATOM     33  C   UNL A   1      36.269  29.817  29.176  1.00  0.00     0.010 A 
ATOM     34  C   UNL A   1      37.308  30.764  29.207  1.00  0.00    -0.014 A 
BRANCH  34  35
ATOM     35  C   UNL A   1      38.554  30.423  29.938  1.00  0.00     0.031 A 
ATOM     36  C   UNL A   1      39.499  29.423  29.334  1.00  0.00     0.074 A 
ATOM     37  C   UNL A   1      38.781  30.924  31.167  1.00  0.00     0.049 A 
ATOM     38  N   UNL A   1      40.535  28.832  29.866  1.00  0.00    -0.248 NA
ATOM     39  C   UNL A   1      39.199  28.998  27.958  1.00  0.00     0.031 C 
ATOM     40  C   UNL A   1      37.919  31.881  31.867  1.00  0.00     0.029 A 
ATOM     41  N   UNL A   1      39.797  30.682  32.058  1.00  0.00    -0.354 N 
ATOM     42  C   UNL A   1      40.993  27.941  28.902  1.00  0.00     0.074 A 
ATOM     43  C   UNL A   1      40.083  28.029  27.780  1.00  0.00     0.031 C 
ATOM     44  C   UNL A   1      38.449  32.148  33.073  1.00  0.00     0.029 A 
ATOM     45  C   UNL A   1      39.658  31.350  33.253  1.00  0.00     0.049 A 
ATOM     46  H   UNL A   1      40.554  30.084  31.860  1.00  0.00     0.167 HD
ATOM     47  C   UNL A   1      42.086  27.139  28.941  1.00  0.00     0.034 A 
ATOM     48  C   UNL A   1      40.412  31.307  34.370  1.00  0.00     0.034 A 
ATOM     49  C   UNL A   1      42.995  27.087  30.059  1.00  0.00     0.049 A 
ATOM     50  C   UNL A   1      41.626  30.412  34.392  1.00  0.00     0.074 A 
ATOM     51  C   UNL A   1      44.153  26.345  30.198  1.00  0.00     0.029 A 
ATOM     52  N   UNL A   1      42.847  27.817  31.233  1.00  0.00    -0.354 N 
ATOM     53  N   UNL A   1      42.060  29.588  33.466  1.00  0.00    -0.248 NA
ATOM     54  C   UNL A   1      42.455  30.447  35.604  1.00  0.00     0.031 C 
ATOM     55  C   UNL A   1      44.679  26.587  31.472  1.00  0.00     0.029 A 
ATOM     56  C   UNL A   1      43.887  27.533  32.103  1.00  0.00     0.049 A 
ATOM     57  H   UNL A   1      42.112  28.445  31.417  1.00  0.00     0.167 HD
ATOM     58  C   UNL A   1      43.237  29.039  33.970  1.00  0.00     0.074 A 
ATOM     59  C   UNL A   1      43.442  29.623  35.279  1.00  0.00     0.031 C 
ATOM     60  C   UNL A   1      44.078  28.139  33.398  1.00  0.00     0.034 A 
BRANCH  47  61
ATOM     61  C   UNL A   1      42.327  26.246  27.748  1.00  0.00     0.023 A 
ATOM     62  C   UNL A   1      41.789  24.949  27.679  1.00  0.00     0.031 A 
ATOM     63  C   UNL A   1      43.154  26.671  26.694  1.00  0.00     0.131 A 
ATOM     64  C   UNL A   1      42.163  24.090  26.636  1.00  0.00     0.055 A 
ATOM     65  C   UNL A   1      43.447  25.842  25.608  1.00  0.00     0.041 A 
ATOM     66  F   UNL A   1      43.714  27.891  26.712  1.00  0.00    -0.206 F 
ATOM     67  C   UNL A   1      42.967  24.536  25.585  1.00  0.00     0.022 A 
BRANCH  64  68
ATOM     68  S   UNL A   1      41.721  22.336  26.764  1.00  0.00     0.124 S 
ATOM     69  O   UNL A   1      40.312  22.417  27.145  1.00  0.00    -0.237 OA
ATOM     70  O   UNL A   1      41.990  21.843  25.418  1.00  0.00    -0.237 OA
ATOM     71  O   UNL A   1      42.614  21.832  27.805  1.00  0.00    -0.744 OA
ENDBRANCH  64  68
ENDBRANCH  47  61
BRANCH  48  72
ATOM     72  C   UNL A   1      40.045  32.123  35.562  1.00  0.00     0.023 A 
ATOM     73  C   UNL A   1      39.116  31.650  36.502  1.00  0.00     0.031 A 
ATOM     74  C   UNL A   1      40.587  33.406  35.759  1.00  0.00     0.131 A 
ATOM     75  C   UNL A   1      38.721  32.469  37.570  1.00  0.00     0.055 A 
ATOM     76  C   UNL A   1      40.227  34.199  36.851  1.00  0.00     0.041 A 
ATOM     77  F   UNL A   1      41.487  33.902  34.895  1.00  0.00    -0.206 F 
ATOM     78  C   UNL A   1      39.277  33.736  37.757  1.00  0.00     0.022 A 
BRANCH  75  79
ATOM     79  S   UNL A   1      37.403  31.884  38.671  1.00  0.00     0.124 S 
ATOM     80  O   UNL A   1      36.346  32.855  38.412  1.00  0.00    -0.237 OA
ATOM     81  O   UNL A   1      37.172  30.533  38.173  1.00  0.00    -0.237 OA
ATOM     82  O   UNL A   1      38.011  31.961  39.999  1.00  0.00    -0.744 OA
ENDBRANCH  75  79
ENDBRANCH  48  72
BRANCH  60  83
ATOM     83  C   UNL A   1      45.334  27.795  34.154  1.00  0.00     0.023 A 
ATOM     84  C   UNL A   1      45.389  26.722  35.060  1.00  0.00     0.031 A 
ATOM     85  C   UNL A   1      46.502  28.549  33.942  1.00  0.00     0.131 A 
ATOM     86  C   UNL A   1      46.581  26.456  35.750  1.00  0.00     0.055 A 
ATOM     87  C   UNL A   1      47.698  28.248  34.595  1.00  0.00     0.041 A 
ATOM     88  F   UNL A   1      46.502  29.582  33.085  1.00  0.00    -0.206 F 
ATOM     89  C   UNL A   1      47.740  27.201  35.512  1.00  0.00     0.022 A 
BRANCH  86  90
ATOM     90  S   UNL A   1      46.588  25.151  37.010  1.00  0.00     0.124 S 
ATOM     91  O   UNL A   1      45.494  24.294  36.564  1.00  0.00    -0.237 OA
ATOM     92  O   UNL A   1      47.930  24.593  36.877  1.00  0.00    -0.237 OA
ATOM     93  O   UNL A   1      46.340  25.874  38.256  1.00  0.00    -0.744 OA
ENDBRANCH  86  90
ENDBRANCH  60  83
ENDBRANCH  34  35
ENDBRANCH  26  29
ENDBRANCH  24  25
ENDBRANCH  23  24
ENDBRANCH   1  23
TORSDOF 18
ENDMDL
