MODEL 1
REMARK VINA RESULT:     -11.8      0.000      0.000
REMARK SMILES O=C(Cc1ccc(=O)n(C(F)F)c1)NCCCCNC(=O)c1ccc(-c2c3nc(c(-c4cc(S(=O)(=O)[O-])ccc4F)c4ccc([nH]4)c(-c4cc(S(=O)(=O)[O-])ccc4F)c4nc(c(-c5cc(S(=O)(=O)[O-])ccc5F)c5ccc2[nH]5)C=C4)C=C3)cc1
REMARK SMILES IDX 17 1 16 2 15 3 14 4 1 5 2 6 3 8 4 9 5 10 13 11 6 12 9 13
REMARK SMILES IDX 7 14 8 15 10 16 11 17 12 18 18 19 19 20 20 21 21 23 22 24
REMARK SMILES IDX 23 25 84 26 24 27 83 28 25 29 26 30 27 31 77 32 28 33 82 34
REMARK SMILES IDX 76 35 78 36 29 37 81 38 75 39 74 40 30 42 62 43 42 44 61 45
REMARK SMILES IDX 43 46 46 47 60 48 79 49 44 50 45 51 59 53 80 54 47 55 31 56
REMARK SMILES IDX 32 57 40 58 33 59 39 60 41 61 38 62 34 63 35 64 36 65 37 66
REMARK SMILES IDX 63 67 64 68 72 69 65 70 71 71 73 72 70 73 66 74 67 75 68 76
REMARK SMILES IDX 69 77 48 78 49 79 57 80 50 81 56 82 58 83 55 84 51 85 52 86
REMARK SMILES IDX 53 87 54 88
REMARK H PARENT 14 7 19 22 78 41 46 52
REMARK Flexibility Score: inf
ROOT
ATOM      1  C   UNL A   1      36.116  21.321  25.651  1.00  0.00     0.023 C 
ENDROOT
BRANCH   1   2
ATOM      2  C   UNL A   1      35.411  22.678  25.725  1.00  0.00     0.023 C 
BRANCH   2   3
ATOM      3  C   UNL A   1      33.999  22.716  25.141  1.00  0.00     0.116 C 
BRANCH   3   4
ATOM      4  N   UNL A   1      33.672  21.506  24.416  1.00  0.00    -0.356 N 
ATOM      5  O   UNL A   1      31.684  21.082  25.497  1.00  0.00    -0.275 OA
ATOM      6  C   UNL A   1      32.507  20.800  24.631  1.00  0.00     0.224 C 
ATOM      7  H   UNL A   1      34.307  21.173  23.741  1.00  0.00     0.163 HD
BRANCH   6   8
ATOM      8  C   UNL A   1      32.309  19.639  23.662  1.00  0.00     0.137 C 
BRANCH   8   9
ATOM      9  C   UNL A   1      32.979  18.396  24.188  1.00  0.00    -0.022 A 
ATOM     10  C   UNL A   1      34.429  18.340  24.208  1.00  0.00     0.011 A 
ATOM     11  C   UNL A   1      32.291  17.344  24.660  1.00  0.00     0.099 A 
ATOM     12  C   UNL A   1      35.072  17.239  24.616  1.00  0.00     0.072 A 
ATOM     13  N   UNL A   1      32.932  16.207  25.125  1.00  0.00    -0.258 N 
ATOM     14  C   UNL A   1      34.309  16.054  25.090  1.00  0.00     0.254 A 
ATOM     15  O   UNL A   1      34.928  15.048  25.423  1.00  0.00    -0.269 OA
BRANCH  13  16
ATOM     16  C   UNL A   1      32.170  15.095  25.629  1.00  0.00     0.451 C 
ATOM     17  F   UNL A   1      32.652  13.918  25.158  1.00  0.00    -0.185 F 
ATOM     18  F   UNL A   1      32.199  15.046  26.983  1.00  0.00    -0.185 F 
ENDBRANCH  13  16
ENDBRANCH   8   9
ENDBRANCH   6   8
ENDBRANCH   3   4
ENDBRANCH   2   3
ENDBRANCH   1   2
BRANCH   1  19
ATOM     19  C   UNL A   1      37.395  21.294  24.823  1.00  0.00     0.116 C 
BRANCH  19  20
ATOM     20  N   UNL A   1      38.324  20.259  25.247  1.00  0.00    -0.352 N 
ATOM     21  C   UNL A   1      39.482  20.370  25.988  1.00  0.00     0.251 C 
ATOM     22  H   UNL A   1      38.093  19.344  24.963  1.00  0.00     0.163 HD
ATOM     23  O   UNL A   1      40.218  19.396  26.116  1.00  0.00    -0.269 OA
BRANCH  21  24
ATOM     24  C   UNL A   1      39.856  21.674  26.581  1.00  0.00     0.039 A 
ATOM     25  C   UNL A   1      39.310  22.862  26.095  1.00  0.00     0.014 A 
ATOM     26  C   UNL A   1      40.801  21.712  27.610  1.00  0.00     0.014 A 
ATOM     27  C   UNL A   1      39.857  24.081  26.481  1.00  0.00     0.010 A 
ATOM     28  C   UNL A   1      41.278  22.944  28.071  1.00  0.00     0.010 A 
ATOM     29  C   UNL A   1      40.861  24.139  27.464  1.00  0.00    -0.014 A 
BRANCH  29  30
ATOM     30  C   UNL A   1      41.461  25.453  27.826  1.00  0.00     0.031 A 
ATOM     31  C   UNL A   1      42.854  25.817  27.383  1.00  0.00     0.074 A 
ATOM     32  C   UNL A   1      40.725  26.348  28.514  1.00  0.00     0.049 A 
ATOM     33  N   UNL A   1      43.516  26.930  27.575  1.00  0.00    -0.248 NA
ATOM     34  C   UNL A   1      43.608  24.800  26.633  1.00  0.00     0.031 C 
ATOM     35  C   UNL A   1      39.365  26.112  28.993  1.00  0.00     0.029 A 
ATOM     36  N   UNL A   1      41.001  27.634  28.907  1.00  0.00    -0.354 N 
ATOM     37  C   UNL A   1      44.759  26.747  26.979  1.00  0.00     0.074 A 
ATOM     38  C   UNL A   1      44.780  25.395  26.465  1.00  0.00     0.031 C 
ATOM     39  C   UNL A   1      38.904  27.229  29.570  1.00  0.00     0.029 A 
ATOM     40  C   UNL A   1      39.961  28.238  29.574  1.00  0.00     0.049 A 
ATOM     41  H   UNL A   1      41.860  28.080  28.730  1.00  0.00     0.167 HD
ATOM     42  C   UNL A   1      45.779  27.630  26.853  1.00  0.00     0.034 A 
ATOM     43  C   UNL A   1      39.862  29.458  30.141  1.00  0.00     0.034 A 
ATOM     44  C   UNL A   1      45.743  28.977  27.369  1.00  0.00     0.049 A 
ATOM     45  C   UNL A   1      41.024  30.410  30.033  1.00  0.00     0.074 A 
ATOM     46  C   UNL A   1      46.719  29.954  27.276  1.00  0.00     0.029 A 
ATOM     47  N   UNL A   1      44.687  29.539  28.074  1.00  0.00    -0.354 N 
ATOM     48  N   UNL A   1      42.174  30.236  29.426  1.00  0.00    -0.248 NA
ATOM     49  C   UNL A   1      40.877  31.723  30.674  1.00  0.00     0.031 C 
ATOM     50  C   UNL A   1      46.285  31.076  27.983  1.00  0.00     0.029 A 
ATOM     51  C   UNL A   1      45.000  30.838  28.445  1.00  0.00     0.049 A 
ATOM     52  H   UNL A   1      43.839  29.083  28.278  1.00  0.00     0.167 HD
ATOM     53  C   UNL A   1      42.884  31.421  29.600  1.00  0.00     0.074 A 
ATOM     54  C   UNL A   1      42.019  32.314  30.344  1.00  0.00     0.031 C 
ATOM     55  C   UNL A   1      44.138  31.733  29.184  1.00  0.00     0.034 A 
BRANCH  42  56
ATOM     56  C   UNL A   1      47.028  27.192  26.119  1.00  0.00     0.023 A 
ATOM     57  C   UNL A   1      48.055  26.516  26.806  1.00  0.00     0.031 A 
ATOM     58  C   UNL A   1      47.252  27.540  24.774  1.00  0.00     0.131 A 
ATOM     59  C   UNL A   1      49.264  26.237  26.157  1.00  0.00     0.055 A 
ATOM     60  C   UNL A   1      48.440  27.215  24.118  1.00  0.00     0.041 A 
ATOM     61  F   UNL A   1      46.309  28.190  24.071  1.00  0.00    -0.206 F 
ATOM     62  C   UNL A   1      49.458  26.572  24.814  1.00  0.00     0.022 A 
BRANCH  59  63
ATOM     63  S   UNL A   1      50.660  25.493  27.045  1.00  0.00     0.124 S 
ATOM     64  O   UNL A   1      51.018  26.557  27.981  1.00  0.00    -0.237 OA
ATOM     65  O   UNL A   1      50.044  24.314  27.649  1.00  0.00    -0.237 OA
ATOM     66  O   UNL A   1      51.642  25.228  26.000  1.00  0.00    -0.744 OA
ENDBRANCH  59  63
ENDBRANCH  42  56
BRANCH  43  67
ATOM     67  C   UNL A   1      38.583  29.828  30.815  1.00  0.00     0.023 A 
ATOM     68  C   UNL A   1      37.577  30.515  30.111  1.00  0.00     0.031 A 
ATOM     69  C   UNL A   1      38.416  29.647  32.198  1.00  0.00     0.131 A 
ATOM     70  C   UNL A   1      36.505  31.086  30.807  1.00  0.00     0.055 A 
ATOM     71  C   UNL A   1      37.302  30.147  32.874  1.00  0.00     0.041 A 
ATOM     72  F   UNL A   1      39.354  29.008  32.913  1.00  0.00    -0.206 F 
ATOM     73  C   UNL A   1      36.352  30.893  32.183  1.00  0.00     0.022 A 
BRANCH  70  74
ATOM     74  S   UNL A   1      35.373  32.239  29.979  1.00  0.00     0.124 S 
ATOM     75  O   UNL A   1      34.412  32.535  31.036  1.00  0.00    -0.237 OA
ATOM     76  O   UNL A   1      36.275  33.331  29.620  1.00  0.00    -0.237 OA
ATOM     77  O   UNL A   1      34.856  31.466  28.854  1.00  0.00    -0.744 OA
ENDBRANCH  70  74
ENDBRANCH  43  67
BRANCH  55  78
ATOM     78  C   UNL A   1      44.694  33.100  29.509  1.00  0.00     0.023 A 
ATOM     79  C   UNL A   1      44.387  34.199  28.683  1.00  0.00     0.031 A 
ATOM     80  C   UNL A   1      45.649  33.282  30.524  1.00  0.00     0.131 A 
ATOM     81  C   UNL A   1      45.068  35.411  28.850  1.00  0.00     0.055 A 
ATOM     82  C   UNL A   1      46.284  34.509  30.723  1.00  0.00     0.041 A 
ATOM     83  F   UNL A   1      45.986  32.264  31.333  1.00  0.00    -0.206 F 
ATOM     84  C   UNL A   1      46.007  35.575  29.873  1.00  0.00     0.022 A 
BRANCH  81  85
ATOM     85  S   UNL A   1      44.837  36.784  27.686  1.00  0.00     0.124 S 
ATOM     86  O   UNL A   1      46.190  36.974  27.170  1.00  0.00    -0.237 OA
ATOM     87  O   UNL A   1      43.880  36.223  26.736  1.00  0.00    -0.237 OA
ATOM     88  O   UNL A   1      44.330  37.870  28.518  1.00  0.00    -0.744 OA
ENDBRANCH  81  85
ENDBRANCH  55  78
ENDBRANCH  29  30
ENDBRANCH  21  24
ENDBRANCH  19  20
ENDBRANCH   1  19
TORSDOF 16
ENDMDL
MODEL 2
REMARK VINA RESULT:     -11.5      2.263      8.204
REMARK SMILES O=C(Cc1ccc(=O)n(C(F)F)c1)NCCCCNC(=O)c1ccc(-c2c3nc(c(-c4cc(S(=O)(=O)[O-])ccc4F)c4ccc([nH]4)c(-c4cc(S(=O)(=O)[O-])ccc4F)c4nc(c(-c5cc(S(=O)(=O)[O-])ccc5F)c5ccc2[nH]5)C=C4)C=C3)cc1
REMARK SMILES IDX 17 1 16 2 15 3 14 4 1 5 2 6 3 8 4 9 5 10 13 11 6 12 9 13
REMARK SMILES IDX 7 14 8 15 10 16 11 17 12 18 18 19 19 20 20 21 21 23 22 24
REMARK SMILES IDX 23 25 84 26 24 27 83 28 25 29 26 30 27 31 77 32 28 33 82 34
REMARK SMILES IDX 76 35 78 36 29 37 81 38 75 39 74 40 30 42 62 43 42 44 61 45
REMARK SMILES IDX 43 46 46 47 60 48 79 49 44 50 45 51 59 53 80 54 47 55 31 56
REMARK SMILES IDX 32 57 40 58 33 59 39 60 41 61 38 62 34 63 35 64 36 65 37 66
REMARK SMILES IDX 63 67 64 68 72 69 65 70 71 71 73 72 70 73 66 74 67 75 68 76
REMARK SMILES IDX 69 77 48 78 49 79 57 80 50 81 56 82 58 83 55 84 51 85 52 86
REMARK SMILES IDX 53 87 54 88
REMARK H PARENT 14 7 19 22 78 41 46 52
REMARK Flexibility Score: inf
ROOT
ATOM      1  C   UNL A   1      38.232  20.513  25.025  1.00  0.00     0.023 C 
ENDROOT
BRANCH   1   2
ATOM      2  C   UNL A   1      37.442  21.788  24.720  1.00  0.00     0.023 C 
BRANCH   2   3
ATOM      3  C   UNL A   1      36.598  22.328  25.873  1.00  0.00     0.116 C 
BRANCH   3   4
ATOM      4  N   UNL A   1      35.513  21.435  26.225  1.00  0.00    -0.356 N 
ATOM      5  O   UNL A   1      33.812  22.957  25.920  1.00  0.00    -0.275 OA
ATOM      6  C   UNL A   1      34.188  21.818  26.182  1.00  0.00     0.224 C 
ATOM      7  H   UNL A   1      35.729  20.517  26.505  1.00  0.00     0.163 HD
BRANCH   6   8
ATOM      8  C   UNL A   1      33.214  20.678  26.460  1.00  0.00     0.137 C 
BRANCH   8   9
ATOM      9  C   UNL A   1      33.002  19.853  25.216  1.00  0.00    -0.022 A 
ATOM     10  C   UNL A   1      32.453  20.497  24.037  1.00  0.00     0.011 A 
ATOM     11  C   UNL A   1      33.322  18.551  25.146  1.00  0.00     0.099 A 
ATOM     12  C   UNL A   1      32.197  19.797  22.925  1.00  0.00     0.072 A 
ATOM     13  N   UNL A   1      33.103  17.812  23.994  1.00  0.00    -0.258 N 
ATOM     14  C   UNL A   1      32.502  18.343  22.864  1.00  0.00     0.254 A 
ATOM     15  O   UNL A   1      32.222  17.723  21.842  1.00  0.00    -0.269 OA
BRANCH  13  16
ATOM     16  C   UNL A   1      33.457  16.418  23.943  1.00  0.00     0.451 C 
ATOM     17  F   UNL A   1      34.354  16.176  22.957  1.00  0.00    -0.185 F 
ATOM     18  F   UNL A   1      34.000  16.001  25.114  1.00  0.00    -0.185 F 
ENDBRANCH  13  16
ENDBRANCH   8   9
ENDBRANCH   6   8
ENDBRANCH   3   4
ENDBRANCH   2   3
ENDBRANCH   1   2
BRANCH   1  19
ATOM     19  C   UNL A   1      39.328  20.659  26.073  1.00  0.00     0.116 C 
BRANCH  19  20
ATOM     20  N   UNL A   1      40.257  19.539  26.083  1.00  0.00    -0.352 N 
ATOM     21  C   UNL A   1      41.634  19.543  26.154  1.00  0.00     0.251 C 
ATOM     22  H   UNL A   1      39.841  18.647  26.030  1.00  0.00     0.163 HD
ATOM     23  O   UNL A   1      42.255  18.495  25.995  1.00  0.00    -0.269 OA
BRANCH  21  24
ATOM     24  C   UNL A   1      42.358  20.817  26.371  1.00  0.00     0.039 A 
ATOM     25  C   UNL A   1      42.605  21.286  27.662  1.00  0.00     0.014 A 
ATOM     26  C   UNL A   1      42.754  21.576  25.266  1.00  0.00     0.014 A 
ATOM     27  C   UNL A   1      43.050  22.590  27.847  1.00  0.00     0.010 A 
ATOM     28  C   UNL A   1      43.298  22.851  25.458  1.00  0.00     0.010 A 
ATOM     29  C   UNL A   1      43.387  23.397  26.747  1.00  0.00    -0.014 A 
BRANCH  29  30
ATOM     30  C   UNL A   1      43.817  24.806  26.972  1.00  0.00     0.031 A 
ATOM     31  C   UNL A   1      42.849  25.839  27.489  1.00  0.00     0.074 A 
ATOM     32  C   UNL A   1      45.104  25.146  26.762  1.00  0.00     0.049 A 
ATOM     33  N   UNL A   1      43.063  27.097  27.779  1.00  0.00    -0.248 NA
ATOM     34  C   UNL A   1      41.459  25.408  27.704  1.00  0.00     0.031 C 
ATOM     35  C   UNL A   1      46.133  24.234  26.267  1.00  0.00     0.029 A 
ATOM     36  N   UNL A   1      45.770  26.330  26.956  1.00  0.00    -0.354 N 
ATOM     37  C   UNL A   1      41.840  27.608  28.201  1.00  0.00     0.074 A 
ATOM     38  C   UNL A   1      40.876  26.537  28.078  1.00  0.00     0.031 C 
ATOM     39  C   UNL A   1      47.310  24.873  26.244  1.00  0.00     0.029 A 
ATOM     40  C   UNL A   1      47.109  26.263  26.647  1.00  0.00     0.049 A 
ATOM     41  H   UNL A   1      45.333  27.148  27.284  1.00  0.00     0.167 HD
ATOM     42  C   UNL A   1      41.553  28.848  28.668  1.00  0.00     0.034 A 
ATOM     43  C   UNL A   1      48.071  27.209  26.666  1.00  0.00     0.034 A 
ATOM     44  C   UNL A   1      42.527  29.906  28.787  1.00  0.00     0.049 A 
ATOM     45  C   UNL A   1      47.723  28.594  27.143  1.00  0.00     0.074 A 
ATOM     46  C   UNL A   1      42.338  31.191  29.266  1.00  0.00     0.029 A 
ATOM     47  N   UNL A   1      43.865  29.811  28.426  1.00  0.00    -0.354 N 
ATOM     48  N   UNL A   1      46.573  29.047  27.581  1.00  0.00    -0.248 NA
ATOM     49  C   UNL A   1      48.798  29.595  27.138  1.00  0.00     0.031 C 
ATOM     50  C   UNL A   1      43.537  31.891  29.126  1.00  0.00     0.029 A 
ATOM     51  C   UNL A   1      44.503  31.022  28.644  1.00  0.00     0.049 A 
ATOM     52  H   UNL A   1      44.296  29.002  28.069  1.00  0.00     0.167 HD
ATOM     53  C   UNL A   1      46.786  30.381  27.917  1.00  0.00     0.074 A 
ATOM     54  C   UNL A   1      48.186  30.651  27.658  1.00  0.00     0.031 C 
ATOM     55  C   UNL A   1      45.901  31.294  28.391  1.00  0.00     0.034 A 
BRANCH  42  56
ATOM     56  C   UNL A   1      40.135  29.145  29.103  1.00  0.00     0.023 A 
ATOM     57  C   UNL A   1      39.785  29.093  30.466  1.00  0.00     0.031 A 
ATOM     58  C   UNL A   1      39.109  29.367  28.166  1.00  0.00     0.131 A 
ATOM     59  C   UNL A   1      38.444  29.231  30.849  1.00  0.00     0.055 A 
ATOM     60  C   UNL A   1      37.782  29.554  28.557  1.00  0.00     0.041 A 
ATOM     61  F   UNL A   1      39.385  29.422  26.852  1.00  0.00    -0.206 F 
ATOM     62  C   UNL A   1      37.443  29.473  29.904  1.00  0.00     0.022 A 
BRANCH  59  63
ATOM     63  S   UNL A   1      37.933  29.032  32.578  1.00  0.00     0.124 S 
ATOM     64  O   UNL A   1      36.635  29.702  32.584  1.00  0.00    -0.237 OA
ATOM     65  O   UNL A   1      37.885  27.579  32.716  1.00  0.00    -0.237 OA
ATOM     66  O   UNL A   1      38.984  29.703  33.335  1.00  0.00    -0.744 OA
ENDBRANCH  59  63
ENDBRANCH  42  56
BRANCH  43  67
ATOM     67  C   UNL A   1      49.453  26.825  26.256  1.00  0.00     0.023 A 
ATOM     68  C   UNL A   1      50.460  26.640  27.222  1.00  0.00     0.031 A 
ATOM     69  C   UNL A   1      49.824  26.799  24.902  1.00  0.00     0.131 A 
ATOM     70  C   UNL A   1      51.798  26.544  26.823  1.00  0.00     0.055 A 
ATOM     71  C   UNL A   1      51.150  26.618  24.507  1.00  0.00     0.041 A 
ATOM     72  F   UNL A   1      48.900  26.982  23.945  1.00  0.00    -0.206 F 
ATOM     73  C   UNL A   1      52.149  26.514  25.471  1.00  0.00     0.022 A 
BRANCH  70  74
ATOM     74  S   UNL A   1      53.137  26.625  28.047  1.00  0.00     0.124 S 
ATOM     75  O   UNL A   1      52.449  26.249  29.278  1.00  0.00    -0.237 OA
ATOM     76  O   UNL A   1      54.077  25.638  27.521  1.00  0.00    -0.237 OA
ATOM     77  O   UNL A   1      53.587  28.011  27.974  1.00  0.00    -0.744 OA
ENDBRANCH  70  74
ENDBRANCH  43  67
BRANCH  55  78
ATOM     78  C   UNL A   1      46.383  32.698  28.673  1.00  0.00     0.023 A 
ATOM     79  C   UNL A   1      46.490  33.630  27.622  1.00  0.00     0.031 A 
ATOM     80  C   UNL A   1      46.891  33.060  29.932  1.00  0.00     0.131 A 
ATOM     81  C   UNL A   1      47.137  34.853  27.834  1.00  0.00     0.055 A 
ATOM     82  C   UNL A   1      47.486  34.304  30.154  1.00  0.00     0.041 A 
ATOM     83  F   UNL A   1      46.826  32.206  30.966  1.00  0.00    -0.206 F 
ATOM     84  C   UNL A   1      47.626  35.200  29.098  1.00  0.00     0.022 A 
BRANCH  81  85
ATOM     85  S   UNL A   1      47.460  35.994  26.460  1.00  0.00     0.124 S 
ATOM     86  O   UNL A   1      46.183  36.690  26.338  1.00  0.00    -0.237 OA
ATOM     87  O   UNL A   1      48.562  36.797  26.982  1.00  0.00    -0.237 OA
ATOM     88  O   UNL A   1      47.798  35.115  25.345  1.00  0.00    -0.744 OA
ENDBRANCH  81  85
ENDBRANCH  55  78
ENDBRANCH  29  30
ENDBRANCH  21  24
ENDBRANCH  19  20
ENDBRANCH   1  19
TORSDOF 16
ENDMDL
MODEL 3
REMARK VINA RESULT:     -11.5      2.220      2.574
REMARK SMILES O=C(Cc1ccc(=O)n(C(F)F)c1)NCCCCNC(=O)c1ccc(-c2c3nc(c(-c4cc(S(=O)(=O)[O-])ccc4F)c4ccc([nH]4)c(-c4cc(S(=O)(=O)[O-])ccc4F)c4nc(c(-c5cc(S(=O)(=O)[O-])ccc5F)c5ccc2[nH]5)C=C4)C=C3)cc1
REMARK SMILES IDX 17 1 16 2 15 3 14 4 1 5 2 6 3 8 4 9 5 10 13 11 6 12 9 13
REMARK SMILES IDX 7 14 8 15 10 16 11 17 12 18 18 19 19 20 20 21 21 23 22 24
REMARK SMILES IDX 23 25 84 26 24 27 83 28 25 29 26 30 27 31 77 32 28 33 82 34
REMARK SMILES IDX 76 35 78 36 29 37 81 38 75 39 74 40 30 42 62 43 42 44 61 45
REMARK SMILES IDX 43 46 46 47 60 48 79 49 44 50 45 51 59 53 80 54 47 55 31 56
REMARK SMILES IDX 32 57 40 58 33 59 39 60 41 61 38 62 34 63 35 64 36 65 37 66
REMARK SMILES IDX 63 67 64 68 72 69 65 70 71 71 73 72 70 73 66 74 67 75 68 76
REMARK SMILES IDX 69 77 48 78 49 79 57 80 50 81 56 82 58 83 55 84 51 85 52 86
REMARK SMILES IDX 53 87 54 88
REMARK H PARENT 14 7 19 22 78 41 46 52
REMARK Flexibility Score: inf
ROOT
ATOM      1  C   UNL A   1      36.414  21.865  24.269  1.00  0.00     0.023 C 
ENDROOT
BRANCH   1   2
ATOM      2  C   UNL A   1      35.861  23.183  23.721  1.00  0.00     0.023 C 
BRANCH   2   3
ATOM      3  C   UNL A   1      34.503  23.607  24.278  1.00  0.00     0.116 C 
BRANCH   3   4
ATOM      4  N   UNL A   1      33.527  22.538  24.219  1.00  0.00    -0.356 N 
ATOM      5  O   UNL A   1      33.530  22.055  26.469  1.00  0.00    -0.275 OA
ATOM      6  C   UNL A   1      33.088  21.866  25.340  1.00  0.00     0.224 C 
ATOM      7  H   UNL A   1      33.162  22.279  23.341  1.00  0.00     0.163 HD
BRANCH   6   8
ATOM      8  C   UNL A   1      31.962  20.876  25.057  1.00  0.00     0.137 C 
BRANCH   8   9
ATOM      9  C   UNL A   1      32.520  19.595  24.493  1.00  0.00    -0.022 A 
ATOM     10  C   UNL A   1      32.430  19.364  23.063  1.00  0.00     0.011 A 
ATOM     11  C   UNL A   1      33.117  18.665  25.257  1.00  0.00     0.099 A 
ATOM     12  C   UNL A   1      32.862  18.219  22.521  1.00  0.00     0.072 A 
ATOM     13  N   UNL A   1      33.609  17.488  24.715  1.00  0.00    -0.258 N 
ATOM     14  C   UNL A   1      33.477  17.167  23.373  1.00  0.00     0.254 A 
ATOM     15  O   UNL A   1      33.830  16.115  22.849  1.00  0.00    -0.269 OA
BRANCH  13  16
ATOM     16  C   UNL A   1      34.248  16.510  25.554  1.00  0.00     0.451 C 
ATOM     17  F   UNL A   1      33.538  15.355  25.588  1.00  0.00    -0.185 F 
ATOM     18  F   UNL A   1      35.498  16.220  25.116  1.00  0.00    -0.185 F 
ENDBRANCH  13  16
ENDBRANCH   8   9
ENDBRANCH   6   8
ENDBRANCH   3   4
ENDBRANCH   2   3
ENDBRANCH   1   2
BRANCH   1  19
ATOM     19  C   UNL A   1      37.141  21.968  25.605  1.00  0.00     0.116 C 
BRANCH  19  20
ATOM     20  N   UNL A   1      38.285  21.074  25.699  1.00  0.00    -0.352 N 
ATOM     21  C   UNL A   1      39.558  21.327  26.163  1.00  0.00     0.251 C 
ATOM     22  H   UNL A   1      38.126  20.154  25.385  1.00  0.00     0.163 HD
ATOM     23  O   UNL A   1      40.437  20.481  26.021  1.00  0.00    -0.269 OA
BRANCH  21  24
ATOM     24  C   UNL A   1      39.871  22.634  26.784  1.00  0.00     0.039 A 
ATOM     25  C   UNL A   1      39.326  23.814  26.277  1.00  0.00     0.014 A 
ATOM     26  C   UNL A   1      40.760  22.685  27.862  1.00  0.00     0.014 A 
ATOM     27  C   UNL A   1      39.826  25.041  26.700  1.00  0.00     0.010 A 
ATOM     28  C   UNL A   1      41.185  23.924  28.356  1.00  0.00     0.010 A 
ATOM     29  C   UNL A   1      40.774  25.113  27.735  1.00  0.00    -0.014 A 
BRANCH  29  30
ATOM     30  C   UNL A   1      41.325  26.437  28.137  1.00  0.00     0.031 A 
ATOM     31  C   UNL A   1      42.744  26.819  27.805  1.00  0.00     0.074 A 
ATOM     32  C   UNL A   1      40.525  27.325  28.759  1.00  0.00     0.049 A 
ATOM     33  N   UNL A   1      43.373  27.942  28.043  1.00  0.00    -0.248 NA
ATOM     34  C   UNL A   1      43.569  25.810  27.122  1.00  0.00     0.031 C 
ATOM     35  C   UNL A   1      39.134  27.071  29.129  1.00  0.00     0.029 A 
ATOM     36  N   UNL A   1      40.751  28.617  29.166  1.00  0.00    -0.354 N 
ATOM     37  C   UNL A   1      44.663  27.774  27.549  1.00  0.00     0.074 A 
ATOM     38  C   UNL A   1      44.742  26.421  27.045  1.00  0.00     0.031 C 
ATOM     39  C   UNL A   1      38.613  28.184  29.662  1.00  0.00     0.029 A 
ATOM     40  C   UNL A   1      39.652  29.208  29.744  1.00  0.00     0.049 A 
ATOM     41  H   UNL A   1      41.615  29.074  29.056  1.00  0.00     0.167 HD
ATOM     42  C   UNL A   1      45.677  28.672  27.499  1.00  0.00     0.034 A 
ATOM     43  C   UNL A   1      39.492  30.429  30.296  1.00  0.00     0.034 A 
ATOM     44  C   UNL A   1      45.581  30.019  28.003  1.00  0.00     0.049 A 
ATOM     45  C   UNL A   1      40.645  31.397  30.275  1.00  0.00     0.074 A 
ATOM     46  C   UNL A   1      46.548  31.010  27.983  1.00  0.00     0.029 A 
ATOM     47  N   UNL A   1      44.464  30.570  28.619  1.00  0.00    -0.354 N 
ATOM     48  N   UNL A   1      41.842  31.237  29.763  1.00  0.00    -0.248 NA
ATOM     49  C   UNL A   1      40.430  32.710  30.896  1.00  0.00     0.031 C 
ATOM     50  C   UNL A   1      46.044  32.128  28.648  1.00  0.00     0.029 A 
ATOM     51  C   UNL A   1      44.729  31.874  29.008  1.00  0.00     0.049 A 
ATOM     52  H   UNL A   1      43.609  30.102  28.757  1.00  0.00     0.167 HD
ATOM     53  C   UNL A   1      42.520  32.432  29.986  1.00  0.00     0.074 A 
ATOM     54  C   UNL A   1      41.586  33.316  30.654  1.00  0.00     0.031 C 
ATOM     55  C   UNL A   1      43.799  32.760  29.670  1.00  0.00     0.034 A 
BRANCH  42  56
ATOM     56  C   UNL A   1      46.986  28.247  26.870  1.00  0.00     0.023 A 
ATOM     57  C   UNL A   1      47.115  28.190  25.469  1.00  0.00     0.031 A 
ATOM     58  C   UNL A   1      48.065  27.792  27.651  1.00  0.00     0.131 A 
ATOM     59  C   UNL A   1      48.280  27.665  24.894  1.00  0.00     0.055 A 
ATOM     60  C   UNL A   1      49.243  27.316  27.073  1.00  0.00     0.041 A 
ATOM     61  F   UNL A   1      47.996  27.819  28.993  1.00  0.00    -0.206 F 
ATOM     62  C   UNL A   1      49.348  27.239  25.688  1.00  0.00     0.022 A 
BRANCH  59  63
ATOM     63  S   UNL A   1      48.429  27.446  23.100  1.00  0.00     0.124 S 
ATOM     64  O   UNL A   1      47.278  28.202  22.611  1.00  0.00    -0.237 OA
ATOM     65  O   UNL A   1      49.731  28.048  22.826  1.00  0.00    -0.237 OA
ATOM     66  O   UNL A   1      48.350  26.002  22.914  1.00  0.00    -0.744 OA
ENDBRANCH  59  63
ENDBRANCH  42  56
BRANCH  43  67
ATOM     67  C   UNL A   1      38.158  30.783  30.864  1.00  0.00     0.023 A 
ATOM     68  C   UNL A   1      37.183  31.407  30.062  1.00  0.00     0.031 A 
ATOM     69  C   UNL A   1      37.901  30.655  32.238  1.00  0.00     0.131 A 
ATOM     70  C   UNL A   1      36.049  31.971  30.658  1.00  0.00     0.055 A 
ATOM     71  C   UNL A   1      36.728  31.145  32.814  1.00  0.00     0.041 A 
ATOM     72  F   UNL A   1      38.805  30.077  33.044  1.00  0.00    -0.206 F 
ATOM     73  C   UNL A   1      35.805  31.829  32.027  1.00  0.00     0.022 A 
BRANCH  70  74
ATOM     74  S   UNL A   1      34.942  33.049  29.705  1.00  0.00     0.124 S 
ATOM     75  O   UNL A   1      34.068  33.584  30.743  1.00  0.00    -0.237 OA
ATOM     76  O   UNL A   1      35.888  33.999  29.122  1.00  0.00    -0.237 OA
ATOM     77  O   UNL A   1      34.310  32.141  28.753  1.00  0.00    -0.744 OA
ENDBRANCH  70  74
ENDBRANCH  43  67
BRANCH  55  78
ATOM     78  C   UNL A   1      44.308  34.136  30.032  1.00  0.00     0.023 A 
ATOM     79  C   UNL A   1      44.819  34.380  31.322  1.00  0.00     0.031 A 
ATOM     80  C   UNL A   1      44.136  35.233  29.170  1.00  0.00     0.131 A 
ATOM     81  C   UNL A   1      45.087  35.692  31.732  1.00  0.00     0.055 A 
ATOM     82  C   UNL A   1      44.458  36.533  29.563  1.00  0.00     0.041 A 
ATOM     83  F   UNL A   1      43.642  35.057  27.933  1.00  0.00    -0.206 F 
ATOM     84  C   UNL A   1      44.919  36.769  30.855  1.00  0.00     0.022 A 
BRANCH  81  85
ATOM     85  S   UNL A   1      45.563  36.061  33.444  1.00  0.00     0.124 S 
ATOM     86  O   UNL A   1      44.266  36.289  34.075  1.00  0.00    -0.237 OA
ATOM     87  O   UNL A   1      46.244  34.833  33.843  1.00  0.00    -0.237 OA
ATOM     88  O   UNL A   1      46.413  37.241  33.326  1.00  0.00    -0.744 OA
ENDBRANCH  81  85
ENDBRANCH  55  78
ENDBRANCH  29  30
ENDBRANCH  21  24
ENDBRANCH  19  20
ENDBRANCH   1  19
TORSDOF 16
ENDMDL
