MODEL 1
REMARK VINA RESULT:     -11.4      0.000      0.000
REMARK SMILES CCC(CC)(NC(=O)c1ccc(NC(C)=O)cc1)C(=O)NCCCCNC(=O)c1ccc(-c2c3nc(c(-c4cc(S(=O)(=O)[O-])ccc4F)c4ccc([nH]4)c(-c4cc(S(=O)(=O)[O-])ccc4F)c4nc(c(-c5cc(S(=O)(=O)[O-])ccc5F)c5ccc2[nH]5)C=C4)C=C3)cc1
REMARK SMILES IDX 23 1 22 2 21 3 19 4 20 5 3 7 2 8 1 9 4 10 5 11 6 12 7 13
REMARK SMILES IDX 8 15 9 16 10 17 18 18 11 19 17 20 12 21 13 22 14 23 15 25
REMARK SMILES IDX 16 26 24 27 25 28 26 29 27 30 28 32 29 33 30 34 91 35 31 36
REMARK SMILES IDX 90 37 32 38 33 39 34 40 84 41 35 42 89 43 83 44 85 45 36 46
REMARK SMILES IDX 88 47 82 48 81 49 37 51 69 52 49 53 68 54 50 55 53 56 67 57
REMARK SMILES IDX 86 58 51 59 52 60 66 62 87 63 54 64 38 65 39 66 47 67 40 68
REMARK SMILES IDX 46 69 48 70 45 71 41 72 42 73 43 74 44 75 70 76 71 77 79 78
REMARK SMILES IDX 72 79 78 80 80 81 77 82 73 83 74 84 75 85 76 86 55 87 56 88
REMARK SMILES IDX 64 89 57 90 63 91 65 92 62 93 58 94 59 95 60 96 61 97
REMARK H PARENT 21 6 6 14 13 24 26 31 85 50 53 61
REMARK Flexibility Score: inf
ROOT
ATOM      1  C   UNL A   1      35.343  23.226  23.575  1.00  0.00     0.023 C 
ENDROOT
BRANCH   1   2
ATOM      2  C   UNL A   1      34.152  24.137  23.864  1.00  0.00     0.116 C 
BRANCH   2   3
ATOM      3  N   UNL A   1      34.382  25.359  24.619  1.00  0.00    -0.354 N 
ATOM      4  C   UNL A   1      33.581  26.152  25.400  1.00  0.00     0.245 C 
ATOM      5  O   UNL A   1      34.177  26.936  26.146  1.00  0.00    -0.272 OA
ATOM      6  H   UNL A   1      35.309  25.686  24.557  1.00  0.00     0.163 HD
BRANCH   4   7
ATOM      7  C   UNL A   1      32.022  26.030  25.430  1.00  0.00     0.118 C 
BRANCH   7   8
ATOM      8  C   UNL A   1      31.398  25.422  24.135  1.00  0.00     0.035 C 
ATOM      9  C   UNL A   1      31.001  26.355  23.000  1.00  0.00     0.007 C 
ENDBRANCH   7   8
BRANCH   7  10
ATOM     10  C   UNL A   1      31.601  27.533  25.592  1.00  0.00     0.035 C 
ATOM     11  C   UNL A   1      31.317  28.052  26.990  1.00  0.00     0.007 C 
ENDBRANCH   7  10
BRANCH   7  12
ATOM     12  N   UNL A   1      31.503  25.193  26.559  1.00  0.00    -0.338 N 
ATOM     13  C   UNL A   1      31.251  23.830  26.706  1.00  0.00     0.252 C 
ATOM     14  H   UNL A   1      31.294  25.716  27.365  1.00  0.00     0.164 HD
ATOM     15  O   UNL A   1      30.325  23.544  27.472  1.00  0.00    -0.269 OA
BRANCH  13  16
ATOM     16  C   UNL A   1      32.052  22.693  26.121  1.00  0.00     0.039 A 
ATOM     17  C   UNL A   1      31.570  21.983  25.004  1.00  0.00     0.016 A 
ATOM     18  C   UNL A   1      33.189  22.175  26.713  1.00  0.00     0.016 A 
ATOM     19  C   UNL A   1      32.183  20.780  24.563  1.00  0.00     0.027 A 
ATOM     20  C   UNL A   1      33.792  20.989  26.307  1.00  0.00     0.027 A 
ATOM     21  C   UNL A   1      33.283  20.264  25.245  1.00  0.00     0.041 A 
BRANCH  21  22
ATOM     22  N   UNL A   1      33.935  19.044  25.011  1.00  0.00    -0.326 N 
ATOM     23  C   UNL A   1      33.415  17.773  24.952  1.00  0.00     0.221 C 
ATOM     24  H   UNL A   1      34.907  19.106  24.866  1.00  0.00     0.169 HD
ATOM     25  C   UNL A   1      34.493  16.733  24.736  1.00  0.00     0.114 C 
ATOM     26  O   UNL A   1      32.225  17.473  25.032  1.00  0.00    -0.275 OA
ENDBRANCH  21  22
ENDBRANCH  13  16
ENDBRANCH   7  12
ENDBRANCH   4   7
ENDBRANCH   2   3
ENDBRANCH   1   2
BRANCH   1  27
ATOM     27  C   UNL A   1      36.674  23.527  24.258  1.00  0.00     0.023 C 
BRANCH  27  28
ATOM     28  C   UNL A   1      36.788  23.153  25.725  1.00  0.00     0.116 C 
BRANCH  28  29
ATOM     29  N   UNL A   1      37.874  22.225  25.983  1.00  0.00    -0.352 N 
ATOM     30  C   UNL A   1      39.148  22.482  26.424  1.00  0.00     0.251 C 
ATOM     31  H   UNL A   1      37.667  21.277  25.819  1.00  0.00     0.163 HD
ATOM     32  O   UNL A   1      39.976  21.570  26.430  1.00  0.00    -0.269 OA
BRANCH  30  33
ATOM     33  C   UNL A   1      39.535  23.844  26.859  1.00  0.00     0.039 A 
ATOM     34  C   UNL A   1      39.319  24.211  28.191  1.00  0.00     0.014 A 
ATOM     35  C   UNL A   1      40.089  24.764  25.964  1.00  0.00     0.014 A 
ATOM     36  C   UNL A   1      39.700  25.481  28.634  1.00  0.00     0.010 A 
ATOM     37  C   UNL A   1      40.535  26.002  26.424  1.00  0.00     0.010 A 
ATOM     38  C   UNL A   1      40.334  26.379  27.761  1.00  0.00    -0.014 A 
BRANCH  38  39
ATOM     39  C   UNL A   1      40.755  27.730  28.216  1.00  0.00     0.031 A 
ATOM     40  C   UNL A   1      42.220  28.068  28.299  1.00  0.00     0.074 A 
ATOM     41  C   UNL A   1      39.830  28.630  28.604  1.00  0.00     0.049 A 
ATOM     42  N   UNL A   1      42.798  29.151  28.753  1.00  0.00    -0.248 NA
ATOM     43  C   UNL A   1      43.159  27.034  27.840  1.00  0.00     0.031 C 
ATOM     44  C   UNL A   1      38.382  28.407  28.603  1.00  0.00     0.029 A 
ATOM     45  N   UNL A   1      39.967  29.908  29.083  1.00  0.00    -0.354 N 
ATOM     46  C   UNL A   1      44.167  28.924  28.647  1.00  0.00     0.074 A 
ATOM     47  C   UNL A   1      44.328  27.574  28.149  1.00  0.00     0.031 C 
ATOM     48  C   UNL A   1      37.766  29.517  29.041  1.00  0.00     0.029 A 
ATOM     49  C   UNL A   1      38.772  30.515  29.393  1.00  0.00     0.049 A 
ATOM     50  H   UNL A   1      40.840  30.351  29.195  1.00  0.00     0.167 HD
ATOM     51  C   UNL A   1      45.192  29.770  28.915  1.00  0.00     0.034 A 
ATOM     52  C   UNL A   1      38.516  31.733  29.911  1.00  0.00     0.034 A 
ATOM     53  C   UNL A   1      45.014  31.119  29.394  1.00  0.00     0.049 A 
ATOM     54  C   UNL A   1      39.671  32.655  30.211  1.00  0.00     0.074 A 
ATOM     55  C   UNL A   1      45.978  32.076  29.660  1.00  0.00     0.029 A 
ATOM     56  N   UNL A   1      43.787  31.704  29.680  1.00  0.00    -0.354 N 
ATOM     57  N   UNL A   1      40.959  32.436  30.074  1.00  0.00    -0.248 NA
ATOM     58  C   UNL A   1      39.337  33.991  30.720  1.00  0.00     0.031 C 
ATOM     59  C   UNL A   1      45.339  33.217  30.162  1.00  0.00     0.029 A 
ATOM     60  C   UNL A   1      43.971  32.999  30.141  1.00  0.00     0.049 A 
ATOM     61  H   UNL A   1      42.913  31.264  29.572  1.00  0.00     0.167 HD
ATOM     62  C   UNL A   1      41.587  33.618  30.455  1.00  0.00     0.074 A 
ATOM     63  C   UNL A   1      40.535  34.550  30.811  1.00  0.00     0.031 C 
ATOM     64  C   UNL A   1      42.911  33.911  30.503  1.00  0.00     0.034 A 
BRANCH  51  65
ATOM     65  C   UNL A   1      46.595  29.244  28.715  1.00  0.00     0.023 A 
ATOM     66  C   UNL A   1      47.131  29.046  27.430  1.00  0.00     0.031 A 
ATOM     67  C   UNL A   1      47.396  28.904  29.818  1.00  0.00     0.131 A 
ATOM     68  C   UNL A   1      48.390  28.446  27.279  1.00  0.00     0.055 A 
ATOM     69  C   UNL A   1      48.685  28.388  29.663  1.00  0.00     0.041 A 
ATOM     70  F   UNL A   1      46.933  29.051  31.070  1.00  0.00    -0.206 F 
ATOM     71  C   UNL A   1      49.182  28.140  28.387  1.00  0.00     0.022 A 
BRANCH  68  72
ATOM     72  S   UNL A   1      48.911  27.935  25.619  1.00  0.00     0.124 S 
ATOM     73  O   UNL A   1      50.120  28.735  25.433  1.00  0.00    -0.237 OA
ATOM     74  O   UNL A   1      49.113  26.499  25.780  1.00  0.00    -0.237 OA
ATOM     75  O   UNL A   1      47.783  28.317  24.773  1.00  0.00    -0.744 OA
ENDBRANCH  68  72
ENDBRANCH  51  65
BRANCH  52  76
ATOM     76  C   UNL A   1      37.113  32.152  30.191  1.00  0.00     0.023 A 
ATOM     77  C   UNL A   1      36.355  32.832  29.227  1.00  0.00     0.031 A 
ATOM     78  C   UNL A   1      36.523  31.909  31.445  1.00  0.00     0.131 A 
ATOM     79  C   UNL A   1      35.065  33.286  29.543  1.00  0.00     0.055 A 
ATOM     80  C   UNL A   1      35.221  32.317  31.737  1.00  0.00     0.041 A 
ATOM     81  F   UNL A   1      37.203  31.256  32.400  1.00  0.00    -0.206 F 
ATOM     82  C   UNL A   1      34.487  33.021  30.787  1.00  0.00     0.022 A 
BRANCH  79  83
ATOM     83  S   UNL A   1      34.179  34.300  28.327  1.00  0.00     0.124 S 
ATOM     84  O   UNL A   1      33.038  33.451  28.007  1.00  0.00    -0.237 OA
ATOM     85  O   UNL A   1      33.887  35.506  29.095  1.00  0.00    -0.237 OA
ATOM     86  O   UNL A   1      35.153  34.470  27.250  1.00  0.00    -0.744 OA
ENDBRANCH  79  83
ENDBRANCH  52  76
BRANCH  64  87
ATOM     87  C   UNL A   1      43.289  35.311  30.919  1.00  0.00     0.023 A 
ATOM     88  C   UNL A   1      43.447  36.345  29.980  1.00  0.00     0.031 A 
ATOM     89  C   UNL A   1      43.503  35.611  32.277  1.00  0.00     0.131 A 
ATOM     90  C   UNL A   1      43.860  37.616  30.405  1.00  0.00     0.055 A 
ATOM     91  C   UNL A   1      43.858  36.892  32.699  1.00  0.00     0.041 A 
ATOM     92  F   UNL A   1      43.365  34.660  33.215  1.00  0.00    -0.206 F 
ATOM     93  C   UNL A   1      44.051  37.901  31.759  1.00  0.00     0.022 A 
BRANCH  90  94
ATOM     94  S   UNL A   1      44.227  38.876  29.152  1.00  0.00     0.124 S 
ATOM     95  O   UNL A   1      45.252  38.217  28.350  1.00  0.00    -0.237 OA
ATOM     96  O   UNL A   1      42.933  39.060  28.505  1.00  0.00    -0.237 OA
ATOM     97  O   UNL A   1      44.693  40.017  29.939  1.00  0.00    -0.744 OA
ENDBRANCH  90  94
ENDBRANCH  64  87
ENDBRANCH  38  39
ENDBRANCH  30  33
ENDBRANCH  28  29
ENDBRANCH  27  28
ENDBRANCH   1  27
TORSDOF 19
ENDMDL
MODEL 2
REMARK VINA RESULT:     -11.1      3.355      9.021
REMARK SMILES CCC(CC)(NC(=O)c1ccc(NC(C)=O)cc1)C(=O)NCCCCNC(=O)c1ccc(-c2c3nc(c(-c4cc(S(=O)(=O)[O-])ccc4F)c4ccc([nH]4)c(-c4cc(S(=O)(=O)[O-])ccc4F)c4nc(c(-c5cc(S(=O)(=O)[O-])ccc5F)c5ccc2[nH]5)C=C4)C=C3)cc1
REMARK SMILES IDX 23 1 22 2 21 3 19 4 20 5 3 7 2 8 1 9 4 10 5 11 6 12 7 13
REMARK SMILES IDX 8 15 9 16 10 17 18 18 11 19 17 20 12 21 13 22 14 23 15 25
REMARK SMILES IDX 16 26 24 27 25 28 26 29 27 30 28 32 29 33 30 34 91 35 31 36
REMARK SMILES IDX 90 37 32 38 33 39 34 40 84 41 35 42 89 43 83 44 85 45 36 46
REMARK SMILES IDX 88 47 82 48 81 49 37 51 69 52 49 53 68 54 50 55 53 56 67 57
REMARK SMILES IDX 86 58 51 59 52 60 66 62 87 63 54 64 38 65 39 66 47 67 40 68
REMARK SMILES IDX 46 69 48 70 45 71 41 72 42 73 43 74 44 75 70 76 71 77 79 78
REMARK SMILES IDX 72 79 78 80 80 81 77 82 73 83 74 84 75 85 76 86 55 87 56 88
REMARK SMILES IDX 64 89 57 90 63 91 65 92 62 93 58 94 59 95 60 96 61 97
REMARK H PARENT 21 6 6 14 13 24 26 31 85 50 53 61
REMARK Flexibility Score: inf
ROOT
ATOM      1  C   UNL A   1      37.274  21.046  24.637  1.00  0.00     0.023 C 
ENDROOT
BRANCH   1   2
ATOM      2  C   UNL A   1      35.787  20.795  24.886  1.00  0.00     0.116 C 
BRANCH   2   3
ATOM      3  N   UNL A   1      35.259  21.036  26.220  1.00  0.00    -0.354 N 
ATOM      4  C   UNL A   1      34.172  21.724  26.695  1.00  0.00     0.245 C 
ATOM      5  O   UNL A   1      33.843  21.458  27.857  1.00  0.00    -0.272 OA
ATOM      6  H   UNL A   1      35.794  20.616  26.932  1.00  0.00     0.163 HD
BRANCH   4   7
ATOM      7  C   UNL A   1      33.334  22.713  25.821  1.00  0.00     0.118 C 
BRANCH   7   8
ATOM      8  C   UNL A   1      33.301  22.360  24.302  1.00  0.00     0.035 C 
ATOM      9  C   UNL A   1      32.288  21.339  23.803  1.00  0.00     0.007 C 
ENDBRANCH   7   8
BRANCH   7  10
ATOM     10  C   UNL A   1      34.105  24.059  26.057  1.00  0.00     0.035 C 
ATOM     11  C   UNL A   1      35.081  24.524  24.991  1.00  0.00     0.007 C 
ENDBRANCH   7  10
BRANCH   7  12
ATOM     12  N   UNL A   1      31.900  22.824  26.240  1.00  0.00    -0.338 N 
ATOM     13  C   UNL A   1      31.015  23.894  26.360  1.00  0.00     0.252 C 
ATOM     14  H   UNL A   1      31.499  21.959  26.483  1.00  0.00     0.164 HD
ATOM     15  O   UNL A   1      30.158  23.775  27.242  1.00  0.00    -0.269 OA
BRANCH  13  16
ATOM     16  C   UNL A   1      30.935  25.107  25.466  1.00  0.00     0.039 A 
ATOM     17  C   UNL A   1      31.298  26.377  25.956  1.00  0.00     0.016 A 
ATOM     18  C   UNL A   1      30.365  25.093  24.207  1.00  0.00     0.016 A 
ATOM     19  C   UNL A   1      31.032  27.564  25.221  1.00  0.00     0.027 A 
ATOM     20  C   UNL A   1      30.080  26.244  23.481  1.00  0.00     0.027 A 
ATOM     21  C   UNL A   1      30.386  27.494  23.988  1.00  0.00     0.041 A 
BRANCH  21  22
ATOM     22  N   UNL A   1      29.955  28.565  23.190  1.00  0.00    -0.326 N 
ATOM     23  C   UNL A   1      28.686  28.890  22.777  1.00  0.00     0.221 C 
ATOM     24  H   UNL A   1      30.665  29.172  22.881  1.00  0.00     0.169 HD
ATOM     25  C   UNL A   1      28.682  30.101  21.869  1.00  0.00     0.114 C 
ATOM     26  O   UNL A   1      27.648  28.315  23.102  1.00  0.00    -0.275 OA
ENDBRANCH  21  22
ENDBRANCH  13  16
ENDBRANCH   7  12
ENDBRANCH   4   7
ENDBRANCH   2   3
ENDBRANCH   1   2
BRANCH   1  27
ATOM     27  C   UNL A   1      38.264  19.930  24.953  1.00  0.00     0.023 C 
BRANCH  27  28
ATOM     28  C   UNL A   1      39.320  20.232  26.001  1.00  0.00     0.116 C 
BRANCH  28  29
ATOM     29  N   UNL A   1      40.437  19.307  25.955  1.00  0.00    -0.352 N 
ATOM     30  C   UNL A   1      41.783  19.569  26.007  1.00  0.00     0.251 C 
ATOM     31  H   UNL A   1      40.195  18.356  25.874  1.00  0.00     0.163 HD
ATOM     32  O   UNL A   1      42.581  18.655  25.792  1.00  0.00    -0.269 OA
BRANCH  30  33
ATOM     33  C   UNL A   1      42.275  20.938  26.287  1.00  0.00     0.039 A 
ATOM     34  C   UNL A   1      42.577  21.287  27.607  1.00  0.00     0.014 A 
ATOM     35  C   UNL A   1      42.423  21.882  25.267  1.00  0.00     0.014 A 
ATOM     36  C   UNL A   1      43.067  22.563  27.896  1.00  0.00     0.010 A 
ATOM     37  C   UNL A   1      42.980  23.129  25.545  1.00  0.00     0.010 A 
ATOM     38  C   UNL A   1      43.297  23.488  26.865  1.00  0.00    -0.014 A 
BRANCH  38  39
ATOM     39  C   UNL A   1      43.828  24.846  27.150  1.00  0.00     0.031 A 
ATOM     40  C   UNL A   1      42.912  25.908  27.696  1.00  0.00     0.074 A 
ATOM     41  C   UNL A   1      45.113  25.140  26.870  1.00  0.00     0.049 A 
ATOM     42  N   UNL A   1      43.152  27.174  27.928  1.00  0.00    -0.248 NA
ATOM     43  C   UNL A   1      41.530  25.496  27.989  1.00  0.00     0.031 C 
ATOM     44  C   UNL A   1      46.089  24.206  26.304  1.00  0.00     0.029 A 
ATOM     45  N   UNL A   1      45.818  26.309  27.012  1.00  0.00    -0.354 N 
ATOM     46  C   UNL A   1      41.950  27.712  28.381  1.00  0.00     0.074 A 
ATOM     47  C   UNL A   1      40.970  26.648  28.324  1.00  0.00     0.031 C 
ATOM     48  C   UNL A   1      47.269  24.833  26.167  1.00  0.00     0.029 A 
ATOM     49  C   UNL A   1      47.126  26.222  26.593  1.00  0.00     0.049 A 
ATOM     50  H   UNL A   1      45.424  27.134  27.379  1.00  0.00     0.167 HD
ATOM     51  C   UNL A   1      41.695  28.967  28.825  1.00  0.00     0.034 A 
ATOM     52  C   UNL A   1      48.095  27.157  26.548  1.00  0.00     0.034 A 
ATOM     53  C   UNL A   1      42.689  30.011  28.891  1.00  0.00     0.049 A 
ATOM     54  C   UNL A   1      47.788  28.550  27.039  1.00  0.00     0.074 A 
ATOM     55  C   UNL A   1      42.551  31.306  29.361  1.00  0.00     0.029 A 
ATOM     56  N   UNL A   1      44.007  29.880  28.473  1.00  0.00    -0.354 N 
ATOM     57  N   UNL A   1      46.654  29.034  27.494  1.00  0.00    -0.248 NA
ATOM     58  C   UNL A   1      48.893  29.517  27.023  1.00  0.00     0.031 C 
ATOM     59  C   UNL A   1      43.768  31.974  29.173  1.00  0.00     0.029 A 
ATOM     60  C   UNL A   1      44.686  31.076  28.654  1.00  0.00     0.049 A 
ATOM     61  H   UNL A   1      44.402  29.059  28.103  1.00  0.00     0.167 HD
ATOM     62  C   UNL A   1      46.919  30.354  27.844  1.00  0.00     0.074 A 
ATOM     63  C   UNL A   1      48.322  30.584  27.561  1.00  0.00     0.031 C 
ATOM     64  C   UNL A   1      46.083  31.292  28.356  1.00  0.00     0.034 A 
BRANCH  51  65
ATOM     65  C   UNL A   1      40.278  29.277  29.250  1.00  0.00     0.023 A 
ATOM     66  C   UNL A   1      39.912  29.331  30.607  1.00  0.00     0.031 A 
ATOM     67  C   UNL A   1      39.273  29.488  28.291  1.00  0.00     0.131 A 
ATOM     68  C   UNL A   1      38.567  29.504  30.965  1.00  0.00     0.055 A 
ATOM     69  C   UNL A   1      37.949  29.746  28.655  1.00  0.00     0.041 A 
ATOM     70  F   UNL A   1      39.555  29.429  26.980  1.00  0.00    -0.206 F 
ATOM     71  C   UNL A   1      37.587  29.739  29.998  1.00  0.00     0.022 A 
BRANCH  68  72
ATOM     72  S   UNL A   1      38.096  29.266  32.700  1.00  0.00     0.124 S 
ATOM     73  O   UNL A   1      38.673  27.954  32.983  1.00  0.00    -0.237 OA
ATOM     74  O   UNL A   1      38.733  30.401  33.358  1.00  0.00    -0.237 OA
ATOM     75  O   UNL A   1      36.635  29.302  32.666  1.00  0.00    -0.744 OA
ENDBRANCH  68  72
ENDBRANCH  51  65
BRANCH  52  76
ATOM     76  C   UNL A   1      49.444  26.818  26.012  1.00  0.00     0.023 A 
ATOM     77  C   UNL A   1      49.911  27.383  24.816  1.00  0.00     0.031 A 
ATOM     78  C   UNL A   1      50.273  25.893  26.674  1.00  0.00     0.131 A 
ATOM     79  C   UNL A   1      51.151  26.987  24.292  1.00  0.00     0.055 A 
ATOM     80  C   UNL A   1      51.528  25.541  26.176  1.00  0.00     0.041 A 
ATOM     81  F   UNL A   1      49.876  25.329  27.825  1.00  0.00    -0.206 F 
ATOM     82  C   UNL A   1      51.969  26.080  24.971  1.00  0.00     0.022 A 
BRANCH  79  83
ATOM     83  S   UNL A   1      51.648  27.617  22.665  1.00  0.00     0.124 S 
ATOM     84  O   UNL A   1      50.569  28.553  22.368  1.00  0.00    -0.237 OA
ATOM     85  O   UNL A   1      52.950  28.210  22.956  1.00  0.00    -0.237 OA
ATOM     86  O   UNL A   1      51.683  26.418  21.831  1.00  0.00    -0.744 OA
ENDBRANCH  79  83
ENDBRANCH  52  76
BRANCH  64  87
ATOM     87  C   UNL A   1      46.679  32.639  28.680  1.00  0.00     0.023 A 
ATOM     88  C   UNL A   1      46.703  33.683  27.740  1.00  0.00     0.031 A 
ATOM     89  C   UNL A   1      47.242  32.876  29.947  1.00  0.00     0.131 A 
ATOM     90  C   UNL A   1      47.324  34.899  28.062  1.00  0.00     0.055 A 
ATOM     91  C   UNL A   1      47.808  34.106  30.281  1.00  0.00     0.041 A 
ATOM     92  F   UNL A   1      47.247  31.912  30.882  1.00  0.00    -0.206 F 
ATOM     93  C   UNL A   1      47.863  35.123  29.331  1.00  0.00     0.022 A 
BRANCH  90  94
ATOM     94  S   UNL A   1      47.494  36.159  26.768  1.00  0.00     0.124 S 
ATOM     95  O   UNL A   1      48.896  36.539  26.896  1.00  0.00    -0.237 OA
ATOM     96  O   UNL A   1      47.142  35.418  25.562  1.00  0.00    -0.237 OA
ATOM     97  O   UNL A   1      46.534  37.189  27.163  1.00  0.00    -0.744 OA
ENDBRANCH  90  94
ENDBRANCH  64  87
ENDBRANCH  38  39
ENDBRANCH  30  33
ENDBRANCH  28  29
ENDBRANCH  27  28
ENDBRANCH   1  27
TORSDOF 19
ENDMDL
MODEL 3
REMARK VINA RESULT:     -11.0      2.120      4.062
REMARK SMILES CCC(CC)(NC(=O)c1ccc(NC(C)=O)cc1)C(=O)NCCCCNC(=O)c1ccc(-c2c3nc(c(-c4cc(S(=O)(=O)[O-])ccc4F)c4ccc([nH]4)c(-c4cc(S(=O)(=O)[O-])ccc4F)c4nc(c(-c5cc(S(=O)(=O)[O-])ccc5F)c5ccc2[nH]5)C=C4)C=C3)cc1
REMARK SMILES IDX 23 1 22 2 21 3 19 4 20 5 3 7 2 8 1 9 4 10 5 11 6 12 7 13
REMARK SMILES IDX 8 15 9 16 10 17 18 18 11 19 17 20 12 21 13 22 14 23 15 25
REMARK SMILES IDX 16 26 24 27 25 28 26 29 27 30 28 32 29 33 30 34 91 35 31 36
REMARK SMILES IDX 90 37 32 38 33 39 34 40 84 41 35 42 89 43 83 44 85 45 36 46
REMARK SMILES IDX 88 47 82 48 81 49 37 51 69 52 49 53 68 54 50 55 53 56 67 57
REMARK SMILES IDX 86 58 51 59 52 60 66 62 87 63 54 64 38 65 39 66 47 67 40 68
REMARK SMILES IDX 46 69 48 70 45 71 41 72 42 73 43 74 44 75 70 76 71 77 79 78
REMARK SMILES IDX 72 79 78 80 80 81 77 82 73 83 74 84 75 85 76 86 55 87 56 88
REMARK SMILES IDX 64 89 57 90 63 91 65 92 62 93 58 94 59 95 60 96 61 97
REMARK H PARENT 21 6 6 14 13 24 26 31 85 50 53 61
REMARK Flexibility Score: inf
ROOT
ATOM      1  C   UNL A   1      35.660  22.968  23.478  1.00  0.00     0.023 C 
ENDROOT
BRANCH   1   2
ATOM      2  C   UNL A   1      34.457  22.270  24.110  1.00  0.00     0.116 C 
BRANCH   2   3
ATOM      3  N   UNL A   1      34.165  22.528  25.512  1.00  0.00    -0.354 N 
ATOM      4  C   UNL A   1      33.352  23.423  26.158  1.00  0.00     0.245 C 
ATOM      5  O   UNL A   1      33.103  23.156  27.339  1.00  0.00    -0.272 OA
ATOM      6  H   UNL A   1      34.654  21.935  26.126  1.00  0.00     0.163 HD
BRANCH   4   7
ATOM      7  C   UNL A   1      32.698  24.654  25.449  1.00  0.00     0.118 C 
BRANCH   7   8
ATOM      8  C   UNL A   1      32.022  24.326  24.082  1.00  0.00     0.035 C 
ATOM      9  C   UNL A   1      30.703  23.566  24.075  1.00  0.00     0.007 C 
ENDBRANCH   7   8
BRANCH   7  10
ATOM     10  C   UNL A   1      33.944  25.584  25.239  1.00  0.00     0.035 C 
ATOM     11  C   UNL A   1      34.070  26.328  23.921  1.00  0.00     0.007 C 
ENDBRANCH   7  10
BRANCH   7  12
ATOM     12  N   UNL A   1      31.642  25.333  26.268  1.00  0.00    -0.338 N 
ATOM     13  C   UNL A   1      31.092  26.613  26.254  1.00  0.00     0.252 C 
ATOM     14  H   UNL A   1      31.257  24.752  26.963  1.00  0.00     0.164 HD
ATOM     15  O   UNL A   1      30.714  27.037  27.351  1.00  0.00    -0.269 OA
BRANCH  13  16
ATOM     16  C   UNL A   1      30.819  27.468  25.041  1.00  0.00     0.039 A 
ATOM     17  C   UNL A   1      31.374  28.760  24.941  1.00  0.00     0.016 A 
ATOM     18  C   UNL A   1      29.910  27.131  24.057  1.00  0.00     0.016 A 
ATOM     19  C   UNL A   1      30.968  29.669  23.928  1.00  0.00     0.027 A 
ATOM     20  C   UNL A   1      29.487  28.014  23.068  1.00  0.00     0.027 A 
ATOM     21  C   UNL A   1      29.990  29.300  23.006  1.00  0.00     0.041 A 
BRANCH  21  22
ATOM     22  N   UNL A   1      29.403  30.105  22.019  1.00  0.00    -0.326 N 
ATOM     23  C   UNL A   1      28.179  30.730  22.015  1.00  0.00     0.221 C 
ATOM     24  H   UNL A   1      29.946  30.245  21.210  1.00  0.00     0.169 HD
ATOM     25  C   UNL A   1      27.919  31.453  20.712  1.00  0.00     0.114 C 
ATOM     26  O   UNL A   1      27.373  30.750  22.945  1.00  0.00    -0.275 OA
ENDBRANCH  21  22
ENDBRANCH  13  16
ENDBRANCH   7  12
ENDBRANCH   4   7
ENDBRANCH   2   3
ENDBRANCH   1   2
BRANCH   1  27
ATOM     27  C   UNL A   1      37.060  22.540  23.908  1.00  0.00     0.023 C 
BRANCH  27  28
ATOM     28  C   UNL A   1      37.472  22.883  25.328  1.00  0.00     0.116 C 
BRANCH  28  29
ATOM     29  N   UNL A   1      38.443  21.951  25.870  1.00  0.00    -0.352 N 
ATOM     30  C   UNL A   1      39.607  22.209  26.550  1.00  0.00     0.251 C 
ATOM     31  H   UNL A   1      38.239  20.999  25.729  1.00  0.00     0.163 HD
ATOM     32  O   UNL A   1      40.379  21.281  26.791  1.00  0.00    -0.269 OA
BRANCH  30  33
ATOM     33  C   UNL A   1      39.947  23.590  26.966  1.00  0.00     0.039 A 
ATOM     34  C   UNL A   1      40.429  23.803  28.261  1.00  0.00     0.014 A 
ATOM     35  C   UNL A   1      39.778  24.674  26.099  1.00  0.00     0.014 A 
ATOM     36  C   UNL A   1      40.782  25.092  28.670  1.00  0.00     0.010 A 
ATOM     37  C   UNL A   1      40.199  25.946  26.483  1.00  0.00     0.010 A 
ATOM     38  C   UNL A   1      40.694  26.171  27.777  1.00  0.00    -0.014 A 
BRANCH  38  39
ATOM     39  C   UNL A   1      41.075  27.547  28.189  1.00  0.00     0.031 A 
ATOM     40  C   UNL A   1      42.523  27.961  28.169  1.00  0.00     0.074 A 
ATOM     41  C   UNL A   1      40.133  28.404  28.631  1.00  0.00     0.049 A 
ATOM     42  N   UNL A   1      43.074  29.077  28.573  1.00  0.00    -0.248 NA
ATOM     43  C   UNL A   1      43.481  26.970  27.656  1.00  0.00     0.031 C 
ATOM     44  C   UNL A   1      38.703  28.107  28.731  1.00  0.00     0.029 A 
ATOM     45  N   UNL A   1      40.237  29.693  29.088  1.00  0.00    -0.354 N 
ATOM     46  C   UNL A   1      44.442  28.919  28.375  1.00  0.00     0.074 A 
ATOM     47  C   UNL A   1      44.639  27.572  27.880  1.00  0.00     0.031 C 
ATOM     48  C   UNL A   1      38.061  29.190  29.200  1.00  0.00     0.029 A 
ATOM     49  C   UNL A   1      39.035  30.242  29.473  1.00  0.00     0.049 A 
ATOM     50  H   UNL A   1      41.091  30.181  29.136  1.00  0.00     0.167 HD
ATOM     51  C   UNL A   1      45.439  29.819  28.565  1.00  0.00     0.034 A 
ATOM     52  C   UNL A   1      38.753  31.452  29.997  1.00  0.00     0.034 A 
ATOM     53  C   UNL A   1      45.223  31.163  29.043  1.00  0.00     0.049 A 
ATOM     54  C   UNL A   1      39.876  32.436  30.208  1.00  0.00     0.074 A 
ATOM     55  C   UNL A   1      46.153  32.171  29.233  1.00  0.00     0.029 A 
ATOM     56  N   UNL A   1      43.990  31.689  29.407  1.00  0.00    -0.354 N 
ATOM     57  N   UNL A   1      41.162  32.281  29.986  1.00  0.00    -0.248 NA
ATOM     58  C   UNL A   1      39.509  33.759  30.727  1.00  0.00     0.031 C 
ATOM     59  C   UNL A   1      45.491  33.284  29.767  1.00  0.00     0.029 A 
ATOM     60  C   UNL A   1      44.138  32.997  29.841  1.00  0.00     0.049 A 
ATOM     61  H   UNL A   1      43.135  31.203  29.362  1.00  0.00     0.167 HD
ATOM     62  C   UNL A   1      41.752  33.498  30.312  1.00  0.00     0.074 A 
ATOM     63  C   UNL A   1      40.680  34.379  30.731  1.00  0.00     0.031 C 
ATOM     64  C   UNL A   1      43.060  33.859  30.267  1.00  0.00     0.034 A 
BRANCH  51  65
ATOM     65  C   UNL A   1      46.850  29.363  28.274  1.00  0.00     0.023 A 
ATOM     66  C   UNL A   1      47.596  28.631  29.216  1.00  0.00     0.031 A 
ATOM     67  C   UNL A   1      47.472  29.692  27.058  1.00  0.00     0.131 A 
ATOM     68  C   UNL A   1      48.941  28.327  28.962  1.00  0.00     0.055 A 
ATOM     69  C   UNL A   1      48.786  29.310  26.775  1.00  0.00     0.041 A 
ATOM     70  F   UNL A   1      46.820  30.406  26.128  1.00  0.00    -0.206 F 
ATOM     71  C   UNL A   1      49.533  28.637  27.736  1.00  0.00     0.022 A 
BRANCH  68  72
ATOM     72  S   UNL A   1      49.946  27.654  30.313  1.00  0.00     0.124 S 
ATOM     73  O   UNL A   1      51.012  28.649  30.409  1.00  0.00    -0.237 OA
ATOM     74  O   UNL A   1      49.001  27.620  31.423  1.00  0.00    -0.237 OA
ATOM     75  O   UNL A   1      50.367  26.348  29.810  1.00  0.00    -0.744 OA
ENDBRANCH  68  72
ENDBRANCH  51  65
BRANCH  52  76
ATOM     76  C   UNL A   1      37.352  31.803  30.368  1.00  0.00     0.023 A 
ATOM     77  C   UNL A   1      36.470  32.352  29.426  1.00  0.00     0.031 A 
ATOM     78  C   UNL A   1      36.888  31.627  31.684  1.00  0.00     0.131 A 
ATOM     79  C   UNL A   1      35.182  32.747  29.820  1.00  0.00     0.055 A 
ATOM     80  C   UNL A   1      35.589  31.974  32.060  1.00  0.00     0.041 A 
ATOM     81  F   UNL A   1      37.691  31.100  32.622  1.00  0.00    -0.206 F 
ATOM     82  C   UNL A   1      34.731  32.550  31.127  1.00  0.00     0.022 A 
BRANCH  79  83
ATOM     83  S   UNL A   1      34.128  33.599  28.614  1.00  0.00     0.124 S 
ATOM     84  O   UNL A   1      33.639  32.486  27.808  1.00  0.00    -0.237 OA
ATOM     85  O   UNL A   1      33.145  34.247  29.477  1.00  0.00    -0.237 OA
ATOM     86  O   UNL A   1      35.051  34.505  27.934  1.00  0.00    -0.744 OA
ENDBRANCH  79  83
ENDBRANCH  52  76
BRANCH  64  87
ATOM     87  C   UNL A   1      43.392  35.281  30.643  1.00  0.00     0.023 A 
ATOM     88  C   UNL A   1      43.425  36.311  29.687  1.00  0.00     0.031 A 
ATOM     89  C   UNL A   1      43.688  35.607  31.979  1.00  0.00     0.131 A 
ATOM     90  C   UNL A   1      43.800  37.607  30.070  1.00  0.00     0.055 A 
ATOM     91  C   UNL A   1      44.005  36.910  32.364  1.00  0.00     0.041 A 
ATOM     92  F   UNL A   1      43.671  34.661  32.932  1.00  0.00    -0.206 F 
ATOM     93  C   UNL A   1      44.075  37.917  31.405  1.00  0.00     0.022 A 
BRANCH  90  94
ATOM     94  S   UNL A   1      44.007  38.870  28.784  1.00  0.00     0.124 S 
ATOM     95  O   UNL A   1      43.566  38.160  27.589  1.00  0.00    -0.237 OA
ATOM     96  O   UNL A   1      43.130  39.938  29.251  1.00  0.00    -0.237 OA
ATOM     97  O   UNL A   1      45.436  39.177  28.832  1.00  0.00    -0.744 OA
ENDBRANCH  90  94
ENDBRANCH  64  87
ENDBRANCH  38  39
ENDBRANCH  30  33
ENDBRANCH  28  29
ENDBRANCH  27  28
ENDBRANCH   1  27
TORSDOF 19
ENDMDL
