MODEL 1
REMARK VINA RESULT:     -12.2      0.000      0.000
REMARK SMILES C[C@@H](C(=O)NCCCCNC(=O)c1ccc(-c2c3nc(c(-c4cc(S(=O)(=O)[O-])ccc4F)c4ccc([nH]4)c(-c4cc(S(=O)(=O)[O-])ccc4F)c4nc(c(-c5cc(S(=O)(=O)[O-])ccc5F)c5ccc2[nH]5)C=C4)C=C3)cc1)c1ccc(N[C@H]2CCC[C@@H]2O)cc1F
REMARK SMILES IDX 7 1 6 2 5 3 3 4 4 5 2 7 1 8 76 9 77 10 88 11 78 12 87 13
REMARK SMILES IDX 89 14 79 15 80 16 81 18 82 19 85 20 83 21 84 22 86 23 8 25
REMARK SMILES IDX 9 26 10 27 11 28 12 30 13 31 14 32 75 33 15 34 74 35 16 36
REMARK SMILES IDX 17 37 18 38 68 39 19 40 73 41 67 42 69 43 20 44 72 45 66 46
REMARK SMILES IDX 65 47 21 49 53 50 33 51 52 52 34 53 37 54 51 55 70 56 35 57
REMARK SMILES IDX 36 58 50 60 71 61 38 62 22 63 23 64 31 65 24 66 30 67 32 68
REMARK SMILES IDX 29 69 25 70 26 71 27 72 28 73 54 74 55 75 63 76 56 77 62 78
REMARK SMILES IDX 64 79 61 80 57 81 58 82 59 83 60 84 39 85 40 86 48 87 41 88
REMARK SMILES IDX 47 89 49 90 46 91 42 92 43 93 44 94 45 95
REMARK H PARENT 5 6 80 17 86 24 10 29 69 48 37 59
REMARK Flexibility Score: inf
ROOT
ATOM      1  C   UNL A   1      31.559  29.038  23.423  1.00  0.00     0.023 C 
ENDROOT
BRANCH   1   2
ATOM      2  C   UNL A   1      30.931  27.835  22.719  1.00  0.00     0.116 C 
BRANCH   2   3
ATOM      3  N   UNL A   1      31.923  27.096  21.966  1.00  0.00    -0.356 N 
ATOM      4  C   UNL A   1      32.860  26.201  22.401  1.00  0.00     0.227 C 
ATOM      5  O   UNL A   1      33.662  25.777  21.566  1.00  0.00    -0.274 OA
ATOM      6  H   UNL A   1      31.923  27.263  20.996  1.00  0.00     0.163 HD
BRANCH   4   7
ATOM      7  C   UNL A   1      32.839  25.724  23.861  1.00  0.00     0.108 C 
ATOM      8  C   UNL A   1      34.014  26.274  24.676  1.00  0.00     0.023 C 
BRANCH   7   9
ATOM      9  C   UNL A   1      32.739  24.207  23.941  1.00  0.00     0.000 A 
ATOM     10  C   UNL A   1      33.830  23.466  24.405  1.00  0.00     0.009 A 
ATOM     11  C   UNL A   1      31.576  23.508  23.616  1.00  0.00     0.129 A 
ATOM     12  C   UNL A   1      33.762  22.070  24.496  1.00  0.00     0.026 A 
ATOM     13  C   UNL A   1      31.515  22.118  23.703  1.00  0.00     0.065 A 
ATOM     14  F   UNL A   1      30.482  24.158  23.198  1.00  0.00    -0.207 F 
ATOM     15  C   UNL A   1      32.611  21.364  24.138  1.00  0.00     0.037 A 
BRANCH  15  16
ATOM     16  N   UNL A   1      32.481  19.994  24.201  1.00  0.00    -0.380 N 
ATOM     17  H   UNL A   1      31.685  19.669  24.681  1.00  0.00     0.160 HD
BRANCH  16  18
ATOM     18  C   UNL A   1      33.348  18.954  23.662  1.00  0.00     0.107 C 
ATOM     19  C   UNL A   1      34.526  18.569  24.560  1.00  0.00     0.027 C 
ATOM     20  C   UNL A   1      32.621  17.646  23.315  1.00  0.00     0.136 C 
ATOM     21  C   UNL A   1      34.598  17.040  24.509  1.00  0.00     0.005 C 
ATOM     22  C   UNL A   1      33.755  16.633  23.306  1.00  0.00     0.034 C 
BRANCH  20  23
ATOM     23  O   UNL A   1      31.986  17.717  22.046  1.00  0.00    -0.391 OA
ATOM     24  H   UNL A   1      31.827  16.820  21.713  1.00  0.00     0.211 HD
ENDBRANCH  20  23
ENDBRANCH  16  18
ENDBRANCH  15  16
ENDBRANCH   7   9
ENDBRANCH   4   7
ENDBRANCH   2   3
ENDBRANCH   1   2
BRANCH   1  25
ATOM     25  C   UNL A   1      31.468  29.000  24.949  1.00  0.00     0.023 C 
BRANCH  25  26
ATOM     26  C   UNL A   1      32.569  29.754  25.683  1.00  0.00     0.116 C 
BRANCH  26  27
ATOM     27  N   UNL A   1      32.145  31.069  26.139  1.00  0.00    -0.352 N 
ATOM     28  C   UNL A   1      32.732  31.884  27.077  1.00  0.00     0.251 C 
ATOM     29  H   UNL A   1      31.328  31.422  25.719  1.00  0.00     0.163 HD
ATOM     30  O   UNL A   1      32.159  32.907  27.441  1.00  0.00    -0.269 OA
BRANCH  28  31
ATOM     31  C   UNL A   1      34.031  31.498  27.666  1.00  0.00     0.039 A 
ATOM     32  C   UNL A   1      34.978  32.492  27.922  1.00  0.00     0.014 A 
ATOM     33  C   UNL A   1      34.302  30.165  27.991  1.00  0.00     0.014 A 
ATOM     34  C   UNL A   1      36.170  32.158  28.569  1.00  0.00     0.010 A 
ATOM     35  C   UNL A   1      35.458  29.847  28.698  1.00  0.00     0.010 A 
ATOM     36  C   UNL A   1      36.403  30.841  28.996  1.00  0.00    -0.014 A 
BRANCH  36  37
ATOM     37  C   UNL A   1      37.629  30.482  29.755  1.00  0.00     0.031 A 
ATOM     38  C   UNL A   1      38.656  29.572  29.139  1.00  0.00     0.074 A 
ATOM     39  C   UNL A   1      37.786  30.925  31.019  1.00  0.00     0.049 A 
ATOM     40  N   UNL A   1      39.747  29.077  29.665  1.00  0.00    -0.248 NA
ATOM     41  C   UNL A   1      38.404  29.138  27.756  1.00  0.00     0.031 C 
ATOM     42  C   UNL A   1      36.841  31.783  31.737  1.00  0.00     0.029 A 
ATOM     43  N   UNL A   1      38.791  30.709  31.928  1.00  0.00    -0.354 N 
ATOM     44  C   UNL A   1      40.306  28.265  28.684  1.00  0.00     0.074 A 
ATOM     45  C   UNL A   1      39.397  28.286  27.556  1.00  0.00     0.031 C 
ATOM     46  C   UNL A   1      37.324  32.040  32.963  1.00  0.00     0.029 A 
ATOM     47  C   UNL A   1      38.587  31.329  33.138  1.00  0.00     0.049 A 
ATOM     48  H   UNL A   1      39.584  30.160  31.732  1.00  0.00     0.167 HD
ATOM     49  C   UNL A   1      41.480  27.585  28.712  1.00  0.00     0.034 A 
ATOM     50  C   UNL A   1      39.327  31.319  34.265  1.00  0.00     0.034 A 
ATOM     51  C   UNL A   1      42.377  27.583  29.841  1.00  0.00     0.049 A 
ATOM     52  C   UNL A   1      40.613  30.531  34.282  1.00  0.00     0.074 A 
ATOM     53  C   UNL A   1      43.612  26.969  29.960  1.00  0.00     0.029 A 
ATOM     54  N   UNL A   1      42.136  28.222  31.051  1.00  0.00    -0.354 N 
ATOM     55  N   UNL A   1      41.149  29.802  33.331  1.00  0.00    -0.248 NA
ATOM     56  C   UNL A   1      41.396  30.574  35.523  1.00  0.00     0.031 C 
ATOM     57  C   UNL A   1      44.086  27.180  31.260  1.00  0.00     0.029 A 
ATOM     58  C   UNL A   1      43.185  27.992  31.930  1.00  0.00     0.049 A 
ATOM     59  H   UNL A   1      41.337  28.760  31.255  1.00  0.00     0.167 HD
ATOM     60  C   UNL A   1      42.351  29.327  33.849  1.00  0.00     0.074 A 
ATOM     61  C   UNL A   1      42.465  29.864  35.190  1.00  0.00     0.031 C 
ATOM     62  C   UNL A   1      43.279  28.526  33.269  1.00  0.00     0.034 A 
BRANCH  49  63
ATOM     63  C   UNL A   1      41.838  26.772  27.490  1.00  0.00     0.023 A 
ATOM     64  C   UNL A   1      41.542  25.400  27.405  1.00  0.00     0.031 A 
ATOM     65  C   UNL A   1      42.511  27.368  26.408  1.00  0.00     0.131 A 
ATOM     66  C   UNL A   1      41.986  24.654  26.302  1.00  0.00     0.055 A 
ATOM     67  C   UNL A   1      42.874  26.637  25.275  1.00  0.00     0.041 A 
ATOM     68  F   UNL A   1      42.839  28.669  26.440  1.00  0.00    -0.206 F 
ATOM     69  C   UNL A   1      42.626  25.268  25.224  1.00  0.00     0.022 A 
BRANCH  66  70
ATOM     70  S   UNL A   1      41.843  22.848  26.367  1.00  0.00     0.124 S 
ATOM     71  O   UNL A   1      42.524  22.543  27.622  1.00  0.00    -0.237 OA
ATOM     72  O   UNL A   1      40.400  22.643  26.356  1.00  0.00    -0.237 OA
ATOM     73  O   UNL A   1      42.545  22.405  25.163  1.00  0.00    -0.744 OA
ENDBRANCH  66  70
ENDBRANCH  49  63
BRANCH  50  74
ATOM     74  C   UNL A   1      38.878  32.068  35.473  1.00  0.00     0.023 A 
ATOM     75  C   UNL A   1      38.284  31.401  36.556  1.00  0.00     0.031 A 
ATOM     76  C   UNL A   1      38.993  33.468  35.543  1.00  0.00     0.131 A 
ATOM     77  C   UNL A   1      37.786  32.137  37.642  1.00  0.00     0.055 A 
ATOM     78  C   UNL A   1      38.543  34.191  36.649  1.00  0.00     0.041 A 
ATOM     79  F   UNL A   1      39.557  34.154  34.536  1.00  0.00    -0.206 F 
ATOM     80  C   UNL A   1      37.922  33.526  37.702  1.00  0.00     0.022 A 
BRANCH  77  81
ATOM     81  S   UNL A   1      36.876  31.257  38.941  1.00  0.00     0.124 S 
ATOM     82  O   UNL A   1      37.783  31.382  40.077  1.00  0.00    -0.237 OA
ATOM     83  O   UNL A   1      35.640  32.029  39.020  1.00  0.00    -0.237 OA
ATOM     84  O   UNL A   1      36.732  29.907  38.401  1.00  0.00    -0.744 OA
ENDBRANCH  77  81
ENDBRANCH  50  74
BRANCH  62  85
ATOM     85  C   UNL A   1      44.522  28.225  34.070  1.00  0.00     0.023 A 
ATOM     86  C   UNL A   1      44.614  27.094  34.901  1.00  0.00     0.031 A 
ATOM     87  C   UNL A   1      45.628  29.093  34.009  1.00  0.00     0.131 A 
ATOM     88  C   UNL A   1      45.763  26.891  35.679  1.00  0.00     0.055 A 
ATOM     89  C   UNL A   1      46.792  28.852  34.740  1.00  0.00     0.041 A 
ATOM     90  F   UNL A   1      45.595  30.189  33.234  1.00  0.00    -0.206 F 
ATOM     91  C   UNL A   1      46.859  27.753  35.591  1.00  0.00     0.022 A 
BRANCH  88  92
ATOM     92  S   UNL A   1      45.773  25.531  36.880  1.00  0.00     0.124 S 
ATOM     93  O   UNL A   1      46.143  24.392  36.046  1.00  0.00    -0.237 OA
ATOM     94  O   UNL A   1      46.777  25.971  37.842  1.00  0.00    -0.237 OA
ATOM     95  O   UNL A   1      44.400  25.509  37.384  1.00  0.00    -0.744 OA
ENDBRANCH  88  92
ENDBRANCH  62  85
ENDBRANCH  36  37
ENDBRANCH  28  31
ENDBRANCH  26  27
ENDBRANCH  25  26
ENDBRANCH   1  25
TORSDOF 18
ENDMDL
MODEL 2
REMARK VINA RESULT:     -12.0      2.286      4.409
REMARK SMILES C[C@@H](C(=O)NCCCCNC(=O)c1ccc(-c2c3nc(c(-c4cc(S(=O)(=O)[O-])ccc4F)c4ccc([nH]4)c(-c4cc(S(=O)(=O)[O-])ccc4F)c4nc(c(-c5cc(S(=O)(=O)[O-])ccc5F)c5ccc2[nH]5)C=C4)C=C3)cc1)c1ccc(N[C@H]2CCC[C@@H]2O)cc1F
REMARK SMILES IDX 7 1 6 2 5 3 3 4 4 5 2 7 1 8 76 9 77 10 88 11 78 12 87 13
REMARK SMILES IDX 89 14 79 15 80 16 81 18 82 19 85 20 83 21 84 22 86 23 8 25
REMARK SMILES IDX 9 26 10 27 11 28 12 30 13 31 14 32 75 33 15 34 74 35 16 36
REMARK SMILES IDX 17 37 18 38 68 39 19 40 73 41 67 42 69 43 20 44 72 45 66 46
REMARK SMILES IDX 65 47 21 49 53 50 33 51 52 52 34 53 37 54 51 55 70 56 35 57
REMARK SMILES IDX 36 58 50 60 71 61 38 62 22 63 23 64 31 65 24 66 30 67 32 68
REMARK SMILES IDX 29 69 25 70 26 71 27 72 28 73 54 74 55 75 63 76 56 77 62 78
REMARK SMILES IDX 64 79 61 80 57 81 58 82 59 83 60 84 39 85 40 86 48 87 41 88
REMARK SMILES IDX 47 89 49 90 46 91 42 92 43 93 44 94 45 95
REMARK H PARENT 5 6 80 17 86 24 10 29 69 48 37 59
REMARK Flexibility Score: inf
ROOT
ATOM      1  C   UNL A   1      34.146  26.664  26.119  1.00  0.00     0.023 C 
ENDROOT
BRANCH   1   2
ATOM      2  C   UNL A   1      33.879  25.182  25.856  1.00  0.00     0.116 C 
BRANCH   2   3
ATOM      3  N   UNL A   1      34.638  24.711  24.717  1.00  0.00    -0.356 N 
ATOM      4  C   UNL A   1      34.238  23.943  23.660  1.00  0.00     0.227 C 
ATOM      5  O   UNL A   1      35.107  23.592  22.860  1.00  0.00    -0.274 OA
ATOM      6  H   UNL A   1      35.583  24.985  24.700  1.00  0.00     0.163 HD
BRANCH   4   7
ATOM      7  C   UNL A   1      32.749  23.607  23.481  1.00  0.00     0.108 C 
ATOM      8  C   UNL A   1      32.517  22.501  22.447  1.00  0.00     0.023 C 
BRANCH   7   9
ATOM      9  C   UNL A   1      31.936  24.858  23.184  1.00  0.00     0.000 A 
ATOM     10  C   UNL A   1      32.319  25.696  22.131  1.00  0.00     0.009 A 
ATOM     11  C   UNL A   1      30.780  25.194  23.887  1.00  0.00     0.129 A 
ATOM     12  C   UNL A   1      31.583  26.850  21.830  1.00  0.00     0.026 A 
ATOM     13  C   UNL A   1      30.055  26.347  23.588  1.00  0.00     0.065 A 
ATOM     14  F   UNL A   1      30.337  24.418  24.886  1.00  0.00    -0.207 F 
ATOM     15  C   UNL A   1      30.445  27.208  22.556  1.00  0.00     0.037 A 
BRANCH  15  16
ATOM     16  N   UNL A   1      29.682  28.329  22.314  1.00  0.00    -0.380 N 
ATOM     17  H   UNL A   1      29.597  28.583  21.366  1.00  0.00     0.160 HD
BRANCH  16  18
ATOM     18  C   UNL A   1      28.982  29.196  23.253  1.00  0.00     0.107 C 
ATOM     19  C   UNL A   1      29.797  30.388  23.759  1.00  0.00     0.027 C 
ATOM     20  C   UNL A   1      27.662  29.769  22.716  1.00  0.00     0.136 C 
ATOM     21  C   UNL A   1      28.838  31.581  23.732  1.00  0.00     0.005 C 
ATOM     22  C   UNL A   1      27.443  30.980  23.610  1.00  0.00     0.034 C 
BRANCH  20  23
ATOM     23  O   UNL A   1      26.594  28.839  22.842  1.00  0.00    -0.391 OA
ATOM     24  H   UNL A   1      26.415  28.677  23.781  1.00  0.00     0.211 HD
ENDBRANCH  20  23
ENDBRANCH  16  18
ENDBRANCH  15  16
ENDBRANCH   7   9
ENDBRANCH   4   7
ENDBRANCH   2   3
ENDBRANCH   1   2
BRANCH   1  25
ATOM     25  C   UNL A   1      33.285  27.620  25.291  1.00  0.00     0.023 C 
BRANCH  25  26
ATOM     26  C   UNL A   1      33.896  28.994  25.046  1.00  0.00     0.116 C 
BRANCH  26  27
ATOM     27  N   UNL A   1      33.032  30.081  25.480  1.00  0.00    -0.352 N 
ATOM     28  C   UNL A   1      33.125  30.851  26.614  1.00  0.00     0.251 C 
ATOM     29  H   UNL A   1      32.280  30.293  24.882  1.00  0.00     0.163 HD
ATOM     30  O   UNL A   1      32.225  31.638  26.893  1.00  0.00    -0.269 OA
BRANCH  28  31
ATOM     31  C   UNL A   1      34.293  30.695  27.507  1.00  0.00     0.039 A 
ATOM     32  C   UNL A   1      34.429  29.515  28.241  1.00  0.00     0.014 A 
ATOM     33  C   UNL A   1      35.264  31.697  27.595  1.00  0.00     0.014 A 
ATOM     34  C   UNL A   1      35.575  29.310  29.012  1.00  0.00     0.010 A 
ATOM     35  C   UNL A   1      36.437  31.461  28.308  1.00  0.00     0.010 A 
ATOM     36  C   UNL A   1      36.605  30.264  29.021  1.00  0.00    -0.014 A 
BRANCH  36  37
ATOM     37  C   UNL A   1      37.866  30.030  29.772  1.00  0.00     0.031 A 
ATOM     38  C   UNL A   1      38.909  29.098  29.219  1.00  0.00     0.074 A 
ATOM     39  C   UNL A   1      38.042  30.607  30.977  1.00  0.00     0.049 A 
ATOM     40  N   UNL A   1      40.033  28.700  29.757  1.00  0.00    -0.248 NA
ATOM     41  C   UNL A   1      38.634  28.514  27.897  1.00  0.00     0.031 C 
ATOM     42  C   UNL A   1      37.086  31.501  31.634  1.00  0.00     0.029 A 
ATOM     43  N   UNL A   1      39.081  30.523  31.870  1.00  0.00    -0.354 N 
ATOM     44  C   UNL A   1      40.594  27.811  28.846  1.00  0.00     0.074 A 
ATOM     45  C   UNL A   1      39.653  27.682  27.753  1.00  0.00     0.031 C 
ATOM     46  C   UNL A   1      37.594  31.902  32.810  1.00  0.00     0.029 A 
ATOM     47  C   UNL A   1      38.888  31.258  33.016  1.00  0.00     0.049 A 
ATOM     48  H   UNL A   1      39.889  29.986  31.705  1.00  0.00     0.167 HD
ATOM     49  C   UNL A   1      41.794  27.180  28.905  1.00  0.00     0.034 A 
ATOM     50  C   UNL A   1      39.661  31.392  34.113  1.00  0.00     0.034 A 
ATOM     51  C   UNL A   1      42.724  27.328  29.998  1.00  0.00     0.049 A 
ATOM     52  C   UNL A   1      40.977  30.657  34.168  1.00  0.00     0.074 A 
ATOM     53  C   UNL A   1      43.985  26.773  30.139  1.00  0.00     0.029 A 
ATOM     54  N   UNL A   1      42.494  28.080  31.143  1.00  0.00    -0.354 N 
ATOM     55  N   UNL A   1      41.513  29.852  33.280  1.00  0.00    -0.248 NA
ATOM     56  C   UNL A   1      41.794  30.857  35.372  1.00  0.00     0.031 C 
ATOM     57  C   UNL A   1      44.488  27.136  31.394  1.00  0.00     0.029 A 
ATOM     58  C   UNL A   1      43.576  27.981  32.006  1.00  0.00     0.049 A 
ATOM     59  H   UNL A   1      41.681  28.607  31.317  1.00  0.00     0.167 HD
ATOM     60  C   UNL A   1      42.746  29.477  33.804  1.00  0.00     0.074 A 
ATOM     61  C   UNL A   1      42.878  30.154  35.079  1.00  0.00     0.031 C 
ATOM     62  C   UNL A   1      43.688  28.653  33.279  1.00  0.00     0.034 A 
BRANCH  49  63
ATOM     63  C   UNL A   1      42.148  26.257  27.763  1.00  0.00     0.023 A 
ATOM     64  C   UNL A   1      41.705  24.924  27.727  1.00  0.00     0.031 A 
ATOM     65  C   UNL A   1      42.965  26.707  26.709  1.00  0.00     0.131 A 
ATOM     66  C   UNL A   1      42.142  24.066  26.706  1.00  0.00     0.055 A 
ATOM     67  C   UNL A   1      43.327  25.870  25.650  1.00  0.00     0.041 A 
ATOM     68  F   UNL A   1      43.437  27.963  26.698  1.00  0.00    -0.206 F 
ATOM     69  C   UNL A   1      42.928  24.537  25.653  1.00  0.00     0.022 A 
BRANCH  66  70
ATOM     70  S   UNL A   1      41.789  22.294  26.856  1.00  0.00     0.124 S 
ATOM     71  O   UNL A   1      42.149  21.808  25.527  1.00  0.00    -0.237 OA
ATOM     72  O   UNL A   1      42.669  21.886  27.945  1.00  0.00    -0.237 OA
ATOM     73  O   UNL A   1      40.360  22.253  27.161  1.00  0.00    -0.744 OA
ENDBRANCH  66  70
ENDBRANCH  49  63
BRANCH  50  74
ATOM     74  C   UNL A   1      39.218  32.246  35.251  1.00  0.00     0.023 A 
ATOM     75  C   UNL A   1      39.674  33.568  35.381  1.00  0.00     0.031 A 
ATOM     76  C   UNL A   1      38.370  31.740  36.251  1.00  0.00     0.131 A 
ATOM     77  C   UNL A   1      39.317  34.323  36.509  1.00  0.00     0.055 A 
ATOM     78  C   UNL A   1      37.975  32.513  37.346  1.00  0.00     0.041 A 
ATOM     79  F   UNL A   1      37.901  30.484  36.173  1.00  0.00    -0.206 F 
ATOM     80  C   UNL A   1      38.462  33.809  37.486  1.00  0.00     0.022 A 
BRANCH  77  81
ATOM     81  S   UNL A   1      40.062  35.963  36.725  1.00  0.00     0.124 S 
ATOM     82  O   UNL A   1      39.715  36.615  35.467  1.00  0.00    -0.237 OA
ATOM     83  O   UNL A   1      39.372  36.454  37.913  1.00  0.00    -0.237 OA
ATOM     84  O   UNL A   1      41.482  35.671  36.908  1.00  0.00    -0.744 OA
ENDBRANCH  77  81
ENDBRANCH  50  74
BRANCH  62  85
ATOM     85  C   UNL A   1      44.964  28.482  34.066  1.00  0.00     0.023 A 
ATOM     86  C   UNL A   1      45.119  27.460  35.018  1.00  0.00     0.031 A 
ATOM     87  C   UNL A   1      46.041  29.366  33.865  1.00  0.00     0.131 A 
ATOM     88  C   UNL A   1      46.297  27.381  35.774  1.00  0.00     0.055 A 
ATOM     89  C   UNL A   1      47.235  29.245  34.577  1.00  0.00     0.041 A 
ATOM     90  F   UNL A   1      45.949  30.363  32.969  1.00  0.00    -0.206 F 
ATOM     91  C   UNL A   1      47.363  28.256  35.548  1.00  0.00     0.022 A 
BRANCH  88  92
ATOM     92  S   UNL A   1      46.387  26.172  37.123  1.00  0.00     0.124 S 
ATOM     93  O   UNL A   1      47.586  26.601  37.837  1.00  0.00    -0.237 OA
ATOM     94  O   UNL A   1      45.122  26.383  37.817  1.00  0.00    -0.237 OA
ATOM     95  O   UNL A   1      46.505  24.890  36.429  1.00  0.00    -0.744 OA
ENDBRANCH  88  92
ENDBRANCH  62  85
ENDBRANCH  36  37
ENDBRANCH  28  31
ENDBRANCH  26  27
ENDBRANCH  25  26
ENDBRANCH   1  25
TORSDOF 18
ENDMDL
MODEL 3
REMARK VINA RESULT:     -11.9      5.793     11.028
REMARK SMILES C[C@@H](C(=O)NCCCCNC(=O)c1ccc(-c2c3nc(c(-c4cc(S(=O)(=O)[O-])ccc4F)c4ccc([nH]4)c(-c4cc(S(=O)(=O)[O-])ccc4F)c4nc(c(-c5cc(S(=O)(=O)[O-])ccc5F)c5ccc2[nH]5)C=C4)C=C3)cc1)c1ccc(N[C@H]2CCC[C@@H]2O)cc1F
REMARK SMILES IDX 7 1 6 2 5 3 3 4 4 5 2 7 1 8 76 9 77 10 88 11 78 12 87 13
REMARK SMILES IDX 89 14 79 15 80 16 81 18 82 19 85 20 83 21 84 22 86 23 8 25
REMARK SMILES IDX 9 26 10 27 11 28 12 30 13 31 14 32 75 33 15 34 74 35 16 36
REMARK SMILES IDX 17 37 18 38 68 39 19 40 73 41 67 42 69 43 20 44 72 45 66 46
REMARK SMILES IDX 65 47 21 49 53 50 33 51 52 52 34 53 37 54 51 55 70 56 35 57
REMARK SMILES IDX 36 58 50 60 71 61 38 62 22 63 23 64 31 65 24 66 30 67 32 68
REMARK SMILES IDX 29 69 25 70 26 71 27 72 28 73 54 74 55 75 63 76 56 77 62 78
REMARK SMILES IDX 64 79 61 80 57 81 58 82 59 83 60 84 39 85 40 86 48 87 41 88
REMARK SMILES IDX 47 89 49 90 46 91 42 92 43 93 44 94 45 95
REMARK H PARENT 5 6 80 17 86 24 10 29 69 48 37 59
REMARK Flexibility Score: inf
ROOT
ATOM      1  C   UNL A   1      37.069  19.634  25.051  1.00  0.00     0.023 C 
ENDROOT
BRANCH   1   2
ATOM      2  C   UNL A   1      35.704  20.214  24.680  1.00  0.00     0.116 C 
BRANCH   2   3
ATOM      3  N   UNL A   1      35.079  20.846  25.823  1.00  0.00    -0.356 N 
ATOM      4  C   UNL A   1      35.203  22.125  26.288  1.00  0.00     0.227 C 
ATOM      5  O   UNL A   1      34.636  22.394  27.349  1.00  0.00    -0.274 OA
ATOM      6  H   UNL A   1      34.475  20.269  26.343  1.00  0.00     0.163 HD
BRANCH   4   7
ATOM      7  C   UNL A   1      35.972  23.167  25.460  1.00  0.00     0.108 C 
ATOM      8  C   UNL A   1      36.962  23.973  26.306  1.00  0.00     0.023 C 
BRANCH   7   9
ATOM      9  C   UNL A   1      35.018  24.057  24.677  1.00  0.00     0.000 A 
ATOM     10  C   UNL A   1      34.514  25.219  25.271  1.00  0.00     0.009 A 
ATOM     11  C   UNL A   1      34.653  23.797  23.357  1.00  0.00     0.129 A 
ATOM     12  C   UNL A   1      33.641  26.061  24.569  1.00  0.00     0.026 A 
ATOM     13  C   UNL A   1      33.779  24.635  22.665  1.00  0.00     0.065 A 
ATOM     14  F   UNL A   1      35.127  22.720  22.716  1.00  0.00    -0.207 F 
ATOM     15  C   UNL A   1      33.245  25.784  23.259  1.00  0.00     0.037 A 
BRANCH  15  16
ATOM     16  N   UNL A   1      32.389  26.568  22.517  1.00  0.00    -0.380 N 
ATOM     17  H   UNL A   1      32.825  27.172  21.872  1.00  0.00     0.160 HD
BRANCH  16  18
ATOM     18  C   UNL A   1      30.933  26.636  22.545  1.00  0.00     0.107 C 
ATOM     19  C   UNL A   1      30.264  25.682  23.539  1.00  0.00     0.027 C 
ATOM     20  C   UNL A   1      30.374  28.035  22.843  1.00  0.00     0.136 C 
ATOM     21  C   UNL A   1      29.161  26.502  24.214  1.00  0.00     0.005 C 
ATOM     22  C   UNL A   1      28.966  27.729  23.331  1.00  0.00     0.034 C 
BRANCH  20  23
ATOM     23  O   UNL A   1      30.348  28.850  21.679  1.00  0.00    -0.391 OA
ATOM     24  H   UNL A   1      30.728  29.719  21.884  1.00  0.00     0.211 HD
ENDBRANCH  20  23
ENDBRANCH  16  18
ENDBRANCH  15  16
ENDBRANCH   7   9
ENDBRANCH   4   7
ENDBRANCH   2   3
ENDBRANCH   1   2
BRANCH   1  25
ATOM     25  C   UNL A   1      38.234  20.616  24.915  1.00  0.00     0.023 C 
BRANCH  25  26
ATOM     26  C   UNL A   1      39.216  20.622  26.080  1.00  0.00     0.116 C 
BRANCH  26  27
ATOM     27  N   UNL A   1      40.175  19.531  26.015  1.00  0.00    -0.352 N 
ATOM     28  C   UNL A   1      41.547  19.588  26.073  1.00  0.00     0.251 C 
ATOM     29  H   UNL A   1      39.790  18.630  25.915  1.00  0.00     0.163 HD
ATOM     30  O   UNL A   1      42.210  18.577  25.863  1.00  0.00    -0.269 OA
BRANCH  28  31
ATOM     31  C   UNL A   1      42.210  20.880  26.353  1.00  0.00     0.039 A 
ATOM     32  C   UNL A   1      42.482  21.743  25.288  1.00  0.00     0.014 A 
ATOM     33  C   UNL A   1      42.535  21.249  27.662  1.00  0.00     0.014 A 
ATOM     34  C   UNL A   1      43.018  23.007  25.546  1.00  0.00     0.010 A 
ATOM     35  C   UNL A   1      43.002  22.535  27.921  1.00  0.00     0.010 A 
ATOM     36  C   UNL A   1      43.246  23.427  26.865  1.00  0.00    -0.014 A 
BRANCH  36  37
ATOM     37  C   UNL A   1      43.741  24.796  27.164  1.00  0.00     0.031 A 
ATOM     38  C   UNL A   1      42.801  25.831  27.720  1.00  0.00     0.074 A 
ATOM     39  C   UNL A   1      45.016  25.123  26.876  1.00  0.00     0.049 A 
ATOM     40  N   UNL A   1      43.017  27.097  27.968  1.00  0.00    -0.248 NA
ATOM     41  C   UNL A   1      41.428  25.387  28.004  1.00  0.00     0.031 C 
ATOM     42  C   UNL A   1      46.012  24.215  26.300  1.00  0.00     0.029 A 
ATOM     43  N   UNL A   1      45.694  26.307  27.019  1.00  0.00    -0.354 N 
ATOM     44  C   UNL A   1      41.807  27.605  28.428  1.00  0.00     0.074 A 
ATOM     45  C   UNL A   1      40.847  26.522  28.360  1.00  0.00     0.031 C 
ATOM     46  C   UNL A   1      47.176  24.868  26.164  1.00  0.00     0.029 A 
ATOM     47  C   UNL A   1      47.002  26.251  26.596  1.00  0.00     0.049 A 
ATOM     48  H   UNL A   1      45.283  27.121  27.389  1.00  0.00     0.167 HD
ATOM     49  C   UNL A   1      41.527  28.851  28.886  1.00  0.00     0.034 A 
ATOM     50  C   UNL A   1      47.950  27.208  26.551  1.00  0.00     0.034 A 
ATOM     51  C   UNL A   1      42.499  29.915  28.955  1.00  0.00     0.049 A 
ATOM     52  C   UNL A   1      47.608  28.594  27.038  1.00  0.00     0.074 A 
ATOM     53  C   UNL A   1      42.337  31.200  29.445  1.00  0.00     0.029 A 
ATOM     54  N   UNL A   1      43.813  29.823  28.516  1.00  0.00    -0.354 N 
ATOM     55  N   UNL A   1      46.469  29.047  27.510  1.00  0.00    -0.248 NA
ATOM     56  C   UNL A   1      48.683  29.593  26.995  1.00  0.00     0.031 C 
ATOM     57  C   UNL A   1      43.531  31.902  29.242  1.00  0.00     0.029 A 
ATOM     58  C   UNL A   1      44.464  31.035  28.697  1.00  0.00     0.049 A 
ATOM     59  H   UNL A   1      44.224  29.015  28.132  1.00  0.00     0.167 HD
ATOM     60  C   UNL A   1      46.703  30.377  27.850  1.00  0.00     0.074 A 
ATOM     61  C   UNL A   1      48.093  30.646  27.542  1.00  0.00     0.031 C 
ATOM     62  C   UNL A   1      45.848  31.291  28.375  1.00  0.00     0.034 A 
BRANCH  49  63
ATOM     63  C   UNL A   1      40.108  29.126  29.323  1.00  0.00     0.023 A 
ATOM     64  C   UNL A   1      39.740  29.123  30.680  1.00  0.00     0.031 A 
ATOM     65  C   UNL A   1      39.101  29.366  28.370  1.00  0.00     0.131 A 
ATOM     66  C   UNL A   1      38.392  29.275  31.042  1.00  0.00     0.055 A 
ATOM     67  C   UNL A   1      37.776  29.602  28.743  1.00  0.00     0.041 A 
ATOM     68  F   UNL A   1      39.386  29.361  27.059  1.00  0.00    -0.206 F 
ATOM     69  C   UNL A   1      37.412  29.541  30.085  1.00  0.00     0.022 A 
BRANCH  66  70
ATOM     70  S   UNL A   1      37.922  28.973  32.767  1.00  0.00     0.124 S 
ATOM     71  O   UNL A   1      36.667  29.714  32.864  1.00  0.00    -0.237 OA
ATOM     72  O   UNL A   1      37.811  27.520  32.816  1.00  0.00    -0.237 OA
ATOM     73  O   UNL A   1      39.032  29.540  33.530  1.00  0.00    -0.744 OA
ENDBRANCH  66  70
ENDBRANCH  49  63
BRANCH  50  74
ATOM     74  C   UNL A   1      49.311  26.902  26.025  1.00  0.00     0.023 A 
ATOM     75  C   UNL A   1      49.720  27.371  24.766  1.00  0.00     0.031 A 
ATOM     76  C   UNL A   1      50.206  26.098  26.751  1.00  0.00     0.131 A 
ATOM     77  C   UNL A   1      50.970  26.993  24.251  1.00  0.00     0.055 A 
ATOM     78  C   UNL A   1      51.471  25.768  26.258  1.00  0.00     0.041 A 
ATOM     79  F   UNL A   1      49.868  25.628  27.963  1.00  0.00    -0.206 F 
ATOM     80  C   UNL A   1      51.852  26.205  24.993  1.00  0.00     0.022 A 
BRANCH  77  81
ATOM     81  S   UNL A   1      51.391  27.477  22.554  1.00  0.00     0.124 S 
ATOM     82  O   UNL A   1      51.165  28.918  22.592  1.00  0.00    -0.237 OA
ATOM     83  O   UNL A   1      52.782  27.049  22.454  1.00  0.00    -0.237 OA
ATOM     84  O   UNL A   1      50.446  26.716  21.739  1.00  0.00    -0.744 OA
ENDBRANCH  77  81
ENDBRANCH  50  74
BRANCH  62  85
ATOM     85  C   UNL A   1      46.414  32.653  28.694  1.00  0.00     0.023 A 
ATOM     86  C   UNL A   1      46.300  33.732  27.801  1.00  0.00     0.031 A 
ATOM     87  C   UNL A   1      47.089  32.869  29.910  1.00  0.00     0.131 A 
ATOM     88  C   UNL A   1      46.900  34.962  28.110  1.00  0.00     0.055 A 
ATOM     89  C   UNL A   1      47.632  34.113  30.239  1.00  0.00     0.041 A 
ATOM     90  F   UNL A   1      47.230  31.874  30.800  1.00  0.00    -0.206 F 
ATOM     91  C   UNL A   1      47.550  35.164  29.330  1.00  0.00     0.022 A 
BRANCH  88  92
ATOM     92  S   UNL A   1      46.898  36.272  26.855  1.00  0.00     0.124 S 
ATOM     93  O   UNL A   1      45.760  37.087  27.267  1.00  0.00    -0.237 OA
ATOM     94  O   UNL A   1      48.213  36.877  27.033  1.00  0.00    -0.237 OA
ATOM     95  O   UNL A   1      46.717  35.544  25.599  1.00  0.00    -0.744 OA
ENDBRANCH  88  92
ENDBRANCH  62  85
ENDBRANCH  36  37
ENDBRANCH  28  31
ENDBRANCH  26  27
ENDBRANCH  25  26
ENDBRANCH   1  25
TORSDOF 18
ENDMDL
