MODEL 1
REMARK VINA RESULT:     -10.1      0.000      0.000
REMARK SMILES CC[C@H](C)[NH2+]CCc1ccc(C(=O)NCCCCNC(=O)c2ccc(-c3c4nc(c(-c5cc(S(=O)(=O)[O-])ccc5F)c5ccc([nH]5)c(-c5cc(S(=O)(=O)[O-])ccc5F)c5nc(c(-c6cc(S(=O)(=O)[O-])ccc6F)c6ccc3[nH]6)C=C5)C=C4)cc2)cc1
REMARK SMILES IDX 15 1 14 2 12 3 13 4 11 6 8 7 9 8 86 9 10 10 85 11 7 12 6 13
REMARK SMILES IDX 5 14 3 17 4 18 2 19 1 20 16 21 17 22 18 23 19 24 20 25 21 27
REMARK SMILES IDX 22 28 23 29 84 30 24 31 83 32 25 33 26 34 27 35 77 36 28 37
REMARK SMILES IDX 82 38 76 39 78 40 29 41 81 42 75 43 74 44 30 46 62 47 42 48
REMARK SMILES IDX 61 49 43 50 46 51 60 52 79 53 44 54 45 55 59 57 80 58 47 59
REMARK SMILES IDX 31 60 32 61 40 62 33 63 39 64 41 65 38 66 34 67 35 68 36 69
REMARK SMILES IDX 37 70 63 71 64 72 72 73 65 74 71 75 73 76 70 77 66 78 67 79
REMARK SMILES IDX 68 80 69 81 48 82 49 83 57 84 50 85 56 86 58 87 55 88 51 89
REMARK SMILES IDX 52 90 53 91 54 92
REMARK H PARENT 14 5 5 15 5 16 19 26 78 45 46 56
REMARK Flexibility Score: inf
ROOT
ATOM      1  C   UNL A   1      32.543  26.800  25.532  1.00  0.00     0.116 C 
ENDROOT
BRANCH   1   2
ATOM      2  N   UNL A   1      31.203  26.503  25.990  1.00  0.00    -0.352 N 
ATOM      3  C   UNL A   1      30.573  25.299  26.158  1.00  0.00     0.251 C 
ATOM      4  O   UNL A   1      29.407  25.290  26.549  1.00  0.00    -0.269 OA
ATOM      5  H   UNL A   1      30.658  27.291  26.217  1.00  0.00     0.163 HD
BRANCH   3   6
ATOM      6  C   UNL A   1      31.284  24.009  25.967  1.00  0.00     0.039 A 
ATOM      7  C   UNL A   1      32.833  21.645  25.752  1.00  0.00    -0.042 A 
ATOM      8  C   UNL A   1      32.774  22.375  26.943  1.00  0.00     0.005 A 
ATOM      9  C   UNL A   1      32.014  22.069  24.698  1.00  0.00     0.005 A 
ATOM     10  C   UNL A   1      32.034  23.552  27.047  1.00  0.00     0.014 A 
ATOM     11  C   UNL A   1      31.231  23.223  24.814  1.00  0.00     0.014 A 
BRANCH   7  12
ATOM     12  C   UNL A   1      33.630  20.369  25.578  1.00  0.00     0.097 C 
BRANCH  12  13
ATOM     13  C   UNL A   1      35.002  20.411  24.867  1.00  0.00     0.265 C 
BRANCH  13  14
ATOM     14  N   UNL A   1      36.207  20.854  25.555  1.00  0.00    -0.344 N 
ATOM     15  H   UNL A   1      36.151  20.502  26.510  1.00  0.00     0.346 HD
ATOM     16  H   UNL A   1      36.963  20.492  24.975  1.00  0.00     0.346 HD
BRANCH  14  17
ATOM     17  C   UNL A   1      36.493  22.284  25.645  1.00  0.00     0.178 C 
ATOM     18  C   UNL A   1      38.017  22.386  25.834  1.00  0.00     0.075 C 
BRANCH  17  19
ATOM     19  C   UNL A   1      36.094  23.156  24.436  1.00  0.00     0.061 C 
ATOM     20  C   UNL A   1      35.148  24.285  24.826  1.00  0.00     0.010 C 
ENDBRANCH  17  19
ENDBRANCH  14  17
ENDBRANCH  13  14
ENDBRANCH  12  13
ENDBRANCH   7  12
ENDBRANCH   3   6
ENDBRANCH   1   2
BRANCH   1  21
ATOM     21  C   UNL A   1      32.491  27.828  24.401  1.00  0.00     0.023 C 
BRANCH  21  22
ATOM     22  C   UNL A   1      33.303  29.093  24.674  1.00  0.00     0.023 C 
BRANCH  22  23
ATOM     23  C   UNL A   1      33.892  29.169  26.074  1.00  0.00     0.116 C 
BRANCH  23  24
ATOM     24  N   UNL A   1      33.743  30.481  26.683  1.00  0.00    -0.352 N 
ATOM     25  C   UNL A   1      34.535  31.063  27.647  1.00  0.00     0.251 C 
ATOM     26  H   UNL A   1      32.981  31.019  26.368  1.00  0.00     0.163 HD
ATOM     27  O   UNL A   1      34.219  32.124  28.151  1.00  0.00    -0.269 OA
BRANCH  25  28
ATOM     28  C   UNL A   1      35.746  30.337  28.083  1.00  0.00     0.039 A 
ATOM     29  C   UNL A   1      36.897  30.422  27.297  1.00  0.00     0.014 A 
ATOM     30  C   UNL A   1      35.756  29.642  29.294  1.00  0.00     0.014 A 
ATOM     31  C   UNL A   1      38.084  29.857  27.763  1.00  0.00     0.010 A 
ATOM     32  C   UNL A   1      36.955  29.143  29.789  1.00  0.00     0.010 A 
ATOM     33  C   UNL A   1      38.129  29.246  29.027  1.00  0.00    -0.014 A 
BRANCH  33  34
ATOM     34  C   UNL A   1      39.396  28.695  29.568  1.00  0.00     0.031 A 
ATOM     35  C   UNL A   1      40.073  29.383  30.720  1.00  0.00     0.074 A 
ATOM     36  C   UNL A   1      39.963  27.625  28.979  1.00  0.00     0.049 A 
ATOM     37  N   UNL A   1      41.219  29.112  31.288  1.00  0.00    -0.248 NA
ATOM     38  C   UNL A   1      39.383  30.553  31.284  1.00  0.00     0.031 C 
ATOM     39  C   UNL A   1      39.417  26.906  27.825  1.00  0.00     0.029 A 
ATOM     40  N   UNL A   1      41.127  26.959  29.263  1.00  0.00    -0.354 N 
ATOM     41  C   UNL A   1      41.396  30.085  32.265  1.00  0.00     0.074 A 
ATOM     42  C   UNL A   1      40.269  30.988  32.167  1.00  0.00     0.031 C 
ATOM     43  C   UNL A   1      40.235  25.888  27.515  1.00  0.00     0.029 A 
ATOM     44  C   UNL A   1      41.380  25.902  28.419  1.00  0.00     0.049 A 
ATOM     45  H   UNL A   1      41.727  27.212  30.001  1.00  0.00     0.167 HD
ATOM     46  C   UNL A   1      42.395  30.202  33.174  1.00  0.00     0.034 A 
ATOM     47  C   UNL A   1      42.423  25.049  28.376  1.00  0.00     0.034 A 
ATOM     48  C   UNL A   1      43.500  29.279  33.267  1.00  0.00     0.049 A 
ATOM     49  C   UNL A   1      43.525  25.201  29.393  1.00  0.00     0.074 A 
ATOM     50  C   UNL A   1      44.535  29.262  34.185  1.00  0.00     0.029 A 
ATOM     51  N   UNL A   1      43.718  28.212  32.404  1.00  0.00    -0.354 N 
ATOM     52  N   UNL A   1      43.651  26.095  30.348  1.00  0.00    -0.248 NA
ATOM     53  C   UNL A   1      44.617  24.223  29.335  1.00  0.00     0.031 C 
ATOM     54  C   UNL A   1      45.407  28.223  33.842  1.00  0.00     0.029 A 
ATOM     55  C   UNL A   1      44.883  27.547  32.753  1.00  0.00     0.049 A 
ATOM     56  H   UNL A   1      43.130  27.965  31.654  1.00  0.00     0.167 HD
ATOM     57  C   UNL A   1      44.822  25.764  31.023  1.00  0.00     0.074 A 
ATOM     58  C   UNL A   1      45.356  24.584  30.374  1.00  0.00     0.031 C 
ATOM     59  C   UNL A   1      45.403  26.377  32.086  1.00  0.00     0.034 A 
BRANCH  46  60
ATOM     60  C   UNL A   1      42.340  31.380  34.117  1.00  0.00     0.023 A 
ATOM     61  C   UNL A   1      41.496  31.387  35.240  1.00  0.00     0.031 A 
ATOM     62  C   UNL A   1      43.116  32.526  33.869  1.00  0.00     0.131 A 
ATOM     63  C   UNL A   1      41.384  32.544  36.026  1.00  0.00     0.055 A 
ATOM     64  C   UNL A   1      43.062  33.644  34.703  1.00  0.00     0.041 A 
ATOM     65  F   UNL A   1      43.926  32.586  32.800  1.00  0.00    -0.206 F 
ATOM     66  C   UNL A   1      42.181  33.664  35.781  1.00  0.00     0.022 A 
BRANCH  63  67
ATOM     67  S   UNL A   1      40.079  32.614  37.283  1.00  0.00     0.124 S 
ATOM     68  O   UNL A   1      39.448  33.897  36.980  1.00  0.00    -0.237 OA
ATOM     69  O   UNL A   1      39.287  31.427  36.983  1.00  0.00    -0.237 OA
ATOM     70  O   UNL A   1      40.815  32.572  38.545  1.00  0.00    -0.744 OA
ENDBRANCH  63  67
ENDBRANCH  46  60
BRANCH  47  71
ATOM     71  C   UNL A   1      42.484  23.980  27.340  1.00  0.00     0.023 A 
ATOM     72  C   UNL A   1      41.875  22.734  27.555  1.00  0.00     0.031 A 
ATOM     73  C   UNL A   1      43.187  24.172  26.138  1.00  0.00     0.131 A 
ATOM     74  C   UNL A   1      42.020  21.710  26.605  1.00  0.00     0.055 A 
ATOM     75  C   UNL A   1      43.288  23.168  25.174  1.00  0.00     0.041 A 
ATOM     76  F   UNL A   1      43.781  25.349  25.879  1.00  0.00    -0.206 F 
ATOM     77  C   UNL A   1      42.713  21.922  25.412  1.00  0.00     0.022 A 
BRANCH  74  78
ATOM     78  S   UNL A   1      41.358  20.067  26.992  1.00  0.00     0.124 S 
ATOM     79  O   UNL A   1      40.804  20.275  28.325  1.00  0.00    -0.237 OA
ATOM     80  O   UNL A   1      40.390  19.871  25.918  1.00  0.00    -0.237 OA
ATOM     81  O   UNL A   1      42.535  19.203  26.932  1.00  0.00    -0.744 OA
ENDBRANCH  74  78
ENDBRANCH  47  71
BRANCH  59  82
ATOM     82  C   UNL A   1      46.657  25.744  32.635  1.00  0.00     0.023 A 
ATOM     83  C   UNL A   1      46.611  24.780  33.658  1.00  0.00     0.031 A 
ATOM     84  C   UNL A   1      47.915  26.121  32.134  1.00  0.00     0.131 A 
ATOM     85  C   UNL A   1      47.805  24.265  34.185  1.00  0.00     0.055 A 
ATOM     86  C   UNL A   1      49.097  25.563  32.623  1.00  0.00     0.041 A 
ATOM     87  F   UNL A   1      48.015  27.037  31.159  1.00  0.00    -0.206 F 
ATOM     88  C   UNL A   1      49.046  24.640  33.663  1.00  0.00     0.022 A 
BRANCH  85  89
ATOM     89  S   UNL A   1      47.719  23.163  35.622  1.00  0.00     0.124 S 
ATOM     90  O   UNL A   1      48.901  23.560  36.380  1.00  0.00    -0.237 OA
ATOM     91  O   UNL A   1      46.434  23.520  36.213  1.00  0.00    -0.237 OA
ATOM     92  O   UNL A   1      47.780  21.827  35.034  1.00  0.00    -0.744 OA
ENDBRANCH  85  89
ENDBRANCH  59  82
ENDBRANCH  33  34
ENDBRANCH  25  28
ENDBRANCH  23  24
ENDBRANCH  22  23
ENDBRANCH  21  22
ENDBRANCH   1  21
TORSDOF 19
ENDMDL
MODEL 2
REMARK VINA RESULT:      -9.8      5.196      8.672
REMARK SMILES CC[C@H](C)[NH2+]CCc1ccc(C(=O)NCCCCNC(=O)c2ccc(-c3c4nc(c(-c5cc(S(=O)(=O)[O-])ccc5F)c5ccc([nH]5)c(-c5cc(S(=O)(=O)[O-])ccc5F)c5nc(c(-c6cc(S(=O)(=O)[O-])ccc6F)c6ccc3[nH]6)C=C5)C=C4)cc2)cc1
REMARK SMILES IDX 15 1 14 2 12 3 13 4 11 6 8 7 9 8 86 9 10 10 85 11 7 12 6 13
REMARK SMILES IDX 5 14 3 17 4 18 2 19 1 20 16 21 17 22 18 23 19 24 20 25 21 27
REMARK SMILES IDX 22 28 23 29 84 30 24 31 83 32 25 33 26 34 27 35 77 36 28 37
REMARK SMILES IDX 82 38 76 39 78 40 29 41 81 42 75 43 74 44 30 46 62 47 42 48
REMARK SMILES IDX 61 49 43 50 46 51 60 52 79 53 44 54 45 55 59 57 80 58 47 59
REMARK SMILES IDX 31 60 32 61 40 62 33 63 39 64 41 65 38 66 34 67 35 68 36 69
REMARK SMILES IDX 37 70 63 71 64 72 72 73 65 74 71 75 73 76 70 77 66 78 67 79
REMARK SMILES IDX 68 80 69 81 48 82 49 83 57 84 50 85 56 86 58 87 55 88 51 89
REMARK SMILES IDX 52 90 53 91 54 92
REMARK H PARENT 14 5 5 15 5 16 19 26 78 45 46 56
REMARK Flexibility Score: inf
ROOT
ATOM      1  C   UNL A   1      35.787  20.425  24.988  1.00  0.00     0.116 C 
ENDROOT
BRANCH   1   2
ATOM      2  N   UNL A   1      34.415  19.971  25.071  1.00  0.00    -0.352 N 
ATOM      3  C   UNL A   1      33.246  20.644  24.832  1.00  0.00     0.251 C 
ATOM      4  O   UNL A   1      32.180  20.051  24.985  1.00  0.00    -0.269 OA
ATOM      5  H   UNL A   1      34.305  19.031  25.341  1.00  0.00     0.163 HD
BRANCH   3   6
ATOM      6  C   UNL A   1      33.235  22.035  24.311  1.00  0.00     0.039 A 
ATOM      7  C   UNL A   1      33.300  24.592  23.089  1.00  0.00    -0.042 A 
ATOM      8  C   UNL A   1      32.906  23.452  22.381  1.00  0.00     0.005 A 
ATOM      9  C   UNL A   1      33.561  24.438  24.456  1.00  0.00     0.005 A 
ATOM     10  C   UNL A   1      32.897  22.189  22.970  1.00  0.00     0.014 A 
ATOM     11  C   UNL A   1      33.505  23.179  25.063  1.00  0.00     0.014 A 
BRANCH   7  12
ATOM     12  C   UNL A   1      33.342  25.985  22.497  1.00  0.00     0.097 C 
BRANCH  12  13
ATOM     13  C   UNL A   1      32.316  27.046  22.956  1.00  0.00     0.265 C 
BRANCH  13  14
ATOM     14  N   UNL A   1      31.071  26.673  23.613  1.00  0.00    -0.344 N 
ATOM     15  H   UNL A   1      30.311  27.029  23.034  1.00  0.00     0.346 HD
ATOM     16  H   UNL A   1      31.143  25.660  23.707  1.00  0.00     0.346 HD
BRANCH  14  17
ATOM     17  C   UNL A   1      30.818  27.131  24.977  1.00  0.00     0.178 C 
ATOM     18  C   UNL A   1      30.328  25.890  25.742  1.00  0.00     0.075 C 
BRANCH  17  19
ATOM     19  C   UNL A   1      32.010  27.737  25.746  1.00  0.00     0.061 C 
ATOM     20  C   UNL A   1      31.743  27.834  27.243  1.00  0.00     0.010 C 
ENDBRANCH  17  19
ENDBRANCH  14  17
ENDBRANCH  13  14
ENDBRANCH  12  13
ENDBRANCH   7  12
ENDBRANCH   3   6
ENDBRANCH   1   2
BRANCH   1  21
ATOM     21  C   UNL A   1      36.734  19.224  25.000  1.00  0.00     0.023 C 
BRANCH  21  22
ATOM     22  C   UNL A   1      38.188  19.577  24.692  1.00  0.00     0.023 C 
BRANCH  22  23
ATOM     23  C   UNL A   1      39.052  19.804  25.923  1.00  0.00     0.116 C 
BRANCH  23  24
ATOM     24  N   UNL A   1      40.253  18.985  25.931  1.00  0.00    -0.352 N 
ATOM     25  C   UNL A   1      41.555  19.391  26.125  1.00  0.00     0.251 C 
ATOM     26  H   UNL A   1      40.120  18.021  25.779  1.00  0.00     0.163 HD
ATOM     27  O   UNL A   1      42.476  18.607  25.988  1.00  0.00    -0.269 OA
BRANCH  25  28
ATOM     28  C   UNL A   1      41.797  20.811  26.455  1.00  0.00     0.039 A 
ATOM     29  C   UNL A   1      42.172  21.142  27.758  1.00  0.00     0.014 A 
ATOM     30  C   UNL A   1      41.724  21.789  25.460  1.00  0.00     0.014 A 
ATOM     31  C   UNL A   1      42.538  22.456  28.049  1.00  0.00     0.010 A 
ATOM     32  C   UNL A   1      42.156  23.080  25.736  1.00  0.00     0.010 A 
ATOM     33  C   UNL A   1      42.566  23.425  27.033  1.00  0.00    -0.014 A 
BRANCH  33  34
ATOM     34  C   UNL A   1      43.012  24.813  27.309  1.00  0.00     0.031 A 
ATOM     35  C   UNL A   1      42.068  25.779  27.970  1.00  0.00     0.074 A 
ATOM     36  C   UNL A   1      44.232  25.214  26.904  1.00  0.00     0.049 A 
ATOM     37  N   UNL A   1      42.233  27.050  28.227  1.00  0.00    -0.248 NA
ATOM     38  C   UNL A   1      40.753  25.250  28.360  1.00  0.00     0.031 C 
ATOM     39  C   UNL A   1      45.212  24.374  26.212  1.00  0.00     0.029 A 
ATOM     40  N   UNL A   1      44.854  26.432  27.008  1.00  0.00    -0.354 N 
ATOM     41  C   UNL A   1      41.037  27.477  28.795  1.00  0.00     0.074 A 
ATOM     42  C   UNL A   1      40.138  26.343  28.784  1.00  0.00     0.031 C 
ATOM     43  C   UNL A   1      46.319  25.096  25.974  1.00  0.00     0.029 A 
ATOM     44  C   UNL A   1      46.116  26.457  26.458  1.00  0.00     0.049 A 
ATOM     45  H   UNL A   1      44.438  27.215  27.435  1.00  0.00     0.167 HD
ATOM     46  C   UNL A   1      40.727  28.697  29.299  1.00  0.00     0.034 A 
ATOM     47  C   UNL A   1      47.001  27.467  26.351  1.00  0.00     0.034 A 
ATOM     48  C   UNL A   1      41.645  29.810  29.317  1.00  0.00     0.049 A 
ATOM     49  C   UNL A   1      46.632  28.816  26.914  1.00  0.00     0.074 A 
ATOM     50  C   UNL A   1      41.462  31.070  29.856  1.00  0.00     0.029 A 
ATOM     51  N   UNL A   1      42.919  29.796  28.764  1.00  0.00    -0.354 N 
ATOM     52  N   UNL A   1      45.517  29.191  27.498  1.00  0.00    -0.248 NA
ATOM     53  C   UNL A   1      47.645  29.874  26.814  1.00  0.00     0.031 C 
ATOM     54  C   UNL A   1      42.600  31.835  29.577  1.00  0.00     0.029 A 
ATOM     55  C   UNL A   1      43.522  31.034  28.926  1.00  0.00     0.049 A 
ATOM     56  H   UNL A   1      43.333  29.020  28.321  1.00  0.00     0.167 HD
ATOM     57  C   UNL A   1      45.709  30.520  27.863  1.00  0.00     0.074 A 
ATOM     58  C   UNL A   1      47.050  30.875  27.444  1.00  0.00     0.031 C 
ATOM     59  C   UNL A   1      44.858  31.370  28.492  1.00  0.00     0.034 A 
BRANCH  46  60
ATOM     60  C   UNL A   1      39.332  28.886  29.846  1.00  0.00     0.023 A 
ATOM     61  C   UNL A   1      38.294  29.408  29.056  1.00  0.00     0.031 A 
ATOM     62  C   UNL A   1      39.046  28.575  31.187  1.00  0.00     0.131 A 
ATOM     63  C   UNL A   1      37.044  29.679  29.631  1.00  0.00     0.055 A 
ATOM     64  C   UNL A   1      37.775  28.770  31.732  1.00  0.00     0.041 A 
ATOM     65  F   UNL A   1      40.002  28.093  31.997  1.00  0.00    -0.206 F 
ATOM     66  C   UNL A   1      36.769  29.340  30.957  1.00  0.00     0.022 A 
BRANCH  63  67
ATOM     67  S   UNL A   1      35.829  30.615  28.661  1.00  0.00     0.124 S 
ATOM     68  O   UNL A   1      34.957  29.548  28.176  1.00  0.00    -0.237 OA
ATOM     69  O   UNL A   1      35.251  31.508  29.658  1.00  0.00    -0.237 OA
ATOM     70  O   UNL A   1      36.639  31.266  27.633  1.00  0.00    -0.744 OA
ENDBRANCH  63  67
ENDBRANCH  46  60
BRANCH  47  71
ATOM     71  C   UNL A   1      48.317  27.253  25.687  1.00  0.00     0.023 A 
ATOM     72  C   UNL A   1      48.468  27.449  24.305  1.00  0.00     0.031 A 
ATOM     73  C   UNL A   1      49.434  26.807  26.415  1.00  0.00     0.131 A 
ATOM     74  C   UNL A   1      49.693  27.156  23.686  1.00  0.00     0.055 A 
ATOM     75  C   UNL A   1      50.665  26.563  25.803  1.00  0.00     0.041 A 
ATOM     76  F   UNL A   1      49.346  26.611  27.741  1.00  0.00    -0.206 F 
ATOM     77  C   UNL A   1      50.795  26.724  24.427  1.00  0.00     0.022 A 
BRANCH  74  78
ATOM     78  S   UNL A   1      49.799  27.268  21.878  1.00  0.00     0.124 S 
ATOM     79  O   UNL A   1      49.217  28.581  21.627  1.00  0.00    -0.237 OA
ATOM     80  O   UNL A   1      51.236  27.148  21.653  1.00  0.00    -0.237 OA
ATOM     81  O   UNL A   1      49.002  26.132  21.420  1.00  0.00    -0.744 OA
ENDBRANCH  74  78
ENDBRANCH  47  71
BRANCH  59  82
ATOM     82  C   UNL A   1      45.379  32.751  28.802  1.00  0.00     0.023 A 
ATOM     83  C   UNL A   1      45.116  33.846  27.962  1.00  0.00     0.031 A 
ATOM     84  C   UNL A   1      46.160  32.967  29.951  1.00  0.00     0.131 A 
ATOM     85  C   UNL A   1      45.675  35.099  28.254  1.00  0.00     0.055 A 
ATOM     86  C   UNL A   1      46.667  34.229  30.267  1.00  0.00     0.041 A 
ATOM     87  F   UNL A   1      46.442  31.955  30.786  1.00  0.00    -0.206 F 
ATOM     88  C   UNL A   1      46.436  35.300  29.410  1.00  0.00     0.022 A 
BRANCH  85  89
ATOM     89  S   UNL A   1      45.468  36.446  27.058  1.00  0.00     0.124 S 
ATOM     90  O   UNL A   1      44.112  36.213  26.571  1.00  0.00    -0.237 OA
ATOM     91  O   UNL A   1      45.652  37.632  27.887  1.00  0.00    -0.237 OA
ATOM     92  O   UNL A   1      46.527  36.204  26.081  1.00  0.00    -0.744 OA
ENDBRANCH  85  89
ENDBRANCH  59  82
ENDBRANCH  33  34
ENDBRANCH  25  28
ENDBRANCH  23  24
ENDBRANCH  22  23
ENDBRANCH  21  22
ENDBRANCH   1  21
TORSDOF 19
ENDMDL
MODEL 3
REMARK VINA RESULT:      -9.8      2.423      7.937
REMARK SMILES CC[C@H](C)[NH2+]CCc1ccc(C(=O)NCCCCNC(=O)c2ccc(-c3c4nc(c(-c5cc(S(=O)(=O)[O-])ccc5F)c5ccc([nH]5)c(-c5cc(S(=O)(=O)[O-])ccc5F)c5nc(c(-c6cc(S(=O)(=O)[O-])ccc6F)c6ccc3[nH]6)C=C5)C=C4)cc2)cc1
REMARK SMILES IDX 15 1 14 2 12 3 13 4 11 6 8 7 9 8 86 9 10 10 85 11 7 12 6 13
REMARK SMILES IDX 5 14 3 17 4 18 2 19 1 20 16 21 17 22 18 23 19 24 20 25 21 27
REMARK SMILES IDX 22 28 23 29 84 30 24 31 83 32 25 33 26 34 27 35 77 36 28 37
REMARK SMILES IDX 82 38 76 39 78 40 29 41 81 42 75 43 74 44 30 46 62 47 42 48
REMARK SMILES IDX 61 49 43 50 46 51 60 52 79 53 44 54 45 55 59 57 80 58 47 59
REMARK SMILES IDX 31 60 32 61 40 62 33 63 39 64 41 65 38 66 34 67 35 68 36 69
REMARK SMILES IDX 37 70 63 71 64 72 72 73 65 74 71 75 73 76 70 77 66 78 67 79
REMARK SMILES IDX 68 80 69 81 48 82 49 83 57 84 50 85 56 86 58 87 55 88 51 89
REMARK SMILES IDX 52 90 53 91 54 92
REMARK H PARENT 14 5 5 15 5 16 19 26 78 45 46 56
REMARK Flexibility Score: inf
ROOT
ATOM      1  C   UNL A   1      32.848  26.639  24.119  1.00  0.00     0.116 C 
ENDROOT
BRANCH   1   2
ATOM      2  N   UNL A   1      31.432  26.459  23.881  1.00  0.00    -0.352 N 
ATOM      3  C   UNL A   1      30.706  25.313  23.696  1.00  0.00     0.251 C 
ATOM      4  O   UNL A   1      29.497  25.404  23.490  1.00  0.00    -0.269 OA
ATOM      5  H   UNL A   1      30.908  27.291  23.847  1.00  0.00     0.163 HD
BRANCH   3   6
ATOM      6  C   UNL A   1      31.321  23.966  23.825  1.00  0.00     0.039 A 
ATOM      7  C   UNL A   1      32.525  21.450  24.327  1.00  0.00    -0.042 A 
ATOM      8  C   UNL A   1      31.656  22.042  25.249  1.00  0.00     0.005 A 
ATOM      9  C   UNL A   1      32.697  22.100  23.099  1.00  0.00     0.005 A 
ATOM     10  C   UNL A   1      31.080  23.290  25.018  1.00  0.00     0.014 A 
ATOM     11  C   UNL A   1      32.082  23.331  22.843  1.00  0.00     0.014 A 
BRANCH   7  12
ATOM     12  C   UNL A   1      33.188  20.104  24.531  1.00  0.00     0.097 C 
BRANCH  12  13
ATOM     13  C   UNL A   1      34.670  20.035  24.967  1.00  0.00     0.265 C 
BRANCH  13  14
ATOM     14  N   UNL A   1      35.222  20.959  25.947  1.00  0.00    -0.344 N 
ATOM     15  H   UNL A   1      34.441  21.494  26.325  1.00  0.00     0.346 HD
ATOM     16  H   UNL A   1      35.720  20.352  26.597  1.00  0.00     0.346 HD
BRANCH  14  17
ATOM     17  C   UNL A   1      36.237  21.924  25.528  1.00  0.00     0.178 C 
ATOM     18  C   UNL A   1      37.180  21.146  24.593  1.00  0.00     0.075 C 
BRANCH  17  19
ATOM     19  C   UNL A   1      35.742  23.181  24.783  1.00  0.00     0.061 C 
ATOM     20  C   UNL A   1      34.888  24.078  25.669  1.00  0.00     0.010 C 
ENDBRANCH  17  19
ENDBRANCH  14  17
ENDBRANCH  13  14
ENDBRANCH  12  13
ENDBRANCH   7  12
ENDBRANCH   3   6
ENDBRANCH   1   2
BRANCH   1  21
ATOM     21  C   UNL A   1      33.457  27.496  23.008  1.00  0.00     0.023 C 
BRANCH  21  22
ATOM     22  C   UNL A   1      33.885  28.890  23.465  1.00  0.00     0.023 C 
BRANCH  22  23
ATOM     23  C   UNL A   1      33.844  29.096  24.971  1.00  0.00     0.116 C 
BRANCH  23  24
ATOM     24  N   UNL A   1      32.872  30.097  25.381  1.00  0.00    -0.352 N 
ATOM     25  C   UNL A   1      32.871  30.858  26.529  1.00  0.00     0.251 C 
ATOM     26  H   UNL A   1      32.121  30.249  24.763  1.00  0.00     0.163 HD
ATOM     27  O   UNL A   1      31.925  31.575  26.797  1.00  0.00    -0.269 OA
BRANCH  25  28
ATOM     28  C   UNL A   1      34.027  30.738  27.442  1.00  0.00     0.039 A 
ATOM     29  C   UNL A   1      34.296  29.499  28.024  1.00  0.00     0.014 A 
ATOM     30  C   UNL A   1      34.873  31.829  27.656  1.00  0.00     0.014 A 
ATOM     31  C   UNL A   1      35.459  29.336  28.776  1.00  0.00     0.010 A 
ATOM     32  C   UNL A   1      36.065  31.646  28.346  1.00  0.00     0.010 A 
ATOM     33  C   UNL A   1      36.368  30.398  28.913  1.00  0.00    -0.014 A 
BRANCH  33  34
ATOM     34  C   UNL A   1      37.640  30.227  29.656  1.00  0.00     0.031 A 
ATOM     35  C   UNL A   1      38.757  29.428  29.045  1.00  0.00     0.074 A 
ATOM     36  C   UNL A   1      37.759  30.733  30.899  1.00  0.00     0.049 A 
ATOM     37  N   UNL A   1      39.913  29.096  29.557  1.00  0.00    -0.248 NA
ATOM     38  C   UNL A   1      38.525  28.905  27.691  1.00  0.00     0.031 C 
ATOM     39  C   UNL A   1      36.722  31.486  31.609  1.00  0.00     0.029 A 
ATOM     40  N   UNL A   1      38.800  30.683  31.790  1.00  0.00    -0.354 N 
ATOM     41  C   UNL A   1      40.540  28.311  28.595  1.00  0.00     0.074 A 
ATOM     42  C   UNL A   1      39.608  28.168  27.498  1.00  0.00     0.031 C 
ATOM     43  C   UNL A   1      37.188  31.845  32.816  1.00  0.00     0.029 A 
ATOM     44  C   UNL A   1      38.538  31.317  32.983  1.00  0.00     0.049 A 
ATOM     45  H   UNL A   1      39.654  30.235  31.596  1.00  0.00     0.167 HD
ATOM     46  C   UNL A   1      41.787  27.780  28.617  1.00  0.00     0.034 A 
ATOM     47  C   UNL A   1      39.299  31.448  34.088  1.00  0.00     0.034 A 
ATOM     48  C   UNL A   1      42.708  27.951  29.714  1.00  0.00     0.049 A 
ATOM     49  C   UNL A   1      40.681  30.844  34.091  1.00  0.00     0.074 A 
ATOM     50  C   UNL A   1      44.015  27.512  29.820  1.00  0.00     0.029 A 
ATOM     51  N   UNL A   1      42.414  28.611  30.901  1.00  0.00    -0.354 N 
ATOM     52  N   UNL A   1      41.282  30.151  33.150  1.00  0.00    -0.248 NA
ATOM     53  C   UNL A   1      41.489  31.050  35.298  1.00  0.00     0.031 C 
ATOM     54  C   UNL A   1      44.491  27.854  31.090  1.00  0.00     0.029 A 
ATOM     55  C   UNL A   1      43.507  28.567  31.754  1.00  0.00     0.049 A 
ATOM     56  H   UNL A   1      41.555  29.046  31.107  1.00  0.00     0.167 HD
ATOM     57  C   UNL A   1      42.551  29.867  33.644  1.00  0.00     0.074 A 
ATOM     58  C   UNL A   1      42.632  30.474  34.957  1.00  0.00     0.031 C 
ATOM     59  C   UNL A   1      43.563  29.172  33.064  1.00  0.00     0.034 A 
BRANCH  46  60
ATOM     60  C   UNL A   1      42.207  26.949  27.429  1.00  0.00     0.023 A 
ATOM     61  C   UNL A   1      42.059  25.551  27.416  1.00  0.00     0.031 A 
ATOM     62  C   UNL A   1      42.797  27.558  26.307  1.00  0.00     0.131 A 
ATOM     63  C   UNL A   1      42.567  24.801  26.345  1.00  0.00     0.055 A 
ATOM     64  C   UNL A   1      43.226  26.813  25.207  1.00  0.00     0.041 A 
ATOM     65  F   UNL A   1      42.983  28.886  26.270  1.00  0.00    -0.206 F 
ATOM     66  C   UNL A   1      43.126  25.425  25.228  1.00  0.00     0.022 A 
BRANCH  63  67
ATOM     67  S   UNL A   1      42.618  22.995  26.499  1.00  0.00     0.124 S 
ATOM     68  O   UNL A   1      41.454  22.740  27.344  1.00  0.00    -0.237 OA
ATOM     69  O   UNL A   1      42.509  22.557  25.113  1.00  0.00    -0.237 OA
ATOM     70  O   UNL A   1      43.909  22.741  27.136  1.00  0.00    -0.744 OA
ENDBRANCH  63  67
ENDBRANCH  46  60
BRANCH  47  71
ATOM     71  C   UNL A   1      38.782  32.175  35.281  1.00  0.00     0.023 A 
ATOM     72  C   UNL A   1      38.323  31.475  36.408  1.00  0.00     0.031 A 
ATOM     73  C   UNL A   1      38.698  33.578  35.297  1.00  0.00     0.131 A 
ATOM     74  C   UNL A   1      37.758  32.176  37.485  1.00  0.00     0.055 A 
ATOM     75  C   UNL A   1      38.181  34.274  36.391  1.00  0.00     0.041 A 
ATOM     76  F   UNL A   1      39.131  34.296  34.248  1.00  0.00    -0.206 F 
ATOM     77  C   UNL A   1      37.694  33.570  37.489  1.00  0.00     0.022 A 
BRANCH  74  78
ATOM     78  S   UNL A   1      37.031  31.228  38.850  1.00  0.00     0.124 S 
ATOM     79  O   UNL A   1      35.748  31.897  39.027  1.00  0.00    -0.237 OA
ATOM     80  O   UNL A   1      36.982  29.881  38.290  1.00  0.00    -0.237 OA
ATOM     81  O   UNL A   1      37.988  31.412  39.939  1.00  0.00    -0.744 OA
ENDBRANCH  74  78
ENDBRANCH  47  71
BRANCH  59  82
ATOM     82  C   UNL A   1      44.855  29.078  33.835  1.00  0.00     0.023 A 
ATOM     83  C   UNL A   1      45.086  28.053  34.769  1.00  0.00     0.031 A 
ATOM     84  C   UNL A   1      45.865  30.037  33.639  1.00  0.00     0.131 A 
ATOM     85  C   UNL A   1      46.276  28.041  35.512  1.00  0.00     0.055 A 
ATOM     86  C   UNL A   1      47.070  29.987  34.339  1.00  0.00     0.041 A 
ATOM     87  F   UNL A   1      45.695  31.037  32.760  1.00  0.00    -0.206 F 
ATOM     88  C   UNL A   1      47.275  28.993  35.291  1.00  0.00     0.022 A 
BRANCH  85  89
ATOM     89  S   UNL A   1      46.466  26.814  36.833  1.00  0.00     0.124 S 
ATOM     90  O   UNL A   1      47.886  26.490  36.746  1.00  0.00    -0.237 OA
ATOM     91  O   UNL A   1      46.054  27.562  38.016  1.00  0.00    -0.237 OA
ATOM     92  O   UNL A   1      45.561  25.737  36.435  1.00  0.00    -0.744 OA
ENDBRANCH  85  89
ENDBRANCH  59  82
ENDBRANCH  33  34
ENDBRANCH  25  28
ENDBRANCH  23  24
ENDBRANCH  22  23
ENDBRANCH  21  22
ENDBRANCH   1  21
TORSDOF 19
ENDMDL
