MODEL 1
REMARK VINA RESULT:     -10.2      0.000      0.000
REMARK SMILES [NH3+]CCOCC(=O)N[C@]1(C(=O)NCCCCNC(=O)c2ccc(-c3c4nc(c(-c5cc(S(=O)(=O)[O-])ccc5F)c5ccc([nH]5)c(-c5cc(S(=O)(=O)[O-])ccc5F)c5nc(c(-c6cc(S(=O)(=O)[O-])ccc6F)c6ccc3[nH]6)C=C5)C=C4)cc2)CCOC1
REMARK SMILES IDX 13 1 12 2 10 3 11 4 9 6 83 7 86 8 84 9 85 10 8 11 6 12 7 13
REMARK SMILES IDX 5 15 4 16 3 17 2 18 1 19 14 23 15 24 16 25 17 26 18 27 19 29
REMARK SMILES IDX 20 30 21 31 82 32 22 33 81 34 23 35 24 36 25 37 75 38 26 39
REMARK SMILES IDX 80 40 74 41 76 42 27 43 79 44 73 45 72 46 28 48 60 49 40 50
REMARK SMILES IDX 59 51 41 52 44 53 58 54 77 55 42 56 43 57 57 59 78 60 45 61
REMARK SMILES IDX 29 62 30 63 38 64 31 65 37 66 39 67 36 68 32 69 33 70 34 71
REMARK SMILES IDX 35 72 61 73 62 74 70 75 63 76 69 77 71 78 68 79 64 80 65 81
REMARK SMILES IDX 66 82 67 83 46 84 47 85 55 86 48 87 54 88 56 89 53 90 49 91
REMARK SMILES IDX 50 92 51 93 52 94
REMARK H PARENT 12 5 8 14 1 20 1 21 1 22 17 28 76 47 44 58
REMARK Flexibility Score: inf
ROOT
ATOM      1  C   UNL A   1      36.537  23.320  25.087  1.00  0.00     0.116 C 
ENDROOT
BRANCH   1   2
ATOM      2  N   UNL A   1      35.778  23.343  23.851  1.00  0.00    -0.354 N 
ATOM      3  C   UNL A   1      34.528  23.814  23.579  1.00  0.00     0.248 C 
ATOM      4  O   UNL A   1      34.143  23.709  22.407  1.00  0.00    -0.272 OA
ATOM      5  H   UNL A   1      36.245  22.952  23.077  1.00  0.00     0.163 HD
BRANCH   3   6
ATOM      6  C   UNL A   1      33.583  24.422  24.667  1.00  0.00     0.144 C 
ATOM      7  C   UNL A   1      34.140  25.742  25.177  1.00  0.00     0.069 C 
ATOM      8  C   UNL A   1      32.221  24.748  24.072  1.00  0.00     0.198 C 
ATOM      9  C   UNL A   1      33.025  26.748  24.998  1.00  0.00     0.163 C 
ATOM     10  O   UNL A   1      31.926  26.126  24.331  1.00  0.00    -0.378 OA
BRANCH   6  11
ATOM     11  N   UNL A   1      33.586  23.412  25.762  1.00  0.00    -0.338 N 
ATOM     12  C   UNL A   1      32.887  22.278  26.022  1.00  0.00     0.246 C 
ATOM     13  O   UNL A   1      32.909  21.832  27.174  1.00  0.00    -0.272 OA
ATOM     14  H   UNL A   1      34.250  23.614  26.459  1.00  0.00     0.164 HD
BRANCH  12  15
ATOM     15  C   UNL A   1      32.131  21.517  24.931  1.00  0.00     0.260 C 
BRANCH  15  16
ATOM     16  O   UNL A   1      32.872  20.782  23.983  1.00  0.00    -0.366 OA
BRANCH  16  17
ATOM     17  C   UNL A   1      33.736  19.788  24.531  1.00  0.00     0.222 C 
BRANCH  17  18
ATOM     18  C   UNL A   1      32.987  18.579  25.116  1.00  0.00     0.287 C 
BRANCH  18  19
ATOM     19  N   UNL A   1      32.836  18.590  26.572  1.00  0.00    -0.356 N 
ATOM     20  H   UNL A   1      32.513  19.510  26.874  1.00  0.00     0.344 HD
ATOM     21  H   UNL A   1      33.734  18.384  27.009  1.00  0.00     0.344 HD
ATOM     22  H   UNL A   1      32.154  17.882  26.849  1.00  0.00     0.344 HD
ENDBRANCH  18  19
ENDBRANCH  17  18
ENDBRANCH  16  17
ENDBRANCH  15  16
ENDBRANCH  12  15
ENDBRANCH   6  11
ENDBRANCH   3   6
ENDBRANCH   1   2
BRANCH   1  23
ATOM     23  C   UNL A   1      36.720  21.910  25.634  1.00  0.00     0.023 C 
BRANCH  23  24
ATOM     24  C   UNL A   1      37.964  21.185  25.127  1.00  0.00     0.023 C 
BRANCH  24  25
ATOM     25  C   UNL A   1      39.144  21.165  26.093  1.00  0.00     0.116 C 
BRANCH  25  26
ATOM     26  N   UNL A   1      39.932  19.941  26.018  1.00  0.00    -0.352 N 
ATOM     27  C   UNL A   1      41.296  19.786  26.121  1.00  0.00     0.251 C 
ATOM     28  H   UNL A   1      39.418  19.113  25.874  1.00  0.00     0.163 HD
ATOM     29  O   UNL A   1      41.811  18.693  25.929  1.00  0.00    -0.269 OA
BRANCH  27  30
ATOM     30  C   UNL A   1      42.122  20.972  26.423  1.00  0.00     0.039 A 
ATOM     31  C   UNL A   1      42.517  21.803  25.373  1.00  0.00     0.014 A 
ATOM     32  C   UNL A   1      42.418  21.303  27.747  1.00  0.00     0.014 A 
ATOM     33  C   UNL A   1      43.127  23.026  25.662  1.00  0.00     0.010 A 
ATOM     34  C   UNL A   1      42.959  22.552  28.033  1.00  0.00     0.010 A 
ATOM     35  C   UNL A   1      43.303  23.432  26.995  1.00  0.00    -0.014 A 
BRANCH  35  36
ATOM     36  C   UNL A   1      43.816  24.784  27.332  1.00  0.00     0.031 A 
ATOM     37  C   UNL A   1      42.874  25.834  27.849  1.00  0.00     0.074 A 
ATOM     38  C   UNL A   1      45.105  25.090  27.081  1.00  0.00     0.049 A 
ATOM     39  N   UNL A   1      43.095  27.101  28.086  1.00  0.00    -0.248 NA
ATOM     40  C   UNL A   1      41.489  25.407  28.099  1.00  0.00     0.031 C 
ATOM     41  C   UNL A   1      46.102  24.168  26.531  1.00  0.00     0.029 A 
ATOM     42  N   UNL A   1      45.795  26.266  27.236  1.00  0.00    -0.354 N 
ATOM     43  C   UNL A   1      41.875  27.629  28.492  1.00  0.00     0.074 A 
ATOM     44  C   UNL A   1      40.907  26.554  28.414  1.00  0.00     0.031 C 
ATOM     45  C   UNL A   1      47.276  24.809  26.410  1.00  0.00     0.029 A 
ATOM     46  C   UNL A   1      47.107  26.196  26.827  1.00  0.00     0.049 A 
ATOM     47  H   UNL A   1      45.390  27.084  27.606  1.00  0.00     0.167 HD
ATOM     48  C   UNL A   1      41.593  28.887  28.911  1.00  0.00     0.034 A 
ATOM     49  C   UNL A   1      48.061  27.148  26.775  1.00  0.00     0.034 A 
ATOM     50  C   UNL A   1      42.576  29.938  29.003  1.00  0.00     0.049 A 
ATOM     51  C   UNL A   1      47.722  28.543  27.236  1.00  0.00     0.074 A 
ATOM     52  C   UNL A   1      42.418  31.226  29.488  1.00  0.00     0.029 A 
ATOM     53  N   UNL A   1      43.898  29.828  28.593  1.00  0.00    -0.354 N 
ATOM     54  N   UNL A   1      46.577  29.010  27.675  1.00  0.00    -0.248 NA
ATOM     55  C   UNL A   1      48.804  29.535  27.199  1.00  0.00     0.031 C 
ATOM     56  C   UNL A   1      43.626  31.910  29.313  1.00  0.00     0.029 A 
ATOM     57  C   UNL A   1      44.558  31.032  28.783  1.00  0.00     0.049 A 
ATOM     58  H   UNL A   1      44.307  29.013  28.222  1.00  0.00     0.167 HD
ATOM     59  C   UNL A   1      46.809  30.346  27.991  1.00  0.00     0.074 A 
ATOM     60  C   UNL A   1      48.205  30.603  27.704  1.00  0.00     0.031 C 
ATOM     61  C   UNL A   1      45.948  31.275  28.477  1.00  0.00     0.034 A 
BRANCH  48  62
ATOM     62  C   UNL A   1      40.161  29.192  29.277  1.00  0.00     0.023 A 
ATOM     63  C   UNL A   1      39.738  29.254  30.616  1.00  0.00     0.031 A 
ATOM     64  C   UNL A   1      39.197  29.392  28.273  1.00  0.00     0.131 A 
ATOM     65  C   UNL A   1      38.379  29.429  30.915  1.00  0.00     0.055 A 
ATOM     66  C   UNL A   1      37.859  29.648  28.578  1.00  0.00     0.041 A 
ATOM     67  F   UNL A   1      39.537  29.325  26.976  1.00  0.00    -0.206 F 
ATOM     68  C   UNL A   1      37.439  29.652  29.905  1.00  0.00     0.022 A 
BRANCH  65  69
ATOM     69  S   UNL A   1      37.837  29.220  32.633  1.00  0.00     0.124 S 
ATOM     70  O   UNL A   1      38.935  29.845  33.365  1.00  0.00    -0.237 OA
ATOM     71  O   UNL A   1      36.566  29.935  32.652  1.00  0.00    -0.237 OA
ATOM     72  O   UNL A   1      37.740  27.770  32.787  1.00  0.00    -0.744 OA
ENDBRANCH  65  69
ENDBRANCH  48  62
BRANCH  49  73
ATOM     73  C   UNL A   1      49.420  26.828  26.253  1.00  0.00     0.023 A 
ATOM     74  C   UNL A   1      49.819  27.243  24.973  1.00  0.00     0.031 A 
ATOM     75  C   UNL A   1      50.327  26.068  27.013  1.00  0.00     0.131 A 
ATOM     76  C   UNL A   1      51.073  26.859  24.472  1.00  0.00     0.055 A 
ATOM     77  C   UNL A   1      51.592  25.730  26.530  1.00  0.00     0.041 A 
ATOM     78  F   UNL A   1      49.998  25.653  28.247  1.00  0.00    -0.206 F 
ATOM     79  C   UNL A   1      51.966  26.116  25.246  1.00  0.00     0.022 A 
BRANCH  76  80
ATOM     80  S   UNL A   1      51.490  27.285  22.759  1.00  0.00     0.124 S 
ATOM     81  O   UNL A   1      50.187  27.213  22.109  1.00  0.00    -0.237 OA
ATOM     82  O   UNL A   1      52.061  28.620  22.910  1.00  0.00    -0.237 OA
ATOM     83  O   UNL A   1      52.440  26.243  22.373  1.00  0.00    -0.744 OA
ENDBRANCH  76  80
ENDBRANCH  49  73
BRANCH  61  84
ATOM     84  C   UNL A   1      46.511  32.645  28.762  1.00  0.00     0.023 A 
ATOM     85  C   UNL A   1      46.554  33.643  27.774  1.00  0.00     0.031 A 
ATOM     86  C   UNL A   1      47.014  32.949  30.038  1.00  0.00     0.131 A 
ATOM     87  C   UNL A   1      47.132  34.888  28.067  1.00  0.00     0.055 A 
ATOM     88  C   UNL A   1      47.539  34.207  30.339  1.00  0.00     0.041 A 
ATOM     89  F   UNL A   1      46.998  32.030  31.017  1.00  0.00    -0.206 F 
ATOM     90  C   UNL A   1      47.609  35.181  29.347  1.00  0.00     0.022 A 
BRANCH  87  91
ATOM     91  S   UNL A   1      47.319  36.099  26.729  1.00  0.00     0.124 S 
ATOM     92  O   UNL A   1      47.094  37.360  27.428  1.00  0.00    -0.237 OA
ATOM     93  O   UNL A   1      48.684  35.856  26.275  1.00  0.00    -0.237 OA
ATOM     94  O   UNL A   1      46.274  35.722  25.778  1.00  0.00    -0.744 OA
ENDBRANCH  87  91
ENDBRANCH  61  84
ENDBRANCH  35  36
ENDBRANCH  27  30
ENDBRANCH  25  26
ENDBRANCH  24  25
ENDBRANCH  23  24
ENDBRANCH   1  23
TORSDOF 20
ENDMDL
MODEL 2
REMARK VINA RESULT:     -10.2      2.476      8.529
REMARK SMILES [NH3+]CCOCC(=O)N[C@]1(C(=O)NCCCCNC(=O)c2ccc(-c3c4nc(c(-c5cc(S(=O)(=O)[O-])ccc5F)c5ccc([nH]5)c(-c5cc(S(=O)(=O)[O-])ccc5F)c5nc(c(-c6cc(S(=O)(=O)[O-])ccc6F)c6ccc3[nH]6)C=C5)C=C4)cc2)CCOC1
REMARK SMILES IDX 13 1 12 2 10 3 11 4 9 6 83 7 86 8 84 9 85 10 8 11 6 12 7 13
REMARK SMILES IDX 5 15 4 16 3 17 2 18 1 19 14 23 15 24 16 25 17 26 18 27 19 29
REMARK SMILES IDX 20 30 21 31 82 32 22 33 81 34 23 35 24 36 25 37 75 38 26 39
REMARK SMILES IDX 80 40 74 41 76 42 27 43 79 44 73 45 72 46 28 48 60 49 40 50
REMARK SMILES IDX 59 51 41 52 44 53 58 54 77 55 42 56 43 57 57 59 78 60 45 61
REMARK SMILES IDX 29 62 30 63 38 64 31 65 37 66 39 67 36 68 32 69 33 70 34 71
REMARK SMILES IDX 35 72 61 73 62 74 70 75 63 76 69 77 71 78 68 79 64 80 65 81
REMARK SMILES IDX 66 82 67 83 46 84 47 85 55 86 48 87 54 88 56 89 53 90 49 91
REMARK SMILES IDX 50 92 51 93 52 94
REMARK H PARENT 12 5 8 14 1 20 1 21 1 22 17 28 76 47 44 58
REMARK Flexibility Score: inf
ROOT
ATOM      1  C   UNL A   1      34.471  23.748  25.628  1.00  0.00     0.116 C 
ENDROOT
BRANCH   1   2
ATOM      2  N   UNL A   1      34.484  23.795  24.178  1.00  0.00    -0.354 N 
ATOM      3  C   UNL A   1      33.855  24.633  23.306  1.00  0.00     0.248 C 
ATOM      4  O   UNL A   1      34.069  24.438  22.103  1.00  0.00    -0.272 OA
ATOM      5  H   UNL A   1      35.041  23.105  23.751  1.00  0.00     0.163 HD
BRANCH   3   6
ATOM      6  C   UNL A   1      32.874  25.765  23.758  1.00  0.00     0.144 C 
ATOM      7  C   UNL A   1      32.633  26.745  22.620  1.00  0.00     0.069 C 
ATOM      8  C   UNL A   1      31.510  25.186  24.105  1.00  0.00     0.198 C 
ATOM      9  C   UNL A   1      31.131  26.808  22.454  1.00  0.00     0.163 C 
ATOM     10  O   UNL A   1      30.514  25.867  23.332  1.00  0.00    -0.378 OA
BRANCH   6  11
ATOM     11  N   UNL A   1      33.589  26.448  24.873  1.00  0.00    -0.338 N 
ATOM     12  C   UNL A   1      33.450  27.634  25.517  1.00  0.00     0.246 C 
ATOM     13  O   UNL A   1      34.399  28.045  26.192  1.00  0.00    -0.272 OA
ATOM     14  H   UNL A   1      34.337  25.913  25.224  1.00  0.00     0.164 HD
BRANCH  12  15
ATOM     15  C   UNL A   1      32.148  28.437  25.476  1.00  0.00     0.260 C 
BRANCH  15  16
ATOM     16  O   UNL A   1      32.218  29.843  25.553  1.00  0.00    -0.366 OA
BRANCH  16  17
ATOM     17  C   UNL A   1      32.013  30.387  26.855  1.00  0.00     0.222 C 
BRANCH  17  18
ATOM     18  C   UNL A   1      33.227  31.160  27.396  1.00  0.00     0.287 C 
BRANCH  18  19
ATOM     19  N   UNL A   1      34.202  30.350  28.128  1.00  0.00    -0.356 N 
ATOM     20  H   UNL A   1      35.097  30.371  27.638  1.00  0.00     0.344 HD
ATOM     21  H   UNL A   1      33.869  29.388  28.187  1.00  0.00     0.344 HD
ATOM     22  H   UNL A   1      34.320  30.728  29.069  1.00  0.00     0.344 HD
ENDBRANCH  18  19
ENDBRANCH  17  18
ENDBRANCH  16  17
ENDBRANCH  15  16
ENDBRANCH  12  15
ENDBRANCH   6  11
ENDBRANCH   3   6
ENDBRANCH   1   2
BRANCH   1  23
ATOM     23  C   UNL A   1      35.150  22.500  26.178  1.00  0.00     0.023 C 
BRANCH  23  24
ATOM     24  C   UNL A   1      35.826  21.625  25.126  1.00  0.00     0.023 C 
BRANCH  24  25
ATOM     25  C   UNL A   1      37.298  21.934  24.871  1.00  0.00     0.116 C 
BRANCH  25  26
ATOM     26  N   UNL A   1      38.197  20.882  25.326  1.00  0.00    -0.352 N 
ATOM     27  C   UNL A   1      39.335  20.993  26.093  1.00  0.00     0.251 C 
ATOM     28  H   UNL A   1      37.958  19.968  25.048  1.00  0.00     0.163 HD
ATOM     29  O   UNL A   1      40.040  20.014  26.300  1.00  0.00    -0.269 OA
BRANCH  27  30
ATOM     30  C   UNL A   1      39.707  22.321  26.619  1.00  0.00     0.039 A 
ATOM     31  C   UNL A   1      40.790  22.420  27.496  1.00  0.00     0.014 A 
ATOM     32  C   UNL A   1      39.045  23.465  26.169  1.00  0.00     0.014 A 
ATOM     33  C   UNL A   1      41.273  23.683  27.844  1.00  0.00     0.010 A 
ATOM     34  C   UNL A   1      39.574  24.718  26.459  1.00  0.00     0.010 A 
ATOM     35  C   UNL A   1      40.703  24.838  27.285  1.00  0.00    -0.014 A 
BRANCH  35  36
ATOM     36  C   UNL A   1      41.285  26.184  27.524  1.00  0.00     0.031 A 
ATOM     37  C   UNL A   1      42.652  26.512  26.994  1.00  0.00     0.074 A 
ATOM     38  C   UNL A   1      40.623  27.070  28.296  1.00  0.00     0.049 A 
ATOM     39  N   UNL A   1      43.384  27.577  27.193  1.00  0.00    -0.248 NA
ATOM     40  C   UNL A   1      43.294  25.487  26.156  1.00  0.00     0.031 C 
ATOM     41  C   UNL A   1      39.311  26.844  28.908  1.00  0.00     0.029 A 
ATOM     42  N   UNL A   1      40.970  28.329  28.715  1.00  0.00    -0.354 N 
ATOM     43  C   UNL A   1      44.581  27.344  26.526  1.00  0.00     0.074 A 
ATOM     44  C   UNL A   1      44.494  26.012  25.963  1.00  0.00     0.031 C 
ATOM     45  C   UNL A   1      38.959  27.933  29.610  1.00  0.00     0.029 A 
ATOM     46  C   UNL A   1      40.036  28.915  29.539  1.00  0.00     0.049 A 
ATOM     47  H   UNL A   1      41.808  28.773  28.451  1.00  0.00     0.167 HD
ATOM     48  C   UNL A   1      45.643  28.173  26.378  1.00  0.00     0.034 A 
ATOM     49  C   UNL A   1      40.054  30.101  30.180  1.00  0.00     0.034 A 
ATOM     50  C   UNL A   1      45.702  29.504  26.927  1.00  0.00     0.049 A 
ATOM     51  C   UNL A   1      41.251  31.001  30.010  1.00  0.00     0.074 A 
ATOM     52  C   UNL A   1      46.694  30.458  26.774  1.00  0.00     0.029 A 
ATOM     53  N   UNL A   1      44.732  30.070  27.745  1.00  0.00    -0.354 N 
ATOM     54  N   UNL A   1      42.350  30.791  29.324  1.00  0.00    -0.248 NA
ATOM     55  C   UNL A   1      41.207  32.300  30.695  1.00  0.00     0.031 C 
ATOM     56  C   UNL A   1      46.353  31.573  27.547  1.00  0.00     0.029 A 
ATOM     57  C   UNL A   1      45.117  31.345  28.130  1.00  0.00     0.049 A 
ATOM     58  H   UNL A   1      43.893  29.630  28.012  1.00  0.00     0.167 HD
ATOM     59  C   UNL A   1      43.118  31.942  29.476  1.00  0.00     0.074 A 
ATOM     60  C   UNL A   1      42.349  32.846  30.306  1.00  0.00     0.031 C 
ATOM     61  C   UNL A   1      44.345  32.228  28.972  1.00  0.00     0.034 A 
BRANCH  48  62
ATOM     62  C   UNL A   1      46.832  27.646  25.611  1.00  0.00     0.023 A 
ATOM     63  C   UNL A   1      47.084  28.032  24.283  1.00  0.00     0.031 A 
ATOM     64  C   UNL A   1      47.708  26.721  26.204  1.00  0.00     0.131 A 
ATOM     65  C   UNL A   1      48.132  27.438  23.567  1.00  0.00     0.055 A 
ATOM     66  C   UNL A   1      48.801  26.194  25.512  1.00  0.00     0.041 A 
ATOM     67  F   UNL A   1      47.509  26.299  27.463  1.00  0.00    -0.206 F 
ATOM     68  C   UNL A   1      49.009  26.539  24.180  1.00  0.00     0.022 A 
BRANCH  65  69
ATOM     69  S   UNL A   1      48.248  27.748  21.783  1.00  0.00     0.124 S 
ATOM     70  O   UNL A   1      46.938  28.330  21.502  1.00  0.00    -0.237 OA
ATOM     71  O   UNL A   1      49.384  28.658  21.695  1.00  0.00    -0.237 OA
ATOM     72  O   UNL A   1      48.466  26.419  21.218  1.00  0.00    -0.744 OA
ENDBRANCH  65  69
ENDBRANCH  48  62
BRANCH  49  73
ATOM     73  C   UNL A   1      38.918  30.504  31.057  1.00  0.00     0.023 A 
ATOM     74  C   UNL A   1      37.882  31.318  30.570  1.00  0.00     0.031 A 
ATOM     75  C   UNL A   1      38.870  30.111  32.406  1.00  0.00     0.131 A 
ATOM     76  C   UNL A   1      36.867  31.751  31.437  1.00  0.00     0.055 A 
ATOM     77  C   UNL A   1      37.832  30.505  33.252  1.00  0.00     0.041 A 
ATOM     78  F   UNL A   1      39.830  29.326  32.919  1.00  0.00    -0.206 F 
ATOM     79  C   UNL A   1      36.829  31.341  32.771  1.00  0.00     0.022 A 
BRANCH  76  80
ATOM     80  S   UNL A   1      35.634  32.924  30.810  1.00  0.00     0.124 S 
ATOM     81  O   UNL A   1      36.165  34.196  31.285  1.00  0.00    -0.237 OA
ATOM     82  O   UNL A   1      35.703  32.695  29.371  1.00  0.00    -0.237 OA
ATOM     83  O   UNL A   1      34.394  32.486  31.450  1.00  0.00    -0.744 OA
ENDBRANCH  76  80
ENDBRANCH  49  73
BRANCH  61  84
ATOM     84  C   UNL A   1      44.908  33.592  29.279  1.00  0.00     0.023 A 
ATOM     85  C   UNL A   1      44.683  34.690  28.430  1.00  0.00     0.031 A 
ATOM     86  C   UNL A   1      45.682  33.793  30.435  1.00  0.00     0.131 A 
ATOM     87  C   UNL A   1      45.267  35.931  28.728  1.00  0.00     0.055 A 
ATOM     88  C   UNL A   1      46.215  35.042  30.753  1.00  0.00     0.041 A 
ATOM     89  F   UNL A   1      45.927  32.777  31.277  1.00  0.00    -0.206 F 
ATOM     90  C   UNL A   1      46.018  36.117  29.891  1.00  0.00     0.022 A 
BRANCH  87  91
ATOM     91  S   UNL A   1      45.093  37.284  27.532  1.00  0.00     0.124 S 
ATOM     92  O   UNL A   1      46.082  36.924  26.521  1.00  0.00    -0.237 OA
ATOM     93  O   UNL A   1      43.696  37.168  27.129  1.00  0.00    -0.237 OA
ATOM     94  O   UNL A   1      45.414  38.477  28.315  1.00  0.00    -0.744 OA
ENDBRANCH  87  91
ENDBRANCH  61  84
ENDBRANCH  35  36
ENDBRANCH  27  30
ENDBRANCH  25  26
ENDBRANCH  24  25
ENDBRANCH  23  24
ENDBRANCH   1  23
TORSDOF 20
ENDMDL
MODEL 3
REMARK VINA RESULT:     -10.1      2.427      3.904
REMARK SMILES [NH3+]CCOCC(=O)N[C@]1(C(=O)NCCCCNC(=O)c2ccc(-c3c4nc(c(-c5cc(S(=O)(=O)[O-])ccc5F)c5ccc([nH]5)c(-c5cc(S(=O)(=O)[O-])ccc5F)c5nc(c(-c6cc(S(=O)(=O)[O-])ccc6F)c6ccc3[nH]6)C=C5)C=C4)cc2)CCOC1
REMARK SMILES IDX 13 1 12 2 10 3 11 4 9 6 83 7 86 8 84 9 85 10 8 11 6 12 7 13
REMARK SMILES IDX 5 15 4 16 3 17 2 18 1 19 14 23 15 24 16 25 17 26 18 27 19 29
REMARK SMILES IDX 20 30 21 31 82 32 22 33 81 34 23 35 24 36 25 37 75 38 26 39
REMARK SMILES IDX 80 40 74 41 76 42 27 43 79 44 73 45 72 46 28 48 60 49 40 50
REMARK SMILES IDX 59 51 41 52 44 53 58 54 77 55 42 56 43 57 57 59 78 60 45 61
REMARK SMILES IDX 29 62 30 63 38 64 31 65 37 66 39 67 36 68 32 69 33 70 34 71
REMARK SMILES IDX 35 72 61 73 62 74 70 75 63 76 69 77 71 78 68 79 64 80 65 81
REMARK SMILES IDX 66 82 67 83 46 84 47 85 55 86 48 87 54 88 56 89 53 90 49 91
REMARK SMILES IDX 50 92 51 93 52 94
REMARK H PARENT 12 5 8 14 1 20 1 21 1 22 17 28 76 47 44 58
REMARK Flexibility Score: inf
ROOT
ATOM      1  C   UNL A   1      34.252  23.854  23.605  1.00  0.00     0.116 C 
ENDROOT
BRANCH   1   2
ATOM      2  N   UNL A   1      34.107  24.997  22.723  1.00  0.00    -0.354 N 
ATOM      3  C   UNL A   1      33.158  25.974  22.676  1.00  0.00     0.248 C 
ATOM      4  O   UNL A   1      33.305  26.844  21.808  1.00  0.00    -0.272 OA
ATOM      5  H   UNL A   1      34.814  25.081  22.042  1.00  0.00     0.163 HD
BRANCH   3   6
ATOM      6  C   UNL A   1      31.912  26.009  23.622  1.00  0.00     0.144 C 
ATOM      7  C   UNL A   1      30.932  24.907  23.250  1.00  0.00     0.069 C 
ATOM      8  C   UNL A   1      32.323  25.731  25.060  1.00  0.00     0.198 C 
ATOM      9  C   UNL A   1      30.697  24.127  24.524  1.00  0.00     0.163 C 
ATOM     10  O   UNL A   1      31.546  24.633  25.554  1.00  0.00    -0.378 OA
BRANCH   6  11
ATOM     11  N   UNL A   1      31.297  27.342  23.371  1.00  0.00    -0.338 N 
ATOM     12  C   UNL A   1      31.440  28.580  23.908  1.00  0.00     0.246 C 
ATOM     13  O   UNL A   1      30.556  29.415  23.690  1.00  0.00    -0.272 OA
ATOM     14  H   UNL A   1      30.632  27.320  22.645  1.00  0.00     0.164 HD
BRANCH  12  15
ATOM     15  C   UNL A   1      32.675  28.981  24.718  1.00  0.00     0.260 C 
BRANCH  15  16
ATOM     16  O   UNL A   1      32.607  30.134  25.527  1.00  0.00    -0.366 OA
BRANCH  16  17
ATOM     17  C   UNL A   1      31.963  29.951  26.786  1.00  0.00     0.222 C 
BRANCH  17  18
ATOM     18  C   UNL A   1      32.325  28.624  27.474  1.00  0.00     0.287 C 
BRANCH  18  19
ATOM     19  N   UNL A   1      31.184  27.836  27.942  1.00  0.00    -0.356 N 
ATOM     20  H   UNL A   1      31.489  26.883  28.144  1.00  0.00     0.344 HD
ATOM     21  H   UNL A   1      30.465  27.817  27.218  1.00  0.00     0.344 HD
ATOM     22  H   UNL A   1      30.803  28.259  28.789  1.00  0.00     0.344 HD
ENDBRANCH  18  19
ENDBRANCH  17  18
ENDBRANCH  16  17
ENDBRANCH  15  16
ENDBRANCH  12  15
ENDBRANCH   6  11
ENDBRANCH   3   6
ENDBRANCH   1   2
BRANCH   1  23
ATOM     23  C   UNL A   1      35.703  23.592  23.986  1.00  0.00     0.023 C 
BRANCH  23  24
ATOM     24  C   UNL A   1      36.041  22.124  24.238  1.00  0.00     0.023 C 
BRANCH  24  25
ATOM     25  C   UNL A   1      36.668  21.825  25.596  1.00  0.00     0.116 C 
BRANCH  25  26
ATOM     26  N   UNL A   1      37.714  20.811  25.539  1.00  0.00    -0.352 N 
ATOM     27  C   UNL A   1      39.033  20.911  25.921  1.00  0.00     0.251 C 
ATOM     28  H   UNL A   1      37.440  19.937  25.179  1.00  0.00     0.163 HD
ATOM     29  O   UNL A   1      39.810  19.992  25.707  1.00  0.00    -0.269 OA
BRANCH  27  30
ATOM     30  C   UNL A   1      39.494  22.165  26.550  1.00  0.00     0.039 A 
ATOM     31  C   UNL A   1      40.491  22.103  27.526  1.00  0.00     0.014 A 
ATOM     32  C   UNL A   1      39.007  23.395  26.104  1.00  0.00     0.014 A 
ATOM     33  C   UNL A   1      41.072  23.287  27.985  1.00  0.00     0.010 A 
ATOM     34  C   UNL A   1      39.638  24.567  26.509  1.00  0.00     0.010 A 
ATOM     35  C   UNL A   1      40.687  24.522  27.440  1.00  0.00    -0.014 A 
BRANCH  35  36
ATOM     36  C   UNL A   1      41.386  25.782  27.803  1.00  0.00     0.031 A 
ATOM     37  C   UNL A   1      40.648  26.862  28.541  1.00  0.00     0.074 A 
ATOM     38  C   UNL A   1      42.652  25.986  27.384  1.00  0.00     0.049 A 
ATOM     39  N   UNL A   1      41.035  28.074  28.842  1.00  0.00    -0.248 NA
ATOM     40  C   UNL A   1      39.274  26.546  28.963  1.00  0.00     0.031 C 
ATOM     41  C   UNL A   1      43.454  25.030  26.616  1.00  0.00     0.029 A 
ATOM     42  N   UNL A   1      43.479  27.071  27.526  1.00  0.00    -0.354 N 
ATOM     43  C   UNL A   1      39.951  28.673  29.470  1.00  0.00     0.074 A 
ATOM     44  C   UNL A   1      38.871  27.707  29.455  1.00  0.00     0.031 C 
ATOM     45  C   UNL A   1      44.660  25.566  26.369  1.00  0.00     0.029 A 
ATOM     46  C   UNL A   1      44.704  26.916  26.917  1.00  0.00     0.049 A 
ATOM     47  H   UNL A   1      43.222  27.884  28.017  1.00  0.00     0.167 HD
ATOM     48  C   UNL A   1      39.870  29.907  30.028  1.00  0.00     0.034 A 
ATOM     49  C   UNL A   1      45.738  27.774  26.797  1.00  0.00     0.034 A 
ATOM     50  C   UNL A   1      40.963  30.846  30.053  1.00  0.00     0.049 A 
ATOM     51  C   UNL A   1      45.621  29.144  27.415  1.00  0.00     0.074 A 
ATOM     52  C   UNL A   1      41.017  32.091  30.658  1.00  0.00     0.029 A 
ATOM     53  N   UNL A   1      42.193  30.651  29.439  1.00  0.00    -0.354 N 
ATOM     54  N   UNL A   1      44.608  29.674  28.060  1.00  0.00    -0.248 NA
ATOM     55  C   UNL A   1      46.788  30.028  27.294  1.00  0.00     0.031 C 
ATOM     56  C   UNL A   1      42.254  32.671  30.357  1.00  0.00     0.029 A 
ATOM     57  C   UNL A   1      43.000  31.763  29.621  1.00  0.00     0.049 A 
ATOM     58  H   UNL A   1      42.454  29.840  28.945  1.00  0.00     0.167 HD
ATOM     59  C   UNL A   1      45.026  30.945  28.443  1.00  0.00     0.074 A 
ATOM     60  C   UNL A   1      46.386  31.095  27.968  1.00  0.00     0.031 C 
ATOM     61  C   UNL A   1      44.349  31.901  29.128  1.00  0.00     0.034 A 
BRANCH  48  62
ATOM     62  C   UNL A   1      38.546  30.309  30.631  1.00  0.00     0.023 A 
ATOM     63  C   UNL A   1      37.545  30.933  29.866  1.00  0.00     0.031 A 
ATOM     64  C   UNL A   1      38.292  30.095  31.997  1.00  0.00     0.131 A 
ATOM     65  C   UNL A   1      36.374  31.392  30.484  1.00  0.00     0.055 A 
ATOM     66  C   UNL A   1      37.088  30.481  32.590  1.00  0.00     0.041 A 
ATOM     67  F   UNL A   1      39.216  29.522  32.783  1.00  0.00    -0.206 F 
ATOM     68  C   UNL A   1      36.127  31.148  31.837  1.00  0.00     0.022 A 
BRANCH  65  69
ATOM     69  S   UNL A   1      35.242  32.437  29.526  1.00  0.00     0.124 S 
ATOM     70  O   UNL A   1      34.699  31.479  28.567  1.00  0.00    -0.237 OA
ATOM     71  O   UNL A   1      34.316  32.916  30.546  1.00  0.00    -0.237 OA
ATOM     72  O   UNL A   1      36.119  33.455  28.952  1.00  0.00    -0.744 OA
ENDBRANCH  65  69
ENDBRANCH  48  62
BRANCH  49  73
ATOM     73  C   UNL A   1      46.965  27.378  26.050  1.00  0.00     0.023 A 
ATOM     74  C   UNL A   1      47.148  27.752  24.709  1.00  0.00     0.031 A 
ATOM     75  C   UNL A   1      47.957  26.586  26.656  1.00  0.00     0.131 A 
ATOM     76  C   UNL A   1      48.273  27.298  24.003  1.00  0.00     0.055 A 
ATOM     77  C   UNL A   1      49.098  26.177  25.963  1.00  0.00     0.041 A 
ATOM     78  F   UNL A   1      47.835  26.208  27.938  1.00  0.00    -0.206 F 
ATOM     79  C   UNL A   1      49.254  26.523  24.625  1.00  0.00     0.022 A 
BRANCH  76  80
ATOM     80  S   UNL A   1      48.396  27.674  22.234  1.00  0.00     0.124 S 
ATOM     81  O   UNL A   1      49.631  28.448  22.180  1.00  0.00    -0.237 OA
ATOM     82  O   UNL A   1      48.446  26.341  21.643  1.00  0.00    -0.237 OA
ATOM     83  O   UNL A   1      47.174  28.429  21.962  1.00  0.00    -0.744 OA
ENDBRANCH  76  80
ENDBRANCH  49  73
BRANCH  61  84
ATOM     84  C   UNL A   1      45.092  33.178  29.433  1.00  0.00     0.023 A 
ATOM     85  C   UNL A   1      45.067  34.272  28.552  1.00  0.00     0.031 A 
ATOM     86  C   UNL A   1      45.837  33.295  30.619  1.00  0.00     0.131 A 
ATOM     87  C   UNL A   1      45.813  35.423  28.851  1.00  0.00     0.055 A 
ATOM     88  C   UNL A   1      46.533  34.461  30.936  1.00  0.00     0.041 A 
ATOM     89  F   UNL A   1      45.895  32.277  31.492  1.00  0.00    -0.206 F 
ATOM     90  C   UNL A   1      46.532  35.530  30.044  1.00  0.00     0.022 A 
BRANCH  87  91
ATOM     91  S   UNL A   1      45.890  36.755  27.621  1.00  0.00     0.124 S 
ATOM     92  O   UNL A   1      45.859  36.010  26.367  1.00  0.00    -0.237 OA
ATOM     93  O   UNL A   1      44.696  37.535  27.929  1.00  0.00    -0.237 OA
ATOM     94  O   UNL A   1      47.158  37.421  27.916  1.00  0.00    -0.744 OA
ENDBRANCH  87  91
ENDBRANCH  61  84
ENDBRANCH  35  36
ENDBRANCH  27  30
ENDBRANCH  25  26
ENDBRANCH  24  25
ENDBRANCH  23  24
ENDBRANCH   1  23
TORSDOF 20
ENDMDL
