MODEL 1
REMARK VINA RESULT:     -12.1      0.000      0.000
REMARK SMILES O=C(Cc1ccccc1-c1ccn(C(F)F)c(=O)c1)NCCCCNC(=O)c1ccc(-c2c3nc(c(-c4cc(S(=O)(=O)[O-])ccc4F)c4ccc([nH]4)c(-c4cc(S(=O)(=O)[O-])ccc4F)c4nc(c(-c5cc(S(=O)(=O)[O-])ccc5F)c5ccc2[nH]5)C=C4)C=C3)cc1
REMARK SMILES IDX 22 1 21 2 20 3 1 4 2 5 3 7 4 8 5 9 9 10 6 11 8 12 7 13 10 14
REMARK SMILES IDX 11 15 19 16 12 17 17 18 13 19 18 20 14 21 15 22 16 23 23 24
REMARK SMILES IDX 24 25 25 26 26 27 27 29 28 30 29 31 90 32 30 33 89 34 31 35
REMARK SMILES IDX 32 36 33 37 83 38 34 39 88 40 82 41 84 42 35 43 87 44 81 45
REMARK SMILES IDX 80 46 36 48 68 49 48 50 67 51 49 52 52 53 66 54 85 55 50 56
REMARK SMILES IDX 51 57 65 59 86 60 53 61 37 62 38 63 46 64 39 65 45 66 47 67
REMARK SMILES IDX 44 68 40 69 41 70 42 71 43 72 69 73 70 74 78 75 71 76 77 77
REMARK SMILES IDX 79 78 76 79 72 80 73 81 74 82 75 83 54 84 55 85 63 86 56 87
REMARK SMILES IDX 62 88 64 89 61 90 57 91 58 92 59 93 60 94
REMARK H PARENT 20 6 25 28 84 47 52 58
REMARK Flexibility Score: inf
ROOT
ATOM      1  C   UNL A   1      35.286  23.431  23.539  1.00  0.00     0.023 C 
ENDROOT
BRANCH   1   2
ATOM      2  C   UNL A   1      34.185  23.163  22.518  1.00  0.00     0.116 C 
BRANCH   2   3
ATOM      3  N   UNL A   1      32.951  23.862  22.813  1.00  0.00    -0.356 N 
ATOM      4  O   UNL A   1      33.439  25.713  21.557  1.00  0.00    -0.275 OA
ATOM      5  C   UNL A   1      32.635  25.075  22.237  1.00  0.00     0.224 C 
ATOM      6  H   UNL A   1      32.315  23.456  23.446  1.00  0.00     0.163 HD
BRANCH   5   7
ATOM      7  C   UNL A   1      31.236  25.604  22.521  1.00  0.00     0.136 C 
BRANCH   7   8
ATOM      8  C   UNL A   1      31.174  26.942  23.240  1.00  0.00    -0.031 A 
ATOM      9  C   UNL A   1      30.774  28.072  22.502  1.00  0.00     0.005 A 
ATOM     10  C   UNL A   1      31.490  27.096  24.611  1.00  0.00    -0.014 A 
ATOM     11  C   UNL A   1      30.699  29.328  23.100  1.00  0.00     0.000 A 
ATOM     12  C   UNL A   1      31.424  28.373  25.194  1.00  0.00     0.009 A 
ATOM     13  C   UNL A   1      31.030  29.481  24.442  1.00  0.00     0.001 A 
BRANCH  10  14
ATOM     14  C   UNL A   1      31.861  25.951  25.471  1.00  0.00    -0.011 A 
ATOM     15  C   UNL A   1      33.232  25.576  25.743  1.00  0.00     0.027 A 
ATOM     16  C   UNL A   1      30.869  25.199  25.979  1.00  0.00     0.080 A 
ATOM     17  C   UNL A   1      33.513  24.409  26.333  1.00  0.00     0.095 A 
ATOM     18  C   UNL A   1      31.169  23.949  26.735  1.00  0.00     0.255 A 
ATOM     19  N   UNL A   1      32.503  23.582  26.786  1.00  0.00    -0.258 N 
ATOM     20  O   UNL A   1      30.235  23.322  27.227  1.00  0.00    -0.269 OA
BRANCH  19  21
ATOM     21  C   UNL A   1      32.817  22.310  27.381  1.00  0.00     0.451 C 
ATOM     22  F   UNL A   1      33.933  21.777  26.829  1.00  0.00    -0.185 F 
ATOM     23  F   UNL A   1      33.026  22.426  28.716  1.00  0.00    -0.185 F 
ENDBRANCH  19  21
ENDBRANCH  10  14
ENDBRANCH   7   8
ENDBRANCH   5   7
ENDBRANCH   2   3
ENDBRANCH   1   2
BRANCH   1  24
ATOM     24  C   UNL A   1      36.169  22.225  23.866  1.00  0.00     0.023 C 
BRANCH  24  25
ATOM     25  C   UNL A   1      36.657  22.131  25.309  1.00  0.00     0.116 C 
BRANCH  25  26
ATOM     26  N   UNL A   1      37.596  21.042  25.525  1.00  0.00    -0.352 N 
ATOM     27  C   UNL A   1      38.894  21.085  25.981  1.00  0.00     0.251 C 
ATOM     28  H   UNL A   1      37.255  20.144  25.313  1.00  0.00     0.163 HD
ATOM     29  O   UNL A   1      39.575  20.062  25.961  1.00  0.00    -0.269 OA
BRANCH  27  30
ATOM     30  C   UNL A   1      39.481  22.360  26.459  1.00  0.00     0.039 A 
ATOM     31  C   UNL A   1      40.544  22.315  27.365  1.00  0.00     0.014 A 
ATOM     32  C   UNL A   1      38.995  23.593  26.019  1.00  0.00     0.014 A 
ATOM     33  C   UNL A   1      41.169  23.501  27.765  1.00  0.00     0.010 A 
ATOM     34  C   UNL A   1      39.666  24.768  26.359  1.00  0.00     0.010 A 
ATOM     35  C   UNL A   1      40.765  24.735  27.232  1.00  0.00    -0.014 A 
BRANCH  35  36
ATOM     36  C   UNL A   1      41.484  25.996  27.567  1.00  0.00     0.031 A 
ATOM     37  C   UNL A   1      40.795  27.080  28.352  1.00  0.00     0.074 A 
ATOM     38  C   UNL A   1      42.739  26.191  27.112  1.00  0.00     0.049 A 
ATOM     39  N   UNL A   1      41.224  28.276  28.668  1.00  0.00    -0.248 NA
ATOM     40  C   UNL A   1      39.430  26.791  28.815  1.00  0.00     0.031 C 
ATOM     41  C   UNL A   1      43.506  25.233  26.311  1.00  0.00     0.029 A 
ATOM     42  N   UNL A   1      43.590  27.262  27.246  1.00  0.00    -0.354 N 
ATOM     43  C   UNL A   1      40.182  28.884  29.360  1.00  0.00     0.074 A 
ATOM     44  C   UNL A   1      39.078  27.947  29.356  1.00  0.00     0.031 C 
ATOM     45  C   UNL A   1      44.717  25.749  26.050  1.00  0.00     0.029 A 
ATOM     46  C   UNL A   1      44.800  27.092  26.614  1.00  0.00     0.049 A 
ATOM     47  H   UNL A   1      43.355  28.074  27.749  1.00  0.00     0.167 HD
ATOM     48  C   UNL A   1      40.156  30.100  29.963  1.00  0.00     0.034 A 
ATOM     49  C   UNL A   1      45.852  27.926  26.486  1.00  0.00     0.034 A 
ATOM     50  C   UNL A   1      41.267  31.021  29.964  1.00  0.00     0.049 A 
ATOM     51  C   UNL A   1      45.785  29.288  27.130  1.00  0.00     0.074 A 
ATOM     52  C   UNL A   1      41.363  32.256  30.583  1.00  0.00     0.029 A 
ATOM     53  N   UNL A   1      42.474  30.816  29.305  1.00  0.00    -0.354 N 
ATOM     54  N   UNL A   1      44.807  29.830  27.820  1.00  0.00    -0.248 NA
ATOM     55  C   UNL A   1      46.967  30.149  26.986  1.00  0.00     0.031 C 
ATOM     56  C   UNL A   1      42.591  32.828  30.238  1.00  0.00     0.029 A 
ATOM     57  C   UNL A   1      43.303  31.916  29.476  1.00  0.00     0.049 A 
ATOM     58  H   UNL A   1      42.708  30.008  28.794  1.00  0.00     0.167 HD
ATOM     59  C   UNL A   1      45.273  31.081  28.220  1.00  0.00     0.074 A 
ATOM     60  C   UNL A   1      46.621  31.205  27.707  1.00  0.00     0.031 C 
ATOM     61  C   UNL A   1      44.643  32.036  28.950  1.00  0.00     0.034 A 
BRANCH  48  62
ATOM     62  C   UNL A   1      38.872  30.509  30.647  1.00  0.00     0.023 A 
ATOM     63  C   UNL A   1      37.913  31.309  30.001  1.00  0.00     0.031 A 
ATOM     64  C   UNL A   1      38.609  30.113  31.971  1.00  0.00     0.131 A 
ATOM     65  C   UNL A   1      36.782  31.754  30.701  1.00  0.00     0.055 A 
ATOM     66  C   UNL A   1      37.438  30.486  32.634  1.00  0.00     0.041 A 
ATOM     67  F   UNL A   1      39.494  29.367  32.650  1.00  0.00    -0.206 F 
ATOM     68  C   UNL A   1      36.524  31.325  32.005  1.00  0.00     0.022 A 
BRANCH  65  69
ATOM     69  S   UNL A   1      35.737  33.025  29.938  1.00  0.00     0.124 S 
ATOM     70  O   UNL A   1      34.540  32.256  29.599  1.00  0.00    -0.237 OA
ATOM     71  O   UNL A   1      35.588  33.999  31.011  1.00  0.00    -0.237 OA
ATOM     72  O   UNL A   1      36.525  33.472  28.791  1.00  0.00    -0.744 OA
ENDBRANCH  65  69
ENDBRANCH  48  62
BRANCH  49  73
ATOM     73  C   UNL A   1      47.055  27.514  25.705  1.00  0.00     0.023 A 
ATOM     74  C   UNL A   1      47.202  27.872  24.356  1.00  0.00     0.031 A 
ATOM     75  C   UNL A   1      48.055  26.713  26.286  1.00  0.00     0.131 A 
ATOM     76  C   UNL A   1      48.294  27.390  23.618  1.00  0.00     0.055 A 
ATOM     77  C   UNL A   1      49.171  26.286  25.563  1.00  0.00     0.041 A 
ATOM     78  F   UNL A   1      47.968  26.343  27.574  1.00  0.00    -0.206 F 
ATOM     79  C   UNL A   1      49.288  26.612  24.217  1.00  0.00     0.022 A 
BRANCH  76  80
ATOM     80  S   UNL A   1      48.349  27.717  21.835  1.00  0.00     0.124 S 
ATOM     81  O   UNL A   1      49.484  28.629  21.736  1.00  0.00    -0.237 OA
ATOM     82  O   UNL A   1      48.552  26.379  21.288  1.00  0.00    -0.237 OA
ATOM     83  O   UNL A   1      47.044  28.312  21.557  1.00  0.00    -0.744 OA
ENDBRANCH  76  80
ENDBRANCH  49  73
BRANCH  61  84
ATOM     84  C   UNL A   1      45.431  33.283  29.278  1.00  0.00     0.023 A 
ATOM     85  C   UNL A   1      45.368  34.435  28.476  1.00  0.00     0.031 A 
ATOM     86  C   UNL A   1      46.267  33.312  30.410  1.00  0.00     0.131 A 
ATOM     87  C   UNL A   1      46.170  35.546  28.782  1.00  0.00     0.055 A 
ATOM     88  C   UNL A   1      47.012  34.444  30.747  1.00  0.00     0.041 A 
ATOM     89  F   UNL A   1      46.371  32.240  31.211  1.00  0.00    -0.206 F 
ATOM     90  C   UNL A   1      46.976  35.564  29.922  1.00  0.00     0.022 A 
BRANCH  87  91
ATOM     91  S   UNL A   1      46.220  36.934  27.614  1.00  0.00     0.124 S 
ATOM     92  O   UNL A   1      47.245  37.789  28.204  1.00  0.00    -0.237 OA
ATOM     93  O   UNL A   1      46.581  36.275  26.363  1.00  0.00    -0.237 OA
ATOM     94  O   UNL A   1      44.861  37.471  27.661  1.00  0.00    -0.744 OA
ENDBRANCH  87  91
ENDBRANCH  61  84
ENDBRANCH  35  36
ENDBRANCH  27  30
ENDBRANCH  25  26
ENDBRANCH  24  25
ENDBRANCH   1  24
TORSDOF 17
ENDMDL
MODEL 2
REMARK VINA RESULT:     -12.1      6.128     11.014
REMARK SMILES O=C(Cc1ccccc1-c1ccn(C(F)F)c(=O)c1)NCCCCNC(=O)c1ccc(-c2c3nc(c(-c4cc(S(=O)(=O)[O-])ccc4F)c4ccc([nH]4)c(-c4cc(S(=O)(=O)[O-])ccc4F)c4nc(c(-c5cc(S(=O)(=O)[O-])ccc5F)c5ccc2[nH]5)C=C4)C=C3)cc1
REMARK SMILES IDX 22 1 21 2 20 3 1 4 2 5 3 7 4 8 5 9 9 10 6 11 8 12 7 13 10 14
REMARK SMILES IDX 11 15 19 16 12 17 17 18 13 19 18 20 14 21 15 22 16 23 23 24
REMARK SMILES IDX 24 25 25 26 26 27 27 29 28 30 29 31 90 32 30 33 89 34 31 35
REMARK SMILES IDX 32 36 33 37 83 38 34 39 88 40 82 41 84 42 35 43 87 44 81 45
REMARK SMILES IDX 80 46 36 48 68 49 48 50 67 51 49 52 52 53 66 54 85 55 50 56
REMARK SMILES IDX 51 57 65 59 86 60 53 61 37 62 38 63 46 64 39 65 45 66 47 67
REMARK SMILES IDX 44 68 40 69 41 70 42 71 43 72 69 73 70 74 78 75 71 76 77 77
REMARK SMILES IDX 79 78 76 79 72 80 73 81 74 82 75 83 54 84 55 85 63 86 56 87
REMARK SMILES IDX 62 88 64 89 61 90 57 91 58 92 59 93 60 94
REMARK H PARENT 20 6 25 28 84 47 52 58
REMARK Flexibility Score: inf
ROOT
ATOM      1  C   UNL A   1      34.724  30.822  28.003  1.00  0.00     0.023 C 
ENDROOT
BRANCH   1   2
ATOM      2  C   UNL A   1      34.622  29.426  27.397  1.00  0.00     0.116 C 
BRANCH   2   3
ATOM      3  N   UNL A   1      33.255  28.985  27.206  1.00  0.00    -0.356 N 
ATOM      4  O   UNL A   1      33.482  28.526  24.974  1.00  0.00    -0.275 OA
ATOM      5  C   UNL A   1      32.804  28.488  26.001  1.00  0.00     0.224 C 
ATOM      6  H   UNL A   1      32.628  29.041  27.962  1.00  0.00     0.163 HD
BRANCH   5   7
ATOM      7  C   UNL A   1      31.393  27.917  26.002  1.00  0.00     0.136 C 
BRANCH   7   8
ATOM      8  C   UNL A   1      31.235  26.558  25.338  1.00  0.00    -0.031 A 
ATOM      9  C   UNL A   1      31.806  25.440  25.976  1.00  0.00     0.005 A 
ATOM     10  C   UNL A   1      30.536  26.370  24.122  1.00  0.00    -0.014 A 
ATOM     11  C   UNL A   1      31.701  24.167  25.419  1.00  0.00     0.000 A 
ATOM     12  C   UNL A   1      30.453  25.082  23.568  1.00  0.00     0.009 A 
ATOM     13  C   UNL A   1      31.031  23.988  24.213  1.00  0.00     0.001 A 
BRANCH  10  14
ATOM     14  C   UNL A   1      29.856  27.481  23.420  1.00  0.00    -0.011 A 
ATOM     15  C   UNL A   1      30.558  28.449  22.604  1.00  0.00     0.027 A 
ATOM     16  C   UNL A   1      28.531  27.619  23.597  1.00  0.00     0.080 A 
ATOM     17  C   UNL A   1      29.939  29.557  22.181  1.00  0.00     0.095 A 
ATOM     18  C   UNL A   1      27.804  28.795  23.037  1.00  0.00     0.255 A 
ATOM     19  N   UNL A   1      28.594  29.755  22.427  1.00  0.00    -0.258 N 
ATOM     20  O   UNL A   1      26.586  28.853  23.176  1.00  0.00    -0.269 OA
BRANCH  19  21
ATOM     21  C   UNL A   1      27.949  30.970  22.004  1.00  0.00     0.451 C 
ATOM     22  F   UNL A   1      27.367  31.603  23.051  1.00  0.00    -0.185 F 
ATOM     23  F   UNL A   1      28.833  31.828  21.436  1.00  0.00    -0.185 F 
ENDBRANCH  19  21
ENDBRANCH  10  14
ENDBRANCH   7   8
ENDBRANCH   5   7
ENDBRANCH   2   3
ENDBRANCH   1   2
BRANCH   1  24
ATOM     24  C   UNL A   1      33.423  31.628  27.987  1.00  0.00     0.023 C 
BRANCH  24  25
ATOM     25  C   UNL A   1      33.403  32.835  27.052  1.00  0.00     0.116 C 
BRANCH  25  26
ATOM     26  N   UNL A   1      32.844  34.026  27.672  1.00  0.00    -0.352 N 
ATOM     27  C   UNL A   1      33.203  34.652  28.844  1.00  0.00     0.251 C 
ATOM     28  H   UNL A   1      32.101  34.447  27.181  1.00  0.00     0.163 HD
ATOM     29  O   UNL A   1      32.511  35.574  29.271  1.00  0.00    -0.269 OA
BRANCH  27  30
ATOM     30  C   UNL A   1      34.389  34.196  29.607  1.00  0.00     0.039 A 
ATOM     31  C   UNL A   1      34.195  33.518  30.814  1.00  0.00     0.014 A 
ATOM     32  C   UNL A   1      35.686  34.428  29.141  1.00  0.00     0.014 A 
ATOM     33  C   UNL A   1      35.295  33.006  31.509  1.00  0.00     0.010 A 
ATOM     34  C   UNL A   1      36.775  33.852  29.796  1.00  0.00     0.010 A 
ATOM     35  C   UNL A   1      36.591  33.129  30.985  1.00  0.00    -0.014 A 
BRANCH  35  36
ATOM     36  C   UNL A   1      37.762  32.500  31.659  1.00  0.00     0.031 A 
ATOM     37  C   UNL A   1      38.489  31.353  31.009  1.00  0.00     0.074 A 
ATOM     38  C   UNL A   1      38.134  32.922  32.885  1.00  0.00     0.049 A 
ATOM     39  N   UNL A   1      39.473  30.626  31.474  1.00  0.00    -0.248 NA
ATOM     40  C   UNL A   1      38.027  30.954  29.672  1.00  0.00     0.031 C 
ATOM     41  C   UNL A   1      37.490  34.002  33.638  1.00  0.00     0.029 A 
ATOM     42  N   UNL A   1      39.135  32.491  33.721  1.00  0.00    -0.354 N 
ATOM     43  C   UNL A   1      39.743  29.678  30.492  1.00  0.00     0.074 A 
ATOM     44  C   UNL A   1      38.772  29.885  29.437  1.00  0.00     0.031 C 
ATOM     45  C   UNL A   1      38.127  34.163  34.808  1.00  0.00     0.029 A 
ATOM     46  C   UNL A   1      39.190  33.168  34.918  1.00  0.00     0.049 A 
ATOM     47  H   UNL A   1      39.757  31.766  33.485  1.00  0.00     0.167 HD
ATOM     48  C   UNL A   1      40.723  28.740  30.460  1.00  0.00     0.034 A 
ATOM     49  C   UNL A   1      39.990  33.000  35.990  1.00  0.00     0.034 A 
ATOM     50  C   UNL A   1      41.687  28.549  31.517  1.00  0.00     0.049 A 
ATOM     51  C   UNL A   1      41.046  31.924  35.950  1.00  0.00     0.074 A 
ATOM     52  C   UNL A   1      42.748  27.661  31.566  1.00  0.00     0.029 A 
ATOM     53  N   UNL A   1      41.705  29.250  32.718  1.00  0.00    -0.354 N 
ATOM     54  N   UNL A   1      41.316  31.065  34.993  1.00  0.00    -0.248 NA
ATOM     55  C   UNL A   1      41.911  31.798  37.130  1.00  0.00     0.031 C 
ATOM     56  C   UNL A   1      43.357  27.770  32.820  1.00  0.00     0.029 A 
ATOM     57  C   UNL A   1      42.735  28.788  33.524  1.00  0.00     0.049 A 
ATOM     58  H   UNL A   1      41.079  29.969  32.960  1.00  0.00     0.167 HD
ATOM     59  C   UNL A   1      42.405  30.323  35.446  1.00  0.00     0.074 A 
ATOM     60  C   UNL A   1      42.748  30.845  36.752  1.00  0.00     0.031 C 
ATOM     61  C   UNL A   1      43.064  29.307  34.832  1.00  0.00     0.034 A 
BRANCH  48  62
ATOM     62  C   UNL A   1      40.778  27.831  29.254  1.00  0.00     0.023 A 
ATOM     63  C   UNL A   1      41.708  28.033  28.219  1.00  0.00     0.031 A 
ATOM     64  C   UNL A   1      39.875  26.761  29.123  1.00  0.00     0.131 A 
ATOM     65  C   UNL A   1      41.662  27.233  27.068  1.00  0.00     0.055 A 
ATOM     66  C   UNL A   1      39.892  25.912  28.014  1.00  0.00     0.041 A 
ATOM     67  F   UNL A   1      38.949  26.529  30.066  1.00  0.00    -0.206 F 
ATOM     68  C   UNL A   1      40.779  26.156  26.970  1.00  0.00     0.022 A 
BRANCH  65  69
ATOM     69  S   UNL A   1      42.666  27.719  25.637  1.00  0.00     0.124 S 
ATOM     70  O   UNL A   1      41.910  28.858  25.120  1.00  0.00    -0.237 OA
ATOM     71  O   UNL A   1      43.954  28.030  26.245  1.00  0.00    -0.237 OA
ATOM     72  O   UNL A   1      42.647  26.531  24.786  1.00  0.00    -0.744 OA
ENDBRANCH  65  69
ENDBRANCH  48  62
BRANCH  49  73
ATOM     73  C   UNL A   1      39.822  33.853  37.202  1.00  0.00     0.023 A 
ATOM     74  C   UNL A   1      39.108  33.393  38.320  1.00  0.00     0.031 A 
ATOM     75  C   UNL A   1      40.333  35.163  37.243  1.00  0.00     0.131 A 
ATOM     76  C   UNL A   1      38.881  34.250  39.408  1.00  0.00     0.055 A 
ATOM     77  C   UNL A   1      40.156  35.992  38.352  1.00  0.00     0.041 A 
ATOM     78  F   UNL A   1      41.027  35.655  36.203  1.00  0.00    -0.206 F 
ATOM     79  C   UNL A   1      39.413  35.541  39.438  1.00  0.00     0.022 A 
BRANCH  76  80
ATOM     80  S   UNL A   1      37.797  33.685  40.747  1.00  0.00     0.124 S 
ATOM     81  O   UNL A   1      36.735  33.014  40.005  1.00  0.00    -0.237 OA
ATOM     82  O   UNL A   1      38.688  32.822  41.515  1.00  0.00    -0.237 OA
ATOM     83  O   UNL A   1      37.404  34.925  41.414  1.00  0.00    -0.744 OA
ENDBRANCH  76  80
ENDBRANCH  49  73
BRANCH  61  84
ATOM     84  C   UNL A   1      44.257  28.725  35.554  1.00  0.00     0.023 A 
ATOM     85  C   UNL A   1      44.136  27.638  36.436  1.00  0.00     0.031 A 
ATOM     86  C   UNL A   1      45.536  29.278  35.360  1.00  0.00     0.131 A 
ATOM     87  C   UNL A   1      45.261  27.175  37.135  1.00  0.00     0.055 A 
ATOM     88  C   UNL A   1      46.664  28.770  36.009  1.00  0.00     0.041 A 
ATOM     89  F   UNL A   1      45.713  30.320  34.533  1.00  0.00    -0.206 F 
ATOM     90  C   UNL A   1      46.527  27.722  36.913  1.00  0.00     0.022 A 
BRANCH  87  91
ATOM     91  S   UNL A   1      45.032  25.911  38.416  1.00  0.00     0.124 S 
ATOM     92  O   UNL A   1      44.020  25.049  37.815  1.00  0.00    -0.237 OA
ATOM     93  O   UNL A   1      46.370  25.339  38.533  1.00  0.00    -0.237 OA
ATOM     94  O   UNL A   1      44.582  26.676  39.578  1.00  0.00    -0.744 OA
ENDBRANCH  87  91
ENDBRANCH  61  84
ENDBRANCH  35  36
ENDBRANCH  27  30
ENDBRANCH  25  26
ENDBRANCH  24  25
ENDBRANCH   1  24
TORSDOF 17
ENDMDL
MODEL 3
REMARK VINA RESULT:     -12.0      2.722      8.444
REMARK SMILES O=C(Cc1ccccc1-c1ccn(C(F)F)c(=O)c1)NCCCCNC(=O)c1ccc(-c2c3nc(c(-c4cc(S(=O)(=O)[O-])ccc4F)c4ccc([nH]4)c(-c4cc(S(=O)(=O)[O-])ccc4F)c4nc(c(-c5cc(S(=O)(=O)[O-])ccc5F)c5ccc2[nH]5)C=C4)C=C3)cc1
REMARK SMILES IDX 22 1 21 2 20 3 1 4 2 5 3 7 4 8 5 9 9 10 6 11 8 12 7 13 10 14
REMARK SMILES IDX 11 15 19 16 12 17 17 18 13 19 18 20 14 21 15 22 16 23 23 24
REMARK SMILES IDX 24 25 25 26 26 27 27 29 28 30 29 31 90 32 30 33 89 34 31 35
REMARK SMILES IDX 32 36 33 37 83 38 34 39 88 40 82 41 84 42 35 43 87 44 81 45
REMARK SMILES IDX 80 46 36 48 68 49 48 50 67 51 49 52 52 53 66 54 85 55 50 56
REMARK SMILES IDX 51 57 65 59 86 60 53 61 37 62 38 63 46 64 39 65 45 66 47 67
REMARK SMILES IDX 44 68 40 69 41 70 42 71 43 72 69 73 70 74 78 75 71 76 77 77
REMARK SMILES IDX 79 78 76 79 72 80 73 81 74 82 75 83 54 84 55 85 63 86 56 87
REMARK SMILES IDX 62 88 64 89 61 90 57 91 58 92 59 93 60 94
REMARK H PARENT 20 6 25 28 84 47 52 58
REMARK Flexibility Score: inf
ROOT
ATOM      1  C   UNL A   1      40.132  22.542  26.960  1.00  0.00     0.023 C 
ENDROOT
BRANCH   1   2
ATOM      2  C   UNL A   1      39.053  23.487  26.442  1.00  0.00     0.116 C 
BRANCH   2   3
ATOM      3  N   UNL A   1      38.230  22.899  25.404  1.00  0.00    -0.356 N 
ATOM      4  O   UNL A   1      36.233  23.325  26.438  1.00  0.00    -0.275 OA
ATOM      5  C   UNL A   1      36.852  22.932  25.450  1.00  0.00     0.224 C 
ATOM      6  H   UNL A   1      38.670  22.462  24.640  1.00  0.00     0.163 HD
BRANCH   5   7
ATOM      7  C   UNL A   1      36.131  22.418  24.212  1.00  0.00     0.136 C 
BRANCH   7   8
ATOM      8  C   UNL A   1      34.710  21.926  24.437  1.00  0.00    -0.031 A 
ATOM      9  C   UNL A   1      34.531  20.606  24.892  1.00  0.00     0.005 A 
ATOM     10  C   UNL A   1      33.570  22.736  24.217  1.00  0.00    -0.014 A 
ATOM     11  C   UNL A   1      33.255  20.092  25.114  1.00  0.00     0.000 A 
ATOM     12  C   UNL A   1      32.291  22.196  24.432  1.00  0.00     0.009 A 
ATOM     13  C   UNL A   1      32.135  20.883  24.879  1.00  0.00     0.001 A 
BRANCH  10  14
ATOM     14  C   UNL A   1      33.673  24.150  23.797  1.00  0.00    -0.011 A 
ATOM     15  C   UNL A   1      33.927  25.235  24.722  1.00  0.00     0.027 A 
ATOM     16  C   UNL A   1      33.470  24.438  22.500  1.00  0.00     0.080 A 
ATOM     17  C   UNL A   1      33.784  26.506  24.333  1.00  0.00     0.095 A 
ATOM     18  C   UNL A   1      33.418  25.852  22.030  1.00  0.00     0.255 A 
ATOM     19  N   UNL A   1      33.492  26.818  23.019  1.00  0.00    -0.258 N 
ATOM     20  O   UNL A   1      33.284  26.067  20.829  1.00  0.00    -0.269 OA
BRANCH  19  21
ATOM     21  C   UNL A   1      33.299  28.187  22.622  1.00  0.00     0.451 C 
ATOM     22  F   UNL A   1      31.982  28.495  22.559  1.00  0.00    -0.185 F 
ATOM     23  F   UNL A   1      33.887  29.044  23.495  1.00  0.00    -0.185 F 
ENDBRANCH  19  21
ENDBRANCH  10  14
ENDBRANCH   7   8
ENDBRANCH   5   7
ENDBRANCH   2   3
ENDBRANCH   1   2
BRANCH   1  24
ATOM     24  C   UNL A   1      40.099  21.135  26.361  1.00  0.00     0.023 C 
BRANCH  24  25
ATOM     25  C   UNL A   1      41.013  20.109  27.026  1.00  0.00     0.116 C 
BRANCH  25  26
ATOM     26  N   UNL A   1      41.973  19.520  26.106  1.00  0.00    -0.352 N 
ATOM     27  C   UNL A   1      43.059  20.096  25.487  1.00  0.00     0.251 C 
ATOM     28  H   UNL A   1      41.825  18.570  25.894  1.00  0.00     0.163 HD
ATOM     29  O   UNL A   1      43.670  19.464  24.628  1.00  0.00    -0.269 OA
BRANCH  27  30
ATOM     30  C   UNL A   1      43.467  21.482  25.822  1.00  0.00     0.039 A 
ATOM     31  C   UNL A   1      43.341  22.476  24.847  1.00  0.00     0.014 A 
ATOM     32  C   UNL A   1      43.966  21.806  27.086  1.00  0.00     0.014 A 
ATOM     33  C   UNL A   1      43.641  23.805  25.166  1.00  0.00     0.010 A 
ATOM     34  C   UNL A   1      44.192  23.141  27.424  1.00  0.00     0.010 A 
ATOM     35  C   UNL A   1      44.027  24.157  26.469  1.00  0.00    -0.014 A 
BRANCH  35  36
ATOM     36  C   UNL A   1      44.250  25.579  26.853  1.00  0.00     0.031 A 
ATOM     37  C   UNL A   1      45.623  26.188  26.752  1.00  0.00     0.074 A 
ATOM     38  C   UNL A   1      43.229  26.305  27.352  1.00  0.00     0.049 A 
ATOM     39  N   UNL A   1      46.031  27.377  27.115  1.00  0.00    -0.248 NA
ATOM     40  C   UNL A   1      46.683  25.334  26.196  1.00  0.00     0.031 C 
ATOM     41  C   UNL A   1      41.858  25.821  27.534  1.00  0.00     0.029 A 
ATOM     42  N   UNL A   1      43.182  27.600  27.808  1.00  0.00    -0.354 N 
ATOM     43  C   UNL A   1      47.394  27.413  26.839  1.00  0.00     0.074 A 
ATOM     44  C   UNL A   1      47.752  26.101  26.342  1.00  0.00     0.031 C 
ATOM     45  C   UNL A   1      41.104  26.811  28.037  1.00  0.00     0.029 A 
ATOM     46  C   UNL A   1      41.942  27.984  28.265  1.00  0.00     0.049 A 
ATOM     47  H   UNL A   1      43.964  28.198  27.806  1.00  0.00     0.167 HD
ATOM     48  C   UNL A   1      48.262  28.450  26.966  1.00  0.00     0.034 A 
ATOM     49  C   UNL A   1      41.528  29.141  28.820  1.00  0.00     0.034 A 
ATOM     50  C   UNL A   1      47.889  29.754  27.459  1.00  0.00     0.049 A 
ATOM     51  C   UNL A   1      42.518  30.265  28.990  1.00  0.00     0.074 A 
ATOM     52  C   UNL A   1      48.676  30.886  27.583  1.00  0.00     0.029 A 
ATOM     53  N   UNL A   1      46.624  30.102  27.920  1.00  0.00    -0.354 N 
ATOM     54  N   UNL A   1      43.795  30.297  28.681  1.00  0.00    -0.248 NA
ATOM     55  C   UNL A   1      42.011  31.514  29.573  1.00  0.00     0.031 C 
ATOM     56  C   UNL A   1      47.913  31.890  28.187  1.00  0.00     0.029 A 
ATOM     57  C   UNL A   1      46.623  31.418  28.360  1.00  0.00     0.049 A 
ATOM     58  H   UNL A   1      45.843  29.503  27.931  1.00  0.00     0.167 HD
ATOM     59  C   UNL A   1      44.231  31.580  29.003  1.00  0.00     0.074 A 
ATOM     60  C   UNL A   1      43.080  32.294  29.514  1.00  0.00     0.031 C 
ATOM     61  C   UNL A   1      45.471  32.119  28.880  1.00  0.00     0.034 A 
BRANCH  48  62
ATOM     62  C   UNL A   1      49.704  28.199  26.591  1.00  0.00     0.023 A 
ATOM     63  C   UNL A   1      50.186  28.457  25.295  1.00  0.00     0.031 A 
ATOM     64  C   UNL A   1      50.607  27.675  27.533  1.00  0.00     0.131 A 
ATOM     65  C   UNL A   1      51.503  28.116  24.955  1.00  0.00     0.055 A 
ATOM     66  C   UNL A   1      51.943  27.421  27.213  1.00  0.00     0.041 A 
ATOM     67  F   UNL A   1      50.204  27.388  28.780  1.00  0.00    -0.206 F 
ATOM     68  C   UNL A   1      52.393  27.626  25.912  1.00  0.00     0.022 A 
BRANCH  65  69
ATOM     69  S   UNL A   1      51.987  28.177  23.208  1.00  0.00     0.124 S 
ATOM     70  O   UNL A   1      52.214  26.762  22.917  1.00  0.00    -0.237 OA
ATOM     71  O   UNL A   1      50.821  28.781  22.576  1.00  0.00    -0.237 OA
ATOM     72  O   UNL A   1      53.193  29.003  23.215  1.00  0.00    -0.744 OA
ENDBRANCH  65  69
ENDBRANCH  48  62
BRANCH  49  73
ATOM     73  C   UNL A   1      40.116  29.299  29.276  1.00  0.00     0.023 A 
ATOM     74  C   UNL A   1      39.772  29.170  30.630  1.00  0.00     0.031 A 
ATOM     75  C   UNL A   1      39.079  29.534  28.354  1.00  0.00     0.131 A 
ATOM     76  C   UNL A   1      38.425  29.226  31.020  1.00  0.00     0.055 A 
ATOM     77  C   UNL A   1      37.746  29.648  28.754  1.00  0.00     0.041 A 
ATOM     78  F   UNL A   1      39.350  29.668  27.046  1.00  0.00    -0.206 F 
ATOM     79  C   UNL A   1      37.411  29.480  30.093  1.00  0.00     0.022 A 
BRANCH  76  80
ATOM     80  S   UNL A   1      38.004  28.868  32.748  1.00  0.00     0.124 S 
ATOM     81  O   UNL A   1      36.666  29.440  32.851  1.00  0.00    -0.237 OA
ATOM     82  O   UNL A   1      38.084  27.411  32.783  1.00  0.00    -0.237 OA
ATOM     83  O   UNL A   1      39.042  29.566  33.503  1.00  0.00    -0.744 OA
ENDBRANCH  76  80
ENDBRANCH  49  73
BRANCH  61  84
ATOM     84  C   UNL A   1      45.631  33.572  29.263  1.00  0.00     0.023 A 
ATOM     85  C   UNL A   1      45.395  34.613  28.348  1.00  0.00     0.031 A 
ATOM     86  C   UNL A   1      46.037  33.918  30.565  1.00  0.00     0.131 A 
ATOM     87  C   UNL A   1      45.621  35.944  28.729  1.00  0.00     0.055 A 
ATOM     88  C   UNL A   1      46.197  35.248  30.958  1.00  0.00     0.041 A 
ATOM     89  F   UNL A   1      46.281  32.967  31.480  1.00  0.00    -0.206 F 
ATOM     90  C   UNL A   1      46.003  36.269  30.033  1.00  0.00     0.022 A 
BRANCH  87  91
ATOM     91  S   UNL A   1      45.507  37.244  27.468  1.00  0.00     0.124 S 
ATOM     92  O   UNL A   1      45.825  38.442  28.237  1.00  0.00    -0.237 OA
ATOM     93  O   UNL A   1      46.512  36.825  26.496  1.00  0.00    -0.237 OA
ATOM     94  O   UNL A   1      44.123  37.152  27.005  1.00  0.00    -0.744 OA
ENDBRANCH  87  91
ENDBRANCH  61  84
ENDBRANCH  35  36
ENDBRANCH  27  30
ENDBRANCH  25  26
ENDBRANCH  24  25
ENDBRANCH   1  24
TORSDOF 17
ENDMDL
