MODEL 1
REMARK VINA RESULT:     -10.9      0.000      0.000
REMARK SMILES COc1ccccc1-c1nnc(S[C@@H](C)C(=O)NCCCCNC(=O)c2ccc(-c3c4nc(c(-c5cc(S(=O)(=O)[O-])ccc5F)c5ccc([nH]5)c(-c5cc(S(=O)(=O)[O-])ccc5F)c5nc(c(-c6cc(S(=O)(=O)[O-])ccc6F)c6ccc3[nH]6)C=C5)C=C4)cc2)n1-c1ccccc1
REMARK SMILES IDX 20 1 19 2 18 3 16 4 17 5 14 7 15 8 13 9 12 10 9 11 10 12
REMARK SMILES IDX 89 13 11 14 8 15 3 16 4 17 5 18 7 19 6 20 2 21 1 22 90 23
REMARK SMILES IDX 91 24 95 25 92 26 94 27 93 28 21 29 22 30 23 31 24 32 25 34
REMARK SMILES IDX 26 35 27 36 88 37 28 38 87 39 29 40 30 41 31 42 81 43 32 44
REMARK SMILES IDX 86 45 80 46 82 47 33 48 85 49 79 50 78 51 34 53 66 54 46 55
REMARK SMILES IDX 65 56 47 57 50 58 64 59 83 60 48 61 49 62 63 64 84 65 51 66
REMARK SMILES IDX 35 67 36 68 44 69 37 70 43 71 45 72 42 73 38 74 39 75 40 76
REMARK SMILES IDX 41 77 67 78 68 79 76 80 69 81 75 82 77 83 74 84 70 85 71 86
REMARK SMILES IDX 72 87 73 88 52 89 53 90 61 91 54 92 60 93 62 94 59 95 55 96
REMARK SMILES IDX 56 97 57 98 58 99
REMARK H PARENT 18 6 23 33 82 52 50 63
REMARK Flexibility Score: inf
ROOT
ATOM      1  C   UNL A   1      44.860  26.782  29.407  1.00  0.00     0.023 C 
ENDROOT
BRANCH   1   2
ATOM      2  C   UNL A   1      44.222  26.184  28.143  1.00  0.00     0.116 C 
BRANCH   2   3
ATOM      3  N   UNL A   1      44.723  26.608  26.855  1.00  0.00    -0.355 N 
ATOM      4  C   UNL A   1      44.633  27.794  26.178  1.00  0.00     0.233 C 
ATOM      5  O   UNL A   1      45.264  27.813  25.108  1.00  0.00    -0.274 OA
ATOM      6  H   UNL A   1      45.223  25.910  26.373  1.00  0.00     0.163 HD
BRANCH   4   7
ATOM      7  C   UNL A   1      43.781  29.030  26.538  1.00  0.00     0.141 C 
ATOM      8  C   UNL A   1      44.522  30.314  26.914  1.00  0.00     0.030 C 
BRANCH   7   9
ATOM      9  S   UNL A   1      42.266  28.961  27.463  1.00  0.00    -0.073 SA
BRANCH   9  10
ATOM     10  C   UNL A   1      41.095  27.836  26.822  1.00  0.00     0.196 A 
ATOM     11  C   UNL A   1      40.310  25.771  26.914  1.00  0.00     0.173 A 
ATOM     12  N   UNL A   1      41.094  25.886  25.862  1.00  0.00    -0.129 NA
ATOM     13  N   UNL A   1      40.082  27.118  27.474  1.00  0.00    -0.270 N 
ATOM     14  N   UNL A   1      41.484  27.181  25.748  1.00  0.00    -0.122 NA
BRANCH  11  15
ATOM     15  C   UNL A   1      39.635  24.462  27.227  1.00  0.00     0.062 A 
ATOM     16  C   UNL A   1      40.864  23.203  27.453  1.00  0.00     0.129 A 
ATOM     17  C   UNL A   1      40.672  21.630  26.731  1.00  0.00     0.047 A 
ATOM     18  C   UNL A   1      39.212  21.220  25.763  1.00  0.00     0.004 A 
ATOM     19  C   UNL A   1      38.038  24.068  26.446  1.00  0.00     0.016 A 
ATOM     20  C   UNL A   1      37.814  22.431  25.632  1.00  0.00     0.001 A 
BRANCH  16  21
ATOM     21  O   UNL A   1      42.169  23.485  27.805  1.00  0.00    -0.496 OA
ATOM     22  C   UNL A   1      42.631  22.995  29.060  1.00  0.00     0.278 C 
ENDBRANCH  16  21
ENDBRANCH  11  15
BRANCH  13  23
ATOM     23  C   UNL A   1      39.208  27.654  28.537  1.00  0.00     0.050 A 
ATOM     24  C   UNL A   1      38.355  28.738  28.353  1.00  0.00     0.027 A 
ATOM     25  C   UNL A   1      39.267  27.208  29.860  1.00  0.00     0.027 A 
ATOM     26  C   UNL A   1      37.654  29.312  29.455  1.00  0.00     0.002 A 
ATOM     27  C   UNL A   1      38.548  27.707  30.953  1.00  0.00     0.002 A 
ATOM     28  C   UNL A   1      37.750  28.800  30.752  1.00  0.00     0.000 A 
ENDBRANCH  13  23
ENDBRANCH   9  10
ENDBRANCH   7   9
ENDBRANCH   4   7
ENDBRANCH   2   3
ENDBRANCH   1   2
BRANCH   1  29
ATOM     29  C   UNL A   1      45.771  26.005  30.436  1.00  0.00     0.023 C 
BRANCH  29  30
ATOM     30  C   UNL A   1      45.286  25.273  32.089  1.00  0.00     0.116 C 
BRANCH  30  31
ATOM     31  N   UNL A   1      45.458  26.129  34.003  1.00  0.00    -0.352 N 
ATOM     32  C   UNL A   1      44.624  26.847  35.144  1.00  0.00     0.251 C 
ATOM     33  H   UNL A   1      46.394  26.055  34.296  1.00  0.00     0.163 HD
ATOM     34  O   UNL A   1      45.302  27.419  36.011  1.00  0.00    -0.269 OA
BRANCH  32  35
ATOM     35  C   UNL A   1      43.046  26.875  35.391  1.00  0.00     0.039 A 
ATOM     36  C   UNL A   1      42.271  26.463  34.310  1.00  0.00     0.014 A 
ATOM     37  C   UNL A   1      42.366  27.711  36.271  1.00  0.00     0.014 A 
ATOM     38  C   UNL A   1      41.350  27.357  33.737  1.00  0.00     0.010 A 
ATOM     39  C   UNL A   1      41.511  28.668  35.692  1.00  0.00     0.010 A 
ATOM     40  C   UNL A   1      41.192  28.608  34.305  1.00  0.00    -0.014 A 
BRANCH  40  41
ATOM     41  C   UNL A   1      40.711  29.832  33.545  1.00  0.00     0.031 A 
ATOM     42  C   UNL A   1      41.787  30.229  32.631  1.00  0.00     0.074 A 
ATOM     43  C   UNL A   1      39.532  30.537  33.442  1.00  0.00     0.049 A 
ATOM     44  N   UNL A   1      42.877  30.773  33.061  1.00  0.00    -0.248 NA
ATOM     45  C   UNL A   1      41.888  29.639  31.283  1.00  0.00     0.031 C 
ATOM     46  C   UNL A   1      38.204  30.270  33.999  1.00  0.00     0.029 A 
ATOM     47  N   UNL A   1      39.270  31.713  32.744  1.00  0.00    -0.354 N 
ATOM     48  C   UNL A   1      43.647  30.891  31.934  1.00  0.00     0.074 A 
ATOM     49  C   UNL A   1      43.194  29.838  31.073  1.00  0.00     0.031 C 
ATOM     50  C   UNL A   1      37.261  31.103  33.475  1.00  0.00     0.029 A 
ATOM     51  C   UNL A   1      37.913  32.122  32.662  1.00  0.00     0.049 A 
ATOM     52  H   UNL A   1      39.992  32.236  32.327  1.00  0.00     0.167 HD
ATOM     53  C   UNL A   1      44.229  32.082  31.638  1.00  0.00     0.034 A 
ATOM     54  C   UNL A   1      37.372  33.256  32.084  1.00  0.00     0.034 A 
ATOM     55  C   UNL A   1      44.130  32.995  32.775  1.00  0.00     0.049 A 
ATOM     56  C   UNL A   1      38.459  34.259  32.060  1.00  0.00     0.074 A 
ATOM     57  C   UNL A   1      44.457  32.917  34.120  1.00  0.00     0.029 A 
ATOM     58  N   UNL A   1      43.227  34.037  32.688  1.00  0.00    -0.354 N 
ATOM     59  N   UNL A   1      38.954  34.798  33.137  1.00  0.00    -0.248 NA
ATOM     60  C   UNL A   1      39.323  34.279  30.893  1.00  0.00     0.031 C 
ATOM     61  C   UNL A   1      43.400  33.581  34.813  1.00  0.00     0.029 A 
ATOM     62  C   UNL A   1      42.531  34.131  33.870  1.00  0.00     0.049 A 
ATOM     63  H   UNL A   1      43.100  34.619  31.903  1.00  0.00     0.167 HD
ATOM     64  C   UNL A   1      40.323  34.776  32.934  1.00  0.00     0.074 A 
ATOM     65  C   UNL A   1      40.487  34.524  31.500  1.00  0.00     0.031 C 
ATOM     66  C   UNL A   1      41.183  34.662  33.987  1.00  0.00     0.034 A 
BRANCH  53  67
ATOM     67  C   UNL A   1      44.461  32.562  30.224  1.00  0.00     0.023 A 
ATOM     68  C   UNL A   1      45.792  32.848  29.894  1.00  0.00     0.031 A 
ATOM     69  C   UNL A   1      43.494  32.982  29.277  1.00  0.00     0.131 A 
ATOM     70  C   UNL A   1      46.101  33.632  28.775  1.00  0.00     0.055 A 
ATOM     71  C   UNL A   1      43.813  33.708  28.129  1.00  0.00     0.041 A 
ATOM     72  F   UNL A   1      42.179  32.795  29.412  1.00  0.00    -0.206 F 
ATOM     73  C   UNL A   1      45.121  34.070  27.891  1.00  0.00     0.022 A 
BRANCH  70  74
ATOM     74  S   UNL A   1      47.799  34.216  28.609  1.00  0.00     0.124 S 
ATOM     75  O   UNL A   1      47.731  35.485  29.325  1.00  0.00    -0.237 OA
ATOM     76  O   UNL A   1      48.544  33.143  29.261  1.00  0.00    -0.237 OA
ATOM     77  O   UNL A   1      47.976  34.316  27.164  1.00  0.00    -0.744 OA
ENDBRANCH  70  74
ENDBRANCH  53  67
BRANCH  54  78
ATOM     78  C   UNL A   1      36.086  33.524  31.318  1.00  0.00     0.023 A 
ATOM     79  C   UNL A   1      35.057  34.441  31.718  1.00  0.00     0.031 A 
ATOM     80  C   UNL A   1      36.021  33.095  29.978  1.00  0.00     0.131 A 
ATOM     81  C   UNL A   1      34.058  34.881  30.793  1.00  0.00     0.055 A 
ATOM     82  C   UNL A   1      35.049  33.546  29.072  1.00  0.00     0.041 A 
ATOM     83  F   UNL A   1      36.967  32.290  29.471  1.00  0.00    -0.206 F 
ATOM     84  C   UNL A   1      34.073  34.446  29.470  1.00  0.00     0.022 A 
BRANCH  81  85
ATOM     85  S   UNL A   1      32.747  36.099  31.241  1.00  0.00     0.124 S 
ATOM     86  O   UNL A   1      32.177  36.445  29.945  1.00  0.00    -0.237 OA
ATOM     87  O   UNL A   1      31.894  35.337  32.146  1.00  0.00    -0.237 OA
ATOM     88  O   UNL A   1      33.490  37.186  31.884  1.00  0.00    -0.744 OA
ENDBRANCH  81  85
ENDBRANCH  54  78
BRANCH  66  89
ATOM     89  C   UNL A   1      40.657  34.956  35.384  1.00  0.00     0.023 A 
ATOM     90  C   UNL A   1      39.925  34.066  36.206  1.00  0.00     0.031 A 
ATOM     91  C   UNL A   1      40.998  36.206  35.933  1.00  0.00     0.131 A 
ATOM     92  C   UNL A   1      39.565  34.448  37.517  1.00  0.00     0.055 A 
ATOM     93  C   UNL A   1      40.663  36.569  37.236  1.00  0.00     0.041 A 
ATOM     94  F   UNL A   1      41.696  37.098  35.209  1.00  0.00    -0.206 F 
ATOM     95  C   UNL A   1      39.941  35.692  38.033  1.00  0.00     0.022 A 
BRANCH  92  96
ATOM     96  S   UNL A   1      38.577  33.341  38.580  1.00  0.00     0.124 S 
ATOM     97  O   UNL A   1      39.014  32.008  38.182  1.00  0.00    -0.237 OA
ATOM     98  O   UNL A   1      38.965  33.765  39.923  1.00  0.00    -0.237 OA
ATOM     99  O   UNL A   1      37.194  33.662  38.219  1.00  0.00    -0.744 OA
ENDBRANCH  92  96
ENDBRANCH  66  89
ENDBRANCH  40  41
ENDBRANCH  32  35
ENDBRANCH  30  31
ENDBRANCH  29  30
ENDBRANCH   1  29
TORSDOF 19
ENDMDL
MODEL 2
REMARK VINA RESULT:      -9.8      6.099     12.329
REMARK SMILES COc1ccccc1-c1nnc(S[C@@H](C)C(=O)NCCCCNC(=O)c2ccc(-c3c4nc(c(-c5cc(S(=O)(=O)[O-])ccc5F)c5ccc([nH]5)c(-c5cc(S(=O)(=O)[O-])ccc5F)c5nc(c(-c6cc(S(=O)(=O)[O-])ccc6F)c6ccc3[nH]6)C=C5)C=C4)cc2)n1-c1ccccc1
REMARK SMILES IDX 20 1 19 2 18 3 16 4 17 5 14 7 15 8 13 9 12 10 9 11 10 12
REMARK SMILES IDX 89 13 11 14 8 15 3 16 4 17 5 18 7 19 6 20 2 21 1 22 90 23
REMARK SMILES IDX 91 24 95 25 92 26 94 27 93 28 21 29 22 30 23 31 24 32 25 34
REMARK SMILES IDX 26 35 27 36 88 37 28 38 87 39 29 40 30 41 31 42 81 43 32 44
REMARK SMILES IDX 86 45 80 46 82 47 33 48 85 49 79 50 78 51 34 53 66 54 46 55
REMARK SMILES IDX 65 56 47 57 50 58 64 59 83 60 48 61 49 62 63 64 84 65 51 66
REMARK SMILES IDX 35 67 36 68 44 69 37 70 43 71 45 72 42 73 38 74 39 75 40 76
REMARK SMILES IDX 41 77 67 78 68 79 76 80 69 81 75 82 77 83 74 84 70 85 71 86
REMARK SMILES IDX 72 87 73 88 52 89 53 90 61 91 54 92 60 93 62 94 59 95 55 96
REMARK SMILES IDX 56 97 57 98 58 99
REMARK H PARENT 18 6 23 33 82 52 50 63
REMARK Flexibility Score: inf
ROOT
ATOM      1  C   UNL A   1      48.294  22.370  34.451  1.00  0.00     0.023 C 
ENDROOT
BRANCH   1   2
ATOM      2  C   UNL A   1      49.763  22.096  34.094  1.00  0.00     0.116 C 
BRANCH   2   3
ATOM      3  N   UNL A   1      50.531  23.160  33.486  1.00  0.00    -0.355 N 
ATOM      4  C   UNL A   1      51.066  24.314  33.991  1.00  0.00     0.233 C 
ATOM      5  O   UNL A   1      51.740  24.959  33.171  1.00  0.00    -0.274 OA
ATOM      6  H   UNL A   1      50.700  23.030  32.524  1.00  0.00     0.163 HD
BRANCH   4   7
ATOM      7  C   UNL A   1      50.846  24.928  35.390  1.00  0.00     0.141 C 
ATOM      8  C   UNL A   1      49.915  26.137  35.492  1.00  0.00     0.030 C 
BRANCH   7   9
ATOM      9  S   UNL A   1      52.118  25.089  36.621  1.00  0.00    -0.073 SA
BRANCH   9  10
ATOM     10  C   UNL A   1      51.849  24.120  38.048  1.00  0.00     0.196 A 
ATOM     11  C   UNL A   1      50.344  23.083  39.290  1.00  0.00     0.173 A 
ATOM     12  N   UNL A   1      50.661  24.225  39.864  1.00  0.00    -0.129 NA
ATOM     13  N   UNL A   1      51.284  22.843  38.179  1.00  0.00    -0.270 N 
ATOM     14  N   UNL A   1      51.664  24.804  39.157  1.00  0.00    -0.122 NA
BRANCH  11  15
ATOM     15  C   UNL A   1      49.331  22.163  39.922  1.00  0.00     0.062 A 
ATOM     16  C   UNL A   1      50.173  20.889  40.824  1.00  0.00     0.129 A 
ATOM     17  C   UNL A   1      49.666  19.228  40.702  1.00  0.00     0.047 A 
ATOM     18  C   UNL A   1      48.258  18.754  39.688  1.00  0.00     0.004 A 
ATOM     19  C   UNL A   1      47.776  21.806  39.045  1.00  0.00     0.016 A 
ATOM     20  C   UNL A   1      47.231  20.056  38.858  1.00  0.00     0.001 A 
BRANCH  16  21
ATOM     21  O   UNL A   1      51.464  21.032  41.294  1.00  0.00    -0.496 OA
ATOM     22  C   UNL A   1      51.635  21.650  42.565  1.00  0.00     0.278 C 
ENDBRANCH  16  21
ENDBRANCH  11  15
BRANCH  13  23
ATOM     23  C   UNL A   1      51.534  21.705  37.270  1.00  0.00     0.050 A 
ATOM     24  C   UNL A   1      50.778  20.537  37.281  1.00  0.00     0.027 A 
ATOM     25  C   UNL A   1      52.639  21.649  36.417  1.00  0.00     0.027 A 
ATOM     26  C   UNL A   1      51.163  19.411  36.493  1.00  0.00     0.002 A 
ATOM     27  C   UNL A   1      53.011  20.586  35.585  1.00  0.00     0.002 A 
ATOM     28  C   UNL A   1      52.276  19.433  35.649  1.00  0.00     0.000 A 
ENDBRANCH  13  23
ENDBRANCH   9  10
ENDBRANCH   7   9
ENDBRANCH   4   7
ENDBRANCH   2   3
ENDBRANCH   1   2
BRANCH   1  29
ATOM     29  C   UNL A   1      47.381  21.459  35.361  1.00  0.00     0.023 C 
BRANCH  29  30
ATOM     30  C   UNL A   1      45.517  21.486  35.528  1.00  0.00     0.116 C 
BRANCH  30  31
ATOM     31  N   UNL A   1      44.251  23.138  35.828  1.00  0.00    -0.352 N 
ATOM     32  C   UNL A   1      44.212  24.722  35.789  1.00  0.00     0.251 C 
ATOM     33  H   UNL A   1      43.361  22.808  36.087  1.00  0.00     0.163 HD
ATOM     34  O   UNL A   1      43.229  25.239  36.340  1.00  0.00    -0.269 OA
BRANCH  32  35
ATOM     35  C   UNL A   1      45.204  25.749  35.072  1.00  0.00     0.039 A 
ATOM     36  C   UNL A   1      44.585  26.816  34.426  1.00  0.00     0.014 A 
ATOM     37  C   UNL A   1      46.467  25.456  34.567  1.00  0.00     0.014 A 
ATOM     38  C   UNL A   1      44.759  26.984  33.041  1.00  0.00     0.010 A 
ATOM     39  C   UNL A   1      46.617  25.535  33.170  1.00  0.00     0.010 A 
ATOM     40  C   UNL A   1      45.595  26.115  32.364  1.00  0.00    -0.014 A 
BRANCH  40  41
ATOM     41  C   UNL A   1      45.470  25.793  30.884  1.00  0.00     0.031 A 
ATOM     42  C   UNL A   1      46.574  26.471  30.197  1.00  0.00     0.074 A 
ATOM     43  C   UNL A   1      44.681  24.974  30.109  1.00  0.00     0.049 A 
ATOM     44  N   UNL A   1      46.592  27.754  30.042  1.00  0.00    -0.248 NA
ATOM     45  C   UNL A   1      47.890  25.819  30.056  1.00  0.00     0.031 C 
ATOM     46  C   UNL A   1      43.673  23.978  30.485  1.00  0.00     0.029 A 
ATOM     47  N   UNL A   1      44.638  24.850  28.723  1.00  0.00    -0.354 N 
ATOM     48  C   UNL A   1      47.811  27.994  29.462  1.00  0.00     0.074 A 
ATOM     49  C   UNL A   1      48.643  26.915  29.908  1.00  0.00     0.031 C 
ATOM     50  C   UNL A   1      43.280  23.231  29.415  1.00  0.00     0.029 A 
ATOM     51  C   UNL A   1      43.853  23.791  28.197  1.00  0.00     0.049 A 
ATOM     52  H   UNL A   1      45.130  25.468  28.135  1.00  0.00     0.167 HD
ATOM     53  C   UNL A   1      47.883  28.759  28.341  1.00  0.00     0.034 A 
ATOM     54  C   UNL A   1      43.591  23.463  26.879  1.00  0.00     0.034 A 
ATOM     55  C   UNL A   1      46.608  29.432  28.099  1.00  0.00     0.049 A 
ATOM     56  C   UNL A   1      43.785  24.708  26.104  1.00  0.00     0.074 A 
ATOM     57  C   UNL A   1      45.768  30.231  28.859  1.00  0.00     0.029 A 
ATOM     58  N   UNL A   1      45.819  28.964  27.066  1.00  0.00    -0.354 N 
ATOM     59  N   UNL A   1      43.002  25.743  26.214  1.00  0.00    -0.248 NA
ATOM     60  C   UNL A   1      45.118  24.980  25.598  1.00  0.00     0.031 C 
ATOM     61  C   UNL A   1      44.441  29.825  28.521  1.00  0.00     0.029 A 
ATOM     62  C   UNL A   1      44.516  28.879  27.498  1.00  0.00     0.049 A 
ATOM     63  H   UNL A   1      46.138  28.727  26.165  1.00  0.00     0.167 HD
ATOM     64  C   UNL A   1      43.865  26.823  26.266  1.00  0.00     0.074 A 
ATOM     65  C   UNL A   1      45.151  26.300  25.796  1.00  0.00     0.031 C 
ATOM     66  C   UNL A   1      43.536  27.948  26.965  1.00  0.00     0.034 A 
BRANCH  53  67
ATOM     67  C   UNL A   1      48.910  28.540  27.255  1.00  0.00     0.023 A 
ATOM     68  C   UNL A   1      48.403  28.115  26.020  1.00  0.00     0.031 A 
ATOM     69  C   UNL A   1      50.320  28.480  27.389  1.00  0.00     0.131 A 
ATOM     70  C   UNL A   1      49.242  27.531  25.063  1.00  0.00     0.055 A 
ATOM     71  C   UNL A   1      51.159  27.956  26.405  1.00  0.00     0.041 A 
ATOM     72  F   UNL A   1      50.987  28.846  28.486  1.00  0.00    -0.206 F 
ATOM     73  C   UNL A   1      50.617  27.442  25.247  1.00  0.00     0.022 A 
BRANCH  70  74
ATOM     74  S   UNL A   1      48.461  26.725  23.651  1.00  0.00     0.124 S 
ATOM     75  O   UNL A   1      49.513  26.838  22.646  1.00  0.00    -0.237 OA
ATOM     76  O   UNL A   1      48.208  25.388  24.178  1.00  0.00    -0.237 OA
ATOM     77  O   UNL A   1      47.275  27.543  23.416  1.00  0.00    -0.744 OA
ENDBRANCH  70  74
ENDBRANCH  53  67
BRANCH  54  78
ATOM     78  C   UNL A   1      43.424  22.141  26.146  1.00  0.00     0.023 A 
ATOM     79  C   UNL A   1      44.478  21.413  25.497  1.00  0.00     0.031 A 
ATOM     80  C   UNL A   1      42.241  21.412  26.372  1.00  0.00     0.131 A 
ATOM     81  C   UNL A   1      44.311  20.040  25.131  1.00  0.00     0.055 A 
ATOM     82  C   UNL A   1      42.092  20.060  26.028  1.00  0.00     0.041 A 
ATOM     83  F   UNL A   1      41.212  21.966  27.031  1.00  0.00    -0.206 F 
ATOM     84  C   UNL A   1      43.126  19.366  25.418  1.00  0.00     0.022 A 
BRANCH  81  85
ATOM     85  S   UNL A   1      45.650  19.044  24.345  1.00  0.00     0.124 S 
ATOM     86  O   UNL A   1      45.788  17.917  25.259  1.00  0.00    -0.237 OA
ATOM     87  O   UNL A   1      45.103  18.752  23.026  1.00  0.00    -0.237 OA
ATOM     88  O   UNL A   1      46.798  19.956  24.334  1.00  0.00    -0.744 OA
ENDBRANCH  81  85
ENDBRANCH  54  78
BRANCH  66  89
ATOM     89  C   UNL A   1      42.077  28.160  27.344  1.00  0.00     0.023 A 
ATOM     90  C   UNL A   1      41.499  27.910  28.612  1.00  0.00     0.031 A 
ATOM     91  C   UNL A   1      41.249  28.729  26.359  1.00  0.00     0.131 A 
ATOM     92  C   UNL A   1      40.142  28.227  28.846  1.00  0.00     0.055 A 
ATOM     93  C   UNL A   1      39.919  29.064  26.602  1.00  0.00     0.041 A 
ATOM     94  F   UNL A   1      41.735  28.996  25.136  1.00  0.00    -0.206 F 
ATOM     95  C   UNL A   1      39.358  28.811  27.846  1.00  0.00     0.022 A 
BRANCH  92  96
ATOM     96  S   UNL A   1      39.358  27.868  30.454  1.00  0.00     0.124 S 
ATOM     97  O   UNL A   1      38.876  26.500  30.300  1.00  0.00    -0.237 OA
ATOM     98  O   UNL A   1      40.462  28.055  31.392  1.00  0.00    -0.237 OA
ATOM     99  O   UNL A   1      38.301  28.879  30.553  1.00  0.00    -0.744 OA
ENDBRANCH  92  96
ENDBRANCH  66  89
ENDBRANCH  40  41
ENDBRANCH  32  35
ENDBRANCH  30  31
ENDBRANCH  29  30
ENDBRANCH   1  29
TORSDOF 19
ENDMDL
MODEL 3
REMARK VINA RESULT:      -9.7      6.317     12.419
REMARK SMILES COc1ccccc1-c1nnc(S[C@@H](C)C(=O)NCCCCNC(=O)c2ccc(-c3c4nc(c(-c5cc(S(=O)(=O)[O-])ccc5F)c5ccc([nH]5)c(-c5cc(S(=O)(=O)[O-])ccc5F)c5nc(c(-c6cc(S(=O)(=O)[O-])ccc6F)c6ccc3[nH]6)C=C5)C=C4)cc2)n1-c1ccccc1
REMARK SMILES IDX 20 1 19 2 18 3 16 4 17 5 14 7 15 8 13 9 12 10 9 11 10 12
REMARK SMILES IDX 89 13 11 14 8 15 3 16 4 17 5 18 7 19 6 20 2 21 1 22 90 23
REMARK SMILES IDX 91 24 95 25 92 26 94 27 93 28 21 29 22 30 23 31 24 32 25 34
REMARK SMILES IDX 26 35 27 36 88 37 28 38 87 39 29 40 30 41 31 42 81 43 32 44
REMARK SMILES IDX 86 45 80 46 82 47 33 48 85 49 79 50 78 51 34 53 66 54 46 55
REMARK SMILES IDX 65 56 47 57 50 58 64 59 83 60 48 61 49 62 63 64 84 65 51 66
REMARK SMILES IDX 35 67 36 68 44 69 37 70 43 71 45 72 42 73 38 74 39 75 40 76
REMARK SMILES IDX 41 77 67 78 68 79 76 80 69 81 75 82 77 83 74 84 70 85 71 86
REMARK SMILES IDX 72 87 73 88 52 89 53 90 61 91 54 92 60 93 62 94 59 95 55 96
REMARK SMILES IDX 56 97 57 98 58 99
REMARK H PARENT 18 6 23 33 82 52 50 63
REMARK Flexibility Score: inf
ROOT
ATOM      1  C   UNL A   1      48.198  22.173  34.747  1.00  0.00     0.023 C 
ENDROOT
BRANCH   1   2
ATOM      2  C   UNL A   1      49.705  21.968  34.963  1.00  0.00     0.116 C 
BRANCH   2   3
ATOM      3  N   UNL A   1      50.226  20.619  34.926  1.00  0.00    -0.355 N 
ATOM      4  C   UNL A   1      51.466  20.120  34.632  1.00  0.00     0.233 C 
ATOM      5  O   UNL A   1      51.563  18.890  34.781  1.00  0.00    -0.274 OA
ATOM      6  H   UNL A   1      49.562  19.929  35.155  1.00  0.00     0.163 HD
BRANCH   4   7
ATOM      7  C   UNL A   1      52.682  20.878  34.059  1.00  0.00     0.141 C 
ATOM      8  C   UNL A   1      53.167  20.482  32.663  1.00  0.00     0.030 C 
BRANCH   7   9
ATOM      9  S   UNL A   1      54.086  21.386  35.022  1.00  0.00    -0.073 SA
BRANCH   9  10
ATOM     10  C   UNL A   1      54.720  22.951  34.579  1.00  0.00     0.196 A 
ATOM     11  C   UNL A   1      55.422  24.230  32.918  1.00  0.00     0.173 A 
ATOM     12  N   UNL A   1      56.466  23.751  33.561  1.00  0.00    -0.129 NA
ATOM     13  N   UNL A   1      54.210  23.916  33.699  1.00  0.00    -0.270 N 
ATOM     14  N   UNL A   1      56.031  23.058  34.644  1.00  0.00    -0.122 NA
BRANCH  11  15
ATOM     15  C   UNL A   1      55.604  25.139  31.731  1.00  0.00     0.062 A 
ATOM     16  C   UNL A   1      56.532  24.294  30.478  1.00  0.00     0.129 A 
ATOM     17  C   UNL A   1      57.829  25.095  29.636  1.00  0.00     0.047 A 
ATOM     18  C   UNL A   1      58.249  26.809  29.985  1.00  0.00     0.004 A 
ATOM     19  C   UNL A   1      55.820  26.928  31.997  1.00  0.00     0.016 A 
ATOM     20  C   UNL A   1      57.210  27.799  31.158  1.00  0.00     0.001 A 
BRANCH  16  21
ATOM     21  O   UNL A   1      56.597  22.917  30.395  1.00  0.00    -0.496 OA
ATOM     22  C   UNL A   1      56.610  22.338  29.094  1.00  0.00     0.278 C 
ENDBRANCH  16  21
ENDBRANCH  11  15
BRANCH  13  23
ATOM     23  C   UNL A   1      52.785  24.293  33.584  1.00  0.00     0.050 A 
ATOM     24  C   UNL A   1      52.034  24.101  32.429  1.00  0.00     0.027 A 
ATOM     25  C   UNL A   1      52.111  25.005  34.579  1.00  0.00     0.027 A 
ATOM     26  C   UNL A   1      50.712  24.629  32.322  1.00  0.00     0.002 A 
ATOM     27  C   UNL A   1      50.796  25.483  34.531  1.00  0.00     0.002 A 
ATOM     28  C   UNL A   1      50.095  25.319  33.368  1.00  0.00     0.000 A 
ENDBRANCH  13  23
ENDBRANCH   9  10
ENDBRANCH   7   9
ENDBRANCH   4   7
ENDBRANCH   2   3
ENDBRANCH   1   2
BRANCH   1  29
ATOM     29  C   UNL A   1      47.086  21.060  34.882  1.00  0.00     0.023 C 
BRANCH  29  30
ATOM     30  C   UNL A   1      45.228  21.280  34.941  1.00  0.00     0.116 C 
BRANCH  30  31
ATOM     31  N   UNL A   1      44.124  22.929  35.635  1.00  0.00    -0.352 N 
ATOM     32  C   UNL A   1      44.186  24.502  35.820  1.00  0.00     0.251 C 
ATOM     33  H   UNL A   1      43.254  22.608  35.964  1.00  0.00     0.163 HD
ATOM     34  O   UNL A   1      43.318  24.980  36.566  1.00  0.00    -0.269 OA
BRANCH  32  35
ATOM     35  C   UNL A   1      45.144  25.574  35.123  1.00  0.00     0.039 A 
ATOM     36  C   UNL A   1      44.491  26.628  34.489  1.00  0.00     0.014 A 
ATOM     37  C   UNL A   1      46.419  25.334  34.621  1.00  0.00     0.014 A 
ATOM     38  C   UNL A   1      44.666  26.820  33.107  1.00  0.00     0.010 A 
ATOM     39  C   UNL A   1      46.574  25.437  33.227  1.00  0.00     0.010 A 
ATOM     40  C   UNL A   1      45.536  25.991  32.423  1.00  0.00    -0.014 A 
BRANCH  40  41
ATOM     41  C   UNL A   1      45.431  25.687  30.938  1.00  0.00     0.031 A 
ATOM     42  C   UNL A   1      46.551  26.362  30.274  1.00  0.00     0.074 A 
ATOM     43  C   UNL A   1      44.646  24.883  30.143  1.00  0.00     0.049 A 
ATOM     44  N   UNL A   1      46.582  27.646  30.134  1.00  0.00    -0.248 NA
ATOM     45  C   UNL A   1      47.863  25.700  30.146  1.00  0.00     0.031 C 
ATOM     46  C   UNL A   1      43.624  23.892  30.493  1.00  0.00     0.029 A 
ATOM     47  N   UNL A   1      44.622  24.773  28.755  1.00  0.00    -0.354 N 
ATOM     48  C   UNL A   1      47.811  27.881  29.574  1.00  0.00     0.074 A 
ATOM     49  C   UNL A   1      48.627  26.790  30.021  1.00  0.00     0.031 C 
ATOM     50  C   UNL A   1      43.241  23.159  29.409  1.00  0.00     0.029 A 
ATOM     51  C   UNL A   1      43.836  23.727  28.206  1.00  0.00     0.049 A 
ATOM     52  H   UNL A   1      45.129  25.393  28.181  1.00  0.00     0.167 HD
ATOM     53  C   UNL A   1      47.907  28.657  28.463  1.00  0.00     0.034 A 
ATOM     54  C   UNL A   1      43.592  23.415  26.881  1.00  0.00     0.034 A 
ATOM     55  C   UNL A   1      46.642  29.344  28.209  1.00  0.00     0.049 A 
ATOM     56  C   UNL A   1      43.808  24.666  26.122  1.00  0.00     0.074 A 
ATOM     57  C   UNL A   1      45.798  30.142  28.964  1.00  0.00     0.029 A 
ATOM     58  N   UNL A   1      45.864  28.893  27.159  1.00  0.00    -0.354 N 
ATOM     59  N   UNL A   1      43.032  25.707  26.231  1.00  0.00    -0.248 NA
ATOM     60  C   UNL A   1      45.151  24.932  25.639  1.00  0.00     0.031 C 
ATOM     61  C   UNL A   1      44.473  29.751  28.603  1.00  0.00     0.029 A 
ATOM     62  C   UNL A   1      44.554  28.816  27.571  1.00  0.00     0.049 A 
ATOM     63  H   UNL A   1      46.195  28.663  26.261  1.00  0.00     0.167 HD
ATOM     64  C   UNL A   1      43.905  26.778  26.307  1.00  0.00     0.074 A 
ATOM     65  C   UNL A   1      45.192  26.249  25.852  1.00  0.00     0.031 C 
ATOM     66  C   UNL A   1      43.575  27.899  27.013  1.00  0.00     0.034 A 
BRANCH  53  67
ATOM     67  C   UNL A   1      48.949  28.440  27.389  1.00  0.00     0.023 A 
ATOM     68  C   UNL A   1      48.450  28.211  26.101  1.00  0.00     0.031 A 
ATOM     69  C   UNL A   1      50.336  28.204  27.557  1.00  0.00     0.131 A 
ATOM     70  C   UNL A   1      49.259  27.642  25.109  1.00  0.00     0.055 A 
ATOM     71  C   UNL A   1      51.153  27.697  26.547  1.00  0.00     0.041 A 
ATOM     72  F   UNL A   1      50.993  28.371  28.708  1.00  0.00    -0.206 F 
ATOM     73  C   UNL A   1      50.607  27.377  25.323  1.00  0.00     0.022 A 
BRANCH  70  74
ATOM     74  S   UNL A   1      48.454  27.088  23.594  1.00  0.00     0.124 S 
ATOM     75  O   UNL A   1      48.129  25.708  23.936  1.00  0.00    -0.237 OA
ATOM     76  O   UNL A   1      47.330  28.015  23.502  1.00  0.00    -0.237 OA
ATOM     77  O   UNL A   1      49.494  27.259  22.583  1.00  0.00    -0.744 OA
ENDBRANCH  70  74
ENDBRANCH  53  67
BRANCH  54  78
ATOM     78  C   UNL A   1      43.424  22.102  26.132  1.00  0.00     0.023 A 
ATOM     79  C   UNL A   1      44.478  21.380  25.477  1.00  0.00     0.031 A 
ATOM     80  C   UNL A   1      42.239  21.372  26.346  1.00  0.00     0.131 A 
ATOM     81  C   UNL A   1      44.310  20.012  25.094  1.00  0.00     0.055 A 
ATOM     82  C   UNL A   1      42.088  20.025  25.985  1.00  0.00     0.041 A 
ATOM     83  F   UNL A   1      41.209  21.921  27.009  1.00  0.00    -0.206 F 
ATOM     84  C   UNL A   1      43.122  19.337  25.370  1.00  0.00     0.022 A 
BRANCH  81  85
ATOM     85  S   UNL A   1      45.649  19.023  24.300  1.00  0.00     0.124 S 
ATOM     86  O   UNL A   1      45.067  18.676  23.010  1.00  0.00    -0.237 OA
ATOM     87  O   UNL A   1      46.770  19.955  24.280  1.00  0.00    -0.237 OA
ATOM     88  O   UNL A   1      45.825  17.886  25.209  1.00  0.00    -0.744 OA
ENDBRANCH  81  85
ENDBRANCH  54  78
BRANCH  66  89
ATOM     89  C   UNL A   1      42.112  28.120  27.373  1.00  0.00     0.023 A 
ATOM     90  C   UNL A   1      41.517  27.882  28.636  1.00  0.00     0.031 A 
ATOM     91  C   UNL A   1      41.299  28.685  26.374  1.00  0.00     0.131 A 
ATOM     92  C   UNL A   1      40.159  28.207  28.850  1.00  0.00     0.055 A 
ATOM     93  C   UNL A   1      39.967  29.028  26.597  1.00  0.00     0.041 A 
ATOM     94  F   UNL A   1      41.801  28.941  25.154  1.00  0.00    -0.206 F 
ATOM     95  C   UNL A   1      39.389  28.786  27.836  1.00  0.00     0.022 A 
BRANCH  92  96
ATOM     96  S   UNL A   1      39.353  27.864  30.451  1.00  0.00     0.124 S 
ATOM     97  O   UNL A   1      38.290  28.859  30.518  1.00  0.00    -0.237 OA
ATOM     98  O   UNL A   1      38.921  26.477  30.294  1.00  0.00    -0.237 OA
ATOM     99  O   UNL A   1      40.430  28.057  31.425  1.00  0.00    -0.744 OA
ENDBRANCH  92  96
ENDBRANCH  66  89
ENDBRANCH  40  41
ENDBRANCH  32  35
ENDBRANCH  30  31
ENDBRANCH  29  30
ENDBRANCH   1  29
TORSDOF 19
ENDMDL
