MODEL 1
REMARK VINA RESULT:     -11.5      0.000      0.000
REMARK SMILES C[C@H](c1ccoc1)[NH+]1CC[NH+]([C@@H](C)C(=O)NCCCCNC(=O)c2ccc(-c3c4nc(c(-c5cc(S(=O)(=O)[O-])ccc5F)c5ccc([nH]5)c(-c5cc(S(=O)(=O)[O-])ccc5F)c5nc(c(-c6cc(S(=O)(=O)[O-])ccc6F)c6ccc3[nH]6)C=C5)C=C4)cc2)CC1
REMARK SMILES IDX 18 1 17 2 16 3 14 4 15 5 12 7 13 8 11 9 8 10 9 11 88 12
REMARK SMILES IDX 10 14 87 15 2 17 1 18 3 19 4 20 7 21 5 22 6 23 19 24 20 25
REMARK SMILES IDX 21 26 22 27 23 29 24 30 25 31 86 32 26 33 85 34 27 35 28 36
REMARK SMILES IDX 29 37 79 38 30 39 84 40 78 41 80 42 31 43 83 44 77 45 76 46
REMARK SMILES IDX 32 48 64 49 44 50 63 51 45 52 48 53 62 54 81 55 46 56 47 57
REMARK SMILES IDX 61 59 82 60 49 61 33 62 34 63 42 64 35 65 41 66 43 67 40 68
REMARK SMILES IDX 36 69 37 70 38 71 39 72 65 73 66 74 74 75 67 76 73 77 75 78
REMARK SMILES IDX 72 79 68 80 69 81 70 82 71 83 50 84 51 85 59 86 52 87 58 88
REMARK SMILES IDX 60 89 57 90 53 91 54 92 55 93 56 94
REMARK H PARENT 16 6 8 13 11 16 21 28 80 47 48 58
REMARK Flexibility Score: inf
ROOT
ATOM      1  C   UNL A   1      32.485  27.940  24.137  1.00  0.00     0.023 C 
ENDROOT
BRANCH   1   2
ATOM      2  C   UNL A   1      31.521  27.920  22.935  1.00  0.00     0.116 C 
BRANCH   2   3
ATOM      3  N   UNL A   1      32.056  27.144  21.822  1.00  0.00    -0.351 N 
ATOM      4  C   UNL A   1      32.365  25.828  21.626  1.00  0.00     0.278 C 
ATOM      5  O   UNL A   1      32.906  25.576  20.539  1.00  0.00    -0.268 OA
ATOM      6  H   UNL A   1      32.236  27.698  21.028  1.00  0.00     0.163 HD
BRANCH   4   7
ATOM      7  C   UNL A   1      32.062  24.654  22.618  1.00  0.00     0.271 C 
ATOM      8  C   UNL A   1      30.701  24.785  23.298  1.00  0.00     0.086 C 
BRANCH   7   9
ATOM      9  N   UNL A   1      33.251  24.214  23.391  1.00  0.00    -0.316 N 
ATOM     10  N   UNL A   1      33.079  21.844  25.283  1.00  0.00    -0.320 N 
ATOM     11  C   UNL A   1      32.356  23.099  25.428  1.00  0.00     0.325 C 
ATOM     12  C   UNL A   1      33.475  21.657  23.870  1.00  0.00     0.325 C 
ATOM     13  H   UNL A   1      32.419  21.103  25.519  1.00  0.00     0.348 HD
ATOM     14  C   UNL A   1      33.150  24.272  24.835  1.00  0.00     0.325 C 
ATOM     15  C   UNL A   1      33.865  22.925  23.026  1.00  0.00     0.325 C 
ATOM     16  H   UNL A   1      33.878  24.955  23.075  1.00  0.00     0.349 HD
BRANCH  10  17
ATOM     17  C   UNL A   1      34.095  21.516  26.306  1.00  0.00     0.215 C 
ATOM     18  C   UNL A   1      33.650  22.210  27.602  1.00  0.00     0.081 C 
BRANCH  17  19
ATOM     19  C   UNL A   1      35.515  21.909  25.953  1.00  0.00     0.047 A 
ATOM     20  C   UNL A   1      36.167  23.175  26.120  1.00  0.00     0.052 A 
ATOM     21  C   UNL A   1      36.479  21.098  25.382  1.00  0.00     0.204 A 
ATOM     22  C   UNL A   1      37.416  23.059  25.557  1.00  0.00     0.195 A 
ATOM     23  O   UNL A   1      37.616  21.792  25.119  1.00  0.00    -0.472 OA
ENDBRANCH  17  19
ENDBRANCH  10  17
ENDBRANCH   7   9
ENDBRANCH   4   7
ENDBRANCH   2   3
ENDBRANCH   1   2
BRANCH   1  24
ATOM     24  C   UNL A   1      33.059  29.289  24.530  1.00  0.00     0.023 C 
BRANCH  24  25
ATOM     25  C   UNL A   1      33.255  29.489  26.020  1.00  0.00     0.116 C 
BRANCH  25  26
ATOM     26  N   UNL A   1      32.941  30.829  26.496  1.00  0.00    -0.352 N 
ATOM     27  C   UNL A   1      33.674  31.611  27.367  1.00  0.00     0.251 C 
ATOM     28  H   UNL A   1      32.106  31.225  26.155  1.00  0.00     0.163 HD
ATOM     29  O   UNL A   1      33.243  32.694  27.734  1.00  0.00    -0.269 OA
BRANCH  27  30
ATOM     30  C   UNL A   1      34.958  31.083  27.887  1.00  0.00     0.039 A 
ATOM     31  C   UNL A   1      36.054  31.939  28.003  1.00  0.00     0.014 A 
ATOM     32  C   UNL A   1      35.044  29.766  28.342  1.00  0.00     0.014 A 
ATOM     33  C   UNL A   1      37.212  31.492  28.647  1.00  0.00     0.010 A 
ATOM     34  C   UNL A   1      36.145  29.365  29.087  1.00  0.00     0.010 A 
ATOM     35  C   UNL A   1      37.252  30.215  29.228  1.00  0.00    -0.014 A 
BRANCH  35  36
ATOM     36  C   UNL A   1      38.462  29.706  29.925  1.00  0.00     0.031 A 
ATOM     37  C   UNL A   1      38.777  30.212  31.309  1.00  0.00     0.074 A 
ATOM     38  C   UNL A   1      39.307  28.864  29.298  1.00  0.00     0.049 A 
ATOM     39  N   UNL A   1      39.829  29.994  32.057  1.00  0.00    -0.248 NA
ATOM     40  C   UNL A   1      37.800  31.134  31.909  1.00  0.00     0.031 C 
ATOM     41  C   UNL A   1      39.146  28.356  27.933  1.00  0.00     0.029 A 
ATOM     42  N   UNL A   1      40.478  28.289  29.726  1.00  0.00    -0.354 N 
ATOM     43  C   UNL A   1      39.652  30.777  33.193  1.00  0.00     0.074 A 
ATOM     44  C   UNL A   1      38.439  31.539  32.993  1.00  0.00     0.031 C 
ATOM     45  C   UNL A   1      40.158  27.520  27.652  1.00  0.00     0.029 A 
ATOM     46  C   UNL A   1      41.060  27.458  28.797  1.00  0.00     0.049 A 
ATOM     47  H   UNL A   1      40.865  28.457  30.615  1.00  0.00     0.167 HD
ATOM     48  C   UNL A   1      40.408  30.830  34.317  1.00  0.00     0.034 A 
ATOM     49  C   UNL A   1      42.189  26.726  28.869  1.00  0.00     0.034 A 
ATOM     50  C   UNL A   1      41.588  30.026  34.516  1.00  0.00     0.049 A 
ATOM     51  C   UNL A   1      42.992  26.759  30.147  1.00  0.00     0.074 A 
ATOM     52  C   UNL A   1      42.406  29.949  35.629  1.00  0.00     0.029 A 
ATOM     53  N   UNL A   1      42.112  29.147  33.575  1.00  0.00    -0.354 N 
ATOM     54  N   UNL A   1      42.786  27.467  31.234  1.00  0.00    -0.248 NA
ATOM     55  C   UNL A   1      44.162  25.876  30.216  1.00  0.00     0.031 C 
ATOM     56  C   UNL A   1      43.447  29.058  35.344  1.00  0.00     0.029 A 
ATOM     57  C   UNL A   1      43.244  28.529  34.079  1.00  0.00     0.049 A 
ATOM     58  H   UNL A   1      41.733  28.987  32.681  1.00  0.00     0.167 HD
ATOM     59  C   UNL A   1      43.781  27.085  32.129  1.00  0.00     0.074 A 
ATOM     60  C   UNL A   1      44.576  26.076  31.458  1.00  0.00     0.031 C 
ATOM     61  C   UNL A   1      44.017  27.521  33.393  1.00  0.00     0.034 A 
BRANCH  48  62
ATOM     62  C   UNL A   1      39.974  31.794  35.397  1.00  0.00     0.023 A 
ATOM     63  C   UNL A   1      39.171  31.381  36.475  1.00  0.00     0.031 A 
ATOM     64  C   UNL A   1      40.312  33.157  35.317  1.00  0.00     0.131 A 
ATOM     65  C   UNL A   1      38.647  32.328  37.366  1.00  0.00     0.055 A 
ATOM     66  C   UNL A   1      39.866  34.082  36.265  1.00  0.00     0.041 A 
ATOM     67  F   UNL A   1      41.059  33.618  34.302  1.00  0.00    -0.206 F 
ATOM     68  C   UNL A   1      39.012  33.674  37.285  1.00  0.00     0.022 A 
BRANCH  65  69
ATOM     69  S   UNL A   1      37.349  31.804  38.520  1.00  0.00     0.124 S 
ATOM     70  O   UNL A   1      38.022  31.960  39.807  1.00  0.00    -0.237 OA
ATOM     71  O   UNL A   1      36.276  32.751  38.241  1.00  0.00    -0.237 OA
ATOM     72  O   UNL A   1      37.081  30.422  38.129  1.00  0.00    -0.744 OA
ENDBRANCH  65  69
ENDBRANCH  48  62
BRANCH  49  73
ATOM     73  C   UNL A   1      42.622  25.882  27.719  1.00  0.00     0.023 A 
ATOM     74  C   UNL A   1      42.152  24.566  27.572  1.00  0.00     0.031 A 
ATOM     75  C   UNL A   1      43.544  26.360  26.772  1.00  0.00     0.131 A 
ATOM     76  C   UNL A   1      42.642  23.757  26.535  1.00  0.00     0.055 A 
ATOM     77  C   UNL A   1      43.991  25.568  25.712  1.00  0.00     0.041 A 
ATOM     78  F   UNL A   1      44.016  27.614  26.858  1.00  0.00    -0.206 F 
ATOM     79  C   UNL A   1      43.550  24.253  25.598  1.00  0.00     0.022 A 
BRANCH  76  80
ATOM     80  S   UNL A   1      42.132  22.017  26.477  1.00  0.00     0.124 S 
ATOM     81  O   UNL A   1      42.646  21.515  27.747  1.00  0.00    -0.237 OA
ATOM     82  O   UNL A   1      40.682  22.131  26.371  1.00  0.00    -0.237 OA
ATOM     83  O   UNL A   1      42.805  21.506  25.285  1.00  0.00    -0.744 OA
ENDBRANCH  76  80
ENDBRANCH  49  73
BRANCH  61  84
ATOM     84  C   UNL A   1      45.140  26.857  34.147  1.00  0.00     0.023 A 
ATOM     85  C   UNL A   1      44.931  25.709  34.930  1.00  0.00     0.031 A 
ATOM     86  C   UNL A   1      46.440  27.391  34.086  1.00  0.00     0.131 A 
ATOM     87  C   UNL A   1      45.991  25.168  35.670  1.00  0.00     0.055 A 
ATOM     88  C   UNL A   1      47.504  26.813  34.778  1.00  0.00     0.041 A 
ATOM     89  F   UNL A   1      46.694  28.486  33.351  1.00  0.00    -0.206 F 
ATOM     90  C   UNL A   1      47.280  25.704  35.588  1.00  0.00     0.022 A 
BRANCH  87  91
ATOM     91  S   UNL A   1      45.645  23.809  36.821  1.00  0.00     0.124 S 
ATOM     92  O   UNL A   1      44.875  22.893  35.987  1.00  0.00    -0.237 OA
ATOM     93  O   UNL A   1      46.985  23.364  37.189  1.00  0.00    -0.237 OA
ATOM     94  O   UNL A   1      44.889  24.453  37.895  1.00  0.00    -0.744 OA
ENDBRANCH  87  91
ENDBRANCH  61  84
ENDBRANCH  35  36
ENDBRANCH  27  30
ENDBRANCH  25  26
ENDBRANCH  24  25
ENDBRANCH   1  24
TORSDOF 17
ENDMDL
MODEL 2
REMARK VINA RESULT:     -11.3      4.710      9.688
REMARK SMILES C[C@H](c1ccoc1)[NH+]1CC[NH+]([C@@H](C)C(=O)NCCCCNC(=O)c2ccc(-c3c4nc(c(-c5cc(S(=O)(=O)[O-])ccc5F)c5ccc([nH]5)c(-c5cc(S(=O)(=O)[O-])ccc5F)c5nc(c(-c6cc(S(=O)(=O)[O-])ccc6F)c6ccc3[nH]6)C=C5)C=C4)cc2)CC1
REMARK SMILES IDX 18 1 17 2 16 3 14 4 15 5 12 7 13 8 11 9 8 10 9 11 88 12
REMARK SMILES IDX 10 14 87 15 2 17 1 18 3 19 4 20 7 21 5 22 6 23 19 24 20 25
REMARK SMILES IDX 21 26 22 27 23 29 24 30 25 31 86 32 26 33 85 34 27 35 28 36
REMARK SMILES IDX 29 37 79 38 30 39 84 40 78 41 80 42 31 43 83 44 77 45 76 46
REMARK SMILES IDX 32 48 64 49 44 50 63 51 45 52 48 53 62 54 81 55 46 56 47 57
REMARK SMILES IDX 61 59 82 60 49 61 33 62 34 63 42 64 35 65 41 66 43 67 40 68
REMARK SMILES IDX 36 69 37 70 38 71 39 72 65 73 66 74 74 75 67 76 73 77 75 78
REMARK SMILES IDX 72 79 68 80 69 81 70 82 71 83 50 84 51 85 59 86 52 87 58 88
REMARK SMILES IDX 60 89 57 90 53 91 54 92 55 93 56 94
REMARK H PARENT 16 6 8 13 11 16 21 28 80 47 48 58
REMARK Flexibility Score: inf
ROOT
ATOM      1  C   UNL A   1      35.863  21.639  24.402  1.00  0.00     0.023 C 
ENDROOT
BRANCH   1   2
ATOM      2  C   UNL A   1      35.262  21.265  25.770  1.00  0.00     0.116 C 
BRANCH   2   3
ATOM      3  N   UNL A   1      34.150  20.332  25.638  1.00  0.00    -0.351 N 
ATOM      4  C   UNL A   1      32.880  20.411  25.139  1.00  0.00     0.278 C 
ATOM      5  O   UNL A   1      32.191  19.393  25.304  1.00  0.00    -0.268 OA
ATOM      6  H   UNL A   1      34.363  19.437  25.989  1.00  0.00     0.163 HD
BRANCH   4   7
ATOM      7  C   UNL A   1      32.269  21.630  24.369  1.00  0.00     0.271 C 
ATOM      8  C   UNL A   1      32.229  21.421  22.858  1.00  0.00     0.086 C 
BRANCH   7   9
ATOM      9  N   UNL A   1      32.662  22.944  24.939  1.00  0.00    -0.316 N 
ATOM     10  N   UNL A   1      30.875  25.377  24.602  1.00  0.00    -0.320 N 
ATOM     11  C   UNL A   1      31.538  24.655  23.525  1.00  0.00     0.325 C 
ATOM     12  C   UNL A   1      30.739  24.496  25.782  1.00  0.00     0.325 C 
ATOM     13  H   UNL A   1      29.936  25.593  24.268  1.00  0.00     0.348 HD
ATOM     14  C   UNL A   1      32.857  24.030  24.001  1.00  0.00     0.325 C 
ATOM     15  C   UNL A   1      31.880  23.457  26.078  1.00  0.00     0.325 C 
ATOM     16  H   UNL A   1      33.572  22.649  25.296  1.00  0.00     0.349 HD
BRANCH  10  17
ATOM     17  C   UNL A   1      31.303  26.769  24.858  1.00  0.00     0.215 C 
ATOM     18  C   UNL A   1      31.182  26.991  26.373  1.00  0.00     0.081 C 
BRANCH  17  19
ATOM     19  C   UNL A   1      30.529  27.830  24.102  1.00  0.00     0.047 A 
ATOM     20  C   UNL A   1      30.745  29.247  24.063  1.00  0.00     0.052 A 
ATOM     21  C   UNL A   1      29.432  27.626  23.283  1.00  0.00     0.204 A 
ATOM     22  C   UNL A   1      29.723  29.787  23.319  1.00  0.00     0.195 A 
ATOM     23  O   UNL A   1      28.929  28.803  22.830  1.00  0.00    -0.472 OA
ENDBRANCH  17  19
ENDBRANCH  10  17
ENDBRANCH   7   9
ENDBRANCH   4   7
ENDBRANCH   2   3
ENDBRANCH   1   2
BRANCH   1  24
ATOM     24  C   UNL A   1      37.012  22.632  24.407  1.00  0.00     0.023 C 
BRANCH  24  25
ATOM     25  C   UNL A   1      37.772  22.721  25.716  1.00  0.00     0.116 C 
BRANCH  25  26
ATOM     26  N   UNL A   1      39.000  21.940  25.755  1.00  0.00    -0.352 N 
ATOM     27  C   UNL A   1      40.242  22.338  26.211  1.00  0.00     0.251 C 
ATOM     28  H   UNL A   1      38.937  21.017  25.418  1.00  0.00     0.163 HD
ATOM     29  O   UNL A   1      41.203  21.590  26.113  1.00  0.00    -0.269 OA
BRANCH  27  30
ATOM     30  C   UNL A   1      40.391  23.706  26.763  1.00  0.00     0.039 A 
ATOM     31  C   UNL A   1      40.772  23.868  28.096  1.00  0.00     0.014 A 
ATOM     32  C   UNL A   1      40.242  24.819  25.934  1.00  0.00     0.014 A 
ATOM     33  C   UNL A   1      41.078  25.147  28.574  1.00  0.00     0.010 A 
ATOM     34  C   UNL A   1      40.663  26.066  26.374  1.00  0.00     0.010 A 
ATOM     35  C   UNL A   1      41.063  26.250  27.706  1.00  0.00    -0.014 A 
BRANCH  35  36
ATOM     36  C   UNL A   1      41.386  27.623  28.175  1.00  0.00     0.031 A 
ATOM     37  C   UNL A   1      42.825  28.073  28.188  1.00  0.00     0.074 A 
ATOM     38  C   UNL A   1      40.416  28.426  28.654  1.00  0.00     0.049 A 
ATOM     39  N   UNL A   1      43.348  29.177  28.656  1.00  0.00    -0.248 NA
ATOM     40  C   UNL A   1      43.813  27.125  27.652  1.00  0.00     0.031 C 
ATOM     41  C   UNL A   1      38.996  28.079  28.756  1.00  0.00     0.029 A 
ATOM     42  N   UNL A   1      40.478  29.703  29.154  1.00  0.00    -0.354 N 
ATOM     43  C   UNL A   1      44.723  29.036  28.501  1.00  0.00     0.074 A 
ATOM     44  C   UNL A   1      44.954  27.707  27.980  1.00  0.00     0.031 C 
ATOM     45  C   UNL A   1      38.320  29.129  29.250  1.00  0.00     0.029 A 
ATOM     46  C   UNL A   1      39.257  30.210  29.535  1.00  0.00     0.049 A 
ATOM     47  H   UNL A   1      41.319  30.209  29.232  1.00  0.00     0.167 HD
ATOM     48  C   UNL A   1      45.704  29.944  28.734  1.00  0.00     0.034 A 
ATOM     49  C   UNL A   1      38.936  31.413  30.050  1.00  0.00     0.034 A 
ATOM     50  C   UNL A   1      45.448  31.280  29.209  1.00  0.00     0.049 A 
ATOM     51  C   UNL A   1      40.033  32.428  30.256  1.00  0.00     0.074 A 
ATOM     52  C   UNL A   1      46.348  32.307  29.431  1.00  0.00     0.029 A 
ATOM     53  N   UNL A   1      44.189  31.779  29.525  1.00  0.00    -0.354 N 
ATOM     54  N   UNL A   1      41.326  32.299  30.059  1.00  0.00    -0.248 NA
ATOM     55  C   UNL A   1      39.626  33.756  30.731  1.00  0.00     0.031 C 
ATOM     56  C   UNL A   1      45.640  33.410  29.923  1.00  0.00     0.029 A 
ATOM     57  C   UNL A   1      44.290  33.094  29.946  1.00  0.00     0.049 A 
ATOM     58  H   UNL A   1      43.349  31.271  29.459  1.00  0.00     0.167 HD
ATOM     59  C   UNL A   1      41.879  33.544  30.349  1.00  0.00     0.074 A 
ATOM     60  C   UNL A   1      40.778  34.409  30.722  1.00  0.00     0.031 C 
ATOM     61  C   UNL A   1      43.177  33.940  30.307  1.00  0.00     0.034 A 
BRANCH  48  62
ATOM     62  C   UNL A   1      47.127  29.502  28.483  1.00  0.00     0.023 A 
ATOM     63  C   UNL A   1      47.917  28.944  29.504  1.00  0.00     0.031 A 
ATOM     64  C   UNL A   1      47.725  29.699  27.226  1.00  0.00     0.131 A 
ATOM     65  C   UNL A   1      49.280  28.701  29.285  1.00  0.00     0.055 A 
ATOM     66  C   UNL A   1      49.060  29.364  26.986  1.00  0.00     0.041 A 
ATOM     67  F   UNL A   1      47.031  30.247  26.216  1.00  0.00    -0.206 F 
ATOM     68  C   UNL A   1      49.852  28.881  28.024  1.00  0.00     0.022 A 
BRANCH  65  69
ATOM     69  S   UNL A   1      50.329  28.314  30.714  1.00  0.00     0.124 S 
ATOM     70  O   UNL A   1      50.854  29.634  31.057  1.00  0.00    -0.237 OA
ATOM     71  O   UNL A   1      49.378  27.739  31.657  1.00  0.00    -0.237 OA
ATOM     72  O   UNL A   1      51.315  27.382  30.173  1.00  0.00    -0.744 OA
ENDBRANCH  65  69
ENDBRANCH  48  62
BRANCH  49  73
ATOM     73  C   UNL A   1      37.520  31.743  30.384  1.00  0.00     0.023 A 
ATOM     74  C   UNL A   1      36.618  32.142  29.385  1.00  0.00     0.031 A 
ATOM     75  C   UNL A   1      37.059  31.705  31.711  1.00  0.00     0.131 A 
ATOM     76  C   UNL A   1      35.316  32.537  29.732  1.00  0.00     0.055 A 
ATOM     77  C   UNL A   1      35.747  32.050  32.046  1.00  0.00     0.041 A 
ATOM     78  F   UNL A   1      37.877  31.319  32.703  1.00  0.00    -0.206 F 
ATOM     79  C   UNL A   1      34.872  32.483  31.055  1.00  0.00     0.022 A 
BRANCH  76  80
ATOM     80  S   UNL A   1      34.234  33.199  28.434  1.00  0.00     0.124 S 
ATOM     81  O   UNL A   1      33.324  34.038  29.206  1.00  0.00    -0.237 OA
ATOM     82  O   UNL A   1      35.185  33.899  27.578  1.00  0.00    -0.237 OA
ATOM     83  O   UNL A   1      33.635  32.001  27.849  1.00  0.00    -0.744 OA
ENDBRANCH  76  80
ENDBRANCH  49  73
BRANCH  61  84
ATOM     84  C   UNL A   1      43.459  35.389  30.610  1.00  0.00     0.023 A 
ATOM     85  C   UNL A   1      43.683  35.842  31.921  1.00  0.00     0.031 A 
ATOM     86  C   UNL A   1      43.492  36.331  29.567  1.00  0.00     0.131 A 
ATOM     87  C   UNL A   1      43.871  37.211  32.162  1.00  0.00     0.055 A 
ATOM     88  C   UNL A   1      43.738  37.683  29.807  1.00  0.00     0.041 A 
ATOM     89  F   UNL A   1      43.286  35.951  28.295  1.00  0.00    -0.206 F 
ATOM     90  C   UNL A   1      43.914  38.132  31.112  1.00  0.00     0.022 A 
BRANCH  87  91
ATOM     91  S   UNL A   1      43.961  37.787  33.880  1.00  0.00     0.124 S 
ATOM     92  O   UNL A   1      42.551  37.950  34.220  1.00  0.00    -0.237 OA
ATOM     93  O   UNL A   1      44.653  36.686  34.541  1.00  0.00    -0.237 OA
ATOM     94  O   UNL A   1      44.723  39.031  33.785  1.00  0.00    -0.744 OA
ENDBRANCH  87  91
ENDBRANCH  61  84
ENDBRANCH  35  36
ENDBRANCH  27  30
ENDBRANCH  25  26
ENDBRANCH  24  25
ENDBRANCH   1  24
TORSDOF 17
ENDMDL
MODEL 3
REMARK VINA RESULT:     -11.3      4.935     10.046
REMARK SMILES C[C@H](c1ccoc1)[NH+]1CC[NH+]([C@@H](C)C(=O)NCCCCNC(=O)c2ccc(-c3c4nc(c(-c5cc(S(=O)(=O)[O-])ccc5F)c5ccc([nH]5)c(-c5cc(S(=O)(=O)[O-])ccc5F)c5nc(c(-c6cc(S(=O)(=O)[O-])ccc6F)c6ccc3[nH]6)C=C5)C=C4)cc2)CC1
REMARK SMILES IDX 18 1 17 2 16 3 14 4 15 5 12 7 13 8 11 9 8 10 9 11 88 12
REMARK SMILES IDX 10 14 87 15 2 17 1 18 3 19 4 20 7 21 5 22 6 23 19 24 20 25
REMARK SMILES IDX 21 26 22 27 23 29 24 30 25 31 86 32 26 33 85 34 27 35 28 36
REMARK SMILES IDX 29 37 79 38 30 39 84 40 78 41 80 42 31 43 83 44 77 45 76 46
REMARK SMILES IDX 32 48 64 49 44 50 63 51 45 52 48 53 62 54 81 55 46 56 47 57
REMARK SMILES IDX 61 59 82 60 49 61 33 62 34 63 42 64 35 65 41 66 43 67 40 68
REMARK SMILES IDX 36 69 37 70 38 71 39 72 65 73 66 74 74 75 67 76 73 77 75 78
REMARK SMILES IDX 72 79 68 80 69 81 70 82 71 83 50 84 51 85 59 86 52 87 58 88
REMARK SMILES IDX 60 89 57 90 53 91 54 92 55 93 56 94
REMARK H PARENT 16 6 8 13 11 16 21 28 80 47 48 58
REMARK Flexibility Score: inf
ROOT
ATOM      1  C   UNL A   1      35.823  21.620  24.334  1.00  0.00     0.023 C 
ENDROOT
BRANCH   1   2
ATOM      2  C   UNL A   1      35.235  21.221  25.701  1.00  0.00     0.116 C 
BRANCH   2   3
ATOM      3  N   UNL A   1      34.114  20.299  25.561  1.00  0.00    -0.351 N 
ATOM      4  C   UNL A   1      32.848  20.393  25.056  1.00  0.00     0.278 C 
ATOM      5  O   UNL A   1      32.147  19.382  25.216  1.00  0.00    -0.268 OA
ATOM      6  H   UNL A   1      34.316  19.402  25.912  1.00  0.00     0.163 HD
BRANCH   4   7
ATOM      7  C   UNL A   1      32.254  21.620  24.284  1.00  0.00     0.271 C 
ATOM      8  C   UNL A   1      32.204  21.406  22.773  1.00  0.00     0.086 C 
BRANCH   7   9
ATOM      9  N   UNL A   1      32.673  22.928  24.847  1.00  0.00    -0.316 N 
ATOM     10  N   UNL A   1      30.981  25.414  24.414  1.00  0.00    -0.320 N 
ATOM     11  C   UNL A   1      31.654  24.653  23.371  1.00  0.00     0.325 C 
ATOM     12  C   UNL A   1      30.777  24.557  25.603  1.00  0.00     0.325 C 
ATOM     13  H   UNL A   1      30.061  25.656  24.047  1.00  0.00     0.348 HD
ATOM     14  C   UNL A   1      32.935  23.992  23.899  1.00  0.00     0.325 C 
ATOM     15  C   UNL A   1      31.873  23.485  25.952  1.00  0.00     0.325 C 
ATOM     16  H   UNL A   1      33.560  22.609  25.237  1.00  0.00     0.349 HD
BRANCH  10  17
ATOM     17  C   UNL A   1      31.447  26.795  24.664  1.00  0.00     0.215 C 
ATOM     18  C   UNL A   1      31.111  27.112  26.128  1.00  0.00     0.081 C 
BRANCH  17  19
ATOM     19  C   UNL A   1      30.862  27.847  23.745  1.00  0.00     0.047 A 
ATOM     20  C   UNL A   1      30.576  29.226  24.019  1.00  0.00     0.052 A 
ATOM     21  C   UNL A   1      30.478  27.672  22.427  1.00  0.00     0.204 A 
ATOM     22  C   UNL A   1      29.963  29.737  22.900  1.00  0.00     0.195 A 
ATOM     23  O   UNL A   1      29.913  28.800  21.923  1.00  0.00    -0.472 OA
ENDBRANCH  17  19
ENDBRANCH  10  17
ENDBRANCH   7   9
ENDBRANCH   4   7
ENDBRANCH   2   3
ENDBRANCH   1   2
BRANCH   1  24
ATOM     24  C   UNL A   1      36.932  22.657  24.343  1.00  0.00     0.023 C 
BRANCH  24  25
ATOM     25  C   UNL A   1      37.686  22.773  25.653  1.00  0.00     0.116 C 
BRANCH  25  26
ATOM     26  N   UNL A   1      38.908  21.984  25.718  1.00  0.00    -0.352 N 
ATOM     27  C   UNL A   1      40.143  22.373  26.200  1.00  0.00     0.251 C 
ATOM     28  H   UNL A   1      38.846  21.061  25.380  1.00  0.00     0.163 HD
ATOM     29  O   UNL A   1      41.100  21.619  26.122  1.00  0.00    -0.269 OA
BRANCH  27  30
ATOM     30  C   UNL A   1      40.290  23.741  26.754  1.00  0.00     0.039 A 
ATOM     31  C   UNL A   1      40.550  23.903  28.116  1.00  0.00     0.014 A 
ATOM     32  C   UNL A   1      40.260  24.850  25.907  1.00  0.00     0.014 A 
ATOM     33  C   UNL A   1      40.857  25.175  28.611  1.00  0.00     0.010 A 
ATOM     34  C   UNL A   1      40.683  26.086  26.376  1.00  0.00     0.010 A 
ATOM     35  C   UNL A   1      40.963  26.269  27.738  1.00  0.00    -0.014 A 
BRANCH  35  36
ATOM     36  C   UNL A   1      41.291  27.634  28.226  1.00  0.00     0.031 A 
ATOM     37  C   UNL A   1      42.736  28.060  28.294  1.00  0.00     0.074 A 
ATOM     38  C   UNL A   1      40.318  28.451  28.674  1.00  0.00     0.049 A 
ATOM     39  N   UNL A   1      43.259  29.153  28.787  1.00  0.00    -0.248 NA
ATOM     40  C   UNL A   1      43.728  27.099  27.789  1.00  0.00     0.031 C 
ATOM     41  C   UNL A   1      38.890  28.126  28.723  1.00  0.00     0.029 A 
ATOM     42  N   UNL A   1      40.382  29.724  29.183  1.00  0.00    -0.354 N 
ATOM     43  C   UNL A   1      44.637  28.991  28.680  1.00  0.00     0.074 A 
ATOM     44  C   UNL A   1      44.865  27.661  28.161  1.00  0.00     0.031 C 
ATOM     45  C   UNL A   1      38.213  29.185  29.198  1.00  0.00     0.029 A 
ATOM     46  C   UNL A   1      39.157  30.249  29.522  1.00  0.00     0.049 A 
ATOM     47  H   UNL A   1      41.228  30.216  29.294  1.00  0.00     0.167 HD
ATOM     48  C   UNL A   1      45.623  29.881  28.954  1.00  0.00     0.034 A 
ATOM     49  C   UNL A   1      38.836  31.455  30.032  1.00  0.00     0.034 A 
ATOM     50  C   UNL A   1      45.372  31.219  29.426  1.00  0.00     0.049 A 
ATOM     51  C   UNL A   1      39.942  32.451  30.283  1.00  0.00     0.074 A 
ATOM     52  C   UNL A   1      46.279  32.231  29.687  1.00  0.00     0.029 A 
ATOM     53  N   UNL A   1      44.111  31.737  29.699  1.00  0.00    -0.354 N 
ATOM     54  N   UNL A   1      41.238  32.302  30.132  1.00  0.00    -0.248 NA
ATOM     55  C   UNL A   1      39.539  33.783  30.749  1.00  0.00     0.031 C 
ATOM     56  C   UNL A   1      45.572  33.342  30.158  1.00  0.00     0.029 A 
ATOM     57  C   UNL A   1      44.217  33.049  30.131  1.00  0.00     0.049 A 
ATOM     58  H   UNL A   1      43.265  31.244  29.600  1.00  0.00     0.167 HD
ATOM     59  C   UNL A   1      41.801  33.535  30.448  1.00  0.00     0.074 A 
ATOM     60  C   UNL A   1      40.701  34.417  30.786  1.00  0.00     0.031 C 
ATOM     61  C   UNL A   1      43.106  33.911  30.456  1.00  0.00     0.034 A 
BRANCH  48  62
ATOM     62  C   UNL A   1      47.047  29.418  28.752  1.00  0.00     0.023 A 
ATOM     63  C   UNL A   1      47.576  29.201  27.467  1.00  0.00     0.031 A 
ATOM     64  C   UNL A   1      47.868  29.129  29.856  1.00  0.00     0.131 A 
ATOM     65  C   UNL A   1      48.840  28.613  27.318  1.00  0.00     0.055 A 
ATOM     66  C   UNL A   1      49.165  28.633  29.698  1.00  0.00     0.041 A 
ATOM     67  F   UNL A   1      47.415  29.295  31.108  1.00  0.00    -0.206 F 
ATOM     68  C   UNL A   1      49.651  28.353  28.424  1.00  0.00     0.022 A 
BRANCH  65  69
ATOM     69  S   UNL A   1      49.334  28.034  25.670  1.00  0.00     0.124 S 
ATOM     70  O   UNL A   1      50.509  28.863  25.410  1.00  0.00    -0.237 OA
ATOM     71  O   UNL A   1      49.589  26.617  25.896  1.00  0.00    -0.237 OA
ATOM     72  O   UNL A   1      48.172  28.337  24.838  1.00  0.00    -0.744 OA
ENDBRANCH  65  69
ENDBRANCH  48  62
BRANCH  49  73
ATOM     73  C   UNL A   1      37.415  31.806  30.316  1.00  0.00     0.023 A 
ATOM     74  C   UNL A   1      36.606  32.393  29.329  1.00  0.00     0.031 A 
ATOM     75  C   UNL A   1      36.856  31.600  31.589  1.00  0.00     0.131 A 
ATOM     76  C   UNL A   1      35.300  32.800  29.643  1.00  0.00     0.055 A 
ATOM     77  C   UNL A   1      35.539  31.961  31.883  1.00  0.00     0.041 A 
ATOM     78  F   UNL A   1      37.582  31.032  32.565  1.00  0.00    -0.206 F 
ATOM     79  C   UNL A   1      34.757  32.579  30.911  1.00  0.00     0.022 A 
BRANCH  76  80
ATOM     80  S   UNL A   1      34.345  33.699  28.389  1.00  0.00     0.124 S 
ATOM     81  O   UNL A   1      33.411  32.674  27.936  1.00  0.00    -0.237 OA
ATOM     82  O   UNL A   1      33.773  34.790  29.170  1.00  0.00    -0.237 OA
ATOM     83  O   UNL A   1      35.358  34.097  27.413  1.00  0.00    -0.744 OA
ENDBRANCH  76  80
ENDBRANCH  49  73
BRANCH  61  84
ATOM     84  C   UNL A   1      43.400  35.354  30.777  1.00  0.00     0.023 A 
ATOM     85  C   UNL A   1      43.433  36.343  29.780  1.00  0.00     0.031 A 
ATOM     86  C   UNL A   1      43.661  35.739  32.104  1.00  0.00     0.131 A 
ATOM     87  C   UNL A   1      43.782  37.659  30.116  1.00  0.00     0.055 A 
ATOM     88  C   UNL A   1      43.949  37.061  32.441  1.00  0.00     0.041 A 
ATOM     89  F   UNL A   1      43.640  34.833  33.095  1.00  0.00    -0.206 F 
ATOM     90  C   UNL A   1      44.025  38.028  31.442  1.00  0.00     0.022 A 
BRANCH  87  91
ATOM     91  S   UNL A   1      44.008  38.867  28.782  1.00  0.00     0.124 S 
ATOM     92  O   UNL A   1      45.352  39.367  29.049  1.00  0.00    -0.237 OA
ATOM     93  O   UNL A   1      43.860  38.042  27.587  1.00  0.00    -0.237 OA
ATOM     94  O   UNL A   1      42.932  39.832  29.006  1.00  0.00    -0.744 OA
ENDBRANCH  87  91
ENDBRANCH  61  84
ENDBRANCH  35  36
ENDBRANCH  27  30
ENDBRANCH  25  26
ENDBRANCH  24  25
ENDBRANCH   1  24
TORSDOF 17
ENDMDL
