MODEL 1
REMARK VINA RESULT:     -12.0      0.000      0.000
REMARK SMILES CN(C(=O)N1Cc2nc[nH]c2C[C@@H]1C(=O)NCCCCNC(=O)c1ccc(-c2c3nc(c(-c4cc(S(=O)(=O)[O-])ccc4F)c4ccc([nH]4)c(-c4cc(S(=O)(=O)[O-])ccc4F)c4nc(c(-c5cc(S(=O)(=O)[O-])ccc5F)c5ccc2[nH]5)C=C4)C=C3)cc1)C1CC1
REMARK SMILES IDX 18 1 17 2 16 3 14 4 15 5 13 7 5 8 6 9 7 10 12 11 8 12 11 13
REMARK SMILES IDX 9 14 10 15 3 17 4 18 2 19 1 20 87 21 88 22 89 23 19 24 20 25
REMARK SMILES IDX 21 26 22 27 23 29 24 30 25 31 86 32 26 33 85 34 27 35 28 36
REMARK SMILES IDX 29 37 79 38 30 39 84 40 78 41 80 42 31 43 83 44 77 45 76 46
REMARK SMILES IDX 32 48 64 49 44 50 63 51 45 52 48 53 62 54 81 55 46 56 47 57
REMARK SMILES IDX 61 59 82 60 49 61 33 62 34 63 42 64 35 65 41 66 43 67 40 68
REMARK SMILES IDX 36 69 37 70 38 71 39 72 65 73 66 74 74 75 67 76 73 77 75 78
REMARK SMILES IDX 72 79 68 80 69 81 70 82 71 83 50 84 51 85 59 86 52 87 58 88
REMARK SMILES IDX 60 89 57 90 53 91 54 92 55 93 56 94
REMARK H PARENT 16 6 10 16 21 28 80 47 48 58
REMARK Flexibility Score: inf
ROOT
ATOM      1  C   UNL A   1      31.757  28.977  27.261  1.00  0.00     0.023 C 
ENDROOT
BRANCH   1   2
ATOM      2  C   UNL A   1      31.822  27.623  26.532  1.00  0.00     0.116 C 
BRANCH   2   3
ATOM      3  N   UNL A   1      33.150  27.056  26.559  1.00  0.00    -0.354 N 
ATOM      4  C   UNL A   1      33.874  26.838  25.392  1.00  0.00     0.243 C 
ATOM      5  O   UNL A   1      34.227  27.709  24.633  1.00  0.00    -0.273 OA
ATOM      6  H   UNL A   1      33.554  26.819  27.426  1.00  0.00     0.163 HD
BRANCH   4   7
ATOM      7  C   UNL A   1      33.864  25.350  25.013  1.00  0.00     0.182 C 
ATOM      8  N   UNL A   1      33.822  24.923  23.586  1.00  0.00    -0.306 N 
ATOM      9  C   UNL A   1      34.763  23.801  23.314  1.00  0.00     0.180 C 
ATOM     10  C   UNL A   1      34.668  22.812  24.449  1.00  0.00     0.081 A 
ATOM     11  C   UNL A   1      33.173  24.285  25.905  1.00  0.00     0.091 C 
ATOM     12  N   UNL A   1      35.459  21.701  24.586  1.00  0.00    -0.240 NA
ATOM     13  C   UNL A   1      33.932  23.022  25.606  1.00  0.00     0.042 A 
ATOM     14  C   UNL A   1      35.185  21.235  25.787  1.00  0.00     0.197 A 
ATOM     15  N   UNL A   1      34.223  21.975  26.426  1.00  0.00    -0.348 N 
ATOM     16  H   UNL A   1      33.821  21.787  27.305  1.00  0.00     0.167 HD
BRANCH   8  17
ATOM     17  C   UNL A   1      32.997  25.309  22.554  1.00  0.00     0.321 C 
ATOM     18  O   UNL A   1      33.509  25.679  21.489  1.00  0.00    -0.248 OA
BRANCH  17  19
ATOM     19  N   UNL A   1      31.630  25.478  22.740  1.00  0.00    -0.325 N 
ATOM     20  C   UNL A   1      30.650  24.518  23.248  1.00  0.00     0.149 C 
BRANCH  19  21
ATOM     21  C   UNL A   1      31.075  26.761  22.318  1.00  0.00     0.086 C 
ATOM     22  C   UNL A   1      30.255  27.602  23.259  1.00  0.00     0.027 C 
ATOM     23  C   UNL A   1      31.563  28.119  22.744  1.00  0.00     0.027 C 
ENDBRANCH  19  21
ENDBRANCH  17  19
ENDBRANCH   8  17
ENDBRANCH   4   7
ENDBRANCH   2   3
ENDBRANCH   1   2
BRANCH   1  24
ATOM     24  C   UNL A   1      32.688  30.113  26.797  1.00  0.00     0.023 C 
BRANCH  24  25
ATOM     25  C   UNL A   1      33.990  30.321  27.560  1.00  0.00     0.116 C 
BRANCH  25  26
ATOM     26  N   UNL A   1      34.546  31.649  27.380  1.00  0.00    -0.352 N 
ATOM     27  C   UNL A   1      35.672  32.213  27.940  1.00  0.00     0.251 C 
ATOM     28  H   UNL A   1      34.044  32.233  26.767  1.00  0.00     0.163 HD
ATOM     29  O   UNL A   1      35.701  33.436  28.069  1.00  0.00    -0.269 OA
BRANCH  27  30
ATOM     30  C   UNL A   1      36.825  31.391  28.387  1.00  0.00     0.039 A 
ATOM     31  C   UNL A   1      37.797  31.953  29.222  1.00  0.00     0.014 A 
ATOM     32  C   UNL A   1      37.009  30.094  27.919  1.00  0.00     0.014 A 
ATOM     33  C   UNL A   1      38.927  31.209  29.580  1.00  0.00     0.010 A 
ATOM     34  C   UNL A   1      38.056  29.314  28.373  1.00  0.00     0.010 A 
ATOM     35  C   UNL A   1      39.065  29.885  29.144  1.00  0.00    -0.014 A 
BRANCH  35  36
ATOM     36  C   UNL A   1      40.262  29.102  29.479  1.00  0.00     0.031 A 
ATOM     37  C   UNL A   1      40.570  28.895  30.920  1.00  0.00     0.074 A 
ATOM     38  C   UNL A   1      40.980  28.404  28.570  1.00  0.00     0.049 A 
ATOM     39  N   UNL A   1      41.648  29.217  31.556  1.00  0.00    -0.248 NA
ATOM     40  C   UNL A   1      39.544  28.277  31.770  1.00  0.00     0.031 C 
ATOM     41  C   UNL A   1      40.684  28.214  27.145  1.00  0.00     0.029 A 
ATOM     42  N   UNL A   1      42.065  27.596  28.766  1.00  0.00    -0.354 N 
ATOM     43  C   UNL A   1      41.533  28.678  32.836  1.00  0.00     0.074 A 
ATOM     44  C   UNL A   1      40.170  28.223  32.947  1.00  0.00     0.031 C 
ATOM     45  C   UNL A   1      41.389  27.165  26.677  1.00  0.00     0.029 A 
ATOM     46  C   UNL A   1      42.316  26.735  27.706  1.00  0.00     0.049 A 
ATOM     47  H   UNL A   1      42.617  27.623  29.580  1.00  0.00     0.167 HD
ATOM     48  C   UNL A   1      42.619  28.496  33.639  1.00  0.00     0.034 A 
ATOM     49  C   UNL A   1      43.205  25.714  27.650  1.00  0.00     0.034 A 
ATOM     50  C   UNL A   1      43.753  29.260  33.172  1.00  0.00     0.049 A 
ATOM     51  C   UNL A   1      44.261  25.982  28.647  1.00  0.00     0.074 A 
ATOM     52  C   UNL A   1      43.991  30.600  32.929  1.00  0.00     0.029 A 
ATOM     53  N   UNL A   1      44.792  28.590  32.572  1.00  0.00    -0.354 N 
ATOM     54  N   UNL A   1      45.088  26.988  28.570  1.00  0.00    -0.248 NA
ATOM     55  C   UNL A   1      44.179  25.353  29.956  1.00  0.00     0.031 C 
ATOM     56  C   UNL A   1      44.861  30.624  31.800  1.00  0.00     0.029 A 
ATOM     57  C   UNL A   1      45.136  29.300  31.449  1.00  0.00     0.049 A 
ATOM     58  H   UNL A   1      45.212  27.756  32.888  1.00  0.00     0.167 HD
ATOM     59  C   UNL A   1      45.287  27.388  29.878  1.00  0.00     0.074 A 
ATOM     60  C   UNL A   1      44.834  26.260  30.685  1.00  0.00     0.031 C 
ATOM     61  C   UNL A   1      45.527  28.696  30.189  1.00  0.00     0.034 A 
BRANCH  48  62
ATOM     62  C   UNL A   1      42.775  27.418  34.693  1.00  0.00     0.023 A 
ATOM     63  C   UNL A   1      43.580  26.302  34.377  1.00  0.00     0.031 A 
ATOM     64  C   UNL A   1      41.979  27.286  35.851  1.00  0.00     0.131 A 
ATOM     65  C   UNL A   1      43.510  25.115  35.129  1.00  0.00     0.055 A 
ATOM     66  C   UNL A   1      41.973  26.131  36.643  1.00  0.00     0.041 A 
ATOM     67  F   UNL A   1      41.096  28.219  36.227  1.00  0.00    -0.206 F 
ATOM     68  C   UNL A   1      42.718  25.025  36.268  1.00  0.00     0.022 A 
BRANCH  65  69
ATOM     69  S   UNL A   1      44.313  23.626  34.471  1.00  0.00     0.124 S 
ATOM     70  O   UNL A   1      45.720  23.909  34.734  1.00  0.00    -0.237 OA
ATOM     71  O   UNL A   1      43.703  22.576  35.279  1.00  0.00    -0.237 OA
ATOM     72  O   UNL A   1      43.930  23.631  33.061  1.00  0.00    -0.744 OA
ENDBRANCH  65  69
ENDBRANCH  48  62
BRANCH  49  73
ATOM     73  C   UNL A   1      43.040  24.445  26.907  1.00  0.00     0.023 A 
ATOM     74  C   UNL A   1      44.018  23.943  26.031  1.00  0.00     0.031 A 
ATOM     75  C   UNL A   1      41.956  23.590  27.215  1.00  0.00     0.131 A 
ATOM     76  C   UNL A   1      43.883  22.644  25.492  1.00  0.00     0.055 A 
ATOM     77  C   UNL A   1      41.817  22.315  26.665  1.00  0.00     0.041 A 
ATOM     78  F   UNL A   1      41.034  23.941  28.128  1.00  0.00    -0.206 F 
ATOM     79  C   UNL A   1      42.787  21.834  25.801  1.00  0.00     0.022 A 
BRANCH  76  80
ATOM     80  S   UNL A   1      45.205  21.953  24.452  1.00  0.00     0.124 S 
ATOM     81  O   UNL A   1      45.540  23.075  23.584  1.00  0.00    -0.237 OA
ATOM     82  O   UNL A   1      46.209  21.572  25.440  1.00  0.00    -0.237 OA
ATOM     83  O   UNL A   1      44.555  20.827  23.779  1.00  0.00    -0.744 OA
ENDBRANCH  76  80
ENDBRANCH  49  73
BRANCH  61  84
ATOM     84  C   UNL A   1      45.961  29.637  29.084  1.00  0.00     0.023 A 
ATOM     85  C   UNL A   1      45.081  30.417  28.303  1.00  0.00     0.031 A 
ATOM     86  C   UNL A   1      47.342  29.835  28.902  1.00  0.00     0.131 A 
ATOM     87  C   UNL A   1      45.592  31.342  27.373  1.00  0.00     0.055 A 
ATOM     88  C   UNL A   1      47.846  30.766  27.993  1.00  0.00     0.041 A 
ATOM     89  F   UNL A   1      48.233  29.148  29.636  1.00  0.00    -0.206 F 
ATOM     90  C   UNL A   1      46.971  31.520  27.219  1.00  0.00     0.022 A 
BRANCH  87  91
ATOM     91  S   UNL A   1      44.464  32.326  26.335  1.00  0.00     0.124 S 
ATOM     92  O   UNL A   1      43.399  31.389  26.000  1.00  0.00    -0.237 OA
ATOM     93  O   UNL A   1      44.096  33.425  27.224  1.00  0.00    -0.237 OA
ATOM     94  O   UNL A   1      45.305  32.721  25.202  1.00  0.00    -0.744 OA
ENDBRANCH  87  91
ENDBRANCH  61  84
ENDBRANCH  35  36
ENDBRANCH  27  30
ENDBRANCH  25  26
ENDBRANCH  24  25
ENDBRANCH   1  24
TORSDOF 17
ENDMDL
MODEL 2
REMARK VINA RESULT:     -12.0      2.582      7.373
REMARK SMILES CN(C(=O)N1Cc2nc[nH]c2C[C@@H]1C(=O)NCCCCNC(=O)c1ccc(-c2c3nc(c(-c4cc(S(=O)(=O)[O-])ccc4F)c4ccc([nH]4)c(-c4cc(S(=O)(=O)[O-])ccc4F)c4nc(c(-c5cc(S(=O)(=O)[O-])ccc5F)c5ccc2[nH]5)C=C4)C=C3)cc1)C1CC1
REMARK SMILES IDX 18 1 17 2 16 3 14 4 15 5 13 7 5 8 6 9 7 10 12 11 8 12 11 13
REMARK SMILES IDX 9 14 10 15 3 17 4 18 2 19 1 20 87 21 88 22 89 23 19 24 20 25
REMARK SMILES IDX 21 26 22 27 23 29 24 30 25 31 86 32 26 33 85 34 27 35 28 36
REMARK SMILES IDX 29 37 79 38 30 39 84 40 78 41 80 42 31 43 83 44 77 45 76 46
REMARK SMILES IDX 32 48 64 49 44 50 63 51 45 52 48 53 62 54 81 55 46 56 47 57
REMARK SMILES IDX 61 59 82 60 49 61 33 62 34 63 42 64 35 65 41 66 43 67 40 68
REMARK SMILES IDX 36 69 37 70 38 71 39 72 65 73 66 74 74 75 67 76 73 77 75 78
REMARK SMILES IDX 72 79 68 80 69 81 70 82 71 83 50 84 51 85 59 86 52 87 58 88
REMARK SMILES IDX 60 89 57 90 53 91 54 92 55 93 56 94
REMARK H PARENT 16 6 10 16 21 28 80 47 48 58
REMARK Flexibility Score: inf
ROOT
ATOM      1  C   UNL A   1      32.348  29.408  26.945  1.00  0.00     0.023 C 
ENDROOT
BRANCH   1   2
ATOM      2  C   UNL A   1      32.045  28.157  27.791  1.00  0.00     0.116 C 
BRANCH   2   3
ATOM      3  N   UNL A   1      31.567  27.060  26.982  1.00  0.00    -0.354 N 
ATOM      4  C   UNL A   1      32.181  26.718  25.783  1.00  0.00     0.243 C 
ATOM      5  O   UNL A   1      33.323  26.335  25.683  1.00  0.00    -0.273 OA
ATOM      6  H   UNL A   1      30.788  26.542  27.287  1.00  0.00     0.163 HD
BRANCH   4   7
ATOM      7  C   UNL A   1      31.357  27.213  24.586  1.00  0.00     0.182 C 
ATOM      8  N   UNL A   1      30.561  26.264  23.758  1.00  0.00    -0.306 N 
ATOM      9  C   UNL A   1      29.210  26.802  23.439  1.00  0.00     0.180 C 
ATOM     10  C   UNL A   1      29.349  28.259  23.074  1.00  0.00     0.081 A 
ATOM     11  C   UNL A   1      31.816  28.415  23.719  1.00  0.00     0.091 C 
ATOM     12  N   UNL A   1      28.302  29.104  22.815  1.00  0.00    -0.240 NA
ATOM     13  C   UNL A   1      30.530  28.979  23.179  1.00  0.00     0.042 A 
ATOM     14  C   UNL A   1      28.843  30.302  22.737  1.00  0.00     0.197 A 
ATOM     15  N   UNL A   1      30.205  30.270  22.900  1.00  0.00    -0.348 N 
ATOM     16  H   UNL A   1      30.825  31.032  22.828  1.00  0.00     0.167 HD
BRANCH   8  17
ATOM     17  C   UNL A   1      30.912  25.070  23.167  1.00  0.00     0.321 C 
ATOM     18  O   UNL A   1      30.265  24.054  23.452  1.00  0.00    -0.248 OA
BRANCH  17  19
ATOM     19  N   UNL A   1      32.079  24.942  22.424  1.00  0.00    -0.325 N 
ATOM     20  C   UNL A   1      32.556  25.774  21.319  1.00  0.00     0.149 C 
BRANCH  19  21
ATOM     21  C   UNL A   1      32.921  23.790  22.737  1.00  0.00     0.086 C 
ATOM     22  C   UNL A   1      34.317  23.969  23.271  1.00  0.00     0.027 C 
ATOM     23  C   UNL A   1      33.275  23.302  24.116  1.00  0.00     0.027 C 
ENDBRANCH  19  21
ENDBRANCH  17  19
ENDBRANCH   8  17
ENDBRANCH   4   7
ENDBRANCH   2   3
ENDBRANCH   1   2
BRANCH   1  24
ATOM     24  C   UNL A   1      33.803  29.677  26.517  1.00  0.00     0.023 C 
BRANCH  24  25
ATOM     25  C   UNL A   1      34.916  29.177  27.430  1.00  0.00     0.116 C 
BRANCH  25  26
ATOM     26  N   UNL A   1      35.131  30.035  28.580  1.00  0.00    -0.352 N 
ATOM     27  C   UNL A   1      36.122  29.989  29.538  1.00  0.00     0.251 C 
ATOM     28  H   UNL A   1      34.471  30.757  28.693  1.00  0.00     0.163 HD
ATOM     29  O   UNL A   1      35.868  30.442  30.653  1.00  0.00    -0.269 OA
BRANCH  27  30
ATOM     30  C   UNL A   1      37.459  29.408  29.259  1.00  0.00     0.039 A 
ATOM     31  C   UNL A   1      38.003  28.462  30.135  1.00  0.00     0.014 A 
ATOM     32  C   UNL A   1      38.227  29.851  28.187  1.00  0.00     0.014 A 
ATOM     33  C   UNL A   1      39.297  27.972  29.921  1.00  0.00     0.010 A 
ATOM     34  C   UNL A   1      39.452  29.276  27.901  1.00  0.00     0.010 A 
ATOM     35  C   UNL A   1      40.032  28.390  28.804  1.00  0.00    -0.014 A 
BRANCH  35  36
ATOM     36  C   UNL A   1      41.404  27.915  28.585  1.00  0.00     0.031 A 
ATOM     37  C   UNL A   1      41.583  26.638  27.841  1.00  0.00     0.074 A 
ATOM     38  C   UNL A   1      42.505  28.658  28.842  1.00  0.00     0.049 A 
ATOM     39  N   UNL A   1      42.187  25.566  28.238  1.00  0.00    -0.248 NA
ATOM     40  C   UNL A   1      40.994  26.524  26.501  1.00  0.00     0.031 C 
ATOM     41  C   UNL A   1      42.562  30.054  29.289  1.00  0.00     0.029 A 
ATOM     42  N   UNL A   1      43.820  28.354  28.626  1.00  0.00    -0.354 N 
ATOM     43  C   UNL A   1      42.234  24.706  27.143  1.00  0.00     0.074 A 
ATOM     44  C   UNL A   1      41.376  25.296  26.145  1.00  0.00     0.031 C 
ATOM     45  C   UNL A   1      43.795  30.549  29.059  1.00  0.00     0.029 A 
ATOM     46  C   UNL A   1      44.655  29.462  28.632  1.00  0.00     0.049 A 
ATOM     47  H   UNL A   1      44.144  27.436  28.480  1.00  0.00     0.167 HD
ATOM     48  C   UNL A   1      43.111  23.664  27.084  1.00  0.00     0.034 A 
ATOM     49  C   UNL A   1      45.966  29.523  28.296  1.00  0.00     0.034 A 
ATOM     50  C   UNL A   1      43.652  23.358  28.388  1.00  0.00     0.049 A 
ATOM     51  C   UNL A   1      46.537  28.170  28.461  1.00  0.00     0.074 A 
ATOM     52  C   UNL A   1      43.110  23.006  29.610  1.00  0.00     0.029 A 
ATOM     53  N   UNL A   1      44.956  23.704  28.654  1.00  0.00    -0.354 N 
ATOM     54  N   UNL A   1      46.640  27.566  29.612  1.00  0.00    -0.248 NA
ATOM     55  C   UNL A   1      46.658  27.305  27.299  1.00  0.00     0.031 C 
ATOM     56  C   UNL A   1      43.948  23.626  30.582  1.00  0.00     0.029 A 
ATOM     57  C   UNL A   1      44.975  24.281  29.899  1.00  0.00     0.049 A 
ATOM     58  H   UNL A   1      45.731  23.563  28.063  1.00  0.00     0.167 HD
ATOM     59  C   UNL A   1      46.400  26.232  29.338  1.00  0.00     0.074 A 
ATOM     60  C   UNL A   1      46.573  26.112  27.895  1.00  0.00     0.031 C 
ATOM     61  C   UNL A   1      45.803  25.418  30.259  1.00  0.00     0.034 A 
BRANCH  48  62
ATOM     62  C   UNL A   1      43.715  23.081  25.823  1.00  0.00     0.023 A 
ATOM     63  C   UNL A   1      43.598  21.688  25.620  1.00  0.00     0.031 A 
ATOM     64  C   UNL A   1      44.618  23.747  24.965  1.00  0.00     0.131 A 
ATOM     65  C   UNL A   1      44.403  21.017  24.684  1.00  0.00     0.055 A 
ATOM     66  C   UNL A   1      45.359  23.085  23.979  1.00  0.00     0.041 A 
ATOM     67  F   UNL A   1      44.907  25.047  25.095  1.00  0.00    -0.206 F 
ATOM     68  C   UNL A   1      45.279  21.708  23.853  1.00  0.00     0.022 A 
BRANCH  65  69
ATOM     69  S   UNL A   1      44.438  19.203  24.717  1.00  0.00     0.124 S 
ATOM     70  O   UNL A   1      45.404  18.945  25.779  1.00  0.00    -0.237 OA
ATOM     71  O   UNL A   1      43.047  18.881  25.016  1.00  0.00    -0.237 OA
ATOM     72  O   UNL A   1      44.885  18.849  23.371  1.00  0.00    -0.744 OA
ENDBRANCH  65  69
ENDBRANCH  48  62
BRANCH  49  73
ATOM     73  C   UNL A   1      46.658  30.665  27.656  1.00  0.00     0.023 A 
ATOM     74  C   UNL A   1      45.976  31.667  26.946  1.00  0.00     0.031 A 
ATOM     75  C   UNL A   1      48.031  30.885  27.917  1.00  0.00     0.131 A 
ATOM     76  C   UNL A   1      46.667  32.821  26.514  1.00  0.00     0.055 A 
ATOM     77  C   UNL A   1      48.714  32.017  27.471  1.00  0.00     0.041 A 
ATOM     78  F   UNL A   1      48.736  30.035  28.684  1.00  0.00    -0.206 F 
ATOM     79  C   UNL A   1      48.030  32.995  26.769  1.00  0.00     0.022 A 
BRANCH  76  80
ATOM     80  S   UNL A   1      45.760  34.168  25.697  1.00  0.00     0.124 S 
ATOM     81  O   UNL A   1      46.817  34.865  24.975  1.00  0.00    -0.237 OA
ATOM     82  O   UNL A   1      44.789  33.441  24.886  1.00  0.00    -0.237 OA
ATOM     83  O   UNL A   1      45.182  34.917  26.815  1.00  0.00    -0.744 OA
ENDBRANCH  76  80
ENDBRANCH  49  73
BRANCH  61  84
ATOM     84  C   UNL A   1      45.762  25.865  31.705  1.00  0.00     0.023 A 
ATOM     85  C   UNL A   1      44.624  26.403  32.345  1.00  0.00     0.031 A 
ATOM     86  C   UNL A   1      46.899  25.619  32.497  1.00  0.00     0.131 A 
ATOM     87  C   UNL A   1      44.657  26.688  33.723  1.00  0.00     0.055 A 
ATOM     88  C   UNL A   1      46.922  25.884  33.866  1.00  0.00     0.041 A 
ATOM     89  F   UNL A   1      48.002  25.078  31.955  1.00  0.00    -0.206 F 
ATOM     90  C   UNL A   1      45.802  26.427  34.485  1.00  0.00     0.022 A 
BRANCH  87  91
ATOM     91  S   UNL A   1      43.208  27.416  34.551  1.00  0.00     0.124 S 
ATOM     92  O   UNL A   1      43.736  27.871  35.831  1.00  0.00    -0.237 OA
ATOM     93  O   UNL A   1      42.804  28.464  33.616  1.00  0.00    -0.237 OA
ATOM     94  O   UNL A   1      42.271  26.294  34.644  1.00  0.00    -0.744 OA
ENDBRANCH  87  91
ENDBRANCH  61  84
ENDBRANCH  35  36
ENDBRANCH  27  30
ENDBRANCH  25  26
ENDBRANCH  24  25
ENDBRANCH   1  24
TORSDOF 17
ENDMDL
MODEL 3
REMARK VINA RESULT:     -11.7      1.244      2.090
REMARK SMILES CN(C(=O)N1Cc2nc[nH]c2C[C@@H]1C(=O)NCCCCNC(=O)c1ccc(-c2c3nc(c(-c4cc(S(=O)(=O)[O-])ccc4F)c4ccc([nH]4)c(-c4cc(S(=O)(=O)[O-])ccc4F)c4nc(c(-c5cc(S(=O)(=O)[O-])ccc5F)c5ccc2[nH]5)C=C4)C=C3)cc1)C1CC1
REMARK SMILES IDX 18 1 17 2 16 3 14 4 15 5 13 7 5 8 6 9 7 10 12 11 8 12 11 13
REMARK SMILES IDX 9 14 10 15 3 17 4 18 2 19 1 20 87 21 88 22 89 23 19 24 20 25
REMARK SMILES IDX 21 26 22 27 23 29 24 30 25 31 86 32 26 33 85 34 27 35 28 36
REMARK SMILES IDX 29 37 79 38 30 39 84 40 78 41 80 42 31 43 83 44 77 45 76 46
REMARK SMILES IDX 32 48 64 49 44 50 63 51 45 52 48 53 62 54 81 55 46 56 47 57
REMARK SMILES IDX 61 59 82 60 49 61 33 62 34 63 42 64 35 65 41 66 43 67 40 68
REMARK SMILES IDX 36 69 37 70 38 71 39 72 65 73 66 74 74 75 67 76 73 77 75 78
REMARK SMILES IDX 72 79 68 80 69 81 70 82 71 83 50 84 51 85 59 86 52 87 58 88
REMARK SMILES IDX 60 89 57 90 53 91 54 92 55 93 56 94
REMARK H PARENT 16 6 10 16 21 28 80 47 48 58
REMARK Flexibility Score: inf
ROOT
ATOM      1  C   UNL A   1      32.031  28.348  26.302  1.00  0.00     0.023 C 
ENDROOT
BRANCH   1   2
ATOM      2  C   UNL A   1      32.380  26.862  26.106  1.00  0.00     0.116 C 
BRANCH   2   3
ATOM      3  N   UNL A   1      33.641  26.688  25.423  1.00  0.00    -0.354 N 
ATOM      4  C   UNL A   1      33.761  25.861  24.313  1.00  0.00     0.243 C 
ATOM      5  O   UNL A   1      33.182  26.032  23.266  1.00  0.00    -0.273 OA
ATOM      6  H   UNL A   1      34.436  27.167  25.753  1.00  0.00     0.163 HD
BRANCH   4   7
ATOM      7  C   UNL A   1      34.431  24.532  24.691  1.00  0.00     0.182 C 
ATOM      8  N   UNL A   1      33.893  23.234  24.195  1.00  0.00    -0.306 N 
ATOM      9  C   UNL A   1      34.977  22.323  23.733  1.00  0.00     0.180 C 
ATOM     10  C   UNL A   1      36.114  22.392  24.723  1.00  0.00     0.081 A 
ATOM     11  C   UNL A   1      35.123  24.328  26.064  1.00  0.00     0.091 C 
ATOM     12  N   UNL A   1      37.320  21.761  24.573  1.00  0.00    -0.240 NA
ATOM     13  C   UNL A   1      36.167  23.281  25.786  1.00  0.00     0.042 A 
ATOM     14  C   UNL A   1      38.076  22.235  25.542  1.00  0.00     0.197 A 
ATOM     15  N   UNL A   1      37.401  23.126  26.339  1.00  0.00    -0.348 N 
ATOM     16  H   UNL A   1      37.742  23.565  27.152  1.00  0.00     0.167 HD
BRANCH   8  17
ATOM     17  C   UNL A   1      32.614  22.723  24.209  1.00  0.00     0.321 C 
ATOM     18  O   UNL A   1      31.756  23.288  24.900  1.00  0.00    -0.248 OA
BRANCH  17  19
ATOM     19  N   UNL A   1      32.316  21.495  23.631  1.00  0.00    -0.325 N 
ATOM     20  C   UNL A   1      32.024  21.189  22.231  1.00  0.00     0.149 C 
BRANCH  19  21
ATOM     21  C   UNL A   1      32.215  20.360  24.545  1.00  0.00     0.086 C 
ATOM     22  C   UNL A   1      33.195  19.220  24.481  1.00  0.00     0.027 C 
ATOM     23  C   UNL A   1      33.127  20.077  25.708  1.00  0.00     0.027 C 
ENDBRANCH  19  21
ENDBRANCH  17  19
ENDBRANCH   8  17
ENDBRANCH   4   7
ENDBRANCH   2   3
ENDBRANCH   1   2
BRANCH   1  24
ATOM     24  C   UNL A   1      33.117  29.406  26.031  1.00  0.00     0.023 C 
BRANCH  24  25
ATOM     25  C   UNL A   1      34.116  29.700  27.144  1.00  0.00     0.116 C 
BRANCH  25  26
ATOM     26  N   UNL A   1      34.459  31.107  27.239  1.00  0.00    -0.352 N 
ATOM     27  C   UNL A   1      35.482  31.717  27.932  1.00  0.00     0.251 C 
ATOM     28  H   UNL A   1      33.873  31.716  26.733  1.00  0.00     0.163 HD
ATOM     29  O   UNL A   1      35.321  32.882  28.294  1.00  0.00    -0.269 OA
BRANCH  27  30
ATOM     30  C   UNL A   1      36.747  31.009  28.251  1.00  0.00     0.039 A 
ATOM     31  C   UNL A   1      36.894  29.659  27.911  1.00  0.00     0.014 A 
ATOM     32  C   UNL A   1      37.764  31.636  28.965  1.00  0.00     0.014 A 
ATOM     33  C   UNL A   1      38.052  28.965  28.281  1.00  0.00     0.010 A 
ATOM     34  C   UNL A   1      38.959  30.990  29.220  1.00  0.00     0.010 A 
ATOM     35  C   UNL A   1      39.087  29.630  28.951  1.00  0.00    -0.014 A 
BRANCH  35  36
ATOM     36  C   UNL A   1      40.292  28.909  29.381  1.00  0.00     0.031 A 
ATOM     37  C   UNL A   1      40.545  28.796  30.843  1.00  0.00     0.074 A 
ATOM     38  C   UNL A   1      41.069  28.183  28.544  1.00  0.00     0.049 A 
ATOM     39  N   UNL A   1      41.585  29.190  31.502  1.00  0.00    -0.248 NA
ATOM     40  C   UNL A   1      39.503  28.195  31.685  1.00  0.00     0.031 C 
ATOM     41  C   UNL A   1      40.840  27.902  27.123  1.00  0.00     0.029 A 
ATOM     42  N   UNL A   1      42.170  27.426  28.831  1.00  0.00    -0.354 N 
ATOM     43  C   UNL A   1      41.432  28.723  32.805  1.00  0.00     0.074 A 
ATOM     44  C   UNL A   1      40.080  28.230  32.888  1.00  0.00     0.031 C 
ATOM     45  C   UNL A   1      41.597  26.852  26.746  1.00  0.00     0.029 A 
ATOM     46  C   UNL A   1      42.492  26.513  27.836  1.00  0.00     0.049 A 
ATOM     47  H   UNL A   1      42.685  27.518  29.664  1.00  0.00     0.167 HD
ATOM     48  C   UNL A   1      42.488  28.624  33.661  1.00  0.00     0.034 A 
ATOM     49  C   UNL A   1      43.413  25.521  27.877  1.00  0.00     0.034 A 
ATOM     50  C   UNL A   1      43.617  29.397  33.196  1.00  0.00     0.049 A 
ATOM     51  C   UNL A   1      44.418  25.881  28.898  1.00  0.00     0.074 A 
ATOM     52  C   UNL A   1      43.824  30.728  32.884  1.00  0.00     0.029 A 
ATOM     53  N   UNL A   1      44.701  28.728  32.679  1.00  0.00    -0.354 N 
ATOM     54  N   UNL A   1      45.215  26.908  28.795  1.00  0.00    -0.248 NA
ATOM     55  C   UNL A   1      44.300  25.327  30.237  1.00  0.00     0.031 C 
ATOM     56  C   UNL A   1      44.739  30.716  31.792  1.00  0.00     0.029 A 
ATOM     57  C   UNL A   1      45.070  29.384  31.531  1.00  0.00     0.049 A 
ATOM     58  H   UNL A   1      45.132  27.929  33.060  1.00  0.00     0.167 HD
ATOM     59  C   UNL A   1      45.347  27.389  30.084  1.00  0.00     0.074 A 
ATOM     60  C   UNL A   1      44.895  26.296  30.937  1.00  0.00     0.031 C 
ATOM     61  C   UNL A   1      45.532  28.721  30.326  1.00  0.00     0.034 A 
BRANCH  48  62
ATOM     62  C   UNL A   1      42.632  27.614  34.782  1.00  0.00     0.023 A 
ATOM     63  C   UNL A   1      43.362  26.435  34.515  1.00  0.00     0.031 A 
ATOM     64  C   UNL A   1      41.884  27.609  35.979  1.00  0.00     0.131 A 
ATOM     65  C   UNL A   1      43.261  25.310  35.352  1.00  0.00     0.055 A 
ATOM     66  C   UNL A   1      41.851  26.514  36.851  1.00  0.00     0.041 A 
ATOM     67  F   UNL A   1      41.070  28.615  36.323  1.00  0.00    -0.206 F 
ATOM     68  C   UNL A   1      42.517  25.343  36.527  1.00  0.00     0.022 A 
BRANCH  65  69
ATOM     69  S   UNL A   1      43.952  23.735  34.771  1.00  0.00     0.124 S 
ATOM     70  O   UNL A   1      44.927  24.186  33.784  1.00  0.00    -0.237 OA
ATOM     71  O   UNL A   1      44.493  23.172  36.003  1.00  0.00    -0.237 OA
ATOM     72  O   UNL A   1      42.790  23.038  34.223  1.00  0.00    -0.744 OA
ENDBRANCH  65  69
ENDBRANCH  48  62
BRANCH  49  73
ATOM     73  C   UNL A   1      43.320  24.206  27.203  1.00  0.00     0.023 A 
ATOM     74  C   UNL A   1      44.173  23.826  26.154  1.00  0.00     0.031 A 
ATOM     75  C   UNL A   1      42.480  23.204  27.742  1.00  0.00     0.131 A 
ATOM     76  C   UNL A   1      44.154  22.497  25.675  1.00  0.00     0.055 A 
ATOM     77  C   UNL A   1      42.450  21.897  27.253  1.00  0.00     0.041 A 
ATOM     78  F   UNL A   1      41.713  23.446  28.819  1.00  0.00    -0.206 F 
ATOM     79  C   UNL A   1      43.295  21.536  26.216  1.00  0.00     0.022 A 
BRANCH  76  80
ATOM     80  S   UNL A   1      45.339  21.977  24.397  1.00  0.00     0.124 S 
ATOM     81  O   UNL A   1      44.495  21.225  23.475  1.00  0.00    -0.237 OA
ATOM     82  O   UNL A   1      45.853  23.253  23.913  1.00  0.00    -0.237 OA
ATOM     83  O   UNL A   1      46.309  21.170  25.140  1.00  0.00    -0.744 OA
ENDBRANCH  76  80
ENDBRANCH  49  73
BRANCH  61  84
ATOM     84  C   UNL A   1      45.984  29.610  29.185  1.00  0.00     0.023 A 
ATOM     85  C   UNL A   1      45.147  30.513  28.494  1.00  0.00     0.031 A 
ATOM     86  C   UNL A   1      47.355  29.624  28.873  1.00  0.00     0.131 A 
ATOM     87  C   UNL A   1      45.688  31.374  27.520  1.00  0.00     0.055 A 
ATOM     88  C   UNL A   1      47.892  30.491  27.921  1.00  0.00     0.041 A 
ATOM     89  F   UNL A   1      48.210  28.812  29.518  1.00  0.00    -0.206 F 
ATOM     90  C   UNL A   1      47.058  31.367  27.235  1.00  0.00     0.022 A 
BRANCH  87  91
ATOM     91  S   UNL A   1      44.612  32.515  26.595  1.00  0.00     0.124 S 
ATOM     92  O   UNL A   1      43.936  33.273  27.641  1.00  0.00    -0.237 OA
ATOM     93  O   UNL A   1      45.569  33.260  25.780  1.00  0.00    -0.237 OA
ATOM     94  O   UNL A   1      43.739  31.617  25.835  1.00  0.00    -0.744 OA
ENDBRANCH  87  91
ENDBRANCH  61  84
ENDBRANCH  35  36
ENDBRANCH  27  30
ENDBRANCH  25  26
ENDBRANCH  24  25
ENDBRANCH   1  24
TORSDOF 17
ENDMDL
