MODEL 1
REMARK VINA RESULT:     -11.1      0.000      0.000
REMARK SMILES CCCOc1ccc(N[C@H](C)[C@H](C)C(=O)NCCCCNC(=O)c2ccc(-c3c4nc(c(-c5cc(S(=O)(=O)[O-])ccc5F)c5ccc([nH]5)c(-c5cc(S(=O)(=O)[O-])ccc5F)c5nc(c(-c6cc(S(=O)(=O)[O-])ccc6F)c6ccc3[nH]6)C=C5)C=C4)cc2)cc1
REMARK SMILES IDX 17 1 16 2 14 3 15 4 12 6 13 7 10 8 11 9 9 10 8 12 5 13 6 14
REMARK SMILES IDX 88 15 7 16 87 17 4 18 3 19 2 20 1 21 18 22 19 23 20 24 21 25
REMARK SMILES IDX 22 26 23 28 24 29 25 30 86 31 26 32 85 33 27 34 28 35 29 36
REMARK SMILES IDX 79 37 30 38 84 39 78 40 80 41 31 42 83 43 77 44 76 45 32 47
REMARK SMILES IDX 64 48 44 49 63 50 45 51 48 52 62 53 81 54 46 55 47 56 61 58
REMARK SMILES IDX 82 59 49 60 33 61 34 62 42 63 35 64 41 65 43 66 40 67 36 68
REMARK SMILES IDX 37 69 38 70 39 71 65 72 66 73 74 74 67 75 73 76 75 77 72 78
REMARK SMILES IDX 68 79 69 80 70 81 71 82 50 83 51 84 59 85 52 86 58 87 60 88
REMARK SMILES IDX 57 89 53 90 54 91 55 92 56 93
REMARK H PARENT 16 5 9 11 21 27 80 46 48 57
REMARK Flexibility Score: inf
ROOT
ATOM      1  C   UNL A   1      34.120  20.804  25.536  1.00  0.00     0.116 C 
ENDROOT
BRANCH   1   2
ATOM      2  N   UNL A   1      33.858  21.257  26.881  1.00  0.00    -0.356 N 
ATOM      3  C   UNL A   1      33.011  22.227  27.311  1.00  0.00     0.224 C 
ATOM      4  O   UNL A   1      32.853  22.342  28.531  1.00  0.00    -0.275 OA
ATOM      5  H   UNL A   1      34.367  20.797  27.588  1.00  0.00     0.163 HD
BRANCH   3   6
ATOM      6  C   UNL A   1      32.258  23.156  26.355  1.00  0.00     0.097 C 
ATOM      7  C   UNL A   1      30.771  22.802  26.338  1.00  0.00     0.020 C 
BRANCH   6   8
ATOM      8  C   UNL A   1      32.644  24.673  26.405  1.00  0.00     0.088 C 
ATOM      9  C   UNL A   1      33.692  25.134  25.381  1.00  0.00     0.031 C 
BRANCH   8  10
ATOM     10  N   UNL A   1      31.427  25.487  26.377  1.00  0.00    -0.382 N 
ATOM     11  H   UNL A   1      30.773  25.281  27.083  1.00  0.00     0.160 HD
BRANCH  10  12
ATOM     12  C   UNL A   1      31.054  26.494  25.518  1.00  0.00     0.034 A 
ATOM     13  C   UNL A   1      30.209  28.409  23.643  1.00  0.00     0.119 A 
ATOM     14  C   UNL A   1      31.095  28.771  24.654  1.00  0.00     0.048 A 
ATOM     15  C   UNL A   1      29.807  27.091  23.510  1.00  0.00     0.048 A 
ATOM     16  C   UNL A   1      31.520  27.809  25.582  1.00  0.00     0.029 A 
ATOM     17  C   UNL A   1      30.198  26.152  24.461  1.00  0.00     0.029 A 
BRANCH  13  18
ATOM     18  O   UNL A   1      29.791  29.328  22.726  1.00  0.00    -0.494 OA
BRANCH  18  19
ATOM     19  C   UNL A   1      28.372  29.263  22.513  1.00  0.00     0.229 C 
BRANCH  19  20
ATOM     20  C   UNL A   1      27.727  30.645  22.349  1.00  0.00     0.038 C 
ATOM     21  C   UNL A   1      27.608  31.427  23.654  1.00  0.00     0.007 C 
ENDBRANCH  19  20
ENDBRANCH  18  19
ENDBRANCH  13  18
ENDBRANCH  10  12
ENDBRANCH   8  10
ENDBRANCH   6   8
ENDBRANCH   3   6
ENDBRANCH   1   2
BRANCH   1  22
ATOM     22  C   UNL A   1      35.067  21.725  24.781  1.00  0.00     0.023 C 
BRANCH  22  23
ATOM     23  C   UNL A   1      36.469  21.165  24.567  1.00  0.00     0.023 C 
BRANCH  23  24
ATOM     24  C   UNL A   1      37.549  21.764  25.460  1.00  0.00     0.116 C 
BRANCH  24  25
ATOM     25  N   UNL A   1      38.546  20.791  25.878  1.00  0.00    -0.352 N 
ATOM     26  C   UNL A   1      39.776  21.001  26.456  1.00  0.00     0.251 C 
ATOM     27  H   UNL A   1      38.306  19.848  25.725  1.00  0.00     0.163 HD
ATOM     28  O   UNL A   1      40.553  20.064  26.591  1.00  0.00    -0.269 OA
BRANCH  26  29
ATOM     29  C   UNL A   1      40.162  22.366  26.877  1.00  0.00     0.039 A 
ATOM     30  C   UNL A   1      41.099  22.517  27.901  1.00  0.00     0.014 A 
ATOM     31  C   UNL A   1      39.619  23.490  26.250  1.00  0.00     0.014 A 
ATOM     32  C   UNL A   1      41.540  23.797  28.248  1.00  0.00     0.010 A 
ATOM     33  C   UNL A   1      40.127  24.753  26.532  1.00  0.00     0.010 A 
ATOM     34  C   UNL A   1      41.086  24.923  27.541  1.00  0.00    -0.014 A 
BRANCH  34  35
ATOM     35  C   UNL A   1      41.591  26.286  27.861  1.00  0.00     0.031 A 
ATOM     36  C   UNL A   1      42.969  26.701  27.419  1.00  0.00     0.074 A 
ATOM     37  C   UNL A   1      40.828  27.129  28.584  1.00  0.00     0.049 A 
ATOM     38  N   UNL A   1      43.605  27.824  27.634  1.00  0.00    -0.248 NA
ATOM     39  C   UNL A   1      43.748  25.708  26.662  1.00  0.00     0.031 C 
ATOM     40  C   UNL A   1      39.494  26.824  29.108  1.00  0.00     0.029 A 
ATOM     41  N   UNL A   1      41.061  28.415  29.004  1.00  0.00    -0.354 N 
ATOM     42  C   UNL A   1      44.858  27.669  27.050  1.00  0.00     0.074 A 
ATOM     43  C   UNL A   1      44.917  26.317  26.539  1.00  0.00     0.031 C 
ATOM     44  C   UNL A   1      39.014  27.904  29.746  1.00  0.00     0.029 A 
ATOM     45  C   UNL A   1      40.020  28.961  29.721  1.00  0.00     0.049 A 
ATOM     46  H   UNL A   1      41.895  28.902  28.812  1.00  0.00     0.167 HD
ATOM     47  C   UNL A   1      45.855  28.580  26.926  1.00  0.00     0.034 A 
ATOM     48  C   UNL A   1      39.893  30.174  30.299  1.00  0.00     0.034 A 
ATOM     49  C   UNL A   1      45.775  29.928  27.432  1.00  0.00     0.049 A 
ATOM     50  C   UNL A   1      41.024  31.163  30.165  1.00  0.00     0.074 A 
ATOM     51  C   UNL A   1      46.704  30.947  27.323  1.00  0.00     0.029 A 
ATOM     52  N   UNL A   1      44.705  30.445  28.152  1.00  0.00    -0.354 N 
ATOM     53  N   UNL A   1      42.183  31.017  29.564  1.00  0.00    -0.248 NA
ATOM     54  C   UNL A   1      40.822  32.484  30.771  1.00  0.00     0.031 C 
ATOM     55  C   UNL A   1      46.231  32.052  28.037  1.00  0.00     0.029 A 
ATOM     56  C   UNL A   1      44.965  31.758  28.516  1.00  0.00     0.049 A 
ATOM     57  H   UNL A   1      43.881  29.952  28.371  1.00  0.00     0.167 HD
ATOM     58  C   UNL A   1      42.830  32.245  29.688  1.00  0.00     0.074 A 
ATOM     59  C   UNL A   1      41.927  33.119  30.407  1.00  0.00     0.031 C 
ATOM     60  C   UNL A   1      44.056  32.619  29.239  1.00  0.00     0.034 A 
BRANCH  47  61
ATOM     61  C   UNL A   1      47.124  28.132  26.235  1.00  0.00     0.023 A 
ATOM     62  C   UNL A   1      47.280  28.224  24.839  1.00  0.00     0.031 A 
ATOM     63  C   UNL A   1      48.184  27.580  26.977  1.00  0.00     0.131 A 
ATOM     64  C   UNL A   1      48.426  27.700  24.224  1.00  0.00     0.055 A 
ATOM     65  C   UNL A   1      49.362  27.143  26.366  1.00  0.00     0.041 A 
ATOM     66  F   UNL A   1      48.088  27.444  28.308  1.00  0.00    -0.206 F 
ATOM     67  C   UNL A   1      49.481  27.186  24.980  1.00  0.00     0.022 A 
BRANCH  64  68
ATOM     68  S   UNL A   1      48.450  27.559  22.416  1.00  0.00     0.124 S 
ATOM     69  O   UNL A   1      47.172  28.168  22.057  1.00  0.00    -0.237 OA
ATOM     70  O   UNL A   1      49.643  28.314  22.056  1.00  0.00    -0.237 OA
ATOM     71  O   UNL A   1      48.531  26.117  22.187  1.00  0.00    -0.744 OA
ENDBRANCH  64  68
ENDBRANCH  47  61
BRANCH  48  72
ATOM     72  C   UNL A   1      38.655  30.527  31.054  1.00  0.00     0.023 A 
ATOM     73  C   UNL A   1      37.584  31.183  30.425  1.00  0.00     0.031 A 
ATOM     74  C   UNL A   1      38.542  30.256  32.429  1.00  0.00     0.131 A 
ATOM     75  C   UNL A   1      36.473  31.593  31.179  1.00  0.00     0.055 A 
ATOM     76  C   UNL A   1      37.409  30.611  33.162  1.00  0.00     0.041 A 
ATOM     77  F   UNL A   1      39.534  29.626  33.080  1.00  0.00    -0.206 F 
ATOM     78  C   UNL A   1      36.372  31.298  32.540  1.00  0.00     0.022 A 
BRANCH  75  79
ATOM     79  S   UNL A   1      35.202  32.607  30.373  1.00  0.00     0.124 S 
ATOM     80  O   UNL A   1      35.945  33.823  30.065  1.00  0.00    -0.237 OA
ATOM     81  O   UNL A   1      34.831  31.775  29.233  1.00  0.00    -0.237 OA
ATOM     82  O   UNL A   1      34.175  32.744  31.402  1.00  0.00    -0.744 OA
ENDBRANCH  75  79
ENDBRANCH  48  72
BRANCH  60  83
ATOM     83  C   UNL A   1      44.463  34.057  29.461  1.00  0.00     0.023 A 
ATOM     84  C   UNL A   1      44.160  35.070  28.535  1.00  0.00     0.031 A 
ATOM     85  C   UNL A   1      45.182  34.412  30.617  1.00  0.00     0.131 A 
ATOM     86  C   UNL A   1      44.628  36.375  28.749  1.00  0.00     0.055 A 
ATOM     87  C   UNL A   1      45.584  35.726  30.858  1.00  0.00     0.041 A 
ATOM     88  F   UNL A   1      45.502  33.486  31.534  1.00  0.00    -0.206 F 
ATOM     89  C   UNL A   1      45.323  36.713  29.914  1.00  0.00     0.022 A 
BRANCH  86  90
ATOM     90  S   UNL A   1      44.417  37.605  27.432  1.00  0.00     0.124 S 
ATOM     91  O   UNL A   1      45.671  37.478  26.695  1.00  0.00    -0.237 OA
ATOM     92  O   UNL A   1      43.223  37.123  26.745  1.00  0.00    -0.237 OA
ATOM     93  O   UNL A   1      44.249  38.862  28.159  1.00  0.00    -0.744 OA
ENDBRANCH  86  90
ENDBRANCH  60  83
ENDBRANCH  34  35
ENDBRANCH  26  29
ENDBRANCH  24  25
ENDBRANCH  23  24
ENDBRANCH  22  23
ENDBRANCH   1  22
TORSDOF 20
ENDMDL
MODEL 2
REMARK VINA RESULT:     -10.9      5.266      8.495
REMARK SMILES CCCOc1ccc(N[C@H](C)[C@H](C)C(=O)NCCCCNC(=O)c2ccc(-c3c4nc(c(-c5cc(S(=O)(=O)[O-])ccc5F)c5ccc([nH]5)c(-c5cc(S(=O)(=O)[O-])ccc5F)c5nc(c(-c6cc(S(=O)(=O)[O-])ccc6F)c6ccc3[nH]6)C=C5)C=C4)cc2)cc1
REMARK SMILES IDX 17 1 16 2 14 3 15 4 12 6 13 7 10 8 11 9 9 10 8 12 5 13 6 14
REMARK SMILES IDX 88 15 7 16 87 17 4 18 3 19 2 20 1 21 18 22 19 23 20 24 21 25
REMARK SMILES IDX 22 26 23 28 24 29 25 30 86 31 26 32 85 33 27 34 28 35 29 36
REMARK SMILES IDX 79 37 30 38 84 39 78 40 80 41 31 42 83 43 77 44 76 45 32 47
REMARK SMILES IDX 64 48 44 49 63 50 45 51 48 52 62 53 81 54 46 55 47 56 61 58
REMARK SMILES IDX 82 59 49 60 33 61 34 62 42 63 35 64 41 65 43 66 40 67 36 68
REMARK SMILES IDX 37 69 38 70 39 71 65 72 66 73 74 74 67 75 73 76 75 77 72 78
REMARK SMILES IDX 68 79 69 80 70 81 71 82 50 83 51 84 59 85 52 86 58 87 60 88
REMARK SMILES IDX 57 89 53 90 54 91 55 92 56 93
REMARK H PARENT 16 5 9 11 21 27 80 46 48 57
REMARK Flexibility Score: inf
ROOT
ATOM      1  C   UNL A   1      31.189  27.559  23.435  1.00  0.00     0.116 C 
ENDROOT
BRANCH   1   2
ATOM      2  N   UNL A   1      30.921  26.762  24.608  1.00  0.00    -0.356 N 
ATOM      3  C   UNL A   1      31.792  26.132  25.437  1.00  0.00     0.224 C 
ATOM      4  O   UNL A   1      31.331  25.622  26.463  1.00  0.00    -0.275 OA
ATOM      5  H   UNL A   1      29.969  26.660  24.840  1.00  0.00     0.163 HD
BRANCH   3   6
ATOM      6  C   UNL A   1      33.293  26.041  25.150  1.00  0.00     0.097 C 
ATOM      7  C   UNL A   1      34.070  26.924  26.128  1.00  0.00     0.020 C 
BRANCH   6   8
ATOM      8  C   UNL A   1      33.863  24.615  24.848  1.00  0.00     0.088 C 
ATOM      9  C   UNL A   1      35.347  24.400  25.182  1.00  0.00     0.031 C 
BRANCH   8  10
ATOM     10  N   UNL A   1      32.993  23.604  25.451  1.00  0.00    -0.382 N 
ATOM     11  H   UNL A   1      32.461  23.917  26.217  1.00  0.00     0.160 HD
BRANCH  10  12
ATOM     12  C   UNL A   1      32.803  22.284  25.115  1.00  0.00     0.034 A 
ATOM     13  C   UNL A   1      32.497  19.536  24.609  1.00  0.00     0.119 A 
ATOM     14  C   UNL A   1      32.315  20.456  23.580  1.00  0.00     0.048 A 
ATOM     15  C   UNL A   1      32.909  19.964  25.859  1.00  0.00     0.048 A 
ATOM     16  C   UNL A   1      32.478  21.826  23.837  1.00  0.00     0.029 A 
ATOM     17  C   UNL A   1      33.024  21.327  26.117  1.00  0.00     0.029 A 
BRANCH  13  18
ATOM     18  O   UNL A   1      32.353  18.200  24.377  1.00  0.00    -0.494 OA
BRANCH  18  19
ATOM     19  C   UNL A   1      32.831  17.828  23.075  1.00  0.00     0.229 C 
BRANCH  19  20
ATOM     20  C   UNL A   1      34.091  16.954  23.127  1.00  0.00     0.038 C 
ATOM     21  C   UNL A   1      34.326  16.293  24.482  1.00  0.00     0.007 C 
ENDBRANCH  19  20
ENDBRANCH  18  19
ENDBRANCH  13  18
ENDBRANCH  10  12
ENDBRANCH   8  10
ENDBRANCH   6   8
ENDBRANCH   3   6
ENDBRANCH   1   2
BRANCH   1  22
ATOM     22  C   UNL A   1      31.835  28.895  23.769  1.00  0.00     0.023 C 
BRANCH  22  23
ATOM     23  C   UNL A   1      31.288  29.575  25.020  1.00  0.00     0.023 C 
BRANCH  23  24
ATOM     24  C   UNL A   1      32.343  30.150  25.958  1.00  0.00     0.116 C 
BRANCH  24  25
ATOM     25  N   UNL A   1      32.101  31.543  26.299  1.00  0.00    -0.352 N 
ATOM     26  C   UNL A   1      32.776  32.351  27.185  1.00  0.00     0.251 C 
ATOM     27  H   UNL A   1      31.346  31.968  25.830  1.00  0.00     0.163 HD
ATOM     28  O   UNL A   1      32.327  33.456  27.465  1.00  0.00    -0.269 OA
BRANCH  26  29
ATOM     29  C   UNL A   1      34.022  31.861  27.816  1.00  0.00     0.039 A 
ATOM     30  C   UNL A   1      35.034  32.776  28.111  1.00  0.00     0.014 A 
ATOM     31  C   UNL A   1      34.179  30.511  28.136  1.00  0.00     0.014 A 
ATOM     32  C   UNL A   1      36.177  32.344  28.788  1.00  0.00     0.010 A 
ATOM     33  C   UNL A   1      35.274  30.102  28.891  1.00  0.00     0.010 A 
ATOM     34  C   UNL A   1      36.290  31.012  29.218  1.00  0.00    -0.014 A 
BRANCH  34  35
ATOM     35  C   UNL A   1      37.475  30.551  29.990  1.00  0.00     0.031 A 
ATOM     36  C   UNL A   1      38.464  29.605  29.360  1.00  0.00     0.074 A 
ATOM     37  C   UNL A   1      37.636  30.947  31.268  1.00  0.00     0.049 A 
ATOM     38  N   UNL A   1      39.532  29.057  29.879  1.00  0.00    -0.248 NA
ATOM     39  C   UNL A   1      38.195  29.196  27.972  1.00  0.00     0.031 C 
ATOM     40  C   UNL A   1      36.722  31.825  32.003  1.00  0.00     0.029 A 
ATOM     41  N   UNL A   1      38.626  30.666  32.178  1.00  0.00    -0.354 N 
ATOM     42  C   UNL A   1      40.056  28.234  28.887  1.00  0.00     0.074 A 
ATOM     43  C   UNL A   1      39.145  28.298  27.766  1.00  0.00     0.031 C 
ATOM     44  C   UNL A   1      37.211  32.039  33.235  1.00  0.00     0.029 A 
ATOM     45  C   UNL A   1      38.447  31.279  33.398  1.00  0.00     0.049 A 
ATOM     46  H   UNL A   1      39.391  30.081  31.978  1.00  0.00     0.167 HD
ATOM     47  C   UNL A   1      41.206  27.515  28.900  1.00  0.00     0.034 A 
ATOM     48  C   UNL A   1      39.189  31.228  34.523  1.00  0.00     0.034 A 
ATOM     49  C   UNL A   1      42.109  27.471  30.024  1.00  0.00     0.049 A 
ATOM     50  C   UNL A   1      40.453  30.405  34.521  1.00  0.00     0.074 A 
ATOM     51  C   UNL A   1      43.322  26.814  30.131  1.00  0.00     0.029 A 
ATOM     52  N   UNL A   1      41.895  28.105  31.242  1.00  0.00    -0.354 N 
ATOM     53  N   UNL A   1      40.962  29.672  33.556  1.00  0.00    -0.248 NA
ATOM     54  C   UNL A   1      41.252  30.416  35.752  1.00  0.00     0.031 C 
ATOM     55  C   UNL A   1      43.803  26.988  31.432  1.00  0.00     0.029 A 
ATOM     56  C   UNL A   1      42.939  27.830  32.114  1.00  0.00     0.049 A 
ATOM     57  H   UNL A   1      41.116  28.667  31.456  1.00  0.00     0.167 HD
ATOM     58  C   UNL A   1      42.161  29.169  34.054  1.00  0.00     0.074 A 
ATOM     59  C   UNL A   1      42.303  29.692  35.397  1.00  0.00     0.031 C 
ATOM     60  C   UNL A   1      43.067  28.355  33.453  1.00  0.00     0.034 A 
BRANCH  47  61
ATOM     61  C   UNL A   1      41.532  26.701  27.668  1.00  0.00     0.023 A 
ATOM     62  C   UNL A   1      41.255  25.323  27.596  1.00  0.00     0.031 A 
ATOM     63  C   UNL A   1      42.153  27.302  26.559  1.00  0.00     0.131 A 
ATOM     64  C   UNL A   1      41.669  24.581  26.480  1.00  0.00     0.055 A 
ATOM     65  C   UNL A   1      42.481  26.574  25.413  1.00  0.00     0.041 A 
ATOM     66  F   UNL A   1      42.464  28.608  26.574  1.00  0.00    -0.206 F 
ATOM     67  C   UNL A   1      42.254  25.201  25.376  1.00  0.00     0.022 A 
BRANCH  64  68
ATOM     68  S   UNL A   1      41.573  22.771  26.561  1.00  0.00     0.124 S 
ATOM     69  O   UNL A   1      42.258  22.496  27.822  1.00  0.00    -0.237 OA
ATOM     70  O   UNL A   1      40.135  22.530  26.548  1.00  0.00    -0.237 OA
ATOM     71  O   UNL A   1      42.290  22.337  25.363  1.00  0.00    -0.744 OA
ENDBRANCH  64  68
ENDBRANCH  47  61
BRANCH  48  72
ATOM     72  C   UNL A   1      38.767  31.975  35.744  1.00  0.00     0.023 A 
ATOM     73  C   UNL A   1      38.152  31.316  36.821  1.00  0.00     0.031 A 
ATOM     74  C   UNL A   1      38.930  33.369  35.834  1.00  0.00     0.131 A 
ATOM     75  C   UNL A   1      37.676  32.055  37.915  1.00  0.00     0.055 A 
ATOM     76  C   UNL A   1      38.509  34.092  36.952  1.00  0.00     0.041 A 
ATOM     77  F   UNL A   1      39.517  34.050  34.835  1.00  0.00    -0.206 F 
ATOM     78  C   UNL A   1      37.863  33.436  37.994  1.00  0.00     0.022 A 
BRANCH  75  79
ATOM     79  S   UNL A   1      36.716  31.195  39.193  1.00  0.00     0.124 S 
ATOM     80  O   UNL A   1      36.608  29.854  38.630  1.00  0.00    -0.237 OA
ATOM     81  O   UNL A   1      37.579  31.333  40.362  1.00  0.00    -0.237 OA
ATOM     82  O   UNL A   1      35.469  31.953  39.249  1.00  0.00    -0.744 OA
ENDBRANCH  75  79
ENDBRANCH  48  72
BRANCH  60  83
ATOM     83  C   UNL A   1      44.325  28.034  34.226  1.00  0.00     0.023 A 
ATOM     84  C   UNL A   1      44.421  26.907  35.060  1.00  0.00     0.031 A 
ATOM     85  C   UNL A   1      45.441  28.885  34.134  1.00  0.00     0.131 A 
ATOM     86  C   UNL A   1      45.583  26.696  35.818  1.00  0.00     0.055 A 
ATOM     87  C   UNL A   1      46.621  28.632  34.837  1.00  0.00     0.041 A 
ATOM     88  F   UNL A   1      45.406  29.978  33.356  1.00  0.00    -0.206 F 
ATOM     89  C   UNL A   1      46.690  27.541  35.697  1.00  0.00     0.022 A 
BRANCH  86  90
ATOM     90  S   UNL A   1      45.591  25.365  37.051  1.00  0.00     0.124 S 
ATOM     91  O   UNL A   1      46.610  24.465  36.519  1.00  0.00    -0.237 OA
ATOM     92  O   UNL A   1      45.945  26.076  38.275  1.00  0.00    -0.237 OA
ATOM     93  O   UNL A   1      44.223  24.849  37.008  1.00  0.00    -0.744 OA
ENDBRANCH  86  90
ENDBRANCH  60  83
ENDBRANCH  34  35
ENDBRANCH  26  29
ENDBRANCH  24  25
ENDBRANCH  23  24
ENDBRANCH  22  23
ENDBRANCH   1  22
TORSDOF 20
ENDMDL
MODEL 3
REMARK VINA RESULT:     -10.9      5.066     10.145
REMARK SMILES CCCOc1ccc(N[C@H](C)[C@H](C)C(=O)NCCCCNC(=O)c2ccc(-c3c4nc(c(-c5cc(S(=O)(=O)[O-])ccc5F)c5ccc([nH]5)c(-c5cc(S(=O)(=O)[O-])ccc5F)c5nc(c(-c6cc(S(=O)(=O)[O-])ccc6F)c6ccc3[nH]6)C=C5)C=C4)cc2)cc1
REMARK SMILES IDX 17 1 16 2 14 3 15 4 12 6 13 7 10 8 11 9 9 10 8 12 5 13 6 14
REMARK SMILES IDX 88 15 7 16 87 17 4 18 3 19 2 20 1 21 18 22 19 23 20 24 21 25
REMARK SMILES IDX 22 26 23 28 24 29 25 30 86 31 26 32 85 33 27 34 28 35 29 36
REMARK SMILES IDX 79 37 30 38 84 39 78 40 80 41 31 42 83 43 77 44 76 45 32 47
REMARK SMILES IDX 64 48 44 49 63 50 45 51 48 52 62 53 81 54 46 55 47 56 61 58
REMARK SMILES IDX 82 59 49 60 33 61 34 62 42 63 35 64 41 65 43 66 40 67 36 68
REMARK SMILES IDX 37 69 38 70 39 71 65 72 66 73 74 74 67 75 73 76 75 77 72 78
REMARK SMILES IDX 68 79 69 80 70 81 71 82 50 83 51 84 59 85 52 86 58 87 60 88
REMARK SMILES IDX 57 89 53 90 54 91 55 92 56 93
REMARK H PARENT 16 5 9 11 21 27 80 46 48 57
REMARK Flexibility Score: inf
ROOT
ATOM      1  C   UNL A   1      32.764  27.107  26.074  1.00  0.00     0.116 C 
ENDROOT
BRANCH   1   2
ATOM      2  N   UNL A   1      33.872  26.185  26.000  1.00  0.00    -0.356 N 
ATOM      3  C   UNL A   1      33.866  24.854  25.734  1.00  0.00     0.224 C 
ATOM      4  O   UNL A   1      34.960  24.300  25.587  1.00  0.00    -0.275 OA
ATOM      5  H   UNL A   1      34.760  26.578  26.168  1.00  0.00     0.163 HD
BRANCH   3   6
ATOM      6  C   UNL A   1      32.577  24.038  25.607  1.00  0.00     0.097 C 
ATOM      7  C   UNL A   1      31.641  24.345  26.777  1.00  0.00     0.020 C 
BRANCH   6   8
ATOM      8  C   UNL A   1      31.946  23.945  24.177  1.00  0.00     0.088 C 
ATOM      9  C   UNL A   1      31.961  22.554  23.525  1.00  0.00     0.031 C 
BRANCH   8  10
ATOM     10  N   UNL A   1      30.613  24.551  24.191  1.00  0.00    -0.382 N 
ATOM     11  H   UNL A   1      29.910  23.999  24.603  1.00  0.00     0.160 HD
BRANCH  10  12
ATOM     12  C   UNL A   1      30.189  25.770  23.716  1.00  0.00     0.034 A 
ATOM     13  C   UNL A   1      29.511  28.293  22.681  1.00  0.00     0.119 A 
ATOM     14  C   UNL A   1      28.619  27.622  23.511  1.00  0.00     0.048 A 
ATOM     15  C   UNL A   1      30.763  27.760  22.429  1.00  0.00     0.048 A 
ATOM     16  C   UNL A   1      28.966  26.366  24.032  1.00  0.00     0.029 A 
ATOM     17  C   UNL A   1      31.083  26.494  22.913  1.00  0.00     0.029 A 
BRANCH  13  18
ATOM     18  O   UNL A   1      29.195  29.519  22.172  1.00  0.00    -0.494 OA
BRANCH  18  19
ATOM     19  C   UNL A   1      27.912  29.973  22.628  1.00  0.00     0.229 C 
BRANCH  19  20
ATOM     20  C   UNL A   1      27.995  31.240  23.490  1.00  0.00     0.038 C 
ATOM     21  C   UNL A   1      28.392  32.489  22.709  1.00  0.00     0.007 C 
ENDBRANCH  19  20
ENDBRANCH  18  19
ENDBRANCH  13  18
ENDBRANCH  10  12
ENDBRANCH   8  10
ENDBRANCH   6   8
ENDBRANCH   3   6
ENDBRANCH   1   2
BRANCH   1  22
ATOM     22  C   UNL A   1      32.991  28.364  25.247  1.00  0.00     0.023 C 
BRANCH  22  23
ATOM     23  C   UNL A   1      32.040  29.515  25.558  1.00  0.00     0.023 C 
BRANCH  23  24
ATOM     24  C   UNL A   1      32.191  30.122  26.947  1.00  0.00     0.116 C 
BRANCH  24  25
ATOM     25  N   UNL A   1      32.255  31.575  26.929  1.00  0.00    -0.352 N 
ATOM     26  C   UNL A   1      33.217  32.409  27.449  1.00  0.00     0.251 C 
ATOM     27  H   UNL A   1      31.502  32.026  26.480  1.00  0.00     0.163 HD
ATOM     28  O   UNL A   1      33.023  33.618  27.482  1.00  0.00    -0.269 OA
BRANCH  26  29
ATOM     29  C   UNL A   1      34.466  31.832  27.996  1.00  0.00     0.039 A 
ATOM     30  C   UNL A   1      35.568  32.667  28.189  1.00  0.00     0.014 A 
ATOM     31  C   UNL A   1      34.540  30.480  28.338  1.00  0.00     0.014 A 
ATOM     32  C   UNL A   1      36.723  32.157  28.787  1.00  0.00     0.010 A 
ATOM     33  C   UNL A   1      35.654  29.999  29.018  1.00  0.00     0.010 A 
ATOM     34  C   UNL A   1      36.762  30.829  29.242  1.00  0.00    -0.014 A 
BRANCH  34  35
ATOM     35  C   UNL A   1      37.964  30.289  29.934  1.00  0.00     0.031 A 
ATOM     36  C   UNL A   1      38.272  30.710  31.347  1.00  0.00     0.074 A 
ATOM     37  C   UNL A   1      38.797  29.458  29.277  1.00  0.00     0.049 A 
ATOM     38  N   UNL A   1      39.287  30.386  32.104  1.00  0.00    -0.248 NA
ATOM     39  C   UNL A   1      37.328  31.645  31.979  1.00  0.00     0.031 C 
ATOM     40  C   UNL A   1      38.630  29.015  27.890  1.00  0.00     0.029 A 
ATOM     41  N   UNL A   1      39.951  28.836  29.685  1.00  0.00    -0.354 N 
ATOM     42  C   UNL A   1      39.110  31.084  33.295  1.00  0.00     0.074 A 
ATOM     43  C   UNL A   1      37.931  31.904  33.128  1.00  0.00     0.031 C 
ATOM     44  C   UNL A   1      39.622  28.166  27.577  1.00  0.00     0.029 A 
ATOM     45  C   UNL A   1      40.523  28.040  28.718  1.00  0.00     0.049 A 
ATOM     46  H   UNL A   1      40.336  28.950  30.584  1.00  0.00     0.167 HD
ATOM     47  C   UNL A   1      39.847  31.023  34.433  1.00  0.00     0.034 A 
ATOM     48  C   UNL A   1      41.649  27.297  28.745  1.00  0.00     0.034 A 
ATOM     49  C   UNL A   1      41.014  30.190  34.586  1.00  0.00     0.049 A 
ATOM     50  C   UNL A   1      42.463  27.261  30.015  1.00  0.00     0.074 A 
ATOM     51  C   UNL A   1      41.808  30.015  35.706  1.00  0.00     0.029 A 
ATOM     52  N   UNL A   1      41.563  29.397  33.585  1.00  0.00    -0.354 N 
ATOM     53  N   UNL A   1      42.252  27.888  31.151  1.00  0.00    -0.248 NA
ATOM     54  C   UNL A   1      43.655  26.405  30.012  1.00  0.00     0.031 C 
ATOM     55  C   UNL A   1      42.874  29.178  35.362  1.00  0.00     0.029 A 
ATOM     56  C   UNL A   1      42.699  28.753  34.055  1.00  0.00     0.049 A 
ATOM     57  H   UNL A   1      41.198  29.303  32.676  1.00  0.00     0.167 HD
ATOM     58  C   UNL A   1      43.266  27.467  32.008  1.00  0.00     0.074 A 
ATOM     59  C   UNL A   1      44.076  26.526  31.263  1.00  0.00     0.031 C 
ATOM     60  C   UNL A   1      43.501  27.819  33.299  1.00  0.00     0.034 A 
BRANCH  47  61
ATOM     61  C   UNL A   1      39.418  31.901  35.587  1.00  0.00     0.023 A 
ATOM     62  C   UNL A   1      38.689  31.389  36.676  1.00  0.00     0.031 A 
ATOM     63  C   UNL A   1      39.718  33.275  35.588  1.00  0.00     0.131 A 
ATOM     64  C   UNL A   1      38.217  32.254  37.674  1.00  0.00     0.055 A 
ATOM     65  C   UNL A   1      39.323  34.115  36.631  1.00  0.00     0.041 A 
ATOM     66  F   UNL A   1      40.391  33.829  34.567  1.00  0.00    -0.206 F 
ATOM     67  C   UNL A   1      38.553  33.609  37.674  1.00  0.00     0.022 A 
BRANCH  64  68
ATOM     68  S   UNL A   1      37.029  31.612  38.885  1.00  0.00     0.124 S 
ATOM     69  O   UNL A   1      37.783  31.737  40.131  1.00  0.00    -0.237 OA
ATOM     70  O   UNL A   1      35.897  32.518  38.729  1.00  0.00    -0.237 OA
ATOM     71  O   UNL A   1      36.796  30.239  38.441  1.00  0.00    -0.744 OA
ENDBRANCH  64  68
ENDBRANCH  47  61
BRANCH  48  72
ATOM     72  C   UNL A   1      42.077  26.526  27.542  1.00  0.00     0.023 A 
ATOM     73  C   UNL A   1      41.802  25.154  27.423  1.00  0.00     0.031 A 
ATOM     74  C   UNL A   1      42.811  27.140  26.511  1.00  0.00     0.131 A 
ATOM     75  C   UNL A   1      42.301  24.431  26.328  1.00  0.00     0.055 A 
ATOM     76  C   UNL A   1      43.254  26.429  25.394  1.00  0.00     0.041 A 
ATOM     77  F   UNL A   1      43.099  28.451  26.570  1.00  0.00    -0.206 F 
ATOM     78  C   UNL A   1      43.012  25.062  25.307  1.00  0.00     0.022 A 
BRANCH  75  79
ATOM     79  S   UNL A   1      42.091  22.629  26.309  1.00  0.00     0.124 S 
ATOM     80  O   UNL A   1      40.646  22.497  26.445  1.00  0.00    -0.237 OA
ATOM     81  O   UNL A   1      42.650  22.274  25.008  1.00  0.00    -0.237 OA
ATOM     82  O   UNL A   1      42.871  22.184  27.462  1.00  0.00    -0.744 OA
ENDBRANCH  75  79
ENDBRANCH  48  72
BRANCH  60  83
ATOM     83  C   UNL A   1      44.647  27.132  34.004  1.00  0.00     0.023 A 
ATOM     84  C   UNL A   1      44.492  25.894  34.649  1.00  0.00     0.031 A 
ATOM     85  C   UNL A   1      45.914  27.742  34.039  1.00  0.00     0.131 A 
ATOM     86  C   UNL A   1      45.567  25.335  35.357  1.00  0.00     0.055 A 
ATOM     87  C   UNL A   1      46.999  27.147  34.686  1.00  0.00     0.041 A 
ATOM     88  F   UNL A   1      46.121  28.927  33.444  1.00  0.00    -0.206 F 
ATOM     89  C   UNL A   1      46.825  25.945  35.364  1.00  0.00     0.022 A 
BRANCH  86  90
ATOM     90  S   UNL A   1      45.273  23.855  36.365  1.00  0.00     0.124 S 
ATOM     91  O   UNL A   1      44.179  23.211  35.645  1.00  0.00    -0.237 OA
ATOM     92  O   UNL A   1      46.563  23.176  36.304  1.00  0.00    -0.237 OA
ATOM     93  O   UNL A   1      44.920  24.397  37.675  1.00  0.00    -0.744 OA
ENDBRANCH  86  90
ENDBRANCH  60  83
ENDBRANCH  34  35
ENDBRANCH  26  29
ENDBRANCH  24  25
ENDBRANCH  23  24
ENDBRANCH  22  23
ENDBRANCH   1  22
TORSDOF 20
ENDMDL
