MODEL 1
REMARK VINA RESULT:     -10.8      0.000      0.000
REMARK SMILES CCOc1ccc(-c2csc3ncn([C@H](C)C(=O)NCCCCNC(=O)c4ccc(-c5c6nc(c(-c7cc(S(=O)(=O)[O-])ccc7F)c7ccc([nH]7)c(-c7cc(S(=O)(=O)[O-])ccc7F)c7nc(c(-c8cc(S(=O)(=O)[O-])ccc8F)c8ccc5[nH]8)C=C7)C=C6)cc4)c(=O)c23)cc1
REMARK SMILES IDX 21 1 20 2 19 3 17 4 18 5 15 7 16 8 14 9 8 10 9 11 92 12
REMARK SMILES IDX 10 13 11 14 90 15 12 16 91 17 13 18 7 19 4 20 5 21 94 22
REMARK SMILES IDX 6 23 93 24 3 25 2 26 1 27 22 28 23 29 24 30 25 31 26 33
REMARK SMILES IDX 27 34 28 35 89 36 29 37 88 38 30 39 31 40 32 41 82 42 33 43
REMARK SMILES IDX 87 44 81 45 83 46 34 47 86 48 80 49 79 50 35 52 67 53 47 54
REMARK SMILES IDX 66 55 48 56 51 57 65 58 84 59 49 60 50 61 64 63 85 64 52 65
REMARK SMILES IDX 36 66 37 67 45 68 38 69 44 70 46 71 43 72 39 73 40 74 41 75
REMARK SMILES IDX 42 76 68 77 69 78 77 79 70 80 76 81 78 82 75 83 71 84 72 85
REMARK SMILES IDX 73 86 74 87 53 88 54 89 62 90 55 91 61 92 63 93 60 94 56 95
REMARK SMILES IDX 57 96 58 97 59 98
REMARK H PARENT 19 6 24 32 83 51 51 62
REMARK Flexibility Score: inf
ROOT
ATOM      1  C   UNL A   1      41.597  21.749  27.680  1.00  0.00     0.023 C 
ENDROOT
BRANCH   1   2
ATOM      2  C   UNL A   1      42.647  20.902  26.958  1.00  0.00     0.116 C 
BRANCH   2   3
ATOM      3  N   UNL A   1      42.826  21.317  25.582  1.00  0.00    -0.354 N 
ATOM      4  C   UNL A   1      43.909  21.814  24.922  1.00  0.00     0.242 C 
ATOM      5  O   UNL A   1      43.682  22.394  23.855  1.00  0.00    -0.273 OA
ATOM      6  H   UNL A   1      42.022  21.224  25.024  1.00  0.00     0.163 HD
BRANCH   4   7
ATOM      7  C   UNL A   1      45.332  21.833  25.525  1.00  0.00     0.177 C 
ATOM      8  C   UNL A   1      46.197  20.792  24.817  1.00  0.00     0.042 C 
BRANCH   7   9
ATOM      9  N   UNL A   1      45.888  23.192  25.631  1.00  0.00    -0.286 N 
ATOM     10  C   UNL A   1      46.342  26.059  28.078  1.00  0.00     0.007 A 
ATOM     11  C   UNL A   1      46.818  27.296  27.679  1.00  0.00     0.076 A 
ATOM     12  C   UNL A   1      46.285  25.152  26.966  1.00  0.00     0.085 A 
ATOM     13  S   UNL A   1      47.239  27.333  26.022  1.00  0.00    -0.123 S 
ATOM     14  C   UNL A   1      46.785  25.705  25.809  1.00  0.00     0.131 A 
ATOM     15  C   UNL A   1      45.798  23.784  26.901  1.00  0.00     0.263 A 
ATOM     16  N   UNL A   1      46.932  25.082  24.614  1.00  0.00    -0.227 NA
ATOM     17  O   UNL A   1      45.349  23.186  27.870  1.00  0.00    -0.268 OA
ATOM     18  C   UNL A   1      46.489  23.867  24.589  1.00  0.00     0.204 A 
BRANCH  10  19
ATOM     19  C   UNL A   1      46.015  25.801  29.476  1.00  0.00    -0.016 A 
ATOM     20  C   UNL A   1      45.425  25.350  32.176  1.00  0.00     0.119 A 
ATOM     21  C   UNL A   1      46.732  25.630  31.793  1.00  0.00     0.047 A 
ATOM     22  C   UNL A   1      44.406  25.326  31.225  1.00  0.00     0.047 A 
ATOM     23  C   UNL A   1      47.024  25.862  30.448  1.00  0.00     0.012 A 
ATOM     24  C   UNL A   1      44.702  25.530  29.874  1.00  0.00     0.012 A 
BRANCH  20  25
ATOM     25  O   UNL A   1      45.174  25.230  33.513  1.00  0.00    -0.494 OA
BRANCH  25  26
ATOM     26  C   UNL A   1      45.525  23.944  34.034  1.00  0.00     0.226 C 
ATOM     27  C   UNL A   1      44.338  23.007  33.999  1.00  0.00     0.049 C 
ENDBRANCH  25  26
ENDBRANCH  20  25
ENDBRANCH  10  19
ENDBRANCH   7   9
ENDBRANCH   4   7
ENDBRANCH   2   3
ENDBRANCH   1   2
BRANCH   1  28
ATOM     28  C   UNL A   1      42.095  23.078  28.265  1.00  0.00     0.023 C 
BRANCH  28  29
ATOM     29  C   UNL A   1      42.066  24.254  27.298  1.00  0.00     0.116 C 
BRANCH  29  30
ATOM     30  N   UNL A   1      40.925  24.211  26.389  1.00  0.00    -0.352 N 
ATOM     31  C   UNL A   1      39.680  24.788  26.573  1.00  0.00     0.251 C 
ATOM     32  H   UNL A   1      41.056  23.715  25.548  1.00  0.00     0.163 HD
ATOM     33  O   UNL A   1      38.707  24.359  25.973  1.00  0.00    -0.269 OA
BRANCH  31  34
ATOM     34  C   UNL A   1      39.560  25.918  27.518  1.00  0.00     0.039 A 
ATOM     35  C   UNL A   1      39.107  25.717  28.821  1.00  0.00     0.014 A 
ATOM     36  C   UNL A   1      39.952  27.186  27.087  1.00  0.00     0.014 A 
ATOM     37  C   UNL A   1      39.147  26.785  29.717  1.00  0.00     0.010 A 
ATOM     38  C   UNL A   1      40.095  28.209  27.999  1.00  0.00     0.010 A 
ATOM     39  C   UNL A   1      39.674  28.026  29.311  1.00  0.00    -0.014 A 
BRANCH  39  40
ATOM     40  C   UNL A   1      39.913  29.080  30.300  1.00  0.00     0.031 A 
ATOM     41  C   UNL A   1      38.721  29.922  30.606  1.00  0.00     0.074 A 
ATOM     42  C   UNL A   1      41.040  29.205  31.036  1.00  0.00     0.049 A 
ATOM     43  N   UNL A   1      38.522  31.155  30.279  1.00  0.00    -0.248 NA
ATOM     44  C   UNL A   1      37.549  29.281  31.223  1.00  0.00     0.031 C 
ATOM     45  C   UNL A   1      42.192  28.300  31.102  1.00  0.00     0.029 A 
ATOM     46  N   UNL A   1      41.353  30.151  31.967  1.00  0.00    -0.354 N 
ATOM     47  C   UNL A   1      37.304  31.520  30.845  1.00  0.00     0.074 A 
ATOM     48  C   UNL A   1      36.673  30.289  31.240  1.00  0.00     0.031 C 
ATOM     49  C   UNL A   1      42.962  28.617  32.168  1.00  0.00     0.029 A 
ATOM     50  C   UNL A   1      42.467  29.852  32.747  1.00  0.00     0.049 A 
ATOM     51  H   UNL A   1      40.834  30.980  32.078  1.00  0.00     0.167 HD
ATOM     52  C   UNL A   1      37.022  32.823  31.132  1.00  0.00     0.034 A 
ATOM     53  C   UNL A   1      42.950  30.553  33.808  1.00  0.00     0.034 A 
ATOM     54  C   UNL A   1      37.958  33.709  30.474  1.00  0.00     0.049 A 
ATOM     55  C   UNL A   1      42.410  31.926  33.710  1.00  0.00     0.074 A 
ATOM     56  C   UNL A   1      38.313  33.946  29.158  1.00  0.00     0.029 A 
ATOM     57  N   UNL A   1      38.978  34.243  31.229  1.00  0.00    -0.354 N 
ATOM     58  N   UNL A   1      42.773  32.763  32.783  1.00  0.00    -0.248 NA
ATOM     59  C   UNL A   1      41.140  32.226  34.356  1.00  0.00     0.031 C 
ATOM     60  C   UNL A   1      39.728  34.128  29.188  1.00  0.00     0.029 A 
ATOM     61  C   UNL A   1      40.142  34.079  30.519  1.00  0.00     0.049 A 
ATOM     62  H   UNL A   1      38.889  34.664  32.114  1.00  0.00     0.167 HD
ATOM     63  C   UNL A   1      41.602  33.394  32.408  1.00  0.00     0.074 A 
ATOM     64  C   UNL A   1      40.656  33.115  33.484  1.00  0.00     0.031 C 
ATOM     65  C   UNL A   1      41.431  33.834  31.127  1.00  0.00     0.034 A 
BRANCH  52  66
ATOM     66  C   UNL A   1      36.145  33.309  32.269  1.00  0.00     0.023 A 
ATOM     67  C   UNL A   1      35.008  34.070  31.926  1.00  0.00     0.031 A 
ATOM     68  C   UNL A   1      36.500  33.326  33.635  1.00  0.00     0.131 A 
ATOM     69  C   UNL A   1      34.360  34.878  32.876  1.00  0.00     0.055 A 
ATOM     70  C   UNL A   1      35.808  34.077  34.592  1.00  0.00     0.041 A 
ATOM     71  F   UNL A   1      37.583  32.702  34.110  1.00  0.00    -0.206 F 
ATOM     72  C   UNL A   1      34.753  34.887  34.210  1.00  0.00     0.022 A 
BRANCH  69  73
ATOM     73  S   UNL A   1      33.115  36.060  32.295  1.00  0.00     0.124 S 
ATOM     74  O   UNL A   1      33.533  36.267  30.912  1.00  0.00    -0.237 OA
ATOM     75  O   UNL A   1      31.877  35.313  32.490  1.00  0.00    -0.237 OA
ATOM     76  O   UNL A   1      33.296  37.207  33.181  1.00  0.00    -0.744 OA
ENDBRANCH  69  73
ENDBRANCH  52  66
BRANCH  53  77
ATOM     77  C   UNL A   1      43.316  29.985  35.129  1.00  0.00     0.023 A 
ATOM     78  C   UNL A   1      42.784  28.770  35.614  1.00  0.00     0.031 A 
ATOM     79  C   UNL A   1      44.478  30.483  35.750  1.00  0.00     0.131 A 
ATOM     80  C   UNL A   1      43.450  28.080  36.652  1.00  0.00     0.055 A 
ATOM     81  C   UNL A   1      45.148  29.776  36.740  1.00  0.00     0.041 A 
ATOM     82  F   UNL A   1      45.057  31.621  35.334  1.00  0.00    -0.206 F 
ATOM     83  C   UNL A   1      44.640  28.568  37.192  1.00  0.00     0.022 A 
BRANCH  80  84
ATOM     84  S   UNL A   1      42.807  26.514  37.322  1.00  0.00     0.124 S 
ATOM     85  O   UNL A   1      43.160  25.544  36.293  1.00  0.00    -0.237 OA
ATOM     86  O   UNL A   1      43.526  26.408  38.587  1.00  0.00    -0.237 OA
ATOM     87  O   UNL A   1      41.371  26.772  37.450  1.00  0.00    -0.744 OA
ENDBRANCH  80  84
ENDBRANCH  53  77
BRANCH  65  88
ATOM     88  C   UNL A   1      42.651  33.866  30.229  1.00  0.00     0.023 A 
ATOM     89  C   UNL A   1      43.082  32.800  29.403  1.00  0.00     0.031 A 
ATOM     90  C   UNL A   1      43.361  35.075  30.156  1.00  0.00     0.131 A 
ATOM     91  C   UNL A   1      44.200  32.965  28.563  1.00  0.00     0.055 A 
ATOM     92  C   UNL A   1      44.452  35.243  29.306  1.00  0.00     0.041 A 
ATOM     93  F   UNL A   1      42.987  36.129  30.900  1.00  0.00    -0.206 F 
ATOM     94  C   UNL A   1      44.880  34.186  28.511  1.00  0.00     0.022 A 
BRANCH  91  95
ATOM     95  S   UNL A   1      44.807  31.586  27.538  1.00  0.00     0.124 S 
ATOM     96  O   UNL A   1      46.074  32.079  27.012  1.00  0.00    -0.237 OA
ATOM     97  O   UNL A   1      44.900  30.492  28.502  1.00  0.00    -0.237 OA
ATOM     98  O   UNL A   1      43.754  31.419  26.533  1.00  0.00    -0.744 OA
ENDBRANCH  91  95
ENDBRANCH  65  88
ENDBRANCH  39  40
ENDBRANCH  31  34
ENDBRANCH  29  30
ENDBRANCH  28  29
ENDBRANCH   1  28
TORSDOF 18
ENDMDL
MODEL 2
REMARK VINA RESULT:     -10.7      4.789     11.970
REMARK SMILES CCOc1ccc(-c2csc3ncn([C@H](C)C(=O)NCCCCNC(=O)c4ccc(-c5c6nc(c(-c7cc(S(=O)(=O)[O-])ccc7F)c7ccc([nH]7)c(-c7cc(S(=O)(=O)[O-])ccc7F)c7nc(c(-c8cc(S(=O)(=O)[O-])ccc8F)c8ccc5[nH]8)C=C7)C=C6)cc4)c(=O)c23)cc1
REMARK SMILES IDX 21 1 20 2 19 3 17 4 18 5 15 7 16 8 14 9 8 10 9 11 92 12
REMARK SMILES IDX 10 13 11 14 90 15 12 16 91 17 13 18 7 19 4 20 5 21 94 22
REMARK SMILES IDX 6 23 93 24 3 25 2 26 1 27 22 28 23 29 24 30 25 31 26 33
REMARK SMILES IDX 27 34 28 35 89 36 29 37 88 38 30 39 31 40 32 41 82 42 33 43
REMARK SMILES IDX 87 44 81 45 83 46 34 47 86 48 80 49 79 50 35 52 67 53 47 54
REMARK SMILES IDX 66 55 48 56 51 57 65 58 84 59 49 60 50 61 64 63 85 64 52 65
REMARK SMILES IDX 36 66 37 67 45 68 38 69 44 70 46 71 43 72 39 73 40 74 41 75
REMARK SMILES IDX 42 76 68 77 69 78 77 79 70 80 76 81 78 82 75 83 71 84 72 85
REMARK SMILES IDX 73 86 74 87 53 88 54 89 62 90 55 91 61 92 63 93 60 94 56 95
REMARK SMILES IDX 57 96 58 97 59 98
REMARK H PARENT 19 6 24 32 83 51 51 62
REMARK Flexibility Score: inf
ROOT
ATOM      1  C   UNL A   1      34.610  31.430  28.008  1.00  0.00     0.023 C 
ENDROOT
BRANCH   1   2
ATOM      2  C   UNL A   1      34.789  30.067  27.337  1.00  0.00     0.116 C 
BRANCH   2   3
ATOM      3  N   UNL A   1      34.037  29.968  26.103  1.00  0.00    -0.354 N 
ATOM      4  C   UNL A   1      33.209  28.999  25.626  1.00  0.00     0.242 C 
ATOM      5  O   UNL A   1      32.978  29.023  24.412  1.00  0.00    -0.273 OA
ATOM      6  H   UNL A   1      34.143  30.740  25.502  1.00  0.00     0.163 HD
BRANCH   4   7
ATOM      7  C   UNL A   1      32.712  27.812  26.483  1.00  0.00     0.177 C 
ATOM      8  C   UNL A   1      31.853  28.339  27.630  1.00  0.00     0.042 C 
BRANCH   7   9
ATOM      9  N   UNL A   1      32.137  26.725  25.673  1.00  0.00    -0.286 N 
ATOM     10  C   UNL A   1      33.023  23.408  24.053  1.00  0.00     0.007 A 
ATOM     11  C   UNL A   1      32.154  22.754  23.197  1.00  0.00     0.076 A 
ATOM     12  C   UNL A   1      32.438  24.626  24.540  1.00  0.00     0.085 A 
ATOM     13  S   UNL A   1      30.655  23.562  23.040  1.00  0.00    -0.123 S 
ATOM     14  C   UNL A   1      31.145  24.800  24.104  1.00  0.00     0.131 A 
ATOM     15  C   UNL A   1      33.001  25.652  25.403  1.00  0.00     0.263 A 
ATOM     16  N   UNL A   1      30.306  25.809  24.446  1.00  0.00    -0.227 NA
ATOM     17  O   UNL A   1      34.133  25.593  25.865  1.00  0.00    -0.268 OA
ATOM     18  C   UNL A   1      30.838  26.706  25.212  1.00  0.00     0.204 A 
BRANCH  10  19
ATOM     19  C   UNL A   1      34.318  22.827  24.388  1.00  0.00    -0.016 A 
ATOM     20  C   UNL A   1      36.831  21.768  25.027  1.00  0.00     0.119 A 
ATOM     21  C   UNL A   1      36.724  22.746  24.045  1.00  0.00     0.047 A 
ATOM     22  C   UNL A   1      35.697  21.340  25.716  1.00  0.00     0.047 A 
ATOM     23  C   UNL A   1      35.473  23.278  23.731  1.00  0.00     0.012 A 
ATOM     24  C   UNL A   1      34.439  21.852  25.383  1.00  0.00     0.012 A 
BRANCH  20  25
ATOM     25  O   UNL A   1      38.087  21.353  25.366  1.00  0.00    -0.494 OA
BRANCH  25  26
ATOM     26  C   UNL A   1      38.809  22.323  26.133  1.00  0.00     0.226 C 
ATOM     27  C   UNL A   1      40.066  21.720  26.717  1.00  0.00     0.049 C 
ENDBRANCH  25  26
ENDBRANCH  20  25
ENDBRANCH  10  19
ENDBRANCH   7   9
ENDBRANCH   4   7
ENDBRANCH   2   3
ENDBRANCH   1   2
BRANCH   1  28
ATOM     28  C   UNL A   1      35.823  32.369  27.953  1.00  0.00     0.023 C 
BRANCH  28  29
ATOM     29  C   UNL A   1      36.967  31.992  28.886  1.00  0.00     0.116 C 
BRANCH  29  30
ATOM     30  N   UNL A   1      36.514  31.281  30.077  1.00  0.00    -0.352 N 
ATOM     31  C   UNL A   1      36.812  29.980  30.444  1.00  0.00     0.251 C 
ATOM     32  H   UNL A   1      35.931  31.785  30.690  1.00  0.00     0.163 HD
ATOM     33  O   UNL A   1      36.078  29.372  31.208  1.00  0.00    -0.269 OA
BRANCH  31  34
ATOM     34  C   UNL A   1      38.022  29.347  29.881  1.00  0.00     0.039 A 
ATOM     35  C   UNL A   1      38.600  29.827  28.706  1.00  0.00     0.014 A 
ATOM     36  C   UNL A   1      38.600  28.285  30.576  1.00  0.00     0.014 A 
ATOM     37  C   UNL A   1      39.820  29.293  28.292  1.00  0.00     0.010 A 
ATOM     38  C   UNL A   1      39.855  27.835  30.229  1.00  0.00     0.010 A 
ATOM     39  C   UNL A   1      40.464  28.316  29.076  1.00  0.00    -0.014 A 
BRANCH  39  40
ATOM     40  C   UNL A   1      41.835  27.908  28.759  1.00  0.00     0.031 A 
ATOM     41  C   UNL A   1      41.937  26.663  27.947  1.00  0.00     0.074 A 
ATOM     42  C   UNL A   1      42.936  28.656  28.997  1.00  0.00     0.049 A 
ATOM     43  N   UNL A   1      42.358  25.504  28.331  1.00  0.00    -0.248 NA
ATOM     44  C   UNL A   1      41.370  26.662  26.588  1.00  0.00     0.031 C 
ATOM     45  C   UNL A   1      43.013  30.031  29.501  1.00  0.00     0.029 A 
ATOM     46  N   UNL A   1      44.242  28.358  28.746  1.00  0.00    -0.354 N 
ATOM     47  C   UNL A   1      42.331  24.683  27.206  1.00  0.00     0.074 A 
ATOM     48  C   UNL A   1      41.543  25.386  26.229  1.00  0.00     0.031 C 
ATOM     49  C   UNL A   1      44.261  30.518  29.310  1.00  0.00     0.029 A 
ATOM     50  C   UNL A   1      45.114  29.439  28.847  1.00  0.00     0.049 A 
ATOM     51  H   UNL A   1      44.546  27.451  28.513  1.00  0.00     0.167 HD
ATOM     52  C   UNL A   1      43.144  23.593  27.109  1.00  0.00     0.034 A 
ATOM     53  C   UNL A   1      46.443  29.464  28.559  1.00  0.00     0.034 A 
ATOM     54  C   UNL A   1      43.712  23.258  28.397  1.00  0.00     0.049 A 
ATOM     55  C   UNL A   1      46.925  28.066  28.586  1.00  0.00     0.074 A 
ATOM     56  C   UNL A   1      43.189  22.914  29.631  1.00  0.00     0.029 A 
ATOM     57  N   UNL A   1      45.014  23.634  28.644  1.00  0.00    -0.354 N 
ATOM     58  N   UNL A   1      47.009  27.369  29.681  1.00  0.00    -0.248 NA
ATOM     59  C   UNL A   1      46.885  27.288  27.355  1.00  0.00     0.031 C 
ATOM     60  C   UNL A   1      44.017  23.587  30.579  1.00  0.00     0.029 A 
ATOM     61  C   UNL A   1      45.041  24.228  29.881  1.00  0.00     0.049 A 
ATOM     62  H   UNL A   1      45.782  23.501  28.043  1.00  0.00     0.167 HD
ATOM     63  C   UNL A   1      46.562  26.109  29.325  1.00  0.00     0.074 A 
ATOM     64  C   UNL A   1      46.614  26.084  27.866  1.00  0.00     0.031 C 
ATOM     65  C   UNL A   1      45.922  25.319  30.234  1.00  0.00     0.034 A 
BRANCH  52  66
ATOM     66  C   UNL A   1      43.721  23.030  25.825  1.00  0.00     0.023 A 
ATOM     67  C   UNL A   1      43.621  21.637  25.629  1.00  0.00     0.031 A 
ATOM     68  C   UNL A   1      44.596  23.708  24.948  1.00  0.00     0.131 A 
ATOM     69  C   UNL A   1      44.436  20.973  24.697  1.00  0.00     0.055 A 
ATOM     70  C   UNL A   1      45.353  23.051  23.972  1.00  0.00     0.041 A 
ATOM     71  F   UNL A   1      44.842  25.018  25.040  1.00  0.00    -0.206 F 
ATOM     72  C   UNL A   1      45.304  21.672  23.864  1.00  0.00     0.022 A 
BRANCH  69  73
ATOM     73  S   UNL A   1      44.478  19.162  24.726  1.00  0.00     0.124 S 
ATOM     74  O   UNL A   1      45.568  18.910  25.663  1.00  0.00    -0.237 OA
ATOM     75  O   UNL A   1      43.135  18.838  25.195  1.00  0.00    -0.237 OA
ATOM     76  O   UNL A   1      44.754  18.806  23.336  1.00  0.00    -0.744 OA
ENDBRANCH  69  73
ENDBRANCH  52  66
BRANCH  53  77
ATOM     77  C   UNL A   1      47.131  30.476  27.719  1.00  0.00     0.023 A 
ATOM     78  C   UNL A   1      46.453  31.557  27.114  1.00  0.00     0.031 A 
ATOM     79  C   UNL A   1      48.533  30.560  27.824  1.00  0.00     0.131 A 
ATOM     80  C   UNL A   1      47.182  32.688  26.686  1.00  0.00     0.055 A 
ATOM     81  C   UNL A   1      49.236  31.695  27.438  1.00  0.00     0.041 A 
ATOM     82  F   UNL A   1      49.249  29.584  28.404  1.00  0.00    -0.206 F 
ATOM     83  C   UNL A   1      48.563  32.766  26.873  1.00  0.00     0.022 A 
BRANCH  80  84
ATOM     84  S   UNL A   1      46.363  34.107  25.892  1.00  0.00     0.124 S 
ATOM     85  O   UNL A   1      47.418  34.677  25.064  1.00  0.00    -0.237 OA
ATOM     86  O   UNL A   1      45.260  33.465  25.187  1.00  0.00    -0.237 OA
ATOM     87  O   UNL A   1      45.965  34.939  27.030  1.00  0.00    -0.744 OA
ENDBRANCH  80  84
ENDBRANCH  53  77
BRANCH  65  88
ATOM     88  C   UNL A   1      45.973  25.741  31.689  1.00  0.00     0.023 A 
ATOM     89  C   UNL A   1      47.054  25.494  32.570  1.00  0.00     0.031 A 
ATOM     90  C   UNL A   1      44.898  26.501  32.173  1.00  0.00     0.131 A 
ATOM     91  C   UNL A   1      47.016  25.985  33.889  1.00  0.00     0.055 A 
ATOM     92  C   UNL A   1      44.875  27.007  33.472  1.00  0.00     0.041 A 
ATOM     93  F   UNL A   1      43.854  26.787  31.379  1.00  0.00    -0.206 F 
ATOM     94  C   UNL A   1      45.931  26.745  34.336  1.00  0.00     0.022 A 
BRANCH  91  95
ATOM     95  S   UNL A   1      48.368  25.626  35.056  1.00  0.00     0.124 S 
ATOM     96  O   UNL A   1      49.141  26.861  35.080  1.00  0.00    -0.237 OA
ATOM     97  O   UNL A   1      47.648  25.299  36.285  1.00  0.00    -0.237 OA
ATOM     98  O   UNL A   1      49.057  24.489  34.439  1.00  0.00    -0.744 OA
ENDBRANCH  91  95
ENDBRANCH  65  88
ENDBRANCH  39  40
ENDBRANCH  31  34
ENDBRANCH  29  30
ENDBRANCH  28  29
ENDBRANCH   1  28
TORSDOF 18
ENDMDL
MODEL 3
REMARK VINA RESULT:     -10.5      4.297     10.200
REMARK SMILES CCOc1ccc(-c2csc3ncn([C@H](C)C(=O)NCCCCNC(=O)c4ccc(-c5c6nc(c(-c7cc(S(=O)(=O)[O-])ccc7F)c7ccc([nH]7)c(-c7cc(S(=O)(=O)[O-])ccc7F)c7nc(c(-c8cc(S(=O)(=O)[O-])ccc8F)c8ccc5[nH]8)C=C7)C=C6)cc4)c(=O)c23)cc1
REMARK SMILES IDX 21 1 20 2 19 3 17 4 18 5 15 7 16 8 14 9 8 10 9 11 92 12
REMARK SMILES IDX 10 13 11 14 90 15 12 16 91 17 13 18 7 19 4 20 5 21 94 22
REMARK SMILES IDX 6 23 93 24 3 25 2 26 1 27 22 28 23 29 24 30 25 31 26 33
REMARK SMILES IDX 27 34 28 35 89 36 29 37 88 38 30 39 31 40 32 41 82 42 33 43
REMARK SMILES IDX 87 44 81 45 83 46 34 47 86 48 80 49 79 50 35 52 67 53 47 54
REMARK SMILES IDX 66 55 48 56 51 57 65 58 84 59 49 60 50 61 64 63 85 64 52 65
REMARK SMILES IDX 36 66 37 67 45 68 38 69 44 70 46 71 43 72 39 73 40 74 41 75
REMARK SMILES IDX 42 76 68 77 69 78 77 79 70 80 76 81 78 82 75 83 71 84 72 85
REMARK SMILES IDX 73 86 74 87 53 88 54 89 62 90 55 91 61 92 63 93 60 94 56 95
REMARK SMILES IDX 57 96 58 97 59 98
REMARK H PARENT 19 6 24 32 83 51 51 62
REMARK Flexibility Score: inf
ROOT
ATOM      1  C   UNL A   1      35.949  30.664  27.916  1.00  0.00     0.023 C 
ENDROOT
BRANCH   1   2
ATOM      2  C   UNL A   1      35.493  29.328  27.327  1.00  0.00     0.116 C 
BRANCH   2   3
ATOM      3  N   UNL A   1      34.622  29.509  26.184  1.00  0.00    -0.354 N 
ATOM      4  C   UNL A   1      33.531  28.812  25.761  1.00  0.00     0.242 C 
ATOM      5  O   UNL A   1      33.194  28.982  24.584  1.00  0.00    -0.273 OA
ATOM      6  H   UNL A   1      34.859  30.272  25.611  1.00  0.00     0.163 HD
BRANCH   4   7
ATOM      7  C   UNL A   1      32.838  27.726  26.614  1.00  0.00     0.177 C 
ATOM      8  C   UNL A   1      31.932  28.393  27.648  1.00  0.00     0.042 C 
BRANCH   7   9
ATOM      9  N   UNL A   1      32.234  26.659  25.798  1.00  0.00    -0.286 N 
ATOM     10  C   UNL A   1      33.067  23.397  24.043  1.00  0.00     0.007 A 
ATOM     11  C   UNL A   1      32.165  22.763  23.206  1.00  0.00     0.076 A 
ATOM     12  C   UNL A   1      32.497  24.596  24.591  1.00  0.00     0.085 A 
ATOM     13  S   UNL A   1      30.656  23.565  23.140  1.00  0.00    -0.123 S 
ATOM     14  C   UNL A   1      31.185  24.774  24.217  1.00  0.00     0.131 A 
ATOM     15  C   UNL A   1      33.091  25.600  25.459  1.00  0.00     0.263 A 
ATOM     16  N   UNL A   1      30.356  25.767  24.625  1.00  0.00    -0.227 NA
ATOM     17  O   UNL A   1      34.242  25.535  25.869  1.00  0.00    -0.268 OA
ATOM     18  C   UNL A   1      30.915  26.644  25.394  1.00  0.00     0.204 A 
BRANCH  10  19
ATOM     19  C   UNL A   1      34.379  22.816  24.303  1.00  0.00    -0.016 A 
ATOM     20  C   UNL A   1      36.872  21.647  24.811  1.00  0.00     0.119 A 
ATOM     21  C   UNL A   1      35.769  21.274  25.570  1.00  0.00     0.047 A 
ATOM     22  C   UNL A   1      36.734  22.574  23.779  1.00  0.00     0.047 A 
ATOM     23  C   UNL A   1      34.525  21.852  25.312  1.00  0.00     0.012 A 
ATOM     24  C   UNL A   1      35.494  23.175  23.538  1.00  0.00     0.012 A 
BRANCH  20  25
ATOM     25  O   UNL A   1      38.043  20.980  25.036  1.00  0.00    -0.494 OA
BRANCH  25  26
ATOM     26  C   UNL A   1      38.959  21.719  25.851  1.00  0.00     0.226 C 
ATOM     27  C   UNL A   1      40.077  20.830  26.347  1.00  0.00     0.049 C 
ENDBRANCH  25  26
ENDBRANCH  20  25
ENDBRANCH  10  19
ENDBRANCH   7   9
ENDBRANCH   4   7
ENDBRANCH   2   3
ENDBRANCH   1   2
BRANCH   1  28
ATOM     28  C   UNL A   1      34.891  31.776  27.957  1.00  0.00     0.023 C 
BRANCH  28  29
ATOM     29  C   UNL A   1      35.351  33.072  28.613  1.00  0.00     0.116 C 
BRANCH  29  30
ATOM     30  N   UNL A   1      34.697  33.320  29.893  1.00  0.00    -0.352 N 
ATOM     31  C   UNL A   1      34.918  32.666  31.092  1.00  0.00     0.251 C 
ATOM     32  H   UNL A   1      34.020  34.036  29.905  1.00  0.00     0.163 HD
ATOM     33  O   UNL A   1      34.061  32.665  31.962  1.00  0.00    -0.269 OA
BRANCH  31  34
ATOM     34  C   UNL A   1      36.204  31.963  31.285  1.00  0.00     0.039 A 
ATOM     35  C   UNL A   1      36.247  30.577  31.430  1.00  0.00     0.014 A 
ATOM     36  C   UNL A   1      37.379  32.715  31.275  1.00  0.00     0.014 A 
ATOM     37  C   UNL A   1      37.491  29.945  31.464  1.00  0.00     0.010 A 
ATOM     38  C   UNL A   1      38.601  32.084  31.197  1.00  0.00     0.010 A 
ATOM     39  C   UNL A   1      38.669  30.700  31.314  1.00  0.00    -0.014 A 
BRANCH  39  40
ATOM     40  C   UNL A   1      39.956  30.024  31.138  1.00  0.00     0.031 A 
ATOM     41  C   UNL A   1      40.676  29.722  32.408  1.00  0.00     0.074 A 
ATOM     42  C   UNL A   1      40.412  29.527  29.965  1.00  0.00     0.049 A 
ATOM     43  N   UNL A   1      41.751  30.280  32.856  1.00  0.00    -0.248 NA
ATOM     44  C   UNL A   1      40.051  28.796  33.366  1.00  0.00     0.031 C 
ATOM     45  C   UNL A   1      39.717  29.450  28.676  1.00  0.00     0.029 A 
ATOM     46  N   UNL A   1      41.591  28.895  29.706  1.00  0.00    -0.354 N 
ATOM     47  C   UNL A   1      42.073  29.618  34.038  1.00  0.00     0.074 A 
ATOM     48  C   UNL A   1      40.903  28.861  34.393  1.00  0.00     0.031 C 
ATOM     49  C   UNL A   1      40.389  28.622  27.844  1.00  0.00     0.029 A 
ATOM     50  C   UNL A   1      41.649  28.259  28.468  1.00  0.00     0.049 A 
ATOM     51  H   UNL A   1      42.343  28.888  30.341  1.00  0.00     0.167 HD
ATOM     52  C   UNL A   1      43.355  29.586  34.501  1.00  0.00     0.034 A 
ATOM     53  C   UNL A   1      42.648  27.474  27.982  1.00  0.00     0.034 A 
ATOM     54  C   UNL A   1      44.172  30.569  33.822  1.00  0.00     0.049 A 
ATOM     55  C   UNL A   1      43.868  27.786  28.758  1.00  0.00     0.074 A 
ATOM     56  C   UNL A   1      44.125  31.944  33.681  1.00  0.00     0.029 A 
ATOM     57  N   UNL A   1      45.010  30.128  32.822  1.00  0.00    -0.354 N 
ATOM     58  N   UNL A   1      44.493  28.922  28.664  1.00  0.00    -0.248 NA
ATOM     59  C   UNL A   1      44.140  27.025  29.970  1.00  0.00     0.031 C 
ATOM     60  C   UNL A   1      44.502  32.186  32.326  1.00  0.00     0.029 A 
ATOM     61  C   UNL A   1      44.838  30.963  31.746  1.00  0.00     0.049 A 
ATOM     62  H   UNL A   1      45.619  29.356  32.870  1.00  0.00     0.167 HD
ATOM     63  C   UNL A   1      44.846  29.233  29.965  1.00  0.00     0.074 A 
ATOM     64  C   UNL A   1      44.712  27.982  30.706  1.00  0.00     0.031 C 
ATOM     65  C   UNL A   1      44.930  30.534  30.368  1.00  0.00     0.034 A 
BRANCH  52  66
ATOM     66  C   UNL A   1      43.981  28.459  35.299  1.00  0.00     0.023 A 
ATOM     67  C   UNL A   1      44.083  27.202  34.668  1.00  0.00     0.031 A 
ATOM     68  C   UNL A   1      44.203  28.461  36.694  1.00  0.00     0.131 A 
ATOM     69  C   UNL A   1      44.277  26.027  35.414  1.00  0.00     0.055 A 
ATOM     70  C   UNL A   1      44.467  27.297  37.423  1.00  0.00     0.041 A 
ATOM     71  F   UNL A   1      44.087  29.561  37.444  1.00  0.00    -0.206 F 
ATOM     72  C   UNL A   1      44.471  26.066  36.791  1.00  0.00     0.022 A 
BRANCH  69  73
ATOM     73  S   UNL A   1      44.082  24.433  34.575  1.00  0.00     0.124 S 
ATOM     74  O   UNL A   1      44.202  24.824  33.174  1.00  0.00    -0.237 OA
ATOM     75  O   UNL A   1      45.192  23.664  35.129  1.00  0.00    -0.237 OA
ATOM     76  O   UNL A   1      42.752  23.992  34.989  1.00  0.00    -0.744 OA
ENDBRANCH  69  73
ENDBRANCH  52  66
BRANCH  53  77
ATOM     77  C   UNL A   1      42.478  26.137  27.362  1.00  0.00     0.023 A 
ATOM     78  C   UNL A   1      43.400  25.600  26.436  1.00  0.00     0.031 A 
ATOM     79  C   UNL A   1      41.576  25.247  27.977  1.00  0.00     0.131 A 
ATOM     80  C   UNL A   1      43.420  24.208  26.198  1.00  0.00     0.055 A 
ATOM     81  C   UNL A   1      41.633  23.875  27.767  1.00  0.00     0.041 A 
ATOM     82  F   UNL A   1      40.683  25.676  28.883  1.00  0.00    -0.206 F 
ATOM     83  C   UNL A   1      42.559  23.348  26.881  1.00  0.00     0.022 A 
BRANCH  80  84
ATOM     84  S   UNL A   1      44.581  23.460  25.010  1.00  0.00     0.124 S 
ATOM     85  O   UNL A   1      45.376  22.566  25.842  1.00  0.00    -0.237 OA
ATOM     86  O   UNL A   1      43.674  22.827  24.059  1.00  0.00    -0.237 OA
ATOM     87  O   UNL A   1      45.311  24.617  24.487  1.00  0.00    -0.744 OA
ENDBRANCH  80  84
ENDBRANCH  53  77
BRANCH  65  88
ATOM     88  C   UNL A   1      44.908  31.603  29.294  1.00  0.00     0.023 A 
ATOM     89  C   UNL A   1      46.027  32.013  28.531  1.00  0.00     0.031 A 
ATOM     90  C   UNL A   1      43.664  32.174  28.984  1.00  0.00     0.131 A 
ATOM     91  C   UNL A   1      45.876  32.977  27.516  1.00  0.00     0.055 A 
ATOM     92  C   UNL A   1      43.513  33.110  27.963  1.00  0.00     0.041 A 
ATOM     93  F   UNL A   1      42.561  31.810  29.658  1.00  0.00    -0.206 F 
ATOM     94  C   UNL A   1      44.620  33.521  27.230  1.00  0.00     0.022 A 
BRANCH  91  95
ATOM     95  S   UNL A   1      47.316  33.563  26.564  1.00  0.00     0.124 S 
ATOM     96  O   UNL A   1      48.003  34.453  27.492  1.00  0.00    -0.237 OA
ATOM     97  O   UNL A   1      48.010  32.319  26.241  1.00  0.00    -0.237 OA
ATOM     98  O   UNL A   1      46.711  34.235  25.411  1.00  0.00    -0.744 OA
ENDBRANCH  91  95
ENDBRANCH  65  88
ENDBRANCH  39  40
ENDBRANCH  31  34
ENDBRANCH  29  30
ENDBRANCH  28  29
ENDBRANCH   1  28
TORSDOF 18
ENDMDL
