MODEL 1
REMARK VINA RESULT:     -13.0      0.000      0.000
REMARK SMILES Cn1cc(C[C@@H](NC(=O)OCC2c3ccccc3-c3ccccc32)C(=O)NCCCCNC(=O)c2ccc(-c3c4nc(c(-c5cc(S(=O)(=O)[O-])ccc5F)c5ccc([nH]5)c(-c5cc(S(=O)(=O)[O-])ccc5F)c5nc(c(-c6cc(S(=O)(=O)[O-])ccc6F)c6ccc3[nH]6)C=C5)C=C4)cc2)c2ccccc21
REMARK SMILES IDX 29 1 28 2 27 3 25 4 26 5 6 7 5 8 4 9 1 10 2 11 3 12 103 13
REMARK SMILES IDX 98 14 102 15 99 16 101 17 100 18 7 19 8 20 9 22 10 23 11 24
REMARK SMILES IDX 12 25 13 26 24 27 14 28 18 29 19 30 23 31 15 32 17 33 20 34
REMARK SMILES IDX 22 35 16 36 21 37 30 38 31 39 32 40 33 41 34 43 35 44 36 45
REMARK SMILES IDX 97 46 37 47 96 48 38 49 39 50 40 51 90 52 41 53 95 54 89 55
REMARK SMILES IDX 91 56 42 57 94 58 88 59 87 60 43 62 75 63 55 64 74 65 56 66
REMARK SMILES IDX 59 67 73 68 92 69 57 70 58 71 72 73 93 74 60 75 44 76 45 77
REMARK SMILES IDX 53 78 46 79 52 80 54 81 51 82 47 83 48 84 49 85 50 86 76 87
REMARK SMILES IDX 77 88 85 89 78 90 84 91 86 92 83 93 79 94 80 95 81 96 82 97
REMARK SMILES IDX 61 98 62 99 70 100 63 101 69 102 71 103 68 104 64 105 65 106
REMARK SMILES IDX 66 107 67 108
REMARK H PARENT 27 6 7 21 32 42 91 61 59 72
REMARK Flexibility Score: inf
ROOT
ATOM      1  C   UNL A   1      31.399  30.832  25.763  1.00  0.00     0.023 C 
ENDROOT
BRANCH   1   2
ATOM      2  C   UNL A   1      32.644  30.027  26.109  1.00  0.00     0.116 C 
BRANCH   2   3
ATOM      3  N   UNL A   1      33.397  29.658  24.923  1.00  0.00    -0.354 N 
ATOM      4  C   UNL A   1      33.710  28.419  24.429  1.00  0.00     0.243 C 
ATOM      5  O   UNL A   1      34.377  28.364  23.392  1.00  0.00    -0.273 OA
ATOM      6  H   UNL A   1      33.736  30.416  24.391  1.00  0.00     0.163 HD
BRANCH   4   7
ATOM      7  C   UNL A   1      33.368  27.136  25.215  1.00  0.00     0.179 C 
BRANCH   7   8
ATOM      8  C   UNL A   1      34.666  26.294  25.353  1.00  0.00     0.073 C 
BRANCH   8   9
ATOM      9  C   UNL A   1      34.506  24.819  25.611  1.00  0.00    -0.020 A 
ATOM     10  C   UNL A   1      32.631  21.932  26.750  1.00  0.00     0.149 C 
ATOM     11  N   UNL A   1      33.606  22.881  26.261  1.00  0.00    -0.350 N 
ATOM     12  C   UNL A   1      33.479  24.240  26.334  1.00  0.00     0.090 A 
ATOM     13  C   UNL A   1      34.755  22.543  25.581  1.00  0.00     0.048 A 
ATOM     14  C   UNL A   1      35.292  23.735  25.085  1.00  0.00     0.003 A 
ATOM     15  C   UNL A   1      35.342  21.291  25.328  1.00  0.00     0.027 A 
ATOM     16  C   UNL A   1      36.415  23.648  24.233  1.00  0.00     0.010 A 
ATOM     17  C   UNL A   1      36.501  21.251  24.548  1.00  0.00     0.002 A 
ATOM     18  C   UNL A   1      37.026  22.413  23.996  1.00  0.00     0.001 A 
ENDBRANCH   8   9
ENDBRANCH   7   8
BRANCH   7  19
ATOM     19  N   UNL A   1      32.641  27.289  26.479  1.00  0.00    -0.309 N 
ATOM     20  C   UNL A   1      31.375  26.947  26.823  1.00  0.00     0.407 C 
ATOM     21  H   UNL A   1      33.162  27.710  27.201  1.00  0.00     0.167 HD
ATOM     22  O   UNL A   1      30.735  27.672  27.582  1.00  0.00    -0.225 OA
BRANCH  20  23
ATOM     23  O   UNL A   1      30.930  25.782  26.299  1.00  0.00    -0.449 OA
BRANCH  23  24
ATOM     24  C   UNL A   1      29.571  25.805  25.799  1.00  0.00     0.248 C 
BRANCH  24  25
ATOM     25  C   UNL A   1      29.470  25.765  24.258  1.00  0.00     0.088 C 
ATOM     26  C   UNL A   1      29.614  27.143  23.619  1.00  0.00    -0.029 A 
ATOM     27  C   UNL A   1      30.590  24.993  23.572  1.00  0.00    -0.029 A 
ATOM     28  C   UNL A   1      28.767  28.235  23.730  1.00  0.00     0.005 A 
ATOM     29  C   UNL A   1      30.745  27.172  22.775  1.00  0.00    -0.014 A 
ATOM     30  C   UNL A   1      31.371  25.867  22.785  1.00  0.00    -0.014 A 
ATOM     31  C   UNL A   1      30.905  23.648  23.677  1.00  0.00     0.005 A 
ATOM     32  C   UNL A   1      29.069  29.379  22.990  1.00  0.00     0.000 A 
ATOM     33  C   UNL A   1      31.049  28.312  22.049  1.00  0.00     0.009 A 
ATOM     34  C   UNL A   1      32.526  25.413  22.172  1.00  0.00     0.009 A 
ATOM     35  C   UNL A   1      32.076  23.194  23.070  1.00  0.00     0.000 A 
ATOM     36  C   UNL A   1      30.201  29.419  22.161  1.00  0.00     0.001 A 
ATOM     37  C   UNL A   1      32.887  24.073  22.335  1.00  0.00     0.001 A 
ENDBRANCH  24  25
ENDBRANCH  23  24
ENDBRANCH  20  23
ENDBRANCH   7  19
ENDBRANCH   4   7
ENDBRANCH   2   3
ENDBRANCH   1   2
BRANCH   1  38
ATOM     38  C   UNL A   1      31.298  32.170  26.495  1.00  0.00     0.023 C 
BRANCH  38  39
ATOM     39  C   UNL A   1      32.561  32.597  27.237  1.00  0.00     0.116 C 
BRANCH  39  40
ATOM     40  N   UNL A   1      32.529  33.984  27.679  1.00  0.00    -0.352 N 
ATOM     41  C   UNL A   1      33.379  34.608  28.563  1.00  0.00     0.251 C 
ATOM     42  H   UNL A   1      31.813  34.543  27.298  1.00  0.00     0.163 HD
ATOM     43  O   UNL A   1      33.166  35.757  28.930  1.00  0.00    -0.269 OA
BRANCH  41  44
ATOM     44  C   UNL A   1      34.528  33.844  29.087  1.00  0.00     0.039 A 
ATOM     45  C   UNL A   1      35.817  34.200  28.687  1.00  0.00     0.014 A 
ATOM     46  C   UNL A   1      34.324  32.842  30.040  1.00  0.00     0.014 A 
ATOM     47  C   UNL A   1      36.915  33.599  29.306  1.00  0.00     0.010 A 
ATOM     48  C   UNL A   1      35.418  32.290  30.696  1.00  0.00     0.010 A 
ATOM     49  C   UNL A   1      36.723  32.670  30.343  1.00  0.00    -0.014 A 
BRANCH  49  50
ATOM     50  C   UNL A   1      37.873  32.094  31.083  1.00  0.00     0.031 A 
ATOM     51  C   UNL A   1      38.646  30.950  30.489  1.00  0.00     0.074 A 
ATOM     52  C   UNL A   1      38.163  32.542  32.320  1.00  0.00     0.049 A 
ATOM     53  N   UNL A   1      39.611  30.242  31.014  1.00  0.00    -0.248 NA
ATOM     54  C   UNL A   1      38.252  30.525  29.138  1.00  0.00     0.031 C 
ATOM     55  C   UNL A   1      37.448  33.612  33.021  1.00  0.00     0.029 A 
ATOM     56  N   UNL A   1      39.123  32.144  33.215  1.00  0.00    -0.354 N 
ATOM     57  C   UNL A   1      39.928  29.275  30.067  1.00  0.00     0.074 A 
ATOM     58  C   UNL A   1      39.012  29.456  28.961  1.00  0.00     0.031 C 
ATOM     59  C   UNL A   1      38.005  33.793  34.230  1.00  0.00     0.029 A 
ATOM     60  C   UNL A   1      39.088  32.832  34.406  1.00  0.00     0.049 A 
ATOM     61  H   UNL A   1      39.775  31.432  33.023  1.00  0.00     0.167 HD
ATOM     62  C   UNL A   1      40.909  28.337  30.107  1.00  0.00     0.034 A 
ATOM     63  C   UNL A   1      39.840  32.694  35.516  1.00  0.00     0.034 A 
ATOM     64  C   UNL A   1      41.828  28.186  31.208  1.00  0.00     0.049 A 
ATOM     65  C   UNL A   1      40.925  31.650  35.538  1.00  0.00     0.074 A 
ATOM     66  C   UNL A   1      42.901  27.320  31.324  1.00  0.00     0.029 A 
ATOM     67  N   UNL A   1      41.779  28.918  32.388  1.00  0.00    -0.354 N 
ATOM     68  N   UNL A   1      41.249  30.779  34.611  1.00  0.00    -0.248 NA
ATOM     69  C   UNL A   1      41.750  31.578  36.751  1.00  0.00     0.031 C 
ATOM     70  C   UNL A   1      43.468  27.492  32.593  1.00  0.00     0.029 A 
ATOM     71  C   UNL A   1      42.786  28.507  33.247  1.00  0.00     0.049 A 
ATOM     72  H   UNL A   1      41.123  29.626  32.587  1.00  0.00     0.167 HD
ATOM     73  C   UNL A   1      42.334  30.073  35.120  1.00  0.00     0.074 A 
ATOM     74  C   UNL A   1      42.613  30.624  36.431  1.00  0.00     0.031 C 
ATOM     75  C   UNL A   1      43.041  29.062  34.554  1.00  0.00     0.034 A 
BRANCH  62  76
ATOM     76  C   UNL A   1      41.010  27.397  28.933  1.00  0.00     0.023 A 
ATOM     77  C   UNL A   1      42.001  27.554  27.947  1.00  0.00     0.031 A 
ATOM     78  C   UNL A   1      40.081  26.354  28.772  1.00  0.00     0.131 A 
ATOM     79  C   UNL A   1      41.988  26.741  26.805  1.00  0.00     0.055 A 
ATOM     80  C   UNL A   1      40.123  25.495  27.672  1.00  0.00     0.041 A 
ATOM     81  F   UNL A   1      39.101  26.166  29.670  1.00  0.00    -0.206 F 
ATOM     82  C   UNL A   1      41.070  25.697  26.671  1.00  0.00     0.022 A 
BRANCH  79  83
ATOM     83  S   UNL A   1      43.093  27.166  25.430  1.00  0.00     0.124 S 
ATOM     84  O   UNL A   1      44.259  27.687  26.141  1.00  0.00    -0.237 OA
ATOM     85  O   UNL A   1      43.272  25.883  24.763  1.00  0.00    -0.237 OA
ATOM     86  O   UNL A   1      42.334  28.162  24.677  1.00  0.00    -0.744 OA
ENDBRANCH  79  83
ENDBRANCH  62  76
BRANCH  63  87
ATOM     87  C   UNL A   1      39.592  33.560  36.703  1.00  0.00     0.023 A 
ATOM     88  C   UNL A   1      38.955  33.051  37.845  1.00  0.00     0.031 A 
ATOM     89  C   UNL A   1      39.962  34.915  36.699  1.00  0.00     0.131 A 
ATOM     90  C   UNL A   1      38.668  33.903  38.923  1.00  0.00     0.055 A 
ATOM     91  C   UNL A   1      39.712  35.750  37.790  1.00  0.00     0.041 A 
ATOM     92  F   UNL A   1      40.583  35.447  35.634  1.00  0.00    -0.206 F 
ATOM     93  C   UNL A   1      39.052  35.247  38.907  1.00  0.00     0.022 A 
BRANCH  90  94
ATOM     94  S   UNL A   1      37.727  33.242  40.325  1.00  0.00     0.124 S 
ATOM     95  O   UNL A   1      38.482  32.038  40.650  1.00  0.00    -0.237 OA
ATOM     96  O   UNL A   1      37.814  34.334  41.289  1.00  0.00    -0.237 OA
ATOM     97  O   UNL A   1      36.397  33.013  39.764  1.00  0.00    -0.744 OA
ENDBRANCH  90  94
ENDBRANCH  63  87
BRANCH  75  98
ATOM     98  C   UNL A   1      44.209  28.525  35.339  1.00  0.00     0.023 A 
ATOM     99  C   UNL A   1      44.056  27.482  36.267  1.00  0.00     0.031 A 
ATOM    100  C   UNL A   1      45.492  29.071  35.153  1.00  0.00     0.131 A 
ATOM    101  C   UNL A   1      45.163  27.044  37.010  1.00  0.00     0.055 A 
ATOM    102  C   UNL A   1      46.597  28.600  35.862  1.00  0.00     0.041 A 
ATOM    103  F   UNL A   1      45.688  30.070  34.279  1.00  0.00    -0.206 F 
ATOM    104  C   UNL A   1      46.434  27.587  36.803  1.00  0.00     0.022 A 
BRANCH 101 105
ATOM    105  S   UNL A   1      44.908  25.795  38.299  1.00  0.00     0.124 S 
ATOM    106  O   UNL A   1      44.327  26.586  39.379  1.00  0.00    -0.237 OA
ATOM    107  O   UNL A   1      44.008  24.849  37.646  1.00  0.00    -0.237 OA
ATOM    108  O   UNL A   1      46.254  25.288  38.557  1.00  0.00    -0.744 OA
ENDBRANCH 101 105
ENDBRANCH  75  98
ENDBRANCH  49  50
ENDBRANCH  41  44
ENDBRANCH  39  40
ENDBRANCH  38  39
ENDBRANCH   1  38
TORSDOF 20
ENDMDL
MODEL 2
REMARK VINA RESULT:     -12.7      1.331      7.161
REMARK SMILES Cn1cc(C[C@@H](NC(=O)OCC2c3ccccc3-c3ccccc32)C(=O)NCCCCNC(=O)c2ccc(-c3c4nc(c(-c5cc(S(=O)(=O)[O-])ccc5F)c5ccc([nH]5)c(-c5cc(S(=O)(=O)[O-])ccc5F)c5nc(c(-c6cc(S(=O)(=O)[O-])ccc6F)c6ccc3[nH]6)C=C5)C=C4)cc2)c2ccccc21
REMARK SMILES IDX 29 1 28 2 27 3 25 4 26 5 6 7 5 8 4 9 1 10 2 11 3 12 103 13
REMARK SMILES IDX 98 14 102 15 99 16 101 17 100 18 7 19 8 20 9 22 10 23 11 24
REMARK SMILES IDX 12 25 13 26 24 27 14 28 18 29 19 30 23 31 15 32 17 33 20 34
REMARK SMILES IDX 22 35 16 36 21 37 30 38 31 39 32 40 33 41 34 43 35 44 36 45
REMARK SMILES IDX 97 46 37 47 96 48 38 49 39 50 40 51 90 52 41 53 95 54 89 55
REMARK SMILES IDX 91 56 42 57 94 58 88 59 87 60 43 62 75 63 55 64 74 65 56 66
REMARK SMILES IDX 59 67 73 68 92 69 57 70 58 71 72 73 93 74 60 75 44 76 45 77
REMARK SMILES IDX 53 78 46 79 52 80 54 81 51 82 47 83 48 84 49 85 50 86 76 87
REMARK SMILES IDX 77 88 85 89 78 90 84 91 86 92 83 93 79 94 80 95 81 96 82 97
REMARK SMILES IDX 61 98 62 99 70 100 63 101 69 102 71 103 68 104 64 105 65 106
REMARK SMILES IDX 66 107 67 108
REMARK H PARENT 27 6 7 21 32 42 91 61 59 72
REMARK Flexibility Score: inf
ROOT
ATOM      1  C   UNL A   1      31.420  30.774  25.970  1.00  0.00     0.023 C 
ENDROOT
BRANCH   1   2
ATOM      2  C   UNL A   1      32.708  30.010  26.249  1.00  0.00     0.116 C 
BRANCH   2   3
ATOM      3  N   UNL A   1      33.410  29.669  25.024  1.00  0.00    -0.354 N 
ATOM      4  C   UNL A   1      33.682  28.442  24.478  1.00  0.00     0.243 C 
ATOM      5  O   UNL A   1      34.309  28.411  23.415  1.00  0.00    -0.273 OA
ATOM      6  H   UNL A   1      33.742  30.438  24.505  1.00  0.00     0.163 HD
BRANCH   4   7
ATOM      7  C   UNL A   1      33.347  27.139  25.234  1.00  0.00     0.179 C 
BRANCH   7   8
ATOM      8  C   UNL A   1      34.650  26.304  25.358  1.00  0.00     0.073 C 
BRANCH   8   9
ATOM      9  C   UNL A   1      34.500  24.827  25.614  1.00  0.00    -0.020 A 
ATOM     10  C   UNL A   1      32.652  21.929  26.770  1.00  0.00     0.149 C 
ATOM     11  N   UNL A   1      33.617  22.883  26.271  1.00  0.00    -0.350 N 
ATOM     12  C   UNL A   1      33.485  24.242  26.349  1.00  0.00     0.090 A 
ATOM     13  C   UNL A   1      34.758  22.552  25.575  1.00  0.00     0.048 A 
ATOM     14  C   UNL A   1      35.284  23.748  25.075  1.00  0.00     0.003 A 
ATOM     15  C   UNL A   1      35.348  21.304  25.311  1.00  0.00     0.027 A 
ATOM     16  C   UNL A   1      36.396  23.668  24.208  1.00  0.00     0.010 A 
ATOM     17  C   UNL A   1      36.497  21.271  24.516  1.00  0.00     0.002 A 
ATOM     18  C   UNL A   1      37.009  22.437  23.961  1.00  0.00     0.001 A 
ENDBRANCH   8   9
ENDBRANCH   7   8
BRANCH   7  19
ATOM     19  N   UNL A   1      32.614  27.258  26.498  1.00  0.00    -0.309 N 
ATOM     20  C   UNL A   1      31.352  26.893  26.832  1.00  0.00     0.407 C 
ATOM     21  H   UNL A   1      33.126  27.673  27.229  1.00  0.00     0.167 HD
ATOM     22  O   UNL A   1      30.699  27.594  27.602  1.00  0.00    -0.225 OA
BRANCH  20  23
ATOM     23  O   UNL A   1      30.924  25.732  26.284  1.00  0.00    -0.449 OA
BRANCH  23  24
ATOM     24  C   UNL A   1      29.568  25.747  25.776  1.00  0.00     0.248 C 
BRANCH  24  25
ATOM     25  C   UNL A   1      29.478  25.719  24.233  1.00  0.00     0.088 C 
ATOM     26  C   UNL A   1      29.625  27.102  23.606  1.00  0.00    -0.029 A 
ATOM     27  C   UNL A   1      30.603  24.953  23.549  1.00  0.00    -0.029 A 
ATOM     28  C   UNL A   1      28.777  28.193  23.720  1.00  0.00     0.005 A 
ATOM     29  C   UNL A   1      30.762  27.139  22.771  1.00  0.00    -0.014 A 
ATOM     30  C   UNL A   1      31.389  25.834  22.775  1.00  0.00    -0.014 A 
ATOM     31  C   UNL A   1      30.918  23.607  23.646  1.00  0.00     0.005 A 
ATOM     32  C   UNL A   1      29.083  29.342  22.991  1.00  0.00     0.000 A 
ATOM     33  C   UNL A   1      31.070  28.285  22.056  1.00  0.00     0.009 A 
ATOM     34  C   UNL A   1      32.548  25.386  22.166  1.00  0.00     0.009 A 
ATOM     35  C   UNL A   1      32.093  23.159  23.043  1.00  0.00     0.000 A 
ATOM     36  C   UNL A   1      30.221  29.390  22.170  1.00  0.00     0.001 A 
ATOM     37  C   UNL A   1      32.910  24.044  22.321  1.00  0.00     0.001 A 
ENDBRANCH  24  25
ENDBRANCH  23  24
ENDBRANCH  20  23
ENDBRANCH   7  19
ENDBRANCH   4   7
ENDBRANCH   2   3
ENDBRANCH   1   2
BRANCH   1  38
ATOM     38  C   UNL A   1      31.390  32.183  26.561  1.00  0.00     0.023 C 
BRANCH  38  39
ATOM     39  C   UNL A   1      32.758  32.772  26.895  1.00  0.00     0.116 C 
BRANCH  39  40
ATOM     40  N   UNL A   1      32.682  34.008  27.662  1.00  0.00    -0.352 N 
ATOM     41  C   UNL A   1      33.478  34.398  28.714  1.00  0.00     0.251 C 
ATOM     42  H   UNL A   1      31.975  34.639  27.395  1.00  0.00     0.163 HD
ATOM     43  O   UNL A   1      33.228  35.419  29.342  1.00  0.00    -0.269 OA
BRANCH  41  44
ATOM     44  C   UNL A   1      34.614  33.534  29.091  1.00  0.00     0.039 A 
ATOM     45  C   UNL A   1      35.913  33.972  28.833  1.00  0.00     0.014 A 
ATOM     46  C   UNL A   1      34.384  32.339  29.779  1.00  0.00     0.014 A 
ATOM     47  C   UNL A   1      36.993  33.245  29.337  1.00  0.00     0.010 A 
ATOM     48  C   UNL A   1      35.458  31.651  30.331  1.00  0.00     0.010 A 
ATOM     49  C   UNL A   1      36.772  32.102  30.124  1.00  0.00    -0.014 A 
BRANCH  49  50
ATOM     50  C   UNL A   1      37.899  31.371  30.754  1.00  0.00     0.031 A 
ATOM     51  C   UNL A   1      38.309  31.699  32.162  1.00  0.00     0.074 A 
ATOM     52  C   UNL A   1      38.602  30.477  30.031  1.00  0.00     0.049 A 
ATOM     53  N   UNL A   1      39.323  31.252  32.855  1.00  0.00    -0.248 NA
ATOM     54  C   UNL A   1      37.485  32.692  32.869  1.00  0.00     0.031 C 
ATOM     55  C   UNL A   1      38.331  30.116  28.637  1.00  0.00     0.029 A 
ATOM     56  N   UNL A   1      39.700  29.723  30.360  1.00  0.00    -0.354 N 
ATOM     57  C   UNL A   1      39.273  31.922  34.072  1.00  0.00     0.074 A 
ATOM     58  C   UNL A   1      38.161  32.845  33.997  1.00  0.00     0.031 C 
ATOM     59  C   UNL A   1      39.228  29.200  28.238  1.00  0.00     0.029 A 
ATOM     60  C   UNL A   1      40.159  28.936  29.330  1.00  0.00     0.049 A 
ATOM     61  H   UNL A   1      40.119  29.745  31.251  1.00  0.00     0.167 HD
ATOM     62  C   UNL A   1      40.069  31.764  35.160  1.00  0.00     0.034 A 
ATOM     63  C   UNL A   1      41.218  28.104  29.272  1.00  0.00     0.034 A 
ATOM     64  C   UNL A   1      41.159  30.822  35.226  1.00  0.00     0.049 A 
ATOM     65  C   UNL A   1      42.085  27.941  30.493  1.00  0.00     0.074 A 
ATOM     66  C   UNL A   1      41.983  30.528  36.298  1.00  0.00     0.029 A 
ATOM     67  N   UNL A   1      41.580  30.022  34.171  1.00  0.00    -0.354 N 
ATOM     68  N   UNL A   1      41.993  28.541  31.656  1.00  0.00    -0.248 NA
ATOM     69  C   UNL A   1      43.194  26.983  30.394  1.00  0.00     0.031 C 
ATOM     70  C   UNL A   1      42.934  29.590  35.877  1.00  0.00     0.029 A 
ATOM     71  C   UNL A   1      42.667  29.254  34.558  1.00  0.00     0.049 A 
ATOM     72  H   UNL A   1      41.168  30.004  33.277  1.00  0.00     0.167 HD
ATOM     73  C   UNL A   1      43.015  28.012  32.437  1.00  0.00     0.074 A 
ATOM     74  C   UNL A   1      43.707  27.040  31.615  1.00  0.00     0.031 C 
ATOM     75  C   UNL A   1      43.350  28.299  33.721  1.00  0.00     0.034 A 
BRANCH  62  76
ATOM     76  C   UNL A   1      39.793  32.649  36.349  1.00  0.00     0.023 A 
ATOM     77  C   UNL A   1      38.947  32.236  37.394  1.00  0.00     0.031 A 
ATOM     78  C   UNL A   1      40.347  33.940  36.421  1.00  0.00     0.131 A 
ATOM     79  C   UNL A   1      38.611  33.132  38.419  1.00  0.00     0.055 A 
ATOM     80  C   UNL A   1      40.074  34.798  37.488  1.00  0.00     0.041 A 
ATOM     81  F   UNL A   1      41.146  34.396  35.445  1.00  0.00    -0.206 F 
ATOM     82  C   UNL A   1      39.187  34.403  38.487  1.00  0.00     0.022 A 
BRANCH  79  83
ATOM     83  S   UNL A   1      37.297  32.665  39.579  1.00  0.00     0.124 S 
ATOM     84  O   UNL A   1      37.726  31.328  39.985  1.00  0.00    -0.237 OA
ATOM     85  O   UNL A   1      37.392  33.703  40.597  1.00  0.00    -0.237 OA
ATOM     86  O   UNL A   1      36.088  32.702  38.759  1.00  0.00    -0.744 OA
ENDBRANCH  79  83
ENDBRANCH  62  76
BRANCH  63  87
ATOM     87  C   UNL A   1      41.525  27.366  28.016  1.00  0.00     0.023 A 
ATOM     88  C   UNL A   1      41.287  25.986  27.914  1.00  0.00     0.031 A 
ATOM     89  C   UNL A   1      42.091  28.023  26.910  1.00  0.00     0.131 A 
ATOM     90  C   UNL A   1      41.651  25.299  26.746  1.00  0.00     0.055 A 
ATOM     91  C   UNL A   1      42.413  27.343  25.735  1.00  0.00     0.041 A 
ATOM     92  F   UNL A   1      42.328  29.345  26.955  1.00  0.00    -0.206 F 
ATOM     93  C   UNL A   1      42.203  25.970  25.652  1.00  0.00     0.022 A 
BRANCH  90  94
ATOM     94  S   UNL A   1      41.449  23.497  26.701  1.00  0.00     0.124 S 
ATOM     95  O   UNL A   1      41.954  23.108  28.012  1.00  0.00    -0.237 OA
ATOM     96  O   UNL A   1      40.011  23.359  26.499  1.00  0.00    -0.237 OA
ATOM     97  O   UNL A   1      42.278  23.091  25.567  1.00  0.00    -0.744 OA
ENDBRANCH  90  94
ENDBRANCH  63  87
BRANCH  75  98
ATOM     98  C   UNL A   1      44.488  27.514  34.318  1.00  0.00     0.023 A 
ATOM     99  C   UNL A   1      44.280  26.272  34.941  1.00  0.00     0.031 A 
ATOM    100  C   UNL A   1      45.798  28.023  34.263  1.00  0.00     0.131 A 
ATOM    101  C   UNL A   1      45.363  25.598  35.526  1.00  0.00     0.055 A 
ATOM    102  C   UNL A   1      46.877  27.324  34.805  1.00  0.00     0.041 A 
ATOM    103  F   UNL A   1      46.047  29.205  33.679  1.00  0.00    -0.206 F 
ATOM    104  C   UNL A   1      46.661  26.109  35.449  1.00  0.00     0.022 A 
BRANCH 101 105
ATOM    105  S   UNL A   1      45.042  24.068  36.444  1.00  0.00     0.124 S 
ATOM    106  O   UNL A   1      46.360  23.441  36.461  1.00  0.00    -0.237 OA
ATOM    107  O   UNL A   1      44.557  24.567  37.727  1.00  0.00    -0.237 OA
ATOM    108  O   UNL A   1      44.040  23.381  35.630  1.00  0.00    -0.744 OA
ENDBRANCH 101 105
ENDBRANCH  75  98
ENDBRANCH  49  50
ENDBRANCH  41  44
ENDBRANCH  39  40
ENDBRANCH  38  39
ENDBRANCH   1  38
TORSDOF 20
ENDMDL
MODEL 3
REMARK VINA RESULT:     -12.5      5.231      9.907
REMARK SMILES Cn1cc(C[C@@H](NC(=O)OCC2c3ccccc3-c3ccccc32)C(=O)NCCCCNC(=O)c2ccc(-c3c4nc(c(-c5cc(S(=O)(=O)[O-])ccc5F)c5ccc([nH]5)c(-c5cc(S(=O)(=O)[O-])ccc5F)c5nc(c(-c6cc(S(=O)(=O)[O-])ccc6F)c6ccc3[nH]6)C=C5)C=C4)cc2)c2ccccc21
REMARK SMILES IDX 29 1 28 2 27 3 25 4 26 5 6 7 5 8 4 9 1 10 2 11 3 12 103 13
REMARK SMILES IDX 98 14 102 15 99 16 101 17 100 18 7 19 8 20 9 22 10 23 11 24
REMARK SMILES IDX 12 25 13 26 24 27 14 28 18 29 19 30 23 31 15 32 17 33 20 34
REMARK SMILES IDX 22 35 16 36 21 37 30 38 31 39 32 40 33 41 34 43 35 44 36 45
REMARK SMILES IDX 97 46 37 47 96 48 38 49 39 50 40 51 90 52 41 53 95 54 89 55
REMARK SMILES IDX 91 56 42 57 94 58 88 59 87 60 43 62 75 63 55 64 74 65 56 66
REMARK SMILES IDX 59 67 73 68 92 69 57 70 58 71 72 73 93 74 60 75 44 76 45 77
REMARK SMILES IDX 53 78 46 79 52 80 54 81 51 82 47 83 48 84 49 85 50 86 76 87
REMARK SMILES IDX 77 88 85 89 78 90 84 91 86 92 83 93 79 94 80 95 81 96 82 97
REMARK SMILES IDX 61 98 62 99 70 100 63 101 69 102 71 103 68 104 64 105 65 106
REMARK SMILES IDX 66 107 67 108
REMARK H PARENT 27 6 7 21 32 42 91 61 59 72
REMARK Flexibility Score: inf
ROOT
ATOM      1  C   UNL A   1      35.249  22.880  26.803  1.00  0.00     0.023 C 
ENDROOT
BRANCH   1   2
ATOM      2  C   UNL A   1      34.007  23.677  26.423  1.00  0.00     0.116 C 
BRANCH   2   3
ATOM      3  N   UNL A   1      33.915  23.883  24.988  1.00  0.00    -0.354 N 
ATOM      4  C   UNL A   1      32.894  23.596  24.122  1.00  0.00     0.243 C 
ATOM      5  O   UNL A   1      33.059  23.864  22.928  1.00  0.00    -0.273 OA
ATOM      6  H   UNL A   1      34.710  24.292  24.573  1.00  0.00     0.163 HD
BRANCH   4   7
ATOM      7  C   UNL A   1      31.637  22.835  24.592  1.00  0.00     0.179 C 
BRANCH   7   8
ATOM      8  C   UNL A   1      32.094  21.491  25.222  1.00  0.00     0.073 C 
BRANCH   8   9
ATOM      9  C   UNL A   1      32.199  20.301  24.306  1.00  0.00    -0.020 A 
ATOM     10  C   UNL A   1      32.363  18.765  21.025  1.00  0.00     0.149 C 
ATOM     11  N   UNL A   1      32.289  19.087  22.433  1.00  0.00    -0.350 N 
ATOM     12  C   UNL A   1      32.004  20.326  22.937  1.00  0.00     0.090 A 
ATOM     13  C   UNL A   1      32.581  18.210  23.454  1.00  0.00     0.048 A 
ATOM     14  C   UNL A   1      32.618  18.964  24.631  1.00  0.00     0.003 A 
ATOM     15  C   UNL A   1      32.851  16.831  23.435  1.00  0.00     0.027 A 
ATOM     16  C   UNL A   1      33.028  18.315  25.817  1.00  0.00     0.010 A 
ATOM     17  C   UNL A   1      33.172  16.205  24.642  1.00  0.00     0.002 A 
ATOM     18  C   UNL A   1      33.272  16.938  25.818  1.00  0.00     0.001 A 
ENDBRANCH   8   9
ENDBRANCH   7   8
BRANCH   7  19
ATOM     19  N   UNL A   1      30.674  23.564  25.422  1.00  0.00    -0.309 N 
ATOM     20  C   UNL A   1      30.253  24.852  25.371  1.00  0.00     0.407 C 
ATOM     21  H   UNL A   1      30.261  23.028  26.137  1.00  0.00     0.167 HD
ATOM     22  O   UNL A   1      30.016  25.456  26.415  1.00  0.00    -0.225 OA
BRANCH  20  23
ATOM     23  O   UNL A   1      30.103  25.362  24.126  1.00  0.00    -0.449 OA
BRANCH  23  24
ATOM     24  C   UNL A   1      29.378  26.613  24.050  1.00  0.00     0.248 C 
BRANCH  24  25
ATOM     25  C   UNL A   1      30.195  27.773  23.438  1.00  0.00     0.088 C 
ATOM     26  C   UNL A   1      29.368  29.039  23.238  1.00  0.00    -0.029 A 
ATOM     27  C   UNL A   1      31.325  28.285  24.322  1.00  0.00    -0.029 A 
ATOM     28  C   UNL A   1      28.290  29.237  22.387  1.00  0.00     0.005 A 
ATOM     29  C   UNL A   1      29.898  30.094  24.010  1.00  0.00    -0.014 A 
ATOM     30  C   UNL A   1      31.071  29.617  24.713  1.00  0.00    -0.014 A 
ATOM     31  C   UNL A   1      32.449  27.608  24.768  1.00  0.00     0.005 A 
ATOM     32  C   UNL A   1      27.731  30.514  22.321  1.00  0.00     0.000 A 
ATOM     33  C   UNL A   1      29.335  31.358  23.952  1.00  0.00     0.009 A 
ATOM     34  C   UNL A   1      31.896  30.248  25.627  1.00  0.00     0.009 A 
ATOM     35  C   UNL A   1      33.273  28.239  25.700  1.00  0.00     0.000 A 
ATOM     36  C   UNL A   1      28.245  31.564  23.099  1.00  0.00     0.001 A 
ATOM     37  C   UNL A   1      32.991  29.543  26.137  1.00  0.00     0.001 A 
ENDBRANCH  24  25
ENDBRANCH  23  24
ENDBRANCH  20  23
ENDBRANCH   7  19
ENDBRANCH   4   7
ENDBRANCH   2   3
ENDBRANCH   1   2
BRANCH   1  38
ATOM     38  C   UNL A   1      35.702  21.884  25.736  1.00  0.00     0.023 C 
BRANCH  38  39
ATOM     39  C   UNL A   1      37.110  22.112  25.196  1.00  0.00     0.116 C 
BRANCH  39  40
ATOM     40  N   UNL A   1      38.008  20.990  25.432  1.00  0.00    -0.352 N 
ATOM     41  C   UNL A   1      39.235  21.009  26.053  1.00  0.00     0.251 C 
ATOM     42  H   UNL A   1      37.698  20.113  25.109  1.00  0.00     0.163 HD
ATOM     43  O   UNL A   1      39.936  20.004  26.084  1.00  0.00    -0.269 OA
BRANCH  41  44
ATOM     44  C   UNL A   1      39.703  22.278  26.643  1.00  0.00     0.039 A 
ATOM     45  C   UNL A   1      40.702  22.245  27.617  1.00  0.00     0.014 A 
ATOM     46  C   UNL A   1      39.213  23.495  26.161  1.00  0.00     0.014 A 
ATOM     47  C   UNL A   1      41.270  23.442  28.056  1.00  0.00     0.010 A 
ATOM     48  C   UNL A   1      39.822  24.681  26.555  1.00  0.00     0.010 A 
ATOM     49  C   UNL A   1      40.862  24.666  27.498  1.00  0.00    -0.014 A 
BRANCH  49  50
ATOM     50  C   UNL A   1      41.520  25.941  27.874  1.00  0.00     0.031 A 
ATOM     51  C   UNL A   1      40.741  26.995  28.610  1.00  0.00     0.074 A 
ATOM     52  C   UNL A   1      42.785  26.182  27.479  1.00  0.00     0.049 A 
ATOM     53  N   UNL A   1      41.096  28.209  28.938  1.00  0.00    -0.248 NA
ATOM     54  C   UNL A   1      39.365  26.644  28.993  1.00  0.00     0.031 C 
ATOM     55  C   UNL A   1      43.623  25.256  26.713  1.00  0.00     0.029 A 
ATOM     56  N   UNL A   1      43.583  27.285  27.650  1.00  0.00    -0.354 N 
ATOM     57  C   UNL A   1      39.983  28.776  29.549  1.00  0.00     0.074 A 
ATOM     58  C   UNL A   1      38.926  27.789  29.492  1.00  0.00     0.031 C 
ATOM     59  C   UNL A   1      44.820  25.824  26.495  1.00  0.00     0.029 A 
ATOM     60  C   UNL A   1      44.824  27.165  27.070  1.00  0.00     0.049 A 
ATOM     61  H   UNL A   1      43.293  28.087  28.142  1.00  0.00     0.167 HD
ATOM     62  C   UNL A   1      39.862  29.999  30.125  1.00  0.00     0.034 A 
ATOM     63  C   UNL A   1      45.845  28.043  27.001  1.00  0.00     0.034 A 
ATOM     64  C   UNL A   1      40.933  30.962  30.192  1.00  0.00     0.049 A 
ATOM     65  C   UNL A   1      45.691  29.393  27.650  1.00  0.00     0.074 A 
ATOM     66  C   UNL A   1      40.943  32.199  30.811  1.00  0.00     0.029 A 
ATOM     67  N   UNL A   1      42.186  30.797  29.615  1.00  0.00    -0.354 N 
ATOM     68  N   UNL A   1      44.649  29.894  28.273  1.00  0.00    -0.248 NA
ATOM     69  C   UNL A   1      46.851  30.292  27.594  1.00  0.00     0.031 C 
ATOM     70  C   UNL A   1      42.183  32.803  30.565  1.00  0.00     0.029 A 
ATOM     71  C   UNL A   1      42.968  31.918  29.842  1.00  0.00     0.049 A 
ATOM     72  H   UNL A   1      42.476  29.999  29.116  1.00  0.00     0.167 HD
ATOM     73  C   UNL A   1      45.041  31.157  28.706  1.00  0.00     0.074 A 
ATOM     74  C   UNL A   1      46.413  31.337  28.280  1.00  0.00     0.031 C 
ATOM     75  C   UNL A   1      44.331  32.083  29.400  1.00  0.00     0.034 A 
BRANCH  62  76
ATOM     76  C   UNL A   1      38.515  30.359  30.700  1.00  0.00     0.023 A 
ATOM     77  C   UNL A   1      37.538  31.017  29.931  1.00  0.00     0.031 A 
ATOM     78  C   UNL A   1      38.217  30.082  32.046  1.00  0.00     0.131 A 
ATOM     79  C   UNL A   1      36.348  31.450  30.532  1.00  0.00     0.055 A 
ATOM     80  C   UNL A   1      36.995  30.443  32.617  1.00  0.00     0.041 A 
ATOM     81  F   UNL A   1      39.116  29.473  32.834  1.00  0.00    -0.206 F 
ATOM     82  C   UNL A   1      36.059  31.147  31.864  1.00  0.00     0.022 A 
BRANCH  79  83
ATOM     83  S   UNL A   1      35.252  32.544  29.587  1.00  0.00     0.124 S 
ATOM     84  O   UNL A   1      34.674  31.615  28.618  1.00  0.00    -0.237 OA
ATOM     85  O   UNL A   1      34.344  33.042  30.613  1.00  0.00    -0.237 OA
ATOM     86  O   UNL A   1      36.163  33.537  29.023  1.00  0.00    -0.744 OA
ENDBRANCH  79  83
ENDBRANCH  62  76
BRANCH  63  87
ATOM     87  C   UNL A   1      47.101  27.680  26.288  1.00  0.00     0.023 A 
ATOM     88  C   UNL A   1      47.229  27.882  24.905  1.00  0.00     0.031 A 
ATOM     89  C   UNL A   1      48.180  27.097  26.975  1.00  0.00     0.131 A 
ATOM     90  C   UNL A   1      48.395  27.467  24.244  1.00  0.00     0.055 A 
ATOM     91  C   UNL A   1      49.354  26.723  26.319  1.00  0.00     0.041 A 
ATOM     92  F   UNL A   1      48.110  26.892  28.300  1.00  0.00    -0.206 F 
ATOM     93  C   UNL A   1      49.462  26.898  24.942  1.00  0.00     0.022 A 
BRANCH  90  94
ATOM     94  S   UNL A   1      48.470  27.624  22.438  1.00  0.00     0.124 S 
ATOM     95  O   UNL A   1      48.499  26.228  22.018  1.00  0.00    -0.237 OA
ATOM     96  O   UNL A   1      47.244  28.358  22.147  1.00  0.00    -0.237 OA
ATOM     97  O   UNL A   1      49.708  28.370  22.214  1.00  0.00    -0.744 OA
ENDBRANCH  90  94
ENDBRANCH  63  87
BRANCH  75  98
ATOM     98  C   UNL A   1      45.051  33.352  29.773  1.00  0.00     0.023 A 
ATOM     99  C   UNL A   1      45.019  34.488  28.946  1.00  0.00     0.031 A 
ATOM    100  C   UNL A   1      45.781  33.420  30.973  1.00  0.00     0.131 A 
ATOM    101  C   UNL A   1      45.742  35.634  29.310  1.00  0.00     0.055 A 
ATOM    102  C   UNL A   1      46.459  34.579  31.352  1.00  0.00     0.041 A 
ATOM    103  F   UNL A   1      45.842  32.362  31.795  1.00  0.00    -0.206 F 
ATOM    104  C   UNL A   1      46.450  35.691  30.513  1.00  0.00     0.022 A 
BRANCH 101 105
ATOM    105  S   UNL A   1      45.796  37.032  28.157  1.00  0.00     0.124 S 
ATOM    106  O   UNL A   1      47.225  37.147  27.885  1.00  0.00    -0.237 OA
ATOM    107  O   UNL A   1      44.972  36.559  27.050  1.00  0.00    -0.237 OA
ATOM    108  O   UNL A   1      45.222  38.134  28.927  1.00  0.00    -0.744 OA
ENDBRANCH 101 105
ENDBRANCH  75  98
ENDBRANCH  49  50
ENDBRANCH  41  44
ENDBRANCH  39  40
ENDBRANCH  38  39
ENDBRANCH   1  38
TORSDOF 20
ENDMDL
