MODEL 1
REMARK VINA RESULT:     -12.8      0.000      0.000
REMARK SMILES CO[C@@H]1C[NH2+][C@@H](O[C@@H]2C[C@@H](C(=O)NCCCCNC(=O)c3ccc(-c4c5nc(c(-c6cc(S(=O)(=O)[O-])ccc6F)c6ccc([nH]6)c(-c6cc(S(=O)(=O)[O-])ccc6F)c6nc(c(-c7cc(S(=O)(=O)[O-])ccc7F)c7ccc4[nH]7)C=C6)C=C5)cc3)N(C(=O)OC(C)(C)C)C2)c2cc(Cl)ccc21
REMARK SMILES IDX 15 1 14 2 13 3 11 4 12 5 10 7 8 8 9 9 92 10 84 11 7 12 6 13
REMARK SMILES IDX 3 14 4 15 99 16 5 17 93 18 98 19 94 22 97 23 95 24 96 25
REMARK SMILES IDX 2 26 1 27 85 28 86 29 87 30 88 31 89 32 90 33 91 34 16 35
REMARK SMILES IDX 17 36 18 37 19 38 20 40 21 41 22 42 83 43 23 44 82 45 24 46
REMARK SMILES IDX 25 47 26 48 76 49 27 50 81 51 75 52 77 53 28 54 80 55 74 56
REMARK SMILES IDX 73 57 29 59 61 60 41 61 60 62 42 63 45 64 59 65 78 66 43 67
REMARK SMILES IDX 44 68 58 70 79 71 46 72 30 73 31 74 39 75 32 76 38 77 40 78
REMARK SMILES IDX 37 79 33 80 34 81 35 82 36 83 62 84 63 85 71 86 64 87 70 88
REMARK SMILES IDX 72 89 69 90 65 91 66 92 67 93 68 94 47 95 48 96 56 97 49 98
REMARK SMILES IDX 55 99 57 100 54 101 50 102 51 103 52 104 53 105
REMARK H PARENT 13 6 5 20 5 21 18 39 77 58 45 69
REMARK Flexibility Score: inf
ROOT
ATOM      1  C   UNL A   1      32.651  29.366  27.147  1.00  0.00     0.023 C 
ENDROOT
BRANCH   1   2
ATOM      2  C   UNL A   1      32.215  28.368  26.075  1.00  0.00     0.116 C 
BRANCH   2   3
ATOM      3  N   UNL A   1      31.351  27.285  26.531  1.00  0.00    -0.354 N 
ATOM      4  C   UNL A   1      31.146  26.050  25.931  1.00  0.00     0.243 C 
ATOM      5  O   UNL A   1      30.521  25.179  26.538  1.00  0.00    -0.273 OA
ATOM      6  H   UNL A   1      30.852  27.450  27.364  1.00  0.00     0.163 HD
BRANCH   4   7
ATOM      7  C   UNL A   1      31.608  25.864  24.473  1.00  0.00     0.180 C 
ATOM      8  C   UNL A   1      33.119  25.869  22.601  1.00  0.00     0.147 C 
ATOM      9  C   UNL A   1      33.056  26.190  24.114  1.00  0.00     0.069 C 
ATOM     10  C   UNL A   1      31.680  26.105  22.102  1.00  0.00     0.156 C 
ATOM     11  N   UNL A   1      30.885  26.343  23.300  1.00  0.00    -0.293 N 
BRANCH   8  12
ATOM     12  O   UNL A   1      33.733  24.692  22.081  1.00  0.00    -0.320 OA
BRANCH  12  13
ATOM     13  C   UNL A   1      33.671  23.355  22.563  1.00  0.00     0.354 C 
ATOM     14  C   UNL A   1      31.912  22.284  24.694  1.00  0.00     0.203 C 
ATOM     15  C   UNL A   1      31.433  22.659  23.252  1.00  0.00     0.300 C 
ATOM     16  C   UNL A   1      33.326  22.750  25.002  1.00  0.00    -0.002 A 
ATOM     17  N   UNL A   1      32.453  22.648  22.217  1.00  0.00    -0.315 N 
ATOM     18  C   UNL A   1      34.184  23.146  23.963  1.00  0.00     0.046 A 
ATOM     19  C   UNL A   1      33.802  22.784  26.325  1.00  0.00     0.009 A 
ATOM     20  H   UNL A   1      32.061  23.079  21.380  1.00  0.00     0.349 HD
ATOM     21  H   UNL A   1      32.714  21.671  22.078  1.00  0.00     0.349 HD
ATOM     22  C   UNL A   1      35.539  23.411  24.238  1.00  0.00     0.033 A 
ATOM     23  C   UNL A   1      35.134  23.122  26.597  1.00  0.00     0.021 A 
ATOM     24  C   UNL A   1      36.006  23.392  25.548  1.00  0.00     0.041 A 
ATOM     25  Cl  UNL A   1      37.663  23.734  25.863  1.00  0.00    -0.084 Cl
BRANCH  14  26
ATOM     26  O   UNL A   1      31.858  20.878  24.962  1.00  0.00    -0.371 OA
ATOM     27  C   UNL A   1      32.544  20.087  24.001  1.00  0.00     0.196 C 
ENDBRANCH  14  26
ENDBRANCH  12  13
ENDBRANCH   8  12
BRANCH  11  28
ATOM     28  C   UNL A   1      29.743  27.104  23.234  1.00  0.00     0.411 C 
ATOM     29  O   UNL A   1      28.758  26.866  23.923  1.00  0.00    -0.224 OA
BRANCH  28  30
ATOM     30  O   UNL A   1      29.849  28.143  22.378  1.00  0.00    -0.444 OA
BRANCH  30  31
ATOM     31  C   UNL A   1      29.262  29.440  22.676  1.00  0.00     0.106 C 
ATOM     32  C   UNL A   1      27.746  29.363  22.848  1.00  0.00     0.056 C 
ATOM     33  C   UNL A   1      29.907  30.068  23.924  1.00  0.00     0.056 C 
ATOM     34  C   UNL A   1      29.533  30.290  21.419  1.00  0.00     0.056 C 
ENDBRANCH  30  31
ENDBRANCH  28  30
ENDBRANCH  11  28
ENDBRANCH   4   7
ENDBRANCH   2   3
ENDBRANCH   1   2
BRANCH   1  35
ATOM     35  C   UNL A   1      32.405  30.845  26.835  1.00  0.00     0.023 C 
BRANCH  35  36
ATOM     36  C   UNL A   1      33.349  31.861  27.476  1.00  0.00     0.116 C 
BRANCH  36  37
ATOM     37  N   UNL A   1      32.831  33.204  27.658  1.00  0.00    -0.352 N 
ATOM     38  C   UNL A   1      33.317  34.162  28.534  1.00  0.00     0.251 C 
ATOM     39  H   UNL A   1      32.058  33.461  27.103  1.00  0.00     0.163 HD
ATOM     40  O   UNL A   1      32.790  35.267  28.603  1.00  0.00    -0.269 OA
BRANCH  38  41
ATOM     41  C   UNL A   1      34.451  33.808  29.423  1.00  0.00     0.039 A 
ATOM     42  C   UNL A   1      35.752  34.188  29.092  1.00  0.00     0.014 A 
ATOM     43  C   UNL A   1      34.228  33.009  30.545  1.00  0.00     0.014 A 
ATOM     44  C   UNL A   1      36.839  33.641  29.767  1.00  0.00     0.010 A 
ATOM     45  C   UNL A   1      35.320  32.508  31.266  1.00  0.00     0.010 A 
ATOM     46  C   UNL A   1      36.636  32.771  30.844  1.00  0.00    -0.014 A 
BRANCH  46  47
ATOM     47  C   UNL A   1      37.803  32.091  31.466  1.00  0.00     0.031 A 
ATOM     48  C   UNL A   1      38.257  32.487  32.848  1.00  0.00     0.074 A 
ATOM     49  C   UNL A   1      38.415  31.076  30.825  1.00  0.00     0.049 A 
ATOM     50  N   UNL A   1      39.261  32.029  33.549  1.00  0.00    -0.248 NA
ATOM     51  C   UNL A   1      37.479  33.533  33.532  1.00  0.00     0.031 C 
ATOM     52  C   UNL A   1      38.032  30.570  29.507  1.00  0.00     0.029 A 
ATOM     53  N   UNL A   1      39.474  30.280  31.193  1.00  0.00    -0.354 N 
ATOM     54  C   UNL A   1      39.252  32.744  34.742  1.00  0.00     0.074 A 
ATOM     55  C   UNL A   1      38.161  33.689  34.659  1.00  0.00     0.031 C 
ATOM     56  C   UNL A   1      38.823  29.535  29.189  1.00  0.00     0.029 A 
ATOM     57  C   UNL A   1      39.819  29.348  30.241  1.00  0.00     0.049 A 
ATOM     58  H   UNL A   1      39.940  30.370  32.054  1.00  0.00     0.167 HD
ATOM     59  C   UNL A   1      40.071  32.612  35.813  1.00  0.00     0.034 A 
ATOM     60  C   UNL A   1      40.836  28.460  30.204  1.00  0.00     0.034 A 
ATOM     61  C   UNL A   1      41.138  31.647  35.889  1.00  0.00     0.049 A 
ATOM     62  C   UNL A   1      41.771  28.374  31.384  1.00  0.00     0.074 A 
ATOM     63  C   UNL A   1      42.009  31.424  36.942  1.00  0.00     0.029 A 
ATOM     64  N   UNL A   1      41.482  30.746  34.891  1.00  0.00    -0.354 N 
ATOM     65  N   UNL A   1      41.732  29.037  32.517  1.00  0.00    -0.248 NA
ATOM     66  C   UNL A   1      42.887  27.421  31.291  1.00  0.00     0.031 C 
ATOM     67  C   UNL A   1      42.925  30.450  36.550  1.00  0.00     0.029 A 
ATOM     68  C   UNL A   1      42.572  29.991  35.291  1.00  0.00     0.049 A 
ATOM     69  H   UNL A   1      41.018  30.657  34.027  1.00  0.00     0.167 HD
ATOM     70  C   UNL A   1      42.798  28.564  33.277  1.00  0.00     0.074 A 
ATOM     71  C   UNL A   1      43.447  27.540  32.488  1.00  0.00     0.031 C 
ATOM     72  C   UNL A   1      43.203  28.951  34.513  1.00  0.00     0.034 A 
BRANCH  59  73
ATOM     73  C   UNL A   1      39.870  33.519  37.003  1.00  0.00     0.023 A 
ATOM     74  C   UNL A   1      39.305  33.002  38.185  1.00  0.00     0.031 A 
ATOM     75  C   UNL A   1      40.088  34.906  36.923  1.00  0.00     0.131 A 
ATOM     76  C   UNL A   1      38.931  33.871  39.218  1.00  0.00     0.055 A 
ATOM     77  C   UNL A   1      39.760  35.762  37.976  1.00  0.00     0.041 A 
ATOM     78  F   UNL A   1      40.626  35.449  35.819  1.00  0.00    -0.206 F 
ATOM     79  C   UNL A   1      39.164  35.247  39.123  1.00  0.00     0.022 A 
BRANCH  76  80
ATOM     80  S   UNL A   1      38.056  33.261  40.684  1.00  0.00     0.124 S 
ATOM     81  O   UNL A   1      38.604  31.914  40.820  1.00  0.00    -0.237 OA
ATOM     82  O   UNL A   1      38.479  34.212  41.708  1.00  0.00    -0.237 OA
ATOM     83  O   UNL A   1      36.649  33.324  40.305  1.00  0.00    -0.744 OA
ENDBRANCH  76  80
ENDBRANCH  59  73
BRANCH  60  84
ATOM     84  C   UNL A   1      40.987  27.575  29.009  1.00  0.00     0.023 A 
ATOM     85  C   UNL A   1      41.983  27.829  28.047  1.00  0.00     0.031 A 
ATOM     86  C   UNL A   1      40.081  26.533  28.758  1.00  0.00     0.131 A 
ATOM     87  C   UNL A   1      41.996  27.107  26.847  1.00  0.00     0.055 A 
ATOM     88  C   UNL A   1      40.150  25.759  27.596  1.00  0.00     0.041 A 
ATOM     89  F   UNL A   1      39.107  26.256  29.638  1.00  0.00    -0.206 F 
ATOM     90  C   UNL A   1      41.098  26.060  26.623  1.00  0.00     0.022 A 
BRANCH  87  91
ATOM     91  S   UNL A   1      43.079  27.604  25.478  1.00  0.00     0.124 S 
ATOM     92  O   UNL A   1      44.102  28.385  26.166  1.00  0.00    -0.237 OA
ATOM     93  O   UNL A   1      43.515  26.310  24.960  1.00  0.00    -0.237 OA
ATOM     94  O   UNL A   1      42.195  28.358  24.595  1.00  0.00    -0.744 OA
ENDBRANCH  87  91
ENDBRANCH  60  84
BRANCH  72  95
ATOM     95  C   UNL A   1      44.399  28.271  35.139  1.00  0.00     0.023 A 
ATOM     96  C   UNL A   1      44.208  27.313  36.154  1.00  0.00     0.031 A 
ATOM     97  C   UNL A   1      45.712  28.693  34.864  1.00  0.00     0.131 A 
ATOM     98  C   UNL A   1      45.302  26.855  36.898  1.00  0.00     0.055 A 
ATOM     99  C   UNL A   1      46.806  28.187  35.568  1.00  0.00     0.041 A 
ATOM    100  F   UNL A   1      45.949  29.613  33.916  1.00  0.00    -0.206 F 
ATOM    101  C   UNL A   1      46.602  27.278  36.603  1.00  0.00     0.022 A 
BRANCH  98 102
ATOM    102  S   UNL A   1      45.068  25.783  38.344  1.00  0.00     0.124 S 
ATOM    103  O   UNL A   1      44.801  24.489  37.720  1.00  0.00    -0.237 OA
ATOM    104  O   UNL A   1      46.358  25.895  39.021  1.00  0.00    -0.237 OA
ATOM    105  O   UNL A   1      43.936  26.379  39.046  1.00  0.00    -0.744 OA
ENDBRANCH  98 102
ENDBRANCH  72  95
ENDBRANCH  46  47
ENDBRANCH  38  41
ENDBRANCH  36  37
ENDBRANCH  35  36
ENDBRANCH   1  35
TORSDOF 20
ENDMDL
MODEL 2
REMARK VINA RESULT:     -12.7      5.478     11.087
REMARK SMILES CO[C@@H]1C[NH2+][C@@H](O[C@@H]2C[C@@H](C(=O)NCCCCNC(=O)c3ccc(-c4c5nc(c(-c6cc(S(=O)(=O)[O-])ccc6F)c6ccc([nH]6)c(-c6cc(S(=O)(=O)[O-])ccc6F)c6nc(c(-c7cc(S(=O)(=O)[O-])ccc7F)c7ccc4[nH]7)C=C6)C=C5)cc3)N(C(=O)OC(C)(C)C)C2)c2cc(Cl)ccc21
REMARK SMILES IDX 15 1 14 2 13 3 11 4 12 5 10 7 8 8 9 9 92 10 84 11 7 12 6 13
REMARK SMILES IDX 3 14 4 15 99 16 5 17 93 18 98 19 94 22 97 23 95 24 96 25
REMARK SMILES IDX 2 26 1 27 85 28 86 29 87 30 88 31 89 32 90 33 91 34 16 35
REMARK SMILES IDX 17 36 18 37 19 38 20 40 21 41 22 42 83 43 23 44 82 45 24 46
REMARK SMILES IDX 25 47 26 48 76 49 27 50 81 51 75 52 77 53 28 54 80 55 74 56
REMARK SMILES IDX 73 57 29 59 61 60 41 61 60 62 42 63 45 64 59 65 78 66 43 67
REMARK SMILES IDX 44 68 58 70 79 71 46 72 30 73 31 74 39 75 32 76 38 77 40 78
REMARK SMILES IDX 37 79 33 80 34 81 35 82 36 83 62 84 63 85 71 86 64 87 70 88
REMARK SMILES IDX 72 89 69 90 65 91 66 92 67 93 68 94 47 95 48 96 56 97 49 98
REMARK SMILES IDX 55 99 57 100 54 101 50 102 51 103 52 104 53 105
REMARK H PARENT 13 6 5 20 5 21 18 39 77 58 45 69
REMARK Flexibility Score: inf
ROOT
ATOM      1  C   UNL A   1      37.200  22.333  25.434  1.00  0.00     0.023 C 
ENDROOT
BRANCH   1   2
ATOM      2  C   UNL A   1      35.732  22.223  25.025  1.00  0.00     0.116 C 
BRANCH   2   3
ATOM      3  N   UNL A   1      35.374  22.862  23.764  1.00  0.00    -0.354 N 
ATOM      4  C   UNL A   1      34.234  23.601  23.478  1.00  0.00     0.243 C 
ATOM      5  O   UNL A   1      34.167  24.222  22.418  1.00  0.00    -0.273 OA
ATOM      6  H   UNL A   1      36.018  22.755  23.027  1.00  0.00     0.163 HD
BRANCH   4   7
ATOM      7  C   UNL A   1      33.045  23.511  24.454  1.00  0.00     0.180 C 
ATOM      8  C   UNL A   1      31.864  23.682  26.543  1.00  0.00     0.147 C 
ATOM      9  C   UNL A   1      33.265  23.891  25.917  1.00  0.00     0.069 C 
ATOM     10  C   UNL A   1      31.220  22.583  25.675  1.00  0.00     0.156 C 
ATOM     11  N   UNL A   1      32.139  22.373  24.564  1.00  0.00    -0.293 N 
BRANCH   8  12
ATOM     12  O   UNL A   1      30.988  24.759  26.867  1.00  0.00    -0.320 OA
BRANCH  12  13
ATOM     13  C   UNL A   1      30.591  25.868  26.070  1.00  0.00     0.354 C 
ATOM     14  C   UNL A   1      31.175  26.333  23.202  1.00  0.00     0.203 C 
ATOM     15  C   UNL A   1      30.136  25.294  23.740  1.00  0.00     0.300 C 
ATOM     16  C   UNL A   1      32.058  26.923  24.290  1.00  0.00    -0.002 A 
ATOM     17  N   UNL A   1      29.595  25.557  25.063  1.00  0.00    -0.315 N 
ATOM     18  C   UNL A   1      31.701  26.790  25.642  1.00  0.00     0.046 A 
ATOM     19  C   UNL A   1      33.236  27.620  23.965  1.00  0.00     0.009 A 
ATOM     20  H   UNL A   1      29.081  24.730  25.367  1.00  0.00     0.349 HD
ATOM     21  H   UNL A   1      29.004  26.384  24.975  1.00  0.00     0.349 HD
ATOM     22  C   UNL A   1      32.429  27.484  26.628  1.00  0.00     0.033 A 
ATOM     23  C   UNL A   1      33.995  28.245  24.962  1.00  0.00     0.021 A 
ATOM     24  C   UNL A   1      33.563  28.210  26.283  1.00  0.00     0.041 A 
ATOM     25  Cl  UNL A   1      34.446  29.037  27.506  1.00  0.00    -0.084 Cl
BRANCH  14  26
ATOM     26  O   UNL A   1      30.574  27.426  22.499  1.00  0.00    -0.371 OA
ATOM     27  C   UNL A   1      29.400  27.929  23.123  1.00  0.00     0.196 C 
ENDBRANCH  14  26
ENDBRANCH  12  13
ENDBRANCH   8  12
BRANCH  11  28
ATOM     28  C   UNL A   1      32.191  21.156  23.927  1.00  0.00     0.411 C 
ATOM     29  O   UNL A   1      32.382  21.057  22.721  1.00  0.00    -0.224 OA
BRANCH  28  30
ATOM     30  O   UNL A   1      32.056  20.111  24.773  1.00  0.00    -0.444 OA
BRANCH  30  31
ATOM     31  C   UNL A   1      32.899  18.931  24.667  1.00  0.00     0.106 C 
ATOM     32  C   UNL A   1      34.383  19.285  24.588  1.00  0.00     0.056 C 
ATOM     33  C   UNL A   1      32.646  17.961  25.834  1.00  0.00     0.056 C 
ATOM     34  C   UNL A   1      32.513  18.294  23.317  1.00  0.00     0.056 C 
ENDBRANCH  30  31
ENDBRANCH  28  30
ENDBRANCH  11  28
ENDBRANCH   4   7
ENDBRANCH   2   3
ENDBRANCH   1   2
BRANCH   1  35
ATOM     35  C   UNL A   1      38.037  21.057  25.300  1.00  0.00     0.023 C 
BRANCH  35  36
ATOM     36  C   UNL A   1      39.334  20.985  26.105  1.00  0.00     0.116 C 
BRANCH  36  37
ATOM     37  N   UNL A   1      40.127  19.780  25.952  1.00  0.00    -0.352 N 
ATOM     38  C   UNL A   1      41.506  19.683  26.060  1.00  0.00     0.251 C 
ATOM     39  H   UNL A   1      39.638  18.949  25.751  1.00  0.00     0.163 HD
ATOM     40  O   UNL A   1      42.068  18.605  25.904  1.00  0.00    -0.269 OA
BRANCH  38  41
ATOM     41  C   UNL A   1      42.292  20.916  26.316  1.00  0.00     0.039 A 
ATOM     42  C   UNL A   1      42.579  21.310  27.623  1.00  0.00     0.014 A 
ATOM     43  C   UNL A   1      42.662  21.735  25.249  1.00  0.00     0.014 A 
ATOM     44  C   UNL A   1      43.076  22.584  27.882  1.00  0.00     0.010 A 
ATOM     45  C   UNL A   1      43.221  22.994  25.505  1.00  0.00     0.010 A 
ATOM     46  C   UNL A   1      43.376  23.452  26.826  1.00  0.00    -0.014 A 
BRANCH  46  47
ATOM     47  C   UNL A   1      43.775  24.854  27.121  1.00  0.00     0.031 A 
ATOM     48  C   UNL A   1      45.181  25.312  26.832  1.00  0.00     0.074 A 
ATOM     49  C   UNL A   1      42.865  25.733  27.585  1.00  0.00     0.049 A 
ATOM     50  N   UNL A   1      45.726  26.483  27.039  1.00  0.00    -0.248 NA
ATOM     51  C   UNL A   1      46.095  24.327  26.230  1.00  0.00     0.031 C 
ATOM     52  C   UNL A   1      41.463  25.419  27.854  1.00  0.00     0.029 A 
ATOM     53  N   UNL A   1      42.975  27.067  27.900  1.00  0.00    -0.354 N 
ATOM     54  C   UNL A   1      47.047  26.370  26.617  1.00  0.00     0.074 A 
ATOM     55  C   UNL A   1      47.231  25.007  26.171  1.00  0.00     0.031 C 
ATOM     56  C   UNL A   1      40.836  26.530  28.266  1.00  0.00     0.029 A 
ATOM     57  C   UNL A   1      41.803  27.621  28.364  1.00  0.00     0.049 A 
ATOM     58  H   UNL A   1      43.811  27.576  27.803  1.00  0.00     0.167 HD
ATOM     59  C   UNL A   1      48.010  27.322  26.592  1.00  0.00     0.034 A 
ATOM     60  C   UNL A   1      41.540  28.857  28.841  1.00  0.00     0.034 A 
ATOM     61  C   UNL A   1      47.802  28.683  27.016  1.00  0.00     0.049 A 
ATOM     62  C   UNL A   1      42.647  29.881  28.859  1.00  0.00     0.074 A 
ATOM     63  C   UNL A   1      48.713  29.725  27.009  1.00  0.00     0.029 A 
ATOM     64  N   UNL A   1      46.614  29.197  27.516  1.00  0.00    -0.354 N 
ATOM     65  N   UNL A   1      43.882  29.767  28.430  1.00  0.00    -0.248 NA
ATOM     66  C   UNL A   1      42.331  31.203  29.419  1.00  0.00     0.031 C 
ATOM     67  C   UNL A   1      48.102  30.841  27.576  1.00  0.00     0.029 A 
ATOM     68  C   UNL A   1      46.780  30.530  27.851  1.00  0.00     0.049 A 
ATOM     69  H   UNL A   1      45.777  28.688  27.617  1.00  0.00     0.167 HD
ATOM     70  C   UNL A   1      44.481  31.006  28.645  1.00  0.00     0.074 A 
ATOM     71  C   UNL A   1      43.464  31.863  29.216  1.00  0.00     0.031 C 
ATOM     72  C   UNL A   1      45.758  31.392  28.397  1.00  0.00     0.034 A 
BRANCH  59  73
ATOM     73  C   UNL A   1      49.388  26.954  26.094  1.00  0.00     0.023 A 
ATOM     74  C   UNL A   1      50.432  26.754  27.017  1.00  0.00     0.031 A 
ATOM     75  C   UNL A   1      49.705  26.953  24.724  1.00  0.00     0.131 A 
ATOM     76  C   UNL A   1      51.749  26.612  26.562  1.00  0.00     0.055 A 
ATOM     77  C   UNL A   1      51.012  26.761  24.273  1.00  0.00     0.041 A 
ATOM     78  F   UNL A   1      48.746  27.138  23.802  1.00  0.00    -0.206 F 
ATOM     79  C   UNL A   1      52.042  26.606  25.195  1.00  0.00     0.022 A 
BRANCH  76  80
ATOM     80  S   UNL A   1      53.136  26.514  27.725  1.00  0.00     0.124 S 
ATOM     81  O   UNL A   1      52.448  26.276  28.992  1.00  0.00    -0.237 OA
ATOM     82  O   UNL A   1      53.890  25.377  27.203  1.00  0.00    -0.237 OA
ATOM     83  O   UNL A   1      53.787  27.813  27.606  1.00  0.00    -0.744 OA
ENDBRANCH  76  80
ENDBRANCH  59  73
BRANCH  60  84
ATOM     84  C   UNL A   1      40.158  29.177  29.312  1.00  0.00     0.023 A 
ATOM     85  C   UNL A   1      39.825  29.092  30.677  1.00  0.00     0.031 A 
ATOM     86  C   UNL A   1      39.131  29.470  28.402  1.00  0.00     0.131 A 
ATOM     87  C   UNL A   1      38.489  29.214  31.080  1.00  0.00     0.055 A 
ATOM     88  C   UNL A   1      37.812  29.674  28.818  1.00  0.00     0.041 A 
ATOM     89  F   UNL A   1      39.393  29.552  27.089  1.00  0.00    -0.206 F 
ATOM     90  C   UNL A   1      37.483  29.525  30.161  1.00  0.00     0.022 A 
BRANCH  87  91
ATOM     91  S   UNL A   1      37.994  28.826  32.782  1.00  0.00     0.124 S 
ATOM     92  O   UNL A   1      36.635  29.356  32.833  1.00  0.00    -0.237 OA
ATOM     93  O   UNL A   1      38.105  27.370  32.798  1.00  0.00    -0.237 OA
ATOM     94  O   UNL A   1      38.979  29.530  33.597  1.00  0.00    -0.744 OA
ENDBRANCH  87  91
ENDBRANCH  60  84
BRANCH  72  95
ATOM     95  C   UNL A   1      46.168  32.812  28.713  1.00  0.00     0.023 A 
ATOM     96  C   UNL A   1      46.115  33.796  27.706  1.00  0.00     0.031 A 
ATOM     97  C   UNL A   1      46.774  33.148  29.936  1.00  0.00     0.131 A 
ATOM     98  C   UNL A   1      46.710  35.046  27.917  1.00  0.00     0.055 A 
ATOM     99  C   UNL A   1      47.312  34.416  30.163  1.00  0.00     0.041 A 
ATOM    100  F   UNL A   1      46.864  32.244  30.924  1.00  0.00    -0.206 F 
ATOM    101  C   UNL A   1      47.298  35.365  29.144  1.00  0.00     0.022 A 
BRANCH  98 102
ATOM    102  S   UNL A   1      46.841  36.259  26.574  1.00  0.00     0.124 S 
ATOM    103  O   UNL A   1      48.262  36.598  26.610  1.00  0.00    -0.237 OA
ATOM    104  O   UNL A   1      46.414  35.481  25.414  1.00  0.00    -0.237 OA
ATOM    105  O   UNL A   1      45.937  37.332  26.977  1.00  0.00    -0.744 OA
ENDBRANCH  98 102
ENDBRANCH  72  95
ENDBRANCH  46  47
ENDBRANCH  38  41
ENDBRANCH  36  37
ENDBRANCH  35  36
ENDBRANCH   1  35
TORSDOF 20
ENDMDL
MODEL 3
REMARK VINA RESULT:     -12.6      1.155      7.503
REMARK SMILES CO[C@@H]1C[NH2+][C@@H](O[C@@H]2C[C@@H](C(=O)NCCCCNC(=O)c3ccc(-c4c5nc(c(-c6cc(S(=O)(=O)[O-])ccc6F)c6ccc([nH]6)c(-c6cc(S(=O)(=O)[O-])ccc6F)c6nc(c(-c7cc(S(=O)(=O)[O-])ccc7F)c7ccc4[nH]7)C=C6)C=C5)cc3)N(C(=O)OC(C)(C)C)C2)c2cc(Cl)ccc21
REMARK SMILES IDX 15 1 14 2 13 3 11 4 12 5 10 7 8 8 9 9 92 10 84 11 7 12 6 13
REMARK SMILES IDX 3 14 4 15 99 16 5 17 93 18 98 19 94 22 97 23 95 24 96 25
REMARK SMILES IDX 2 26 1 27 85 28 86 29 87 30 88 31 89 32 90 33 91 34 16 35
REMARK SMILES IDX 17 36 18 37 19 38 20 40 21 41 22 42 83 43 23 44 82 45 24 46
REMARK SMILES IDX 25 47 26 48 76 49 27 50 81 51 75 52 77 53 28 54 80 55 74 56
REMARK SMILES IDX 73 57 29 59 61 60 41 61 60 62 42 63 45 64 59 65 78 66 43 67
REMARK SMILES IDX 44 68 58 70 79 71 46 72 30 73 31 74 39 75 32 76 38 77 40 78
REMARK SMILES IDX 37 79 33 80 34 81 35 82 36 83 62 84 63 85 71 86 64 87 70 88
REMARK SMILES IDX 72 89 69 90 65 91 66 92 67 93 68 94 47 95 48 96 56 97 49 98
REMARK SMILES IDX 55 99 57 100 54 101 50 102 51 103 52 104 53 105
REMARK H PARENT 13 6 5 20 5 21 18 39 77 58 45 69
REMARK Flexibility Score: inf
ROOT
ATOM      1  C   UNL A   1      32.982  29.446  27.330  1.00  0.00     0.023 C 
ENDROOT
BRANCH   1   2
ATOM      2  C   UNL A   1      32.993  28.470  26.154  1.00  0.00     0.116 C 
BRANCH   2   3
ATOM      3  N   UNL A   1      33.948  28.767  25.092  1.00  0.00    -0.354 N 
ATOM      4  C   UNL A   1      33.801  28.544  23.729  1.00  0.00     0.243 C 
ATOM      5  O   UNL A   1      34.628  29.014  22.948  1.00  0.00    -0.273 OA
ATOM      6  H   UNL A   1      34.798  29.173  25.375  1.00  0.00     0.163 HD
BRANCH   4   7
ATOM      7  C   UNL A   1      32.669  27.608  23.263  1.00  0.00     0.180 C 
ATOM      8  C   UNL A   1      31.536  26.014  21.863  1.00  0.00     0.147 C 
ATOM      9  C   UNL A   1      32.854  26.818  21.969  1.00  0.00     0.069 C 
ATOM     10  C   UNL A   1      30.498  26.887  22.594  1.00  0.00     0.156 C 
ATOM     11  N   UNL A   1      31.257  27.970  23.203  1.00  0.00    -0.293 N 
BRANCH   8  12
ATOM     12  O   UNL A   1      31.447  24.623  22.164  1.00  0.00    -0.320 OA
BRANCH  12  13
ATOM     13  C   UNL A   1      31.522  23.968  23.425  1.00  0.00     0.354 C 
ATOM     14  C   UNL A   1      31.803  25.219  26.096  1.00  0.00     0.203 C 
ATOM     15  C   UNL A   1      30.488  25.221  25.249  1.00  0.00     0.300 C 
ATOM     16  C   UNL A   1      33.019  24.732  25.325  1.00  0.00    -0.002 A 
ATOM     17  N   UNL A   1      30.358  24.156  24.269  1.00  0.00    -0.315 N 
ATOM     18  C   UNL A   1      32.858  24.038  24.114  1.00  0.00     0.046 A 
ATOM     19  C   UNL A   1      34.319  24.956  25.811  1.00  0.00     0.009 A 
ATOM     20  H   UNL A   1      29.561  24.370  23.669  1.00  0.00     0.349 HD
ATOM     21  H   UNL A   1      30.239  23.290  24.796  1.00  0.00     0.349 HD
ATOM     22  C   UNL A   1      33.975  23.443  23.497  1.00  0.00     0.033 A 
ATOM     23  C   UNL A   1      35.432  24.423  25.148  1.00  0.00     0.021 A 
ATOM     24  C   UNL A   1      35.250  23.633  24.018  1.00  0.00     0.041 A 
ATOM     25  Cl  UNL A   1      36.603  22.910  23.239  1.00  0.00    -0.084 Cl
BRANCH  14  26
ATOM     26  O   UNL A   1      31.709  24.432  27.289  1.00  0.00    -0.371 OA
ATOM     27  C   UNL A   1      32.166  23.096  27.128  1.00  0.00     0.196 C 
ENDBRANCH  14  26
ENDBRANCH  12  13
ENDBRANCH   8  12
BRANCH  11  28
ATOM     28  C   UNL A   1      30.661  29.184  23.445  1.00  0.00     0.411 C 
ATOM     29  O   UNL A   1      30.729  29.741  24.534  1.00  0.00    -0.224 OA
BRANCH  28  30
ATOM     30  O   UNL A   1      30.048  29.698  22.356  1.00  0.00    -0.444 OA
BRANCH  30  31
ATOM     31  C   UNL A   1      28.683  30.199  22.415  1.00  0.00     0.106 C 
ATOM     32  C   UNL A   1      28.197  30.714  21.061  1.00  0.00     0.056 C 
ATOM     33  C   UNL A   1      27.721  29.126  22.953  1.00  0.00     0.056 C 
ATOM     34  C   UNL A   1      28.753  31.412  23.363  1.00  0.00     0.056 C 
ENDBRANCH  30  31
ENDBRANCH  28  30
ENDBRANCH  11  28
ENDBRANCH   4   7
ENDBRANCH   2   3
ENDBRANCH   1   2
BRANCH   1  35
ATOM     35  C   UNL A   1      32.592  30.891  27.007  1.00  0.00     0.023 C 
BRANCH  35  36
ATOM     36  C   UNL A   1      33.544  31.992  27.474  1.00  0.00     0.116 C 
BRANCH  36  37
ATOM     37  N   UNL A   1      32.967  33.309  27.672  1.00  0.00    -0.352 N 
ATOM     38  C   UNL A   1      33.383  34.260  28.590  1.00  0.00     0.251 C 
ATOM     39  H   UNL A   1      32.205  33.550  27.096  1.00  0.00     0.163 HD
ATOM     40  O   UNL A   1      32.811  35.341  28.668  1.00  0.00    -0.269 OA
BRANCH  38  41
ATOM     41  C   UNL A   1      34.498  33.926  29.510  1.00  0.00     0.039 A 
ATOM     42  C   UNL A   1      35.806  34.297  29.197  1.00  0.00     0.014 A 
ATOM     43  C   UNL A   1      34.251  33.154  30.646  1.00  0.00     0.014 A 
ATOM     44  C   UNL A   1      36.878  33.766  29.907  1.00  0.00     0.010 A 
ATOM     45  C   UNL A   1      35.327  32.668  31.400  1.00  0.00     0.010 A 
ATOM     46  C   UNL A   1      36.652  32.921  31.000  1.00  0.00    -0.014 A 
BRANCH  46  47
ATOM     47  C   UNL A   1      37.805  32.255  31.661  1.00  0.00     0.031 A 
ATOM     48  C   UNL A   1      38.507  31.110  30.976  1.00  0.00     0.074 A 
ATOM     49  C   UNL A   1      38.266  32.713  32.842  1.00  0.00     0.049 A 
ATOM     50  N   UNL A   1      39.513  30.389  31.397  1.00  0.00    -0.248 NA
ATOM     51  C   UNL A   1      38.015  30.728  29.642  1.00  0.00     0.031 C 
ATOM     52  C   UNL A   1      37.701  33.845  33.575  1.00  0.00     0.029 A 
ATOM     53  N   UNL A   1      39.315  32.298  33.626  1.00  0.00    -0.354 N 
ATOM     54  C   UNL A   1      39.759  29.455  30.396  1.00  0.00     0.074 A 
ATOM     55  C   UNL A   1      38.777  29.680  29.359  1.00  0.00     0.031 C 
ATOM     56  C   UNL A   1      38.423  34.053  34.685  1.00  0.00     0.029 A 
ATOM     57  C   UNL A   1      39.458  33.026  34.786  1.00  0.00     0.049 A 
ATOM     58  H   UNL A   1      39.908  31.552  33.382  1.00  0.00     0.167 HD
ATOM     59  C   UNL A   1      40.726  28.508  30.343  1.00  0.00     0.034 A 
ATOM     60  C   UNL A   1      40.304  32.870  35.827  1.00  0.00     0.034 A 
ATOM     61  C   UNL A   1      41.713  28.313  31.375  1.00  0.00     0.049 A 
ATOM     62  C   UNL A   1      41.333  31.768  35.771  1.00  0.00     0.074 A 
ATOM     63  C   UNL A   1      42.746  27.392  31.401  1.00  0.00     0.029 A 
ATOM     64  N   UNL A   1      41.802  29.044  32.551  1.00  0.00    -0.354 N 
ATOM     65  N   UNL A   1      41.571  30.912  34.805  1.00  0.00    -0.248 NA
ATOM     66  C   UNL A   1      42.211  31.608  36.938  1.00  0.00     0.031 C 
ATOM     67  C   UNL A   1      43.404  27.510  32.623  1.00  0.00     0.029 A 
ATOM     68  C   UNL A   1      42.849  28.570  33.323  1.00  0.00     0.049 A 
ATOM     69  H   UNL A   1      41.207  29.789  32.799  1.00  0.00     0.167 HD
ATOM     70  C   UNL A   1      42.640  30.132  35.237  1.00  0.00     0.074 A 
ATOM     71  C   UNL A   1      43.020  30.635  36.539  1.00  0.00     0.031 C 
ATOM     72  C   UNL A   1      43.244  29.089  34.612  1.00  0.00     0.034 A 
BRANCH  59  73
ATOM     73  C   UNL A   1      40.788  27.593  29.143  1.00  0.00     0.023 A 
ATOM     74  C   UNL A   1      41.705  27.862  28.109  1.00  0.00     0.031 A 
ATOM     75  C   UNL A   1      39.854  26.560  28.949  1.00  0.00     0.131 A 
ATOM     76  C   UNL A   1      41.634  27.144  26.908  1.00  0.00     0.055 A 
ATOM     77  C   UNL A   1      39.820  25.814  27.770  1.00  0.00     0.041 A 
ATOM     78  F   UNL A   1      38.959  26.262  29.905  1.00  0.00    -0.206 F 
ATOM     79  C   UNL A   1      40.702  26.116  26.738  1.00  0.00     0.022 A 
BRANCH  76  80
ATOM     80  S   UNL A   1      42.690  27.571  25.498  1.00  0.00     0.124 S 
ATOM     81  O   UNL A   1      41.935  28.657  24.876  1.00  0.00    -0.237 OA
ATOM     82  O   UNL A   1      43.930  27.971  26.156  1.00  0.00    -0.237 OA
ATOM     83  O   UNL A   1      42.756  26.338  24.722  1.00  0.00    -0.744 OA
ENDBRANCH  76  80
ENDBRANCH  59  73
BRANCH  60  84
ATOM     84  C   UNL A   1      40.211  33.807  36.987  1.00  0.00     0.023 A 
ATOM     85  C   UNL A   1      39.586  33.412  38.185  1.00  0.00     0.031 A 
ATOM     86  C   UNL A   1      40.651  35.137  36.884  1.00  0.00     0.131 A 
ATOM     87  C   UNL A   1      39.344  34.354  39.192  1.00  0.00     0.055 A 
ATOM     88  C   UNL A   1      40.482  36.053  37.925  1.00  0.00     0.041 A 
ATOM     89  F   UNL A   1      41.244  35.568  35.761  1.00  0.00    -0.206 F 
ATOM     90  C   UNL A   1      39.806  35.668  39.079  1.00  0.00     0.022 A 
BRANCH  87  91
ATOM     91  S   UNL A   1      38.291  33.943  40.612  1.00  0.00     0.124 S 
ATOM     92  O   UNL A   1      37.148  33.302  39.969  1.00  0.00    -0.237 OA
ATOM     93  O   UNL A   1      39.162  33.059  41.381  1.00  0.00    -0.237 OA
ATOM     94  O   UNL A   1      38.024  35.239  41.230  1.00  0.00    -0.744 OA
ENDBRANCH  87  91
ENDBRANCH  60  84
BRANCH  72  95
ATOM     95  C   UNL A   1      44.406  28.401  35.291  1.00  0.00     0.023 A 
ATOM     96  C   UNL A   1      44.161  27.425  36.278  1.00  0.00     0.031 A 
ATOM     97  C   UNL A   1      45.730  28.831  35.098  1.00  0.00     0.131 A 
ATOM     98  C   UNL A   1      45.213  26.957  37.074  1.00  0.00     0.055 A 
ATOM     99  C   UNL A   1      46.785  28.316  35.853  1.00  0.00     0.041 A 
ATOM    100  F   UNL A   1      46.016  29.768  34.181  1.00  0.00    -0.206 F 
ATOM    101  C   UNL A   1      46.526  27.388  36.859  1.00  0.00     0.022 A 
BRANCH  98 102
ATOM    102  S   UNL A   1      44.902  25.859  38.485  1.00  0.00     0.124 S 
ATOM    103  O   UNL A   1      44.402  24.654  37.826  1.00  0.00    -0.237 OA
ATOM    104  O   UNL A   1      46.232  25.738  39.079  1.00  0.00    -0.237 OA
ATOM    105  O   UNL A   1      43.920  26.582  39.285  1.00  0.00    -0.744 OA
ENDBRANCH  98 102
ENDBRANCH  72  95
ENDBRANCH  46  47
ENDBRANCH  38  41
ENDBRANCH  36  37
ENDBRANCH  35  36
ENDBRANCH   1  35
TORSDOF 20
ENDMDL
