MODEL 1
REMARK VINA RESULT:     -12.1      0.000      0.000
REMARK SMILES C=C(C)COc1ccc2c(C)c(CC(=O)NCCCCNC(=O)c3ccc(-c4c5nc(c(-c6cc(S(=O)(=O)[O-])ccc6F)c6ccc([nH]6)c(-c6cc(S(=O)(=O)[O-])ccc6F)c6nc(c(-c7cc(S(=O)(=O)[O-])ccc7F)c7ccc4[nH]7)C=C6)C=C5)cc3)c(=O)oc2c1
REMARK SMILES IDX 18 1 17 2 16 3 14 4 15 5 13 7 12 8 6 9 7 10 91 11 8 12 90 13
REMARK SMILES IDX 9 14 89 15 10 16 87 17 11 18 88 19 5 20 4 21 2 22 1 23 3 24
REMARK SMILES IDX 19 25 20 26 21 27 22 28 23 30 24 31 25 32 86 33 26 34 85 35
REMARK SMILES IDX 27 36 28 37 29 38 79 39 30 40 84 41 78 42 80 43 31 44 83 45
REMARK SMILES IDX 77 46 76 47 32 49 64 50 44 51 63 52 45 53 48 54 62 55 81 56
REMARK SMILES IDX 46 57 47 58 61 60 82 61 49 62 33 63 34 64 42 65 35 66 41 67
REMARK SMILES IDX 43 68 40 69 36 70 37 71 38 72 39 73 65 74 66 75 74 76 67 77
REMARK SMILES IDX 73 78 75 79 72 80 68 81 69 82 70 83 71 84 50 85 51 86 59 87
REMARK SMILES IDX 52 88 58 89 60 90 57 91 53 92 54 93 55 94 56 95
REMARK H PARENT 16 6 21 29 80 48 48 59
REMARK Flexibility Score: inf
ROOT
ATOM      1  C   UNL A   1      31.997  30.248  25.663  1.00  0.00     0.023 C 
ENDROOT
BRANCH   1   2
ATOM      2  C   UNL A   1      33.258  29.382  25.692  1.00  0.00     0.116 C 
BRANCH   2   3
ATOM      3  N   UNL A   1      33.918  29.342  24.400  1.00  0.00    -0.356 N 
ATOM      4  C   UNL A   1      33.721  28.510  23.339  1.00  0.00     0.224 C 
ATOM      5  O   UNL A   1      34.428  28.665  22.340  1.00  0.00    -0.275 OA
ATOM      6  H   UNL A   1      34.618  30.022  24.271  1.00  0.00     0.163 HD
BRANCH   4   7
ATOM      7  C   UNL A   1      32.638  27.436  23.367  1.00  0.00     0.143 C 
BRANCH   7   8
ATOM      8  C   UNL A   1      33.197  26.051  23.587  1.00  0.00     0.051 A 
ATOM      9  C   UNL A   1      34.255  21.256  24.775  1.00  0.00     0.123 A 
ATOM     10  C   UNL A   1      34.253  21.939  25.988  1.00  0.00     0.047 A 
ATOM     11  C   UNL A   1      34.000  21.955  23.603  1.00  0.00     0.094 A 
ATOM     12  C   UNL A   1      34.024  23.326  26.021  1.00  0.00     0.016 A 
ATOM     13  C   UNL A   1      33.803  23.331  23.650  1.00  0.00     0.142 A 
ATOM     14  C   UNL A   1      33.793  24.049  24.840  1.00  0.00     0.021 A 
ATOM     15  O   UNL A   1      33.617  23.948  22.410  1.00  0.00    -0.422 OA
ATOM     16  C   UNL A   1      33.444  25.483  24.790  1.00  0.00    -0.029 A 
ATOM     17  C   UNL A   1      33.456  25.313  22.322  1.00  0.00     0.340 A 
ATOM     18  C   UNL A   1      33.314  26.214  26.101  1.00  0.00     0.046 C 
ATOM     19  O   UNL A   1      33.481  25.873  21.232  1.00  0.00    -0.246 OA
BRANCH   9  20
ATOM     20  O   UNL A   1      34.430  19.899  24.798  1.00  0.00    -0.489 OA
BRANCH  20  21
ATOM     21  C   UNL A   1      33.374  19.172  24.147  1.00  0.00     0.260 C 
BRANCH  21  22
ATOM     22  C   UNL A   1      33.359  17.697  24.495  1.00  0.00    -0.043 C 
ATOM     23  C   UNL A   1      32.759  17.215  25.597  1.00  0.00     0.011 C 
ATOM     24  C   UNL A   1      33.993  16.785  23.481  1.00  0.00     0.042 C 
ENDBRANCH  21  22
ENDBRANCH  20  21
ENDBRANCH   9  20
ENDBRANCH   7   8
ENDBRANCH   4   7
ENDBRANCH   2   3
ENDBRANCH   1   2
BRANCH   1  25
ATOM     25  C   UNL A   1      31.797  31.140  26.893  1.00  0.00     0.023 C 
BRANCH  25  26
ATOM     26  C   UNL A   1      32.985  32.022  27.263  1.00  0.00     0.116 C 
BRANCH  26  27
ATOM     27  N   UNL A   1      32.614  33.406  27.517  1.00  0.00    -0.352 N 
ATOM     28  C   UNL A   1      33.156  34.285  28.426  1.00  0.00     0.251 C 
ATOM     29  H   UNL A   1      31.879  33.760  26.967  1.00  0.00     0.163 HD
ATOM     30  O   UNL A   1      32.642  35.387  28.593  1.00  0.00    -0.269 OA
BRANCH  28  31
ATOM     31  C   UNL A   1      34.332  33.876  29.227  1.00  0.00     0.039 A 
ATOM     32  C   UNL A   1      34.144  33.022  30.317  1.00  0.00     0.014 A 
ATOM     33  C   UNL A   1      35.616  34.309  28.886  1.00  0.00     0.014 A 
ATOM     34  C   UNL A   1      35.253  32.541  31.019  1.00  0.00     0.010 A 
ATOM     35  C   UNL A   1      36.722  33.779  29.546  1.00  0.00     0.010 A 
ATOM     36  C   UNL A   1      36.553  32.884  30.615  1.00  0.00    -0.014 A 
BRANCH  36  37
ATOM     37  C   UNL A   1      37.754  32.326  31.291  1.00  0.00     0.031 A 
ATOM     38  C   UNL A   1      38.514  31.197  30.650  1.00  0.00     0.074 A 
ATOM     39  C   UNL A   1      38.106  32.772  32.512  1.00  0.00     0.049 A 
ATOM     40  N   UNL A   1      39.498  30.482  31.131  1.00  0.00    -0.248 NA
ATOM     41  C   UNL A   1      38.086  30.802  29.300  1.00  0.00     0.031 C 
ATOM     42  C   UNL A   1      37.429  33.841  33.250  1.00  0.00     0.029 A 
ATOM     43  N   UNL A   1      39.111  32.371  33.358  1.00  0.00    -0.354 N 
ATOM     44  C   UNL A   1      39.794  29.538  30.152  1.00  0.00     0.074 A 
ATOM     45  C   UNL A   1      38.846  29.742  29.076  1.00  0.00     0.031 C 
ATOM     46  C   UNL A   1      38.045  34.017  34.431  1.00  0.00     0.029 A 
ATOM     47  C   UNL A   1      39.126  33.046  34.558  1.00  0.00     0.049 A 
ATOM     48  H   UNL A   1      39.759  31.667  33.129  1.00  0.00     0.167 HD
ATOM     49  C   UNL A   1      40.775  28.601  30.144  1.00  0.00     0.034 A 
ATOM     50  C   UNL A   1      39.909  32.887  35.644  1.00  0.00     0.034 A 
ATOM     51  C   UNL A   1      41.722  28.423  31.219  1.00  0.00     0.049 A 
ATOM     52  C   UNL A   1      40.980  31.824  35.623  1.00  0.00     0.074 A 
ATOM     53  C   UNL A   1      42.787  27.542  31.293  1.00  0.00     0.029 A 
ATOM     54  N   UNL A   1      41.715  29.136  32.411  1.00  0.00    -0.354 N 
ATOM     55  N   UNL A   1      41.270  30.963  34.675  1.00  0.00    -0.248 NA
ATOM     56  C   UNL A   1      41.834  31.718  36.814  1.00  0.00     0.031 C 
ATOM     57  C   UNL A   1      43.386  27.680  32.550  1.00  0.00     0.029 A 
ATOM     58  C   UNL A   1      42.740  28.697  33.234  1.00  0.00     0.049 A 
ATOM     59  H   UNL A   1      41.075  29.849  32.639  1.00  0.00     0.167 HD
ATOM     60  C   UNL A   1      42.362  30.238  35.143  1.00  0.00     0.074 A 
ATOM     61  C   UNL A   1      42.681  30.765  36.455  1.00  0.00     0.031 C 
ATOM     62  C   UNL A   1      43.046  29.232  34.541  1.00  0.00     0.034 A 
BRANCH  49  63
ATOM     63  C   UNL A   1      40.849  27.686  28.947  1.00  0.00     0.023 A 
ATOM     64  C   UNL A   1      41.820  27.860  27.943  1.00  0.00     0.031 A 
ATOM     65  C   UNL A   1      39.919  26.644  28.787  1.00  0.00     0.131 A 
ATOM     66  C   UNL A   1      41.785  27.063  26.790  1.00  0.00     0.055 A 
ATOM     67  C   UNL A   1      39.943  25.798  27.675  1.00  0.00     0.041 A 
ATOM     68  F   UNL A   1      38.957  26.439  29.701  1.00  0.00    -0.206 F 
ATOM     69  C   UNL A   1      40.869  26.016  26.661  1.00  0.00     0.022 A 
BRANCH  66  70
ATOM     70  S   UNL A   1      42.857  27.512  25.397  1.00  0.00     0.124 S 
ATOM     71  O   UNL A   1      44.056  27.980  26.088  1.00  0.00    -0.237 OA
ATOM     72  O   UNL A   1      42.986  26.249  24.679  1.00  0.00    -0.237 OA
ATOM     73  O   UNL A   1      42.101  28.551  24.703  1.00  0.00    -0.744 OA
ENDBRANCH  66  70
ENDBRANCH  49  63
BRANCH  50  74
ATOM     74  C   UNL A   1      39.709  33.737  36.851  1.00  0.00     0.023 A 
ATOM     75  C   UNL A   1      39.136  33.210  38.019  1.00  0.00     0.031 A 
ATOM     76  C   UNL A   1      40.052  35.101  36.842  1.00  0.00     0.131 A 
ATOM     77  C   UNL A   1      38.880  34.051  39.113  1.00  0.00     0.055 A 
ATOM     78  C   UNL A   1      39.842  35.922  37.951  1.00  0.00     0.041 A 
ATOM     79  F   UNL A   1      40.609  35.654  35.753  1.00  0.00    -0.206 F 
ATOM     80  C   UNL A   1      39.239  35.401  39.092  1.00  0.00     0.022 A 
BRANCH  77  81
ATOM     81  S   UNL A   1      37.991  33.371  40.541  1.00  0.00     0.124 S 
ATOM     82  O   UNL A   1      38.754  32.160  40.817  1.00  0.00    -0.237 OA
ATOM     83  O   UNL A   1      38.118  34.448  41.517  1.00  0.00    -0.237 OA
ATOM     84  O   UNL A   1      36.640  33.155  40.028  1.00  0.00    -0.744 OA
ENDBRANCH  77  81
ENDBRANCH  50  74
BRANCH  62  85
ATOM     85  C   UNL A   1      44.243  28.679  35.271  1.00  0.00     0.023 A 
ATOM     86  C   UNL A   1      44.116  27.713  36.284  1.00  0.00     0.031 A 
ATOM     87  C   UNL A   1      45.534  29.130  34.941  1.00  0.00     0.131 A 
ATOM     88  C   UNL A   1      45.259  27.259  36.960  1.00  0.00     0.055 A 
ATOM     89  C   UNL A   1      46.671  28.636  35.580  1.00  0.00     0.041 A 
ATOM     90  F   UNL A   1      45.710  30.052  33.981  1.00  0.00    -0.206 F 
ATOM     91  C   UNL A   1      46.536  27.701  36.603  1.00  0.00     0.022 A 
BRANCH  88  92
ATOM     92  S   UNL A   1      45.052  26.127  38.362  1.00  0.00     0.124 S 
ATOM     93  O   UNL A   1      43.642  25.765  38.254  1.00  0.00    -0.237 OA
ATOM     94  O   UNL A   1      46.006  25.068  38.054  1.00  0.00    -0.237 OA
ATOM     95  O   UNL A   1      45.394  26.949  39.522  1.00  0.00    -0.744 OA
ENDBRANCH  88  92
ENDBRANCH  62  85
ENDBRANCH  36  37
ENDBRANCH  28  31
ENDBRANCH  26  27
ENDBRANCH  25  26
ENDBRANCH   1  25
TORSDOF 18
ENDMDL
MODEL 2
REMARK VINA RESULT:     -11.9      1.520      7.626
REMARK SMILES C=C(C)COc1ccc2c(C)c(CC(=O)NCCCCNC(=O)c3ccc(-c4c5nc(c(-c6cc(S(=O)(=O)[O-])ccc6F)c6ccc([nH]6)c(-c6cc(S(=O)(=O)[O-])ccc6F)c6nc(c(-c7cc(S(=O)(=O)[O-])ccc7F)c7ccc4[nH]7)C=C6)C=C5)cc3)c(=O)oc2c1
REMARK SMILES IDX 18 1 17 2 16 3 14 4 15 5 13 7 12 8 6 9 7 10 91 11 8 12 90 13
REMARK SMILES IDX 9 14 89 15 10 16 87 17 11 18 88 19 5 20 4 21 2 22 1 23 3 24
REMARK SMILES IDX 19 25 20 26 21 27 22 28 23 30 24 31 25 32 86 33 26 34 85 35
REMARK SMILES IDX 27 36 28 37 29 38 79 39 30 40 84 41 78 42 80 43 31 44 83 45
REMARK SMILES IDX 77 46 76 47 32 49 64 50 44 51 63 52 45 53 48 54 62 55 81 56
REMARK SMILES IDX 46 57 47 58 61 60 82 61 49 62 33 63 34 64 42 65 35 66 41 67
REMARK SMILES IDX 43 68 40 69 36 70 37 71 38 72 39 73 65 74 66 75 74 76 67 77
REMARK SMILES IDX 73 78 75 79 72 80 68 81 69 82 70 83 71 84 50 85 51 86 59 87
REMARK SMILES IDX 52 88 58 89 60 90 57 91 53 92 54 93 55 94 56 95
REMARK H PARENT 16 6 21 29 80 48 48 59
REMARK Flexibility Score: inf
ROOT
ATOM      1  C   UNL A   1      31.575  30.687  25.739  1.00  0.00     0.023 C 
ENDROOT
BRANCH   1   2
ATOM      2  C   UNL A   1      32.692  29.649  25.865  1.00  0.00     0.116 C 
BRANCH   2   3
ATOM      3  N   UNL A   1      33.547  29.627  24.692  1.00  0.00    -0.356 N 
ATOM      4  C   UNL A   1      33.524  28.807  23.604  1.00  0.00     0.224 C 
ATOM      5  O   UNL A   1      34.378  28.977  22.730  1.00  0.00    -0.275 OA
ATOM      6  H   UNL A   1      34.254  30.313  24.682  1.00  0.00     0.163 HD
BRANCH   4   7
ATOM      7  C   UNL A   1      32.458  27.727  23.451  1.00  0.00     0.143 C 
BRANCH   7   8
ATOM      8  C   UNL A   1      33.004  26.335  23.659  1.00  0.00     0.051 A 
ATOM      9  C   UNL A   1      33.978  21.487  24.694  1.00  0.00     0.123 A 
ATOM     10  C   UNL A   1      33.825  22.099  25.934  1.00  0.00     0.047 A 
ATOM     11  C   UNL A   1      33.854  22.250  23.541  1.00  0.00     0.094 A 
ATOM     12  C   UNL A   1      33.576  23.480  26.017  1.00  0.00     0.016 A 
ATOM     13  C   UNL A   1      33.634  23.619  23.641  1.00  0.00     0.142 A 
ATOM     14  C   UNL A   1      33.475  24.268  24.860  1.00  0.00     0.021 A 
ATOM     15  O   UNL A   1      33.587  24.305  22.423  1.00  0.00    -0.422 OA
ATOM     16  C   UNL A   1      33.116  25.701  24.848  1.00  0.00    -0.029 A 
ATOM     17  C   UNL A   1      33.421  25.671  22.393  1.00  0.00     0.340 A 
ATOM     18  C   UNL A   1      32.823  26.355  26.174  1.00  0.00     0.046 C 
ATOM     19  O   UNL A   1      33.566  26.293  21.347  1.00  0.00    -0.246 OA
BRANCH   9  20
ATOM     20  O   UNL A   1      34.167  20.131  24.661  1.00  0.00    -0.489 OA
BRANCH  20  21
ATOM     21  C   UNL A   1      33.118  19.389  25.307  1.00  0.00     0.260 C 
BRANCH  21  22
ATOM     22  C   UNL A   1      32.809  18.072  24.624  1.00  0.00    -0.043 C 
ATOM     23  C   UNL A   1      32.685  16.914  25.296  1.00  0.00     0.011 C 
ATOM     24  C   UNL A   1      32.568  18.151  23.142  1.00  0.00     0.042 C 
ENDBRANCH  21  22
ENDBRANCH  20  21
ENDBRANCH   9  20
ENDBRANCH   7   8
ENDBRANCH   4   7
ENDBRANCH   2   3
ENDBRANCH   1   2
BRANCH   1  25
ATOM     25  C   UNL A   1      31.540  31.738  26.854  1.00  0.00     0.023 C 
BRANCH  25  26
ATOM     26  C   UNL A   1      32.873  32.410  27.163  1.00  0.00     0.116 C 
BRANCH  26  27
ATOM     27  N   UNL A   1      32.736  33.808  27.540  1.00  0.00    -0.352 N 
ATOM     28  C   UNL A   1      33.441  34.513  28.489  1.00  0.00     0.251 C 
ATOM     29  H   UNL A   1      32.049  34.317  27.053  1.00  0.00     0.163 HD
ATOM     30  O   UNL A   1      33.115  35.664  28.764  1.00  0.00    -0.269 OA
BRANCH  28  31
ATOM     31  C   UNL A   1      34.563  33.860  29.201  1.00  0.00     0.039 A 
ATOM     32  C   UNL A   1      34.277  32.946  30.219  1.00  0.00     0.014 A 
ATOM     33  C   UNL A   1      35.887  34.126  28.846  1.00  0.00     0.014 A 
ATOM     34  C   UNL A   1      35.318  32.241  30.830  1.00  0.00     0.010 A 
ATOM     35  C   UNL A   1      36.917  33.378  29.411  1.00  0.00     0.010 A 
ATOM     36  C   UNL A   1      36.643  32.422  30.404  1.00  0.00    -0.014 A 
BRANCH  36  37
ATOM     37  C   UNL A   1      37.763  31.630  30.977  1.00  0.00     0.031 A 
ATOM     38  C   UNL A   1      38.283  31.956  32.350  1.00  0.00     0.074 A 
ATOM     39  C   UNL A   1      38.364  30.680  30.233  1.00  0.00     0.049 A 
ATOM     40  N   UNL A   1      39.330  31.482  32.975  1.00  0.00    -0.248 NA
ATOM     41  C   UNL A   1      37.542  32.976  33.106  1.00  0.00     0.031 C 
ATOM     42  C   UNL A   1      37.969  30.293  28.877  1.00  0.00     0.029 A 
ATOM     43  N   UNL A   1      39.446  29.879  30.505  1.00  0.00    -0.354 N 
ATOM     44  C   UNL A   1      39.387  32.160  34.188  1.00  0.00     0.074 A 
ATOM     45  C   UNL A   1      38.298  33.116  34.183  1.00  0.00     0.031 C 
ATOM     46  C   UNL A   1      38.790  29.323  28.441  1.00  0.00     0.029 A 
ATOM     47  C   UNL A   1      39.796  29.051  29.462  1.00  0.00     0.049 A 
ATOM     48  H   UNL A   1      39.925  29.896  31.364  1.00  0.00     0.167 HD
ATOM     49  C   UNL A   1      40.255  31.990  35.217  1.00  0.00     0.034 A 
ATOM     50  C   UNL A   1      40.823  28.187  29.336  1.00  0.00     0.034 A 
ATOM     51  C   UNL A   1      41.324  31.021  35.211  1.00  0.00     0.049 A 
ATOM     52  C   UNL A   1      41.790  28.029  30.483  1.00  0.00     0.074 A 
ATOM     53  C   UNL A   1      42.228  30.728  36.218  1.00  0.00     0.029 A 
ATOM     54  N   UNL A   1      41.639  30.189  34.143  1.00  0.00    -0.354 N 
ATOM     55  N   UNL A   1      41.809  28.652  31.639  1.00  0.00    -0.248 NA
ATOM     56  C   UNL A   1      42.868  27.045  30.313  1.00  0.00     0.031 C 
ATOM     57  C   UNL A   1      43.123  29.765  35.739  1.00  0.00     0.029 A 
ATOM     58  C   UNL A   1      42.736  29.404  34.459  1.00  0.00     0.049 A 
ATOM     59  H   UNL A   1      41.153  30.163  33.287  1.00  0.00     0.167 HD
ATOM     60  C   UNL A   1      42.879  28.110  32.345  1.00  0.00     0.074 A 
ATOM     61  C   UNL A   1      43.477  27.107  31.488  1.00  0.00     0.031 C 
ATOM     62  C   UNL A   1      43.323  28.407  33.593  1.00  0.00     0.034 A 
BRANCH  49  63
ATOM     63  C   UNL A   1      40.093  32.891  36.416  1.00  0.00     0.023 A 
ATOM     64  C   UNL A   1      39.434  32.458  37.581  1.00  0.00     0.031 A 
ATOM     65  C   UNL A   1      40.573  34.212  36.386  1.00  0.00     0.131 A 
ATOM     66  C   UNL A   1      39.201  33.360  38.630  1.00  0.00     0.055 A 
ATOM     67  C   UNL A   1      40.413  35.080  37.468  1.00  0.00     0.041 A 
ATOM     68  F   UNL A   1      41.194  34.689  35.295  1.00  0.00    -0.206 F 
ATOM     69  C   UNL A   1      39.709  34.661  38.592  1.00  0.00     0.022 A 
BRANCH  66  70
ATOM     70  S   UNL A   1      38.097  32.852  39.976  1.00  0.00     0.124 S 
ATOM     71  O   UNL A   1      37.749  34.139  40.572  1.00  0.00    -0.237 OA
ATOM     72  O   UNL A   1      37.025  32.168  39.263  1.00  0.00    -0.237 OA
ATOM     73  O   UNL A   1      38.940  31.996  40.808  1.00  0.00    -0.744 OA
ENDBRANCH  66  70
ENDBRANCH  49  63
BRANCH  50  74
ATOM     74  C   UNL A   1      41.009  27.412  28.077  1.00  0.00     0.023 A 
ATOM     75  C   UNL A   1      40.715  26.041  28.022  1.00  0.00     0.031 A 
ATOM     76  C   UNL A   1      41.521  28.024  26.919  1.00  0.00     0.131 A 
ATOM     77  C   UNL A   1      40.978  25.316  26.850  1.00  0.00     0.055 A 
ATOM     78  C   UNL A   1      41.734  27.308  25.739  1.00  0.00     0.041 A 
ATOM     79  F   UNL A   1      41.813  29.335  26.915  1.00  0.00    -0.206 F 
ATOM     80  C   UNL A   1      41.475  25.942  25.704  1.00  0.00     0.022 A 
BRANCH  77  81
ATOM     81  S   UNL A   1      40.739  23.518  26.871  1.00  0.00     0.124 S 
ATOM     82  O   UNL A   1      41.692  23.078  25.859  1.00  0.00    -0.237 OA
ATOM     83  O   UNL A   1      41.069  23.185  28.252  1.00  0.00    -0.237 OA
ATOM     84  O   UNL A   1      39.331  23.358  26.514  1.00  0.00    -0.744 OA
ENDBRANCH  77  81
ENDBRANCH  50  74
BRANCH  62  85
ATOM     85  C   UNL A   1      44.475  27.594  34.126  1.00  0.00     0.023 A 
ATOM     86  C   UNL A   1      44.274  26.407  34.852  1.00  0.00     0.031 A 
ATOM     87  C   UNL A   1      45.796  28.018  33.898  1.00  0.00     0.131 A 
ATOM     88  C   UNL A   1      45.379  25.707  35.360  1.00  0.00     0.055 A 
ATOM     89  C   UNL A   1      46.892  27.290  34.361  1.00  0.00     0.041 A 
ATOM     90  F   UNL A   1      46.042  29.146  33.212  1.00  0.00    -0.206 F 
ATOM     91  C   UNL A   1      46.686  26.131  35.105  1.00  0.00     0.022 A 
BRANCH  88  92
ATOM     92  S   UNL A   1      45.086  24.264  36.419  1.00  0.00     0.124 S 
ATOM     93  O   UNL A   1      46.443  23.781  36.656  1.00  0.00    -0.237 OA
ATOM     94  O   UNL A   1      44.409  24.850  37.569  1.00  0.00    -0.237 OA
ATOM     95  O   UNL A   1      44.255  23.392  35.589  1.00  0.00    -0.744 OA
ENDBRANCH  88  92
ENDBRANCH  62  85
ENDBRANCH  36  37
ENDBRANCH  28  31
ENDBRANCH  26  27
ENDBRANCH  25  26
ENDBRANCH   1  25
TORSDOF 18
ENDMDL
MODEL 3
REMARK VINA RESULT:     -11.9      1.678      2.116
REMARK SMILES C=C(C)COc1ccc2c(C)c(CC(=O)NCCCCNC(=O)c3ccc(-c4c5nc(c(-c6cc(S(=O)(=O)[O-])ccc6F)c6ccc([nH]6)c(-c6cc(S(=O)(=O)[O-])ccc6F)c6nc(c(-c7cc(S(=O)(=O)[O-])ccc7F)c7ccc4[nH]7)C=C6)C=C5)cc3)c(=O)oc2c1
REMARK SMILES IDX 18 1 17 2 16 3 14 4 15 5 13 7 12 8 6 9 7 10 91 11 8 12 90 13
REMARK SMILES IDX 9 14 89 15 10 16 87 17 11 18 88 19 5 20 4 21 2 22 1 23 3 24
REMARK SMILES IDX 19 25 20 26 21 27 22 28 23 30 24 31 25 32 86 33 26 34 85 35
REMARK SMILES IDX 27 36 28 37 29 38 79 39 30 40 84 41 78 42 80 43 31 44 83 45
REMARK SMILES IDX 77 46 76 47 32 49 64 50 44 51 63 52 45 53 48 54 62 55 81 56
REMARK SMILES IDX 46 57 47 58 61 60 82 61 49 62 33 63 34 64 42 65 35 66 41 67
REMARK SMILES IDX 43 68 40 69 36 70 37 71 38 72 39 73 65 74 66 75 74 76 67 77
REMARK SMILES IDX 73 78 75 79 72 80 68 81 69 82 70 83 71 84 50 85 51 86 59 87
REMARK SMILES IDX 52 88 58 89 60 90 57 91 53 92 54 93 55 94 56 95
REMARK H PARENT 16 6 21 29 80 48 48 59
REMARK Flexibility Score: inf
ROOT
ATOM      1  C   UNL A   1      31.875  30.176  26.357  1.00  0.00     0.023 C 
ENDROOT
BRANCH   1   2
ATOM      2  C   UNL A   1      31.382  29.737  24.977  1.00  0.00     0.116 C 
BRANCH   2   3
ATOM      3  N   UNL A   1      32.481  29.402  24.090  1.00  0.00    -0.356 N 
ATOM      4  C   UNL A   1      32.526  28.544  23.032  1.00  0.00     0.224 C 
ATOM      5  O   UNL A   1      33.596  28.415  22.433  1.00  0.00    -0.275 OA
ATOM      6  H   UNL A   1      33.327  29.869  24.283  1.00  0.00     0.163 HD
BRANCH   4   7
ATOM      7  C   UNL A   1      31.283  27.784  22.579  1.00  0.00     0.143 C 
BRANCH   7   8
ATOM      8  C   UNL A   1      31.295  26.337  23.011  1.00  0.00     0.051 A 
ATOM      9  C   UNL A   1      32.259  21.619  24.538  1.00  0.00     0.123 A 
ATOM     10  C   UNL A   1      32.832  21.716  23.273  1.00  0.00     0.047 A 
ATOM     11  C   UNL A   1      31.601  22.719  25.070  1.00  0.00     0.094 A 
ATOM     12  C   UNL A   1      32.718  22.905  22.531  1.00  0.00     0.016 A 
ATOM     13  C   UNL A   1      31.473  23.878  24.312  1.00  0.00     0.142 A 
ATOM     14  C   UNL A   1      32.030  24.015  23.046  1.00  0.00     0.021 A 
ATOM     15  O   UNL A   1      30.739  24.905  24.915  1.00  0.00    -0.422 OA
ATOM     16  C   UNL A   1      31.948  25.332  22.384  1.00  0.00    -0.029 A 
ATOM     17  C   UNL A   1      30.505  26.085  24.246  1.00  0.00     0.340 A 
ATOM     18  C   UNL A   1      32.667  25.496  21.069  1.00  0.00     0.046 C 
ATOM     19  O   UNL A   1      29.710  26.906  24.692  1.00  0.00    -0.246 OA
BRANCH   9  20
ATOM     20  O   UNL A   1      32.442  20.460  25.243  1.00  0.00    -0.489 OA
BRANCH  20  21
ATOM     21  C   UNL A   1      33.417  19.579  24.659  1.00  0.00     0.260 C 
BRANCH  21  22
ATOM     22  C   UNL A   1      32.868  18.200  24.351  1.00  0.00    -0.043 C 
ATOM     23  C   UNL A   1      32.413  17.367  25.303  1.00  0.00     0.011 C 
ATOM     24  C   UNL A   1      32.787  17.846  22.892  1.00  0.00     0.042 C 
ENDBRANCH  21  22
ENDBRANCH  20  21
ENDBRANCH   9  20
ENDBRANCH   7   8
ENDBRANCH   4   7
ENDBRANCH   2   3
ENDBRANCH   1   2
BRANCH   1  25
ATOM     25  C   UNL A   1      31.620  31.648  26.697  1.00  0.00     0.023 C 
BRANCH  25  26
ATOM     26  C   UNL A   1      32.820  32.410  27.249  1.00  0.00     0.116 C 
BRANCH  26  27
ATOM     27  N   UNL A   1      32.516  33.793  27.585  1.00  0.00    -0.352 N 
ATOM     28  C   UNL A   1      33.130  34.604  28.511  1.00  0.00     0.251 C 
ATOM     29  H   UNL A   1      31.774  34.201  27.084  1.00  0.00     0.163 HD
ATOM     30  O   UNL A   1      32.668  35.716  28.752  1.00  0.00    -0.269 OA
BRANCH  28  31
ATOM     31  C   UNL A   1      34.320  34.112  29.241  1.00  0.00     0.039 A 
ATOM     32  C   UNL A   1      34.137  33.277  30.347  1.00  0.00     0.014 A 
ATOM     33  C   UNL A   1      35.608  34.446  28.817  1.00  0.00     0.014 A 
ATOM     34  C   UNL A   1      35.249  32.717  30.983  1.00  0.00     0.010 A 
ATOM     35  C   UNL A   1      36.711  33.838  29.412  1.00  0.00     0.010 A 
ATOM     36  C   UNL A   1      36.543  32.961  30.497  1.00  0.00    -0.014 A 
BRANCH  36  37
ATOM     37  C   UNL A   1      37.739  32.317  31.101  1.00  0.00     0.031 A 
ATOM     38  C   UNL A   1      38.491  31.267  30.330  1.00  0.00     0.074 A 
ATOM     39  C   UNL A   1      38.094  32.612  32.367  1.00  0.00     0.049 A 
ATOM     40  N   UNL A   1      39.470  30.492  30.723  1.00  0.00    -0.248 NA
ATOM     41  C   UNL A   1      38.062  31.039  28.943  1.00  0.00     0.031 C 
ATOM     42  C   UNL A   1      37.424  33.591  33.227  1.00  0.00     0.029 A 
ATOM     43  N   UNL A   1      39.094  32.104  33.160  1.00  0.00    -0.354 N 
ATOM     44  C   UNL A   1      39.759  29.669  29.639  1.00  0.00     0.074 A 
ATOM     45  C   UNL A   1      38.814  30.008  28.594  1.00  0.00     0.031 C 
ATOM     46  C   UNL A   1      38.039  33.620  34.421  1.00  0.00     0.029 A 
ATOM     47  C   UNL A   1      39.113  32.632  34.431  1.00  0.00     0.049 A 
ATOM     48  H   UNL A   1      39.737  31.428  32.848  1.00  0.00     0.167 HD
ATOM     49  C   UNL A   1      40.733  28.733  29.519  1.00  0.00     0.034 A 
ATOM     50  C   UNL A   1      39.894  32.338  35.491  1.00  0.00     0.034 A 
ATOM     51  C   UNL A   1      41.677  28.420  30.565  1.00  0.00     0.049 A 
ATOM     52  C   UNL A   1      40.956  31.277  35.344  1.00  0.00     0.074 A 
ATOM     53  C   UNL A   1      42.735  27.528  30.534  1.00  0.00     0.029 A 
ATOM     54  N   UNL A   1      41.675  28.986  31.834  1.00  0.00    -0.354 N 
ATOM     55  N   UNL A   1      41.241  30.533  34.299  1.00  0.00    -0.248 NA
ATOM     56  C   UNL A   1      41.808  31.023  36.514  1.00  0.00     0.031 C 
ATOM     57  C   UNL A   1      43.334  27.511  31.798  1.00  0.00     0.029 A 
ATOM     58  C   UNL A   1      42.695  28.444  32.599  1.00  0.00     0.049 A 
ATOM     59  H   UNL A   1      41.040  29.671  32.144  1.00  0.00     0.167 HD
ATOM     60  C   UNL A   1      42.327  29.749  34.678  1.00  0.00     0.074 A 
ATOM     61  C   UNL A   1      42.648  30.113  36.043  1.00  0.00     0.031 C 
ATOM     62  C   UNL A   1      43.003  28.817  33.960  1.00  0.00     0.034 A 
BRANCH  49  63
ATOM     63  C   UNL A   1      40.801  27.966  28.221  1.00  0.00     0.023 A 
ATOM     64  C   UNL A   1      40.194  26.705  28.075  1.00  0.00     0.031 A 
ATOM     65  C   UNL A   1      41.509  28.485  27.123  1.00  0.00     0.131 A 
ATOM     66  C   UNL A   1      40.377  25.973  26.893  1.00  0.00     0.055 A 
ATOM     67  C   UNL A   1      41.616  27.787  25.918  1.00  0.00     0.041 A 
ATOM     68  F   UNL A   1      42.126  29.675  27.207  1.00  0.00    -0.206 F 
ATOM     69  C   UNL A   1      41.062  26.516  25.804  1.00  0.00     0.022 A 
BRANCH  66  70
ATOM     70  S   UNL A   1      39.835  24.242  26.857  1.00  0.00     0.124 S 
ATOM     71  O   UNL A   1      38.668  24.318  25.983  1.00  0.00    -0.237 OA
ATOM     72  O   UNL A   1      41.001  23.559  26.309  1.00  0.00    -0.237 OA
ATOM     73  O   UNL A   1      39.538  23.946  28.257  1.00  0.00    -0.744 OA
ENDBRANCH  66  70
ENDBRANCH  49  63
BRANCH  50  74
ATOM     74  C   UNL A   1      39.699  33.040  36.791  1.00  0.00     0.023 A 
ATOM     75  C   UNL A   1      38.831  32.526  37.766  1.00  0.00     0.031 A 
ATOM     76  C   UNL A   1      40.348  34.258  37.061  1.00  0.00     0.131 A 
ATOM     77  C   UNL A   1      38.599  33.248  38.947  1.00  0.00     0.055 A 
ATOM     78  C   UNL A   1      40.153  34.948  38.259  1.00  0.00     0.041 A 
ATOM     79  F   UNL A   1      41.194  34.791  36.165  1.00  0.00    -0.206 F 
ATOM     80  C   UNL A   1      39.263  34.450  39.205  1.00  0.00     0.022 A 
BRANCH  77  81
ATOM     81  S   UNL A   1      37.349  32.633  40.109  1.00  0.00     0.124 S 
ATOM     82  O   UNL A   1      36.267  32.253  39.209  1.00  0.00    -0.237 OA
ATOM     83  O   UNL A   1      38.057  31.537  40.761  1.00  0.00    -0.237 OA
ATOM     84  O   UNL A   1      37.077  33.790  40.959  1.00  0.00    -0.744 OA
ENDBRANCH  77  81
ENDBRANCH  50  74
BRANCH  62  85
ATOM     85  C   UNL A   1      44.196  28.172  34.619  1.00  0.00     0.023 A 
ATOM     86  C   UNL A   1      44.090  26.966  35.333  1.00  0.00     0.031 A 
ATOM     87  C   UNL A   1      45.461  28.779  34.526  1.00  0.00     0.131 A 
ATOM     88  C   UNL A   1      45.223  26.426  35.961  1.00  0.00     0.055 A 
ATOM     89  C   UNL A   1      46.594  28.211  35.109  1.00  0.00     0.041 A 
ATOM     90  F   UNL A   1      45.617  29.933  33.857  1.00  0.00    -0.206 F 
ATOM     91  C   UNL A   1      46.476  27.031  35.839  1.00  0.00     0.022 A 
BRANCH  88  92
ATOM     92  S   UNL A   1      45.026  24.951  36.999  1.00  0.00     0.124 S 
ATOM     93  O   UNL A   1      45.881  23.984  36.317  1.00  0.00    -0.237 OA
ATOM     94  O   UNL A   1      45.500  25.415  38.297  1.00  0.00    -0.237 OA
ATOM     95  O   UNL A   1      43.593  24.669  36.928  1.00  0.00    -0.744 OA
ENDBRANCH  88  92
ENDBRANCH  62  85
ENDBRANCH  36  37
ENDBRANCH  28  31
ENDBRANCH  26  27
ENDBRANCH  25  26
ENDBRANCH   1  25
TORSDOF 18
ENDMDL
