MODEL 1
REMARK VINA RESULT:     -13.1      0.000      0.000
REMARK SMILES Cc1c(CC(=O)NCCCCNC(=O)c2ccc(-c3c4nc(c(-c5cc(S(=O)(=O)[O-])ccc5F)c5ccc([nH]5)c(-c5cc(S(=O)(=O)[O-])ccc5F)c5nc(c(-c6cc(S(=O)(=O)[O-])ccc6F)c6ccc3[nH]6)C=C5)C=C4)cc2)cc(-c2ccccc2)cc1-c1ccccc1
REMARK SMILES IDX 10 1 9 2 8 3 7 4 5 5 6 6 4 8 3 9 1 10 2 11 87 12 78 13 86 14
REMARK SMILES IDX 79 15 88 16 89 17 93 18 90 19 92 20 91 21 80 22 81 23 85 24
REMARK SMILES IDX 82 25 84 26 83 27 11 28 12 29 13 30 14 32 15 33 16 34 77 35
REMARK SMILES IDX 17 36 76 37 18 38 19 39 20 40 70 41 21 42 75 43 69 44 71 45
REMARK SMILES IDX 22 46 74 47 68 48 67 49 23 51 55 52 35 53 54 54 36 55 39 56
REMARK SMILES IDX 53 57 72 58 37 59 38 60 52 62 73 63 40 64 24 65 25 66 33 67
REMARK SMILES IDX 26 68 32 69 34 70 31 71 27 72 28 73 29 74 30 75 56 76 57 77
REMARK SMILES IDX 65 78 58 79 64 80 66 81 63 82 59 83 60 84 61 85 62 86 41 87
REMARK SMILES IDX 42 88 50 89 43 90 49 91 51 92 48 93 44 94 45 95 46 96 47 97
REMARK H PARENT 7 7 12 31 71 50 39 61
REMARK Flexibility Score: inf
ROOT
ATOM      1  C   UNL A   1      34.150  28.705  26.204  1.00  0.00     0.023 C 
ENDROOT
BRANCH   1   2
ATOM      2  C   UNL A   1      34.000  27.188  26.085  1.00  0.00     0.023 C 
BRANCH   2   3
ATOM      3  C   UNL A   1      33.162  26.702  24.891  1.00  0.00     0.116 C 
BRANCH   3   4
ATOM      4  N   UNL A   1      32.186  25.680  25.251  1.00  0.00    -0.356 N 
ATOM      5  C   UNL A   1      32.002  24.433  24.725  1.00  0.00     0.224 C 
ATOM      6  O   UNL A   1      31.099  23.729  25.189  1.00  0.00    -0.275 OA
ATOM      7  H   UNL A   1      31.569  25.925  25.978  1.00  0.00     0.163 HD
BRANCH   5   8
ATOM      8  C   UNL A   1      32.898  23.916  23.603  1.00  0.00     0.135 C 
BRANCH   8   9
ATOM      9  C   UNL A   1      33.781  22.758  24.027  1.00  0.00    -0.035 A 
ATOM     10  C   UNL A   1      32.075  21.001  23.304  1.00  0.00     0.045 C 
ATOM     11  C   UNL A   1      33.373  21.403  23.974  1.00  0.00    -0.040 A 
ATOM     12  C   UNL A   1      34.216  20.409  24.540  1.00  0.00    -0.015 A 
ATOM     13  C   UNL A   1      35.046  23.084  24.564  1.00  0.00     0.013 A 
ATOM     14  C   UNL A   1      35.453  20.789  25.101  1.00  0.00     0.017 A 
ATOM     15  C   UNL A   1      35.893  22.117  25.112  1.00  0.00    -0.017 A 
BRANCH  12  16
ATOM     16  C   UNL A   1      33.819  18.993  24.634  1.00  0.00    -0.018 A 
ATOM     17  C   UNL A   1      32.928  18.577  25.638  1.00  0.00     0.009 A 
ATOM     18  C   UNL A   1      34.271  18.042  23.707  1.00  0.00     0.009 A 
ATOM     19  C   UNL A   1      32.486  17.254  25.701  1.00  0.00     0.001 A 
ATOM     20  C   UNL A   1      33.823  16.720  23.766  1.00  0.00     0.001 A 
ATOM     21  C   UNL A   1      32.932  16.327  24.762  1.00  0.00     0.000 A 
ENDBRANCH  12  16
BRANCH  15  22
ATOM     22  C   UNL A   1      37.189  22.491  25.697  1.00  0.00    -0.018 A 
ATOM     23  C   UNL A   1      37.399  23.770  26.243  1.00  0.00     0.009 A 
ATOM     24  C   UNL A   1      38.259  21.583  25.715  1.00  0.00     0.009 A 
ATOM     25  C   UNL A   1      38.640  24.129  26.778  1.00  0.00     0.001 A 
ATOM     26  C   UNL A   1      39.501  21.942  26.247  1.00  0.00     0.001 A 
ATOM     27  C   UNL A   1      39.690  23.216  26.777  1.00  0.00     0.000 A 
ENDBRANCH  15  22
ENDBRANCH   8   9
ENDBRANCH   5   8
ENDBRANCH   3   4
ENDBRANCH   2   3
ENDBRANCH   1   2
BRANCH   1  28
ATOM     28  C   UNL A   1      33.780  29.250  27.575  1.00  0.00     0.116 C 
BRANCH  28  29
ATOM     29  N   UNL A   1      34.337  30.549  27.919  1.00  0.00    -0.352 N 
ATOM     30  C   UNL A   1      35.605  30.854  28.402  1.00  0.00     0.251 C 
ATOM     31  H   UNL A   1      33.734  31.316  27.792  1.00  0.00     0.163 HD
ATOM     32  O   UNL A   1      35.863  31.967  28.815  1.00  0.00    -0.269 OA
BRANCH  30  33
ATOM     33  C   UNL A   1      36.689  29.834  28.296  1.00  0.00     0.039 A 
ATOM     34  C   UNL A   1      36.918  29.011  29.406  1.00  0.00     0.014 A 
ATOM     35  C   UNL A   1      37.597  29.841  27.243  1.00  0.00     0.014 A 
ATOM     36  C   UNL A   1      38.165  28.409  29.569  1.00  0.00     0.010 A 
ATOM     37  C   UNL A   1      38.871  29.360  27.460  1.00  0.00     0.010 A 
ATOM     38  C   UNL A   1      39.174  28.696  28.649  1.00  0.00    -0.014 A 
BRANCH  38  39
ATOM     39  C   UNL A   1      40.587  28.441  28.895  1.00  0.00     0.031 A 
ATOM     40  C   UNL A   1      41.267  27.304  28.231  1.00  0.00     0.074 A 
ATOM     41  C   UNL A   1      41.306  29.277  29.680  1.00  0.00     0.049 A 
ATOM     42  N   UNL A   1      42.246  26.644  28.754  1.00  0.00    -0.248 NA
ATOM     43  C   UNL A   1      40.881  26.805  26.913  1.00  0.00     0.031 C 
ATOM     44  C   UNL A   1      42.758  29.274  29.851  1.00  0.00     0.029 A 
ATOM     45  N   UNL A   1      40.880  30.206  30.630  1.00  0.00    -0.354 N 
ATOM     46  C   UNL A   1      42.806  25.880  27.755  1.00  0.00     0.074 A 
ATOM     47  C   UNL A   1      41.871  25.944  26.656  1.00  0.00     0.031 C 
ATOM     48  C   UNL A   1      43.054  29.866  31.020  1.00  0.00     0.029 A 
ATOM     49  C   UNL A   1      41.794  30.125  31.691  1.00  0.00     0.049 A 
ATOM     50  H   UNL A   1      40.096  30.797  30.568  1.00  0.00     0.167 HD
ATOM     51  C   UNL A   1      44.079  25.409  27.885  1.00  0.00     0.034 A 
ATOM     52  C   UNL A   1      41.485  29.726  32.961  1.00  0.00     0.034 A 
ATOM     53  C   UNL A   1      44.695  25.860  29.128  1.00  0.00     0.049 A 
ATOM     54  C   UNL A   1      42.343  28.572  33.445  1.00  0.00     0.074 A 
ATOM     55  C   UNL A   1      45.581  26.890  29.402  1.00  0.00     0.029 A 
ATOM     56  N   UNL A   1      44.214  25.416  30.352  1.00  0.00    -0.354 N 
ATOM     57  N   UNL A   1      43.007  27.781  32.649  1.00  0.00    -0.248 NA
ATOM     58  C   UNL A   1      42.505  28.202  34.849  1.00  0.00     0.031 C 
ATOM     59  C   UNL A   1      45.610  27.084  30.803  1.00  0.00     0.029 A 
ATOM     60  C   UNL A   1      44.759  26.158  31.382  1.00  0.00     0.049 A 
ATOM     61  H   UNL A   1      43.575  24.676  30.470  1.00  0.00     0.167 HD
ATOM     62  C   UNL A   1      43.671  26.827  33.381  1.00  0.00     0.074 A 
ATOM     63  C   UNL A   1      43.329  27.142  34.757  1.00  0.00     0.031 C 
ATOM     64  C   UNL A   1      44.436  25.868  32.772  1.00  0.00     0.034 A 
BRANCH  51  65
ATOM     65  C   UNL A   1      44.875  24.832  26.738  1.00  0.00     0.023 A 
ATOM     66  C   UNL A   1      44.642  23.499  26.340  1.00  0.00     0.031 A 
ATOM     67  C   UNL A   1      45.874  25.514  26.021  1.00  0.00     0.131 A 
ATOM     68  C   UNL A   1      45.444  22.868  25.373  1.00  0.00     0.055 A 
ATOM     69  C   UNL A   1      46.708  24.876  25.092  1.00  0.00     0.041 A 
ATOM     70  F   UNL A   1      46.058  26.835  26.167  1.00  0.00    -0.206 F 
ATOM     71  C   UNL A   1      46.506  23.539  24.775  1.00  0.00     0.022 A 
BRANCH  68  72
ATOM     72  S   UNL A   1      45.070  21.154  24.914  1.00  0.00     0.124 S 
ATOM     73  O   UNL A   1      46.299  20.459  25.282  1.00  0.00    -0.237 OA
ATOM     74  O   UNL A   1      43.895  20.866  25.727  1.00  0.00    -0.237 OA
ATOM     75  O   UNL A   1      44.817  21.238  23.475  1.00  0.00    -0.744 OA
ENDBRANCH  68  72
ENDBRANCH  51  65
BRANCH  52  76
ATOM     76  C   UNL A   1      40.067  29.952  33.351  1.00  0.00     0.023 A 
ATOM     77  C   UNL A   1      39.686  31.272  33.667  1.00  0.00     0.031 A 
ATOM     78  C   UNL A   1      39.058  29.033  33.031  1.00  0.00     0.131 A 
ATOM     79  C   UNL A   1      38.358  31.684  33.488  1.00  0.00     0.055 A 
ATOM     80  C   UNL A   1      37.721  29.436  32.911  1.00  0.00     0.041 A 
ATOM     81  F   UNL A   1      39.363  27.772  32.697  1.00  0.00    -0.206 F 
ATOM     82  C   UNL A   1      37.374  30.775  33.093  1.00  0.00     0.022 A 
BRANCH  79  83
ATOM     83  S   UNL A   1      38.003  33.470  33.519  1.00  0.00     0.124 S 
ATOM     84  O   UNL A   1      37.214  33.638  32.305  1.00  0.00    -0.237 OA
ATOM     85  O   UNL A   1      37.282  33.621  34.782  1.00  0.00    -0.237 OA
ATOM     86  O   UNL A   1      39.330  34.081  33.503  1.00  0.00    -0.744 OA
ENDBRANCH  79  83
ENDBRANCH  52  76
BRANCH  64  87
ATOM     87  C   UNL A   1      45.045  24.632  33.415  1.00  0.00     0.023 A 
ATOM     88  C   UNL A   1      46.352  24.577  33.914  1.00  0.00     0.031 A 
ATOM     89  C   UNL A   1      44.275  23.453  33.610  1.00  0.00     0.131 A 
ATOM     90  C   UNL A   1      46.868  23.401  34.494  1.00  0.00     0.055 A 
ATOM     91  C   UNL A   1      44.765  22.311  34.251  1.00  0.00     0.041 A 
ATOM     92  F   UNL A   1      43.002  23.357  33.200  1.00  0.00    -0.206 F 
ATOM     93  C   UNL A   1      46.077  22.273  34.686  1.00  0.00     0.022 A 
BRANCH  90  94
ATOM     94  S   UNL A   1      48.624  23.365  34.938  1.00  0.00     0.124 S 
ATOM     95  O   UNL A   1      48.897  21.931  34.969  1.00  0.00    -0.237 OA
ATOM     96  O   UNL A   1      49.239  24.102  33.839  1.00  0.00    -0.237 OA
ATOM     97  O   UNL A   1      48.667  24.034  36.237  1.00  0.00    -0.744 OA
ENDBRANCH  90  94
ENDBRANCH  64  87
ENDBRANCH  38  39
ENDBRANCH  30  33
ENDBRANCH  28  29
ENDBRANCH   1  28
TORSDOF 17
ENDMDL
MODEL 2
REMARK VINA RESULT:     -12.5      0.814      3.053
REMARK SMILES Cc1c(CC(=O)NCCCCNC(=O)c2ccc(-c3c4nc(c(-c5cc(S(=O)(=O)[O-])ccc5F)c5ccc([nH]5)c(-c5cc(S(=O)(=O)[O-])ccc5F)c5nc(c(-c6cc(S(=O)(=O)[O-])ccc6F)c6ccc3[nH]6)C=C5)C=C4)cc2)cc(-c2ccccc2)cc1-c1ccccc1
REMARK SMILES IDX 10 1 9 2 8 3 7 4 5 5 6 6 4 8 3 9 1 10 2 11 87 12 78 13 86 14
REMARK SMILES IDX 79 15 88 16 89 17 93 18 90 19 92 20 91 21 80 22 81 23 85 24
REMARK SMILES IDX 82 25 84 26 83 27 11 28 12 29 13 30 14 32 15 33 16 34 77 35
REMARK SMILES IDX 17 36 76 37 18 38 19 39 20 40 70 41 21 42 75 43 69 44 71 45
REMARK SMILES IDX 22 46 74 47 68 48 67 49 23 51 55 52 35 53 54 54 36 55 39 56
REMARK SMILES IDX 53 57 72 58 37 59 38 60 52 62 73 63 40 64 24 65 25 66 33 67
REMARK SMILES IDX 26 68 32 69 34 70 31 71 27 72 28 73 29 74 30 75 56 76 57 77
REMARK SMILES IDX 65 78 58 79 64 80 66 81 63 82 59 83 60 84 61 85 62 86 41 87
REMARK SMILES IDX 42 88 50 89 43 90 49 91 51 92 48 93 44 94 45 95 46 96 47 97
REMARK H PARENT 7 7 12 31 71 50 39 61
REMARK Flexibility Score: inf
ROOT
ATOM      1  C   UNL A   1      33.760  28.788  25.833  1.00  0.00     0.023 C 
ENDROOT
BRANCH   1   2
ATOM      2  C   UNL A   1      33.592  27.268  25.856  1.00  0.00     0.023 C 
BRANCH   2   3
ATOM      3  C   UNL A   1      32.742  26.683  24.715  1.00  0.00     0.116 C 
BRANCH   3   4
ATOM      4  N   UNL A   1      31.873  25.595  25.145  1.00  0.00    -0.356 N 
ATOM      5  C   UNL A   1      31.879  24.280  24.774  1.00  0.00     0.224 C 
ATOM      6  O   UNL A   1      31.036  23.527  25.270  1.00  0.00    -0.275 OA
ATOM      7  H   UNL A   1      31.178  25.844  25.797  1.00  0.00     0.163 HD
BRANCH   5   8
ATOM      8  C   UNL A   1      32.913  23.752  23.782  1.00  0.00     0.135 C 
BRANCH   8   9
ATOM      9  C   UNL A   1      33.880  22.758  24.397  1.00  0.00    -0.035 A 
ATOM     10  C   UNL A   1      35.562  24.570  25.039  1.00  0.00     0.045 C 
ATOM     11  C   UNL A   1      35.152  23.117  24.904  1.00  0.00    -0.040 A 
ATOM     12  C   UNL A   1      36.042  22.088  25.316  1.00  0.00    -0.015 A 
ATOM     13  C   UNL A   1      33.491  21.401  24.387  1.00  0.00     0.013 A 
ATOM     14  C   UNL A   1      35.624  20.743  25.248  1.00  0.00     0.017 A 
ATOM     15  C   UNL A   1      34.349  20.378  24.800  1.00  0.00    -0.017 A 
BRANCH  12  16
ATOM     16  C   UNL A   1      37.425  22.362  25.744  1.00  0.00    -0.018 A 
ATOM     17  C   UNL A   1      37.753  23.602  26.317  1.00  0.00     0.009 A 
ATOM     18  C   UNL A   1      38.430  21.387  25.644  1.00  0.00     0.009 A 
ATOM     19  C   UNL A   1      39.042  23.855  26.792  1.00  0.00     0.001 A 
ATOM     20  C   UNL A   1      39.717  21.637  26.127  1.00  0.00     0.001 A 
ATOM     21  C   UNL A   1      40.021  22.870  26.700  1.00  0.00     0.000 A 
ENDBRANCH  12  16
BRANCH  15  22
ATOM     22  C   UNL A   1      33.930  18.970  24.742  1.00  0.00    -0.018 A 
ATOM     23  C   UNL A   1      34.791  17.973  24.250  1.00  0.00     0.009 A 
ATOM     24  C   UNL A   1      32.649  18.584  25.166  1.00  0.00     0.009 A 
ATOM     25  C   UNL A   1      34.380  16.639  24.176  1.00  0.00     0.001 A 
ATOM     26  C   UNL A   1      32.235  17.251  25.089  1.00  0.00     0.001 A 
ATOM     27  C   UNL A   1      33.101  16.280  24.592  1.00  0.00     0.000 A 
ENDBRANCH  15  22
ENDBRANCH   8   9
ENDBRANCH   5   8
ENDBRANCH   3   4
ENDBRANCH   2   3
ENDBRANCH   1   2
BRANCH   1  28
ATOM     28  C   UNL A   1      33.515  29.450  27.180  1.00  0.00     0.116 C 
BRANCH  28  29
ATOM     29  N   UNL A   1      34.075  30.781  27.350  1.00  0.00    -0.352 N 
ATOM     30  C   UNL A   1      35.317  31.147  27.858  1.00  0.00     0.251 C 
ATOM     31  H   UNL A   1      33.495  31.524  27.067  1.00  0.00     0.163 HD
ATOM     32  O   UNL A   1      35.571  32.309  28.106  1.00  0.00    -0.269 OA
BRANCH  30  33
ATOM     33  C   UNL A   1      36.386  30.113  27.982  1.00  0.00     0.039 A 
ATOM     34  C   UNL A   1      36.541  29.483  29.224  1.00  0.00     0.014 A 
ATOM     35  C   UNL A   1      37.348  29.937  26.994  1.00  0.00     0.014 A 
ATOM     36  C   UNL A   1      37.766  28.905  29.552  1.00  0.00     0.010 A 
ATOM     37  C   UNL A   1      38.600  29.486  27.358  1.00  0.00     0.010 A 
ATOM     38  C   UNL A   1      38.827  29.025  28.655  1.00  0.00    -0.014 A 
BRANCH  38  39
ATOM     39  C   UNL A   1      40.220  28.801  29.017  1.00  0.00     0.031 A 
ATOM     40  C   UNL A   1      40.955  27.637  28.470  1.00  0.00     0.074 A 
ATOM     41  C   UNL A   1      40.873  29.688  29.804  1.00  0.00     0.049 A 
ATOM     42  N   UNL A   1      41.898  27.018  29.099  1.00  0.00    -0.248 NA
ATOM     43  C   UNL A   1      40.670  27.060  27.158  1.00  0.00     0.031 C 
ATOM     44  C   UNL A   1      42.309  29.711  30.080  1.00  0.00     0.029 A 
ATOM     45  N   UNL A   1      40.372  30.663  30.666  1.00  0.00    -0.354 N 
ATOM     46  C   UNL A   1      42.536  26.206  28.189  1.00  0.00     0.074 A 
ATOM     47  C   UNL A   1      41.683  26.197  27.023  1.00  0.00     0.031 C 
ATOM     48  C   UNL A   1      42.514  30.372  31.231  1.00  0.00     0.029 A 
ATOM     49  C   UNL A   1      41.206  30.653  31.793  1.00  0.00     0.049 A 
ATOM     50  H   UNL A   1      39.590  31.241  30.514  1.00  0.00     0.167 HD
ATOM     51  C   UNL A   1      43.799  25.758  28.438  1.00  0.00     0.034 A 
ATOM     52  C   UNL A   1      40.807  30.322  33.058  1.00  0.00     0.034 A 
ATOM     53  C   UNL A   1      44.319  26.285  29.695  1.00  0.00     0.049 A 
ATOM     54  C   UNL A   1      41.637  29.208  33.668  1.00  0.00     0.074 A 
ATOM     55  C   UNL A   1      45.175  27.339  29.973  1.00  0.00     0.029 A 
ATOM     56  N   UNL A   1      43.753  25.905  30.903  1.00  0.00    -0.354 N 
ATOM     57  N   UNL A   1      42.363  28.381  32.969  1.00  0.00    -0.248 NA
ATOM     58  C   UNL A   1      41.698  28.919  35.098  1.00  0.00     0.031 C 
ATOM     59  C   UNL A   1      45.099  27.611  31.359  1.00  0.00     0.029 A 
ATOM     60  C   UNL A   1      44.215  26.710  31.927  1.00  0.00     0.049 A 
ATOM     61  H   UNL A   1      43.113  25.166  31.016  1.00  0.00     0.167 HD
ATOM     62  C   UNL A   1      42.978  27.477  33.800  1.00  0.00     0.074 A 
ATOM     63  C   UNL A   1      42.534  27.865  35.127  1.00  0.00     0.031 C 
ATOM     64  C   UNL A   1      43.793  26.494  33.304  1.00  0.00     0.034 A 
BRANCH  51  65
ATOM     65  C   UNL A   1      44.682  25.127  27.386  1.00  0.00     0.023 A 
ATOM     66  C   UNL A   1      44.299  23.895  26.815  1.00  0.00     0.031 A 
ATOM     67  C   UNL A   1      45.899  25.658  26.924  1.00  0.00     0.131 A 
ATOM     68  C   UNL A   1      45.145  23.197  25.935  1.00  0.00     0.055 A 
ATOM     69  C   UNL A   1      46.767  24.944  26.087  1.00  0.00     0.041 A 
ATOM     70  F   UNL A   1      46.279  26.906  27.239  1.00  0.00    -0.206 F 
ATOM     71  C   UNL A   1      46.399  23.696  25.599  1.00  0.00     0.022 A 
BRANCH  68  72
ATOM     72  S   UNL A   1      44.571  21.624  25.239  1.00  0.00     0.124 S 
ATOM     73  O   UNL A   1      45.765  20.790  25.332  1.00  0.00    -0.237 OA
ATOM     74  O   UNL A   1      43.469  21.276  26.128  1.00  0.00    -0.237 OA
ATOM     75  O   UNL A   1      44.173  21.982  23.878  1.00  0.00    -0.744 OA
ENDBRANCH  68  72
ENDBRANCH  51  65
BRANCH  52  76
ATOM     76  C   UNL A   1      39.363  30.553  33.330  1.00  0.00     0.023 A 
ATOM     77  C   UNL A   1      38.944  31.887  33.512  1.00  0.00     0.031 A 
ATOM     78  C   UNL A   1      38.390  29.594  33.018  1.00  0.00     0.131 A 
ATOM     79  C   UNL A   1      37.627  32.259  33.209  1.00  0.00     0.055 A 
ATOM     80  C   UNL A   1      37.061  29.962  32.774  1.00  0.00     0.041 A 
ATOM     81  F   UNL A   1      38.733  28.315  32.808  1.00  0.00    -0.206 F 
ATOM     82  C   UNL A   1      36.685  31.305  32.822  1.00  0.00     0.022 A 
BRANCH  79  83
ATOM     83  S   UNL A   1      37.249  34.036  33.071  1.00  0.00     0.124 S 
ATOM     84  O   UNL A   1      37.799  34.554  34.318  1.00  0.00    -0.237 OA
ATOM     85  O   UNL A   1      37.958  34.410  31.849  1.00  0.00    -0.237 OA
ATOM     86  O   UNL A   1      35.793  34.066  32.961  1.00  0.00    -0.744 OA
ENDBRANCH  79  83
ENDBRANCH  52  76
BRANCH  64  87
ATOM     87  C   UNL A   1      44.363  25.304  34.058  1.00  0.00     0.023 A 
ATOM     88  C   UNL A   1      45.733  25.041  34.182  1.00  0.00     0.031 A 
ATOM     89  C   UNL A   1      43.512  24.404  34.756  1.00  0.00     0.131 A 
ATOM     90  C   UNL A   1      46.205  23.917  34.888  1.00  0.00     0.055 A 
ATOM     91  C   UNL A   1      43.984  23.329  35.517  1.00  0.00     0.041 A 
ATOM     92  F   UNL A   1      42.177  24.531  34.746  1.00  0.00    -0.206 F 
ATOM     93  C   UNL A   1      45.342  23.070  35.575  1.00  0.00     0.022 A 
BRANCH  90  94
ATOM     94  S   UNL A   1      47.980  23.557  34.834  1.00  0.00     0.124 S 
ATOM     95  O   UNL A   1      48.379  23.811  36.216  1.00  0.00    -0.237 OA
ATOM     96  O   UNL A   1      48.002  22.160  34.416  1.00  0.00    -0.237 OA
ATOM     97  O   UNL A   1      48.497  24.508  33.853  1.00  0.00    -0.744 OA
ENDBRANCH  90  94
ENDBRANCH  64  87
ENDBRANCH  38  39
ENDBRANCH  30  33
ENDBRANCH  28  29
ENDBRANCH   1  28
TORSDOF 17
ENDMDL
MODEL 3
REMARK VINA RESULT:     -12.4      3.616      6.284
REMARK SMILES Cc1c(CC(=O)NCCCCNC(=O)c2ccc(-c3c4nc(c(-c5cc(S(=O)(=O)[O-])ccc5F)c5ccc([nH]5)c(-c5cc(S(=O)(=O)[O-])ccc5F)c5nc(c(-c6cc(S(=O)(=O)[O-])ccc6F)c6ccc3[nH]6)C=C5)C=C4)cc2)cc(-c2ccccc2)cc1-c1ccccc1
REMARK SMILES IDX 10 1 9 2 8 3 7 4 5 5 6 6 4 8 3 9 1 10 2 11 87 12 78 13 86 14
REMARK SMILES IDX 79 15 88 16 89 17 93 18 90 19 92 20 91 21 80 22 81 23 85 24
REMARK SMILES IDX 82 25 84 26 83 27 11 28 12 29 13 30 14 32 15 33 16 34 77 35
REMARK SMILES IDX 17 36 76 37 18 38 19 39 20 40 70 41 21 42 75 43 69 44 71 45
REMARK SMILES IDX 22 46 74 47 68 48 67 49 23 51 55 52 35 53 54 54 36 55 39 56
REMARK SMILES IDX 53 57 72 58 37 59 38 60 52 62 73 63 40 64 24 65 25 66 33 67
REMARK SMILES IDX 26 68 32 69 34 70 31 71 27 72 28 73 29 74 30 75 56 76 57 77
REMARK SMILES IDX 65 78 58 79 64 80 66 81 63 82 59 83 60 84 61 85 62 86 41 87
REMARK SMILES IDX 42 88 50 89 43 90 49 91 51 92 48 93 44 94 45 95 46 96 47 97
REMARK H PARENT 7 7 12 31 71 50 39 61
REMARK Flexibility Score: inf
ROOT
ATOM      1  C   UNL A   1      34.194  33.678  28.083  1.00  0.00     0.023 C 
ENDROOT
BRANCH   1   2
ATOM      2  C   UNL A   1      34.351  32.229  28.549  1.00  0.00     0.023 C 
BRANCH   2   3
ATOM      3  C   UNL A   1      33.521  31.195  27.771  1.00  0.00     0.116 C 
BRANCH   3   4
ATOM      4  N   UNL A   1      34.321  30.371  26.874  1.00  0.00    -0.356 N 
ATOM      5  C   UNL A   1      34.101  29.095  26.439  1.00  0.00     0.224 C 
ATOM      6  O   UNL A   1      34.926  28.586  25.673  1.00  0.00    -0.275 OA
ATOM      7  H   UNL A   1      35.141  30.796  26.532  1.00  0.00     0.163 HD
BRANCH   5   8
ATOM      8  C   UNL A   1      32.860  28.323  26.876  1.00  0.00     0.135 C 
BRANCH   8   9
ATOM      9  C   UNL A   1      32.141  27.644  25.726  1.00  0.00    -0.035 A 
ATOM     10  C   UNL A   1      33.310  25.408  26.124  1.00  0.00     0.045 C 
ATOM     11  C   UNL A   1      32.408  26.315  25.313  1.00  0.00    -0.040 A 
ATOM     12  C   UNL A   1      31.791  25.829  24.128  1.00  0.00    -0.015 A 
ATOM     13  C   UNL A   1      31.211  28.425  25.006  1.00  0.00     0.013 A 
ATOM     14  C   UNL A   1      30.900  26.661  23.419  1.00  0.00     0.017 A 
ATOM     15  C   UNL A   1      30.586  27.955  23.847  1.00  0.00    -0.017 A 
BRANCH  12  16
ATOM     16  C   UNL A   1      32.101  24.505  23.561  1.00  0.00    -0.018 A 
ATOM     17  C   UNL A   1      31.400  23.368  23.999  1.00  0.00     0.009 A 
ATOM     18  C   UNL A   1      33.055  24.348  22.543  1.00  0.00     0.009 A 
ATOM     19  C   UNL A   1      31.631  22.117  23.425  1.00  0.00     0.001 A 
ATOM     20  C   UNL A   1      33.280  23.097  21.963  1.00  0.00     0.001 A 
ATOM     21  C   UNL A   1      32.568  21.984  22.404  1.00  0.00     0.000 A 
ENDBRANCH  12  16
BRANCH  15  22
ATOM     22  C   UNL A   1      29.651  28.806  23.095  1.00  0.00    -0.018 A 
ATOM     23  C   UNL A   1      28.261  28.708  23.288  1.00  0.00     0.009 A 
ATOM     24  C   UNL A   1      30.122  29.732  22.152  1.00  0.00     0.009 A 
ATOM     25  C   UNL A   1      27.375  29.503  22.556  1.00  0.00     0.001 A 
ATOM     26  C   UNL A   1      29.236  30.525  21.416  1.00  0.00     0.001 A 
ATOM     27  C   UNL A   1      27.863  30.408  21.618  1.00  0.00     0.000 A 
ENDBRANCH  15  22
ENDBRANCH   8   9
ENDBRANCH   5   8
ENDBRANCH   3   4
ENDBRANCH   2   3
ENDBRANCH   1   2
BRANCH   1  28
ATOM     28  C   UNL A   1      34.727  34.700  29.075  1.00  0.00     0.116 C 
BRANCH  28  29
ATOM     29  N   UNL A   1      33.782  35.178  30.071  1.00  0.00    -0.352 N 
ATOM     30  C   UNL A   1      33.675  34.824  31.412  1.00  0.00     0.251 C 
ATOM     31  H   UNL A   1      33.129  35.842  29.753  1.00  0.00     0.163 HD
ATOM     32  O   UNL A   1      32.718  35.174  32.074  1.00  0.00    -0.269 OA
BRANCH  30  33
ATOM     33  C   UNL A   1      34.809  34.111  32.069  1.00  0.00     0.039 A 
ATOM     34  C   UNL A   1      35.935  34.866  32.423  1.00  0.00     0.014 A 
ATOM     35  C   UNL A   1      34.864  32.723  32.123  1.00  0.00     0.014 A 
ATOM     36  C   UNL A   1      37.168  34.232  32.572  1.00  0.00     0.010 A 
ATOM     37  C   UNL A   1      36.098  32.106  32.138  1.00  0.00     0.010 A 
ATOM     38  C   UNL A   1      37.257  32.866  32.303  1.00  0.00    -0.014 A 
BRANCH  38  39
ATOM     39  C   UNL A   1      38.514  32.170  32.064  1.00  0.00     0.031 A 
ATOM     40  C   UNL A   1      38.526  30.877  31.341  1.00  0.00     0.074 A 
ATOM     41  C   UNL A   1      39.688  32.730  32.443  1.00  0.00     0.049 A 
ATOM     42  N   UNL A   1      39.383  29.936  31.559  1.00  0.00    -0.248 NA
ATOM     43  C   UNL A   1      37.549  30.532  30.311  1.00  0.00     0.031 C 
ATOM     44  C   UNL A   1      41.027  32.260  32.092  1.00  0.00     0.029 A 
ATOM     45  N   UNL A   1      39.943  33.743  33.367  1.00  0.00    -0.354 N 
ATOM     46  C   UNL A   1      39.277  29.036  30.524  1.00  0.00     0.074 A 
ATOM     47  C   UNL A   1      38.066  29.400  29.824  1.00  0.00     0.031 C 
ATOM     48  C   UNL A   1      41.897  32.723  33.004  1.00  0.00     0.029 A 
ATOM     49  C   UNL A   1      41.115  33.371  34.040  1.00  0.00     0.049 A 
ATOM     50  H   UNL A   1      39.407  34.555  33.516  1.00  0.00     0.167 HD
ATOM     51  C   UNL A   1      40.303  28.181  30.252  1.00  0.00     0.034 A 
ATOM     52  C   UNL A   1      41.194  33.088  35.375  1.00  0.00     0.034 A 
ATOM     53  C   UNL A   1      41.441  28.407  31.137  1.00  0.00     0.049 A 
ATOM     54  C   UNL A   1      41.784  31.719  35.658  1.00  0.00     0.074 A 
ATOM     55  C   UNL A   1      42.629  29.097  30.959  1.00  0.00     0.029 A 
ATOM     56  N   UNL A   1      41.338  28.138  32.495  1.00  0.00    -0.354 N 
ATOM     57  N   UNL A   1      41.836  30.758  34.777  1.00  0.00    -0.248 NA
ATOM     58  C   UNL A   1      42.335  31.313  36.948  1.00  0.00     0.031 C 
ATOM     59  C   UNL A   1      43.231  29.268  32.228  1.00  0.00     0.029 A 
ATOM     60  C   UNL A   1      42.421  28.663  33.174  1.00  0.00     0.049 A 
ATOM     61  H   UNL A   1      40.599  27.642  32.915  1.00  0.00     0.167 HD
ATOM     62  C   UNL A   1      42.405  29.640  35.335  1.00  0.00     0.074 A 
ATOM     63  C   UNL A   1      42.708  30.044  36.696  1.00  0.00     0.031 C 
ATOM     64  C   UNL A   1      42.565  28.487  34.612  1.00  0.00     0.034 A 
BRANCH  51  65
ATOM     65  C   UNL A   1      40.406  27.381  28.974  1.00  0.00     0.023 A 
ATOM     66  C   UNL A   1      41.344  27.767  27.994  1.00  0.00     0.031 A 
ATOM     67  C   UNL A   1      39.614  26.265  28.651  1.00  0.00     0.131 A 
ATOM     68  C   UNL A   1      41.389  27.146  26.733  1.00  0.00     0.055 A 
ATOM     69  C   UNL A   1      39.622  25.675  27.379  1.00  0.00     0.041 A 
ATOM     70  F   UNL A   1      38.826  25.680  29.566  1.00  0.00    -0.206 F 
ATOM     71  C   UNL A   1      40.503  26.126  26.404  1.00  0.00     0.022 A 
BRANCH  68  72
ATOM     72  S   UNL A   1      42.632  27.699  25.534  1.00  0.00     0.124 S 
ATOM     73  O   UNL A   1      42.718  26.559  24.627  1.00  0.00    -0.237 OA
ATOM     74  O   UNL A   1      42.024  28.910  24.995  1.00  0.00    -0.237 OA
ATOM     75  O   UNL A   1      43.820  27.922  26.358  1.00  0.00    -0.744 OA
ENDBRANCH  68  72
ENDBRANCH  51  65
BRANCH  52  76
ATOM     76  C   UNL A   1      40.159  33.757  36.210  1.00  0.00     0.023 A 
ATOM     77  C   UNL A   1      39.099  32.960  36.686  1.00  0.00     0.031 A 
ATOM     78  C   UNL A   1      40.404  34.979  36.850  1.00  0.00     0.131 A 
ATOM     79  C   UNL A   1      38.436  33.304  37.873  1.00  0.00     0.055 A 
ATOM     80  C   UNL A   1      39.698  35.349  38.002  1.00  0.00     0.041 A 
ATOM     81  F   UNL A   1      41.415  35.766  36.456  1.00  0.00    -0.206 F 
ATOM     82  C   UNL A   1      38.743  34.489  38.545  1.00  0.00     0.022 A 
BRANCH  79  83
ATOM     83  S   UNL A   1      37.368  32.052  38.653  1.00  0.00     0.124 S 
ATOM     84  O   UNL A   1      36.089  32.748  38.712  1.00  0.00    -0.237 OA
ATOM     85  O   UNL A   1      37.454  30.940  37.709  1.00  0.00    -0.237 OA
ATOM     86  O   UNL A   1      38.016  31.806  39.939  1.00  0.00    -0.744 OA
ENDBRANCH  79  83
ENDBRANCH  52  76
BRANCH  64  87
ATOM     87  C   UNL A   1      42.969  27.120  35.139  1.00  0.00     0.023 A 
ATOM     88  C   UNL A   1      44.055  26.384  34.648  1.00  0.00     0.031 A 
ATOM     89  C   UNL A   1      42.287  26.528  36.236  1.00  0.00     0.131 A 
ATOM     90  C   UNL A   1      44.379  25.117  35.170  1.00  0.00     0.055 A 
ATOM     91  C   UNL A   1      42.655  25.302  36.801  1.00  0.00     0.041 A 
ATOM     92  F   UNL A   1      41.236  27.117  36.825  1.00  0.00    -0.206 F 
ATOM     93  C   UNL A   1      43.701  24.578  36.258  1.00  0.00     0.022 A 
BRANCH  90  94
ATOM     94  S   UNL A   1      45.680  24.160  34.347  1.00  0.00     0.124 S 
ATOM     95  O   UNL A   1      46.217  25.136  33.401  1.00  0.00    -0.237 OA
ATOM     96  O   UNL A   1      46.557  23.806  35.457  1.00  0.00    -0.237 OA
ATOM     97  O   UNL A   1      44.959  23.042  33.743  1.00  0.00    -0.744 OA
ENDBRANCH  90  94
ENDBRANCH  64  87
ENDBRANCH  38  39
ENDBRANCH  30  33
ENDBRANCH  28  29
ENDBRANCH   1  28
TORSDOF 17
ENDMDL
