MODEL 1
REMARK VINA RESULT:     -12.0      0.000      0.000
REMARK SMILES C[NH2+][C@@]1(C(=O)NCCCCNC(=O)c2ccc(-c3c4nc(c(-c5cc(S(=O)(=O)[O-])ccc5F)c5ccc([nH]5)c(-c5cc(S(=O)(=O)[O-])ccc5F)c5nc(c(-c6cc(S(=O)(=O)[O-])ccc6F)c6ccc3[nH]6)C=C5)C=C4)cc2)CC[C@H](Sc2ccc(C)c(C)c2)C1
REMARK SMILES IDX 9 1 8 2 7 3 6 4 4 5 5 6 3 8 77 9 89 10 78 11 79 12 2 13 1 14
REMARK SMILES IDX 80 17 81 18 82 19 88 20 83 21 86 22 84 23 87 24 85 25 10 26
REMARK SMILES IDX 11 27 12 28 13 30 14 31 15 32 76 33 16 34 75 35 17 36 18 37
REMARK SMILES IDX 19 38 69 39 20 40 74 41 68 42 70 43 21 44 73 45 67 46 66 47
REMARK SMILES IDX 22 49 54 50 34 51 53 52 35 53 38 54 52 55 71 56 36 57 37 58
REMARK SMILES IDX 51 60 72 61 39 62 23 63 24 64 32 65 25 66 31 67 33 68 30 69
REMARK SMILES IDX 26 70 27 71 28 72 29 73 55 74 56 75 64 76 57 77 63 78 65 79
REMARK SMILES IDX 62 80 58 81 59 82 60 83 61 84 40 85 41 86 49 87 42 88 48 89
REMARK SMILES IDX 50 90 47 91 43 92 44 93 45 94 46 95
REMARK H PARENT 6 7 2 15 2 16 11 29 70 48 38 59
REMARK Flexibility Score: inf
ROOT
ATOM      1  C   UNL A   1      32.734  30.911  27.259  1.00  0.00     0.023 C 
ENDROOT
BRANCH   1   2
ATOM      2  C   UNL A   1      31.410  31.070  26.535  1.00  0.00     0.023 C 
BRANCH   2   3
ATOM      3  C   UNL A   1      31.339  30.449  25.151  1.00  0.00     0.116 C 
BRANCH   3   4
ATOM      4  N   UNL A   1      32.534  29.752  24.756  1.00  0.00    -0.351 N 
ATOM      5  C   UNL A   1      32.717  28.788  23.815  1.00  0.00     0.281 C 
ATOM      6  O   UNL A   1      33.899  28.535  23.534  1.00  0.00    -0.268 OA
ATOM      7  H   UNL A   1      33.348  30.015  25.244  1.00  0.00     0.163 HD
BRANCH   5   8
ATOM      8  C   UNL A   1      31.540  28.045  23.052  1.00  0.00     0.176 C 
ATOM      9  C   UNL A   1      30.353  27.797  24.011  1.00  0.00     0.080 C 
ATOM     10  C   UNL A   1      31.875  26.661  22.460  1.00  0.00     0.094 C 
ATOM     11  C   UNL A   1      30.340  26.305  24.349  1.00  0.00     0.022 C 
ATOM     12  C   UNL A   1      30.917  25.634  23.108  1.00  0.00     0.058 C 
BRANCH   8  13
ATOM     13  N   UNL A   1      31.040  28.998  22.002  1.00  0.00    -0.336 N 
ATOM     14  C   UNL A   1      29.620  29.331  22.124  1.00  0.00     0.331 C 
ATOM     15  H   UNL A   1      31.579  29.861  22.071  1.00  0.00     0.346 HD
ATOM     16  H   UNL A   1      31.157  28.531  21.103  1.00  0.00     0.346 HD
ENDBRANCH   8  13
BRANCH  12  17
ATOM     17  S   UNL A   1      31.746  23.983  23.137  1.00  0.00    -0.122 SA
BRANCH  17  18
ATOM     18  C   UNL A   1      33.355  24.137  23.894  1.00  0.00     0.008 A 
ATOM     19  C   UNL A   1      33.563  24.701  25.146  1.00  0.00     0.015 A 
ATOM     20  C   UNL A   1      34.435  23.486  23.271  1.00  0.00     0.018 A 
ATOM     21  C   UNL A   1      34.820  24.620  25.758  1.00  0.00     0.005 A 
ATOM     22  C   UNL A   1      35.714  23.411  23.862  1.00  0.00    -0.047 A 
ATOM     23  C   UNL A   1      35.898  23.962  25.140  1.00  0.00    -0.048 A 
ATOM     24  C   UNL A   1      36.813  22.691  23.126  1.00  0.00     0.044 C 
ATOM     25  C   UNL A   1      37.182  23.835  25.920  1.00  0.00     0.044 C 
ENDBRANCH  17  18
ENDBRANCH  12  17
ENDBRANCH   5   8
ENDBRANCH   3   4
ENDBRANCH   2   3
ENDBRANCH   1   2
BRANCH   1  26
ATOM     26  C   UNL A   1      33.593  32.163  27.369  1.00  0.00     0.116 C 
BRANCH  26  27
ATOM     27  N   UNL A   1      32.887  33.383  27.747  1.00  0.00    -0.352 N 
ATOM     28  C   UNL A   1      33.281  34.335  28.668  1.00  0.00     0.251 C 
ATOM     29  H   UNL A   1      32.030  33.548  27.291  1.00  0.00     0.163 HD
ATOM     30  O   UNL A   1      32.687  35.386  28.812  1.00  0.00    -0.269 OA
BRANCH  28  31
ATOM     31  C   UNL A   1      34.424  34.018  29.532  1.00  0.00     0.039 A 
ATOM     32  C   UNL A   1      34.218  33.189  30.637  1.00  0.00     0.014 A 
ATOM     33  C   UNL A   1      35.700  34.438  29.161  1.00  0.00     0.014 A 
ATOM     34  C   UNL A   1      35.320  32.711  31.340  1.00  0.00     0.010 A 
ATOM     35  C   UNL A   1      36.794  33.885  29.804  1.00  0.00     0.010 A 
ATOM     36  C   UNL A   1      36.615  33.022  30.900  1.00  0.00    -0.014 A 
BRANCH  36  37
ATOM     37  C   UNL A   1      37.822  32.513  31.593  1.00  0.00     0.031 A 
ATOM     38  C   UNL A   1      38.589  31.393  30.954  1.00  0.00     0.074 A 
ATOM     39  C   UNL A   1      38.148  32.972  32.817  1.00  0.00     0.049 A 
ATOM     40  N   UNL A   1      39.521  30.630  31.458  1.00  0.00    -0.248 NA
ATOM     41  C   UNL A   1      38.207  31.050  29.574  1.00  0.00     0.031 C 
ATOM     42  C   UNL A   1      37.451  34.039  33.540  1.00  0.00     0.029 A 
ATOM     43  N   UNL A   1      39.137  32.578  33.681  1.00  0.00    -0.354 N 
ATOM     44  C   UNL A   1      39.802  29.686  30.475  1.00  0.00     0.074 A 
ATOM     45  C   UNL A   1      38.900  29.941  29.374  1.00  0.00     0.031 C 
ATOM     46  C   UNL A   1      38.043  34.220  34.733  1.00  0.00     0.029 A 
ATOM     47  C   UNL A   1      39.121  33.249  34.882  1.00  0.00     0.049 A 
ATOM     48  H   UNL A   1      39.797  31.881  33.462  1.00  0.00     0.167 HD
ATOM     49  C   UNL A   1      40.741  28.710  30.490  1.00  0.00     0.034 A 
ATOM     50  C   UNL A   1      39.877  33.078  35.984  1.00  0.00     0.034 A 
ATOM     51  C   UNL A   1      41.655  28.512  31.587  1.00  0.00     0.049 A 
ATOM     52  C   UNL A   1      40.933  32.000  35.969  1.00  0.00     0.074 A 
ATOM     53  C   UNL A   1      42.691  27.603  31.694  1.00  0.00     0.029 A 
ATOM     54  N   UNL A   1      41.643  29.245  32.768  1.00  0.00    -0.354 N 
ATOM     55  N   UNL A   1      41.209  31.127  35.026  1.00  0.00    -0.248 NA
ATOM     56  C   UNL A   1      41.783  31.890  37.160  1.00  0.00     0.031 C 
ATOM     57  C   UNL A   1      43.269  27.749  32.960  1.00  0.00     0.029 A 
ATOM     58  C   UNL A   1      42.642  28.797  33.616  1.00  0.00     0.049 A 
ATOM     59  H   UNL A   1      41.016  29.976  32.972  1.00  0.00     0.167 HD
ATOM     60  C   UNL A   1      42.284  30.382  35.501  1.00  0.00     0.074 A 
ATOM     61  C   UNL A   1      42.614  30.920  36.806  1.00  0.00     0.031 C 
ATOM     62  C   UNL A   1      42.944  29.350  34.915  1.00  0.00     0.034 A 
BRANCH  49  63
ATOM     63  C   UNL A   1      40.794  27.782  29.300  1.00  0.00     0.023 A 
ATOM     64  C   UNL A   1      41.721  27.964  28.258  1.00  0.00     0.031 A 
ATOM     65  C   UNL A   1      39.869  26.730  29.179  1.00  0.00     0.131 A 
ATOM     66  C   UNL A   1      41.644  27.171  27.104  1.00  0.00     0.055 A 
ATOM     67  C   UNL A   1      39.856  25.885  28.066  1.00  0.00     0.041 A 
ATOM     68  F   UNL A   1      38.945  26.520  30.129  1.00  0.00    -0.206 F 
ATOM     69  C   UNL A   1      40.736  26.115  27.012  1.00  0.00     0.022 A 
BRANCH  66  70
ATOM     70  S   UNL A   1      42.641  27.642  25.664  1.00  0.00     0.124 S 
ATOM     71  O   UNL A   1      43.992  27.614  26.221  1.00  0.00    -0.237 OA
ATOM     72  O   UNL A   1      42.325  26.590  24.705  1.00  0.00    -0.237 OA
ATOM     73  O   UNL A   1      42.143  28.972  25.321  1.00  0.00    -0.744 OA
ENDBRANCH  66  70
ENDBRANCH  49  63
BRANCH  50  74
ATOM     74  C   UNL A   1      39.663  33.925  37.192  1.00  0.00     0.023 A 
ATOM     75  C   UNL A   1      38.975  33.427  38.309  1.00  0.00     0.031 A 
ATOM     76  C   UNL A   1      40.118  35.255  37.237  1.00  0.00     0.131 A 
ATOM     77  C   UNL A   1      38.721  34.265  39.407  1.00  0.00     0.055 A 
ATOM     78  C   UNL A   1      39.906  36.070  38.351  1.00  0.00     0.041 A 
ATOM     79  F   UNL A   1      40.791  35.779  36.199  1.00  0.00    -0.206 F 
ATOM     80  C   UNL A   1      39.193  35.580  39.440  1.00  0.00     0.022 A 
BRANCH  77  81
ATOM     81  S   UNL A   1      37.699  33.633  40.765  1.00  0.00     0.124 S 
ATOM     82  O   UNL A   1      36.585  33.030  40.043  1.00  0.00    -0.237 OA
ATOM     83  O   UNL A   1      38.614  32.705  41.424  1.00  0.00    -0.237 OA
ATOM     84  O   UNL A   1      37.373  34.832  41.533  1.00  0.00    -0.744 OA
ENDBRANCH  77  81
ENDBRANCH  50  74
BRANCH  62  85
ATOM     85  C   UNL A   1      44.119  28.777  35.667  1.00  0.00     0.023 A 
ATOM     86  C   UNL A   1      43.971  27.704  36.562  1.00  0.00     0.031 A 
ATOM     87  C   UNL A   1      45.403  29.318  35.484  1.00  0.00     0.131 A 
ATOM     88  C   UNL A   1      45.081  27.239  37.281  1.00  0.00     0.055 A 
ATOM     89  C   UNL A   1      46.515  28.812  36.157  1.00  0.00     0.041 A 
ATOM     90  F   UNL A   1      45.599  30.345  34.641  1.00  0.00    -0.206 F 
ATOM     91  C   UNL A   1      46.355  27.775  37.072  1.00  0.00     0.022 A 
BRANCH  88  92
ATOM     92  S   UNL A   1      44.823  25.982  38.561  1.00  0.00     0.124 S 
ATOM     93  O   UNL A   1      44.076  26.725  39.569  1.00  0.00    -0.237 OA
ATOM     94  O   UNL A   1      44.077  24.953  37.844  1.00  0.00    -0.237 OA
ATOM     95  O   UNL A   1      46.181  25.603  38.948  1.00  0.00    -0.744 OA
ENDBRANCH  88  92
ENDBRANCH  62  85
ENDBRANCH  36  37
ENDBRANCH  28  31
ENDBRANCH  26  27
ENDBRANCH   1  26
TORSDOF 17
ENDMDL
MODEL 2
REMARK VINA RESULT:     -11.9      2.404      4.009
REMARK SMILES C[NH2+][C@@]1(C(=O)NCCCCNC(=O)c2ccc(-c3c4nc(c(-c5cc(S(=O)(=O)[O-])ccc5F)c5ccc([nH]5)c(-c5cc(S(=O)(=O)[O-])ccc5F)c5nc(c(-c6cc(S(=O)(=O)[O-])ccc6F)c6ccc3[nH]6)C=C5)C=C4)cc2)CC[C@H](Sc2ccc(C)c(C)c2)C1
REMARK SMILES IDX 9 1 8 2 7 3 6 4 4 5 5 6 3 8 77 9 89 10 78 11 79 12 2 13 1 14
REMARK SMILES IDX 80 17 81 18 82 19 88 20 83 21 86 22 84 23 87 24 85 25 10 26
REMARK SMILES IDX 11 27 12 28 13 30 14 31 15 32 76 33 16 34 75 35 17 36 18 37
REMARK SMILES IDX 19 38 69 39 20 40 74 41 68 42 70 43 21 44 73 45 67 46 66 47
REMARK SMILES IDX 22 49 54 50 34 51 53 52 35 53 38 54 52 55 71 56 36 57 37 58
REMARK SMILES IDX 51 60 72 61 39 62 23 63 24 64 32 65 25 66 31 67 33 68 30 69
REMARK SMILES IDX 26 70 27 71 28 72 29 73 55 74 56 75 64 76 57 77 63 78 65 79
REMARK SMILES IDX 62 80 58 81 59 82 60 83 61 84 40 85 41 86 49 87 42 88 48 89
REMARK SMILES IDX 50 90 47 91 43 92 44 93 45 94 46 95
REMARK H PARENT 6 7 2 15 2 16 11 29 70 48 38 59
REMARK Flexibility Score: inf
ROOT
ATOM      1  C   UNL A   1      31.862  28.318  27.441  1.00  0.00     0.023 C 
ENDROOT
BRANCH   1   2
ATOM      2  C   UNL A   1      31.112  27.278  26.630  1.00  0.00     0.023 C 
BRANCH   2   3
ATOM      3  C   UNL A   1      31.927  26.075  26.191  1.00  0.00     0.116 C 
BRANCH   3   4
ATOM      4  N   UNL A   1      31.575  24.849  26.856  1.00  0.00    -0.351 N 
ATOM      5  C   UNL A   1      32.126  23.609  26.763  1.00  0.00     0.281 C 
ATOM      6  O   UNL A   1      31.761  22.797  27.626  1.00  0.00    -0.268 OA
ATOM      7  H   UNL A   1      30.814  24.918  27.477  1.00  0.00     0.163 HD
BRANCH   5   8
ATOM      8  C   UNL A   1      33.211  23.190  25.683  1.00  0.00     0.176 C 
ATOM      9  C   UNL A   1      34.470  24.079  25.815  1.00  0.00     0.080 C 
ATOM     10  C   UNL A   1      32.788  23.310  24.205  1.00  0.00     0.094 C 
ATOM     11  C   UNL A   1      34.469  25.053  24.634  1.00  0.00     0.022 C 
ATOM     12  C   UNL A   1      33.768  24.288  23.518  1.00  0.00     0.058 C 
BRANCH   8  13
ATOM     13  N   UNL A   1      33.646  21.793  26.030  1.00  0.00    -0.336 N 
ATOM     14  C   UNL A   1      35.097  21.624  26.127  1.00  0.00     0.331 C 
ATOM     15  H   UNL A   1      33.234  21.544  26.930  1.00  0.00     0.346 HD
ATOM     16  H   UNL A   1      33.330  21.190  25.271  1.00  0.00     0.346 HD
ENDBRANCH   8  13
BRANCH  12  17
ATOM     17  S   UNL A   1      32.898  25.112  22.111  1.00  0.00    -0.122 SA
BRANCH  17  18
ATOM     18  C   UNL A   1      32.051  26.567  22.705  1.00  0.00     0.008 A 
ATOM     19  C   UNL A   1      32.638  27.825  22.766  1.00  0.00     0.015 A 
ATOM     20  C   UNL A   1      30.669  26.467  22.943  1.00  0.00     0.018 A 
ATOM     21  C   UNL A   1      31.863  28.953  23.062  1.00  0.00     0.005 A 
ATOM     22  C   UNL A   1      29.875  27.587  23.263  1.00  0.00    -0.047 A 
ATOM     23  C   UNL A   1      30.479  28.854  23.292  1.00  0.00    -0.048 A 
ATOM     24  C   UNL A   1      28.400  27.389  23.501  1.00  0.00     0.044 C 
ATOM     25  C   UNL A   1      29.711  30.134  23.501  1.00  0.00     0.044 C 
ENDBRANCH  17  18
ENDBRANCH  12  17
ENDBRANCH   5   8
ENDBRANCH   3   4
ENDBRANCH   2   3
ENDBRANCH   1   2
BRANCH   1  26
ATOM     26  C   UNL A   1      32.655  29.345  26.644  1.00  0.00     0.116 C 
BRANCH  26  27
ATOM     27  N   UNL A   1      32.267  30.738  26.842  1.00  0.00    -0.352 N 
ATOM     28  C   UNL A   1      33.067  31.787  27.251  1.00  0.00     0.251 C 
ATOM     29  H   UNL A   1      31.324  30.955  26.663  1.00  0.00     0.163 HD
ATOM     30  O   UNL A   1      32.678  32.939  27.254  1.00  0.00    -0.269 OA
BRANCH  28  31
ATOM     31  C   UNL A   1      34.410  31.469  27.750  1.00  0.00     0.039 A 
ATOM     32  C   UNL A   1      35.317  32.514  27.940  1.00  0.00     0.014 A 
ATOM     33  C   UNL A   1      34.704  30.165  28.143  1.00  0.00     0.014 A 
ATOM     34  C   UNL A   1      36.513  32.259  28.606  1.00  0.00     0.010 A 
ATOM     35  C   UNL A   1      35.849  29.937  28.886  1.00  0.00     0.010 A 
ATOM     36  C   UNL A   1      36.765  30.979  29.120  1.00  0.00    -0.014 A 
BRANCH  36  37
ATOM     37  C   UNL A   1      38.007  30.663  29.864  1.00  0.00     0.031 A 
ATOM     38  C   UNL A   1      38.991  29.720  29.236  1.00  0.00     0.074 A 
ATOM     39  C   UNL A   1      38.185  31.124  31.117  1.00  0.00     0.049 A 
ATOM     40  N   UNL A   1      40.017  29.114  29.768  1.00  0.00    -0.248 NA
ATOM     41  C   UNL A   1      38.745  29.370  27.827  1.00  0.00     0.031 C 
ATOM     42  C   UNL A   1      37.275  32.023  31.832  1.00  0.00     0.029 A 
ATOM     43  N   UNL A   1      39.184  30.876  32.023  1.00  0.00    -0.354 N 
ATOM     44  C   UNL A   1      40.509  28.273  28.775  1.00  0.00     0.074 A 
ATOM     45  C   UNL A   1      39.633  28.408  27.633  1.00  0.00     0.031 C 
ATOM     46  C   UNL A   1      37.765  32.257  33.061  1.00  0.00     0.029 A 
ATOM     47  C   UNL A   1      38.990  31.486  33.241  1.00  0.00     0.049 A 
ATOM     48  H   UNL A   1      39.967  30.314  31.821  1.00  0.00     0.167 HD
ATOM     49  C   UNL A   1      41.605  27.477  28.813  1.00  0.00     0.034 A 
ATOM     50  C   UNL A   1      39.709  31.407  34.378  1.00  0.00     0.034 A 
ATOM     51  C   UNL A   1      42.483  27.399  29.953  1.00  0.00     0.049 A 
ATOM     52  C   UNL A   1      40.938  30.532  34.390  1.00  0.00     0.074 A 
ATOM     53  C   UNL A   1      43.657  26.682  30.091  1.00  0.00     0.029 A 
ATOM     54  N   UNL A   1      42.283  28.072  31.153  1.00  0.00    -0.354 N 
ATOM     55  N   UNL A   1      41.411  29.759  33.438  1.00  0.00    -0.248 NA
ATOM     56  C   UNL A   1      41.734  30.526  35.623  1.00  0.00     0.031 C 
ATOM     57  C   UNL A   1      44.137  26.878  31.390  1.00  0.00     0.029 A 
ATOM     58  C   UNL A   1      43.302  27.773  32.041  1.00  0.00     0.049 A 
ATOM     59  H   UNL A   1      41.527  28.673  31.343  1.00  0.00     0.167 HD
ATOM     60  C   UNL A   1      42.576  29.196  33.950  1.00  0.00     0.074 A 
ATOM     61  C   UNL A   1      42.740  29.732  35.287  1.00  0.00     0.031 C 
ATOM     62  C   UNL A   1      43.437  28.319  33.371  1.00  0.00     0.034 A 
BRANCH  49  63
ATOM     63  C   UNL A   1      41.881  26.620  27.601  1.00  0.00     0.023 A 
ATOM     64  C   UNL A   1      41.468  25.277  27.533  1.00  0.00     0.031 A 
ATOM     65  C   UNL A   1      42.614  27.136  26.518  1.00  0.00     0.131 A 
ATOM     66  C   UNL A   1      41.867  24.474  26.455  1.00  0.00     0.055 A 
ATOM     67  C   UNL A   1      42.931  26.355  25.404  1.00  0.00     0.041 A 
ATOM     68  F   UNL A   1      43.057  28.403  26.535  1.00  0.00    -0.206 F 
ATOM     69  C   UNL A   1      42.572  25.010  25.376  1.00  0.00     0.022 A 
BRANCH  66  70
ATOM     70  S   UNL A   1      41.586  22.685  26.559  1.00  0.00     0.124 S 
ATOM     71  O   UNL A   1      40.127  22.614  26.522  1.00  0.00    -0.237 OA
ATOM     72  O   UNL A   1      42.279  22.188  25.376  1.00  0.00    -0.237 OA
ATOM     73  O   UNL A   1      42.189  22.317  27.838  1.00  0.00    -0.744 OA
ENDBRANCH  66  70
ENDBRANCH  49  63
BRANCH  50  74
ATOM     74  C   UNL A   1      39.288  32.156  35.597  1.00  0.00     0.023 A 
ATOM     75  C   UNL A   1      38.552  31.525  36.612  1.00  0.00     0.031 A 
ATOM     76  C   UNL A   1      39.590  33.520  35.752  1.00  0.00     0.131 A 
ATOM     77  C   UNL A   1      38.104  32.267  37.716  1.00  0.00     0.055 A 
ATOM     78  C   UNL A   1      39.184  34.242  36.876  1.00  0.00     0.041 A 
ATOM     79  F   UNL A   1      40.301  34.170  34.815  1.00  0.00    -0.206 F 
ATOM     80  C   UNL A   1      38.425  33.619  37.861  1.00  0.00     0.022 A 
BRANCH  77  81
ATOM     81  S   UNL A   1      37.028  31.455  38.930  1.00  0.00     0.124 S 
ATOM     82  O   UNL A   1      36.916  30.111  38.375  1.00  0.00    -0.237 OA
ATOM     83  O   UNL A   1      37.810  31.579  40.157  1.00  0.00    -0.237 OA
ATOM     84  O   UNL A   1      35.805  32.253  38.890  1.00  0.00    -0.744 OA
ENDBRANCH  77  81
ENDBRANCH  50  74
BRANCH  62  85
ATOM     85  C   UNL A   1      44.655  27.932  34.171  1.00  0.00     0.023 A 
ATOM     86  C   UNL A   1      44.661  26.806  35.011  1.00  0.00     0.031 A 
ATOM     87  C   UNL A   1      45.826  28.706  34.089  1.00  0.00     0.131 A 
ATOM     88  C   UNL A   1      45.798  26.515  35.778  1.00  0.00     0.055 A 
ATOM     89  C   UNL A   1      46.974  28.377  34.808  1.00  0.00     0.041 A 
ATOM     90  F   UNL A   1      45.873  29.793  33.301  1.00  0.00    -0.206 F 
ATOM     91  C   UNL A   1      46.960  27.283  35.668  1.00  0.00     0.022 A 
BRANCH  88  92
ATOM     92  S   UNL A   1      45.708  25.168  36.988  1.00  0.00     0.124 S 
ATOM     93  O   UNL A   1      46.630  25.628  38.021  1.00  0.00    -0.237 OA
ATOM     94  O   UNL A   1      44.295  25.165  37.349  1.00  0.00    -0.237 OA
ATOM     95  O   UNL A   1      46.156  23.999  36.233  1.00  0.00    -0.744 OA
ENDBRANCH  88  92
ENDBRANCH  62  85
ENDBRANCH  36  37
ENDBRANCH  28  31
ENDBRANCH  26  27
ENDBRANCH   1  26
TORSDOF 17
ENDMDL
MODEL 3
REMARK VINA RESULT:     -11.8      4.032      9.301
REMARK SMILES C[NH2+][C@@]1(C(=O)NCCCCNC(=O)c2ccc(-c3c4nc(c(-c5cc(S(=O)(=O)[O-])ccc5F)c5ccc([nH]5)c(-c5cc(S(=O)(=O)[O-])ccc5F)c5nc(c(-c6cc(S(=O)(=O)[O-])ccc6F)c6ccc3[nH]6)C=C5)C=C4)cc2)CC[C@H](Sc2ccc(C)c(C)c2)C1
REMARK SMILES IDX 9 1 8 2 7 3 6 4 4 5 5 6 3 8 77 9 89 10 78 11 79 12 2 13 1 14
REMARK SMILES IDX 80 17 81 18 82 19 88 20 83 21 86 22 84 23 87 24 85 25 10 26
REMARK SMILES IDX 11 27 12 28 13 30 14 31 15 32 76 33 16 34 75 35 17 36 18 37
REMARK SMILES IDX 19 38 69 39 20 40 74 41 68 42 70 43 21 44 73 45 67 46 66 47
REMARK SMILES IDX 22 49 54 50 34 51 53 52 35 53 38 54 52 55 71 56 36 57 37 58
REMARK SMILES IDX 51 60 72 61 39 62 23 63 24 64 32 65 25 66 31 67 33 68 30 69
REMARK SMILES IDX 26 70 27 71 28 72 29 73 55 74 56 75 64 76 57 77 63 78 65 79
REMARK SMILES IDX 62 80 58 81 59 82 60 83 61 84 40 85 41 86 49 87 42 88 48 89
REMARK SMILES IDX 50 90 47 91 43 92 44 93 45 94 46 95
REMARK H PARENT 6 7 2 15 2 16 11 29 70 48 38 59
REMARK Flexibility Score: inf
ROOT
ATOM      1  C   UNL A   1      32.256  28.749  26.360  1.00  0.00     0.023 C 
ENDROOT
BRANCH   1   2
ATOM      2  C   UNL A   1      31.362  27.598  26.783  1.00  0.00     0.023 C 
BRANCH   2   3
ATOM      3  C   UNL A   1      31.863  26.211  26.422  1.00  0.00     0.116 C 
BRANCH   3   4
ATOM      4  N   UNL A   1      31.010  25.141  26.869  1.00  0.00    -0.351 N 
ATOM      5  C   UNL A   1      31.154  23.795  26.746  1.00  0.00     0.281 C 
ATOM      6  O   UNL A   1      30.376  23.112  27.429  1.00  0.00    -0.268 OA
ATOM      7  H   UNL A   1      30.194  25.430  27.338  1.00  0.00     0.163 HD
BRANCH   5   8
ATOM      8  C   UNL A   1      32.259  23.089  25.853  1.00  0.00     0.176 C 
ATOM      9  C   UNL A   1      33.663  23.634  26.208  1.00  0.00     0.080 C 
ATOM     10  C   UNL A   1      32.130  23.276  24.328  1.00  0.00     0.094 C 
ATOM     11  C   UNL A   1      34.103  24.547  25.062  1.00  0.00     0.022 C 
ATOM     12  C   UNL A   1      33.425  23.958  23.831  1.00  0.00     0.058 C 
BRANCH   8  13
ATOM     13  N   UNL A   1      32.263  21.636  26.241  1.00  0.00    -0.336 N 
ATOM     14  C   UNL A   1      32.439  20.716  25.116  1.00  0.00     0.331 C 
ATOM     15  H   UNL A   1      33.024  21.484  26.902  1.00  0.00     0.346 HD
ATOM     16  H   UNL A   1      31.346  21.438  26.643  1.00  0.00     0.346 HD
ENDBRANCH   8  13
BRANCH  12  17
ATOM     17  S   UNL A   1      33.036  24.941  22.315  1.00  0.00    -0.122 SA
BRANCH  17  18
ATOM     18  C   UNL A   1      32.070  26.374  22.766  1.00  0.00     0.008 A 
ATOM     19  C   UNL A   1      32.513  27.680  22.601  1.00  0.00     0.015 A 
ATOM     20  C   UNL A   1      30.728  26.168  23.129  1.00  0.00     0.018 A 
ATOM     21  C   UNL A   1      31.636  28.754  22.798  1.00  0.00     0.005 A 
ATOM     22  C   UNL A   1      29.834  27.236  23.353  1.00  0.00    -0.047 A 
ATOM     23  C   UNL A   1      30.290  28.549  23.154  1.00  0.00    -0.048 A 
ATOM     24  C   UNL A   1      28.411  26.925  23.737  1.00  0.00     0.044 C 
ATOM     25  C   UNL A   1      29.397  29.760  23.243  1.00  0.00     0.044 C 
ENDBRANCH  17  18
ENDBRANCH  12  17
ENDBRANCH   5   8
ENDBRANCH   3   4
ENDBRANCH   2   3
ENDBRANCH   1   2
BRANCH   1  26
ATOM     26  C   UNL A   1      33.400  29.091  27.304  1.00  0.00     0.116 C 
BRANCH  26  27
ATOM     27  N   UNL A   1      33.509  30.497  27.683  1.00  0.00    -0.352 N 
ATOM     28  C   UNL A   1      34.635  31.167  28.121  1.00  0.00     0.251 C 
ATOM     29  H   UNL A   1      32.684  31.029  27.620  1.00  0.00     0.163 HD
ATOM     30  O   UNL A   1      34.653  32.372  28.282  1.00  0.00    -0.269 OA
BRANCH  28  31
ATOM     31  C   UNL A   1      35.822  30.369  28.451  1.00  0.00     0.039 A 
ATOM     32  C   UNL A   1      36.919  30.412  27.587  1.00  0.00     0.014 A 
ATOM     33  C   UNL A   1      35.879  29.699  29.672  1.00  0.00     0.014 A 
ATOM     34  C   UNL A   1      38.120  29.834  27.989  1.00  0.00     0.010 A 
ATOM     35  C   UNL A   1      37.099  29.210  30.105  1.00  0.00     0.010 A 
ATOM     36  C   UNL A   1      38.227  29.268  29.267  1.00  0.00    -0.014 A 
BRANCH  36  37
ATOM     37  C   UNL A   1      39.491  28.669  29.756  1.00  0.00     0.031 A 
ATOM     38  C   UNL A   1      40.230  29.368  30.859  1.00  0.00     0.074 A 
ATOM     39  C   UNL A   1      40.013  27.589  29.142  1.00  0.00     0.049 A 
ATOM     40  N   UNL A   1      41.447  29.182  31.294  1.00  0.00    -0.248 NA
ATOM     41  C   UNL A   1      39.513  30.470  31.523  1.00  0.00     0.031 C 
ATOM     42  C   UNL A   1      39.391  26.851  28.041  1.00  0.00     0.029 A 
ATOM     43  N   UNL A   1      41.204  26.940  29.344  1.00  0.00    -0.354 N 
ATOM     44  C   UNL A   1      41.659  30.174  32.246  1.00  0.00     0.074 A 
ATOM     45  C   UNL A   1      40.466  30.990  32.280  1.00  0.00     0.031 C 
ATOM     46  C   UNL A   1      40.202  25.845  27.673  1.00  0.00     0.029 A 
ATOM     47  C   UNL A   1      41.421  25.899  28.471  1.00  0.00     0.049 A 
ATOM     48  H   UNL A   1      41.844  27.195  30.048  1.00  0.00     0.167 HD
ATOM     49  C   UNL A   1      42.746  30.368  33.030  1.00  0.00     0.034 A 
ATOM     50  C   UNL A   1      42.496  25.099  28.320  1.00  0.00     0.034 A 
ATOM     51  C   UNL A   1      43.902  29.508  33.003  1.00  0.00     0.049 A 
ATOM     52  C   UNL A   1      43.686  25.320  29.221  1.00  0.00     0.074 A 
ATOM     53  C   UNL A   1      45.036  29.561  33.791  1.00  0.00     0.029 A 
ATOM     54  N   UNL A   1      44.066  28.431  32.140  1.00  0.00    -0.354 N 
ATOM     55  N   UNL A   1      43.869  26.245  30.136  1.00  0.00    -0.248 NA
ATOM     56  C   UNL A   1      44.808  24.386  29.075  1.00  0.00     0.031 C 
ATOM     57  C   UNL A   1      45.908  28.551  33.369  1.00  0.00     0.029 A 
ATOM     58  C   UNL A   1      45.289  27.823  32.365  1.00  0.00     0.049 A 
ATOM     59  H   UNL A   1      43.408  28.143  31.466  1.00  0.00     0.167 HD
ATOM     60  C   UNL A   1      45.117  25.986  30.695  1.00  0.00     0.074 A 
ATOM     61  C   UNL A   1      45.632  24.809  30.023  1.00  0.00     0.031 C 
ATOM     62  C   UNL A   1      45.779  26.653  31.675  1.00  0.00     0.034 A 
BRANCH  49  63
ATOM     63  C   UNL A   1      42.731  31.566  33.949  1.00  0.00     0.023 A 
ATOM     64  C   UNL A   1      42.287  31.475  35.280  1.00  0.00     0.031 A 
ATOM     65  C   UNL A   1      43.116  32.832  33.472  1.00  0.00     0.131 A 
ATOM     66  C   UNL A   1      42.152  32.635  36.056  1.00  0.00     0.055 A 
ATOM     67  C   UNL A   1      43.065  33.971  34.279  1.00  0.00     0.041 A 
ATOM     68  F   UNL A   1      43.526  32.988  32.203  1.00  0.00    -0.206 F 
ATOM     69  C   UNL A   1      42.564  33.879  35.575  1.00  0.00     0.022 A 
BRANCH  66  70
ATOM     70  S   UNL A   1      41.285  32.516  37.645  1.00  0.00     0.124 S 
ATOM     71  O   UNL A   1      39.992  31.973  37.233  1.00  0.00    -0.237 OA
ATOM     72  O   UNL A   1      42.142  31.615  38.406  1.00  0.00    -0.237 OA
ATOM     73  O   UNL A   1      41.250  33.897  38.121  1.00  0.00    -0.744 OA
ENDBRANCH  66  70
ENDBRANCH  49  63
BRANCH  50  74
ATOM     74  C   UNL A   1      42.509  24.033  27.278  1.00  0.00     0.023 A 
ATOM     75  C   UNL A   1      41.890  22.795  27.505  1.00  0.00     0.031 A 
ATOM     76  C   UNL A   1      43.168  24.226  26.050  1.00  0.00     0.131 A 
ATOM     77  C   UNL A   1      41.977  21.780  26.539  1.00  0.00     0.055 A 
ATOM     78  C   UNL A   1      43.210  23.230  25.072  1.00  0.00     0.041 A 
ATOM     79  F   UNL A   1      43.768  25.396  25.777  1.00  0.00    -0.206 F 
ATOM     80  C   UNL A   1      42.623  21.993  25.319  1.00  0.00     0.022 A 
BRANCH  77  81
ATOM     81  S   UNL A   1      41.296  20.146  26.932  1.00  0.00     0.124 S 
ATOM     82  O   UNL A   1      42.458  19.286  26.745  1.00  0.00    -0.237 OA
ATOM     83  O   UNL A   1      40.848  20.328  28.309  1.00  0.00    -0.237 OA
ATOM     84  O   UNL A   1      40.227  19.977  25.949  1.00  0.00    -0.744 OA
ENDBRANCH  77  81
ENDBRANCH  50  74
BRANCH  62  85
ATOM     85  C   UNL A   1      47.108  26.087  32.106  1.00  0.00     0.023 A 
ATOM     86  C   UNL A   1      48.292  26.364  31.402  1.00  0.00     0.031 A 
ATOM     87  C   UNL A   1      47.186  25.257  33.238  1.00  0.00     0.131 A 
ATOM     88  C   UNL A   1      49.497  25.772  31.806  1.00  0.00     0.055 A 
ATOM     89  C   UNL A   1      48.398  24.720  33.671  1.00  0.00     0.041 A 
ATOM     90  F   UNL A   1      46.084  24.961  33.945  1.00  0.00    -0.206 F 
ATOM     91  C   UNL A   1      49.560  24.966  32.947  1.00  0.00     0.022 A 
BRANCH  88  92
ATOM     92  S   UNL A   1      50.967  25.999  30.771  1.00  0.00     0.124 S 
ATOM     93  O   UNL A   1      50.550  25.387  29.514  1.00  0.00    -0.237 OA
ATOM     94  O   UNL A   1      51.118  27.450  30.754  1.00  0.00    -0.237 OA
ATOM     95  O   UNL A   1      52.012  25.277  31.496  1.00  0.00    -0.744 OA
ENDBRANCH  88  92
ENDBRANCH  62  85
ENDBRANCH  36  37
ENDBRANCH  28  31
ENDBRANCH  26  27
ENDBRANCH   1  26
TORSDOF 17
ENDMDL
