MODEL 1
REMARK VINA RESULT:     -10.2      0.000      0.000
REMARK SMILES Cc1cc(OCC(=O)N[C@@H](CO)C(=O)NCCCCNC(=O)c2ccc(-c3c4nc(c(-c5cc(S(=O)(=O)[O-])ccc5F)c5ccc([nH]5)c(-c5cc(S(=O)(=O)[O-])ccc5F)c5nc(c(-c6cc(S(=O)(=O)[O-])ccc6F)c6ccc3[nH]6)C=C5)C=C4)cc2)no1
REMARK SMILES IDX 17 1 16 2 15 3 13 4 14 5 10 7 9 8 7 9 8 10 6 12 5 13 4 14
REMARK SMILES IDX 1 15 2 16 3 17 87 18 86 19 11 20 12 21 18 23 19 24 20 25
REMARK SMILES IDX 21 26 22 28 23 29 24 30 85 31 25 32 84 33 26 34 27 35 28 36
REMARK SMILES IDX 78 37 29 38 83 39 77 40 79 41 30 42 82 43 76 44 75 45 31 47
REMARK SMILES IDX 63 48 43 49 62 50 44 51 47 52 61 53 80 54 45 55 46 56 60 58
REMARK SMILES IDX 81 59 48 60 32 61 33 62 41 63 34 64 40 65 42 66 39 67 35 68
REMARK SMILES IDX 36 69 37 70 38 71 64 72 65 73 73 74 66 75 72 76 74 77 71 78
REMARK SMILES IDX 67 79 68 80 69 81 70 82 49 83 50 84 58 85 51 86 57 87 59 88
REMARK SMILES IDX 56 89 52 90 53 91 54 92 55 93
REMARK H PARENT 15 6 9 11 12 22 20 27 79 46 47 57
REMARK Flexibility Score: inf
ROOT
ATOM      1  C   UNL A   1      34.623  35.045  28.160  1.00  0.00     0.023 C 
ENDROOT
BRANCH   1   2
ATOM      2  C   UNL A   1      33.286  35.078  28.893  1.00  0.00     0.116 C 
BRANCH   2   3
ATOM      3  N   UNL A   1      32.981  36.394  29.422  1.00  0.00    -0.354 N 
ATOM      4  C   UNL A   1      33.040  36.890  30.689  1.00  0.00     0.244 C 
ATOM      5  O   UNL A   1      32.909  38.111  30.826  1.00  0.00    -0.273 OA
ATOM      6  H   UNL A   1      32.676  37.042  28.746  1.00  0.00     0.163 HD
BRANCH   4   7
ATOM      7  C   UNL A   1      33.340  36.013  31.919  1.00  0.00     0.197 C 
BRANCH   7   8
ATOM      8  N   UNL A   1      34.756  36.072  32.299  1.00  0.00    -0.339 N 
ATOM      9  C   UNL A   1      35.554  35.067  32.751  1.00  0.00     0.258 C 
ATOM     10  O   UNL A   1      36.767  35.267  32.843  1.00  0.00    -0.271 OA
ATOM     11  H   UNL A   1      35.185  36.954  32.215  1.00  0.00     0.164 HD
BRANCH   9  12
ATOM     12  C   UNL A   1      34.936  33.730  33.167  1.00  0.00     0.331 C 
BRANCH  12  13
ATOM     13  O   UNL A   1      35.668  32.584  32.768  1.00  0.00    -0.465 OA
BRANCH  13  14
ATOM     14  C   UNL A   1      36.551  32.132  33.686  1.00  0.00     0.254 A 
ATOM     15  C   UNL A   1      39.300  30.549  35.495  1.00  0.00     0.091 C 
ATOM     16  C   UNL A   1      38.158  31.231  34.864  1.00  0.00     0.137 A 
ATOM     17  C   UNL A   1      37.577  31.173  33.620  1.00  0.00     0.116 A 
ATOM     18  O   UNL A   1      37.496  32.142  35.629  1.00  0.00    -0.358 OA
ATOM     19  N   UNL A   1      36.476  32.712  34.883  1.00  0.00    -0.041 NA
ENDBRANCH  13  14
ENDBRANCH  12  13
ENDBRANCH   9  12
ENDBRANCH   7   8
BRANCH   7  20
ATOM     20  C   UNL A   1      32.360  36.285  33.071  1.00  0.00     0.191 C 
BRANCH  20  21
ATOM     21  O   UNL A   1      30.994  36.317  32.661  1.00  0.00    -0.394 OA
ATOM     22  H   UNL A   1      30.466  35.760  33.254  1.00  0.00     0.210 HD
ENDBRANCH  20  21
ENDBRANCH   7  20
ENDBRANCH   4   7
ENDBRANCH   2   3
ENDBRANCH   1   2
BRANCH   1  23
ATOM     23  C   UNL A   1      35.245  33.655  28.021  1.00  0.00     0.023 C 
BRANCH  23  24
ATOM     24  C   UNL A   1      34.740  32.612  29.014  1.00  0.00     0.116 C 
BRANCH  24  25
ATOM     25  N   UNL A   1      34.118  31.464  28.372  1.00  0.00    -0.352 N 
ATOM     26  C   UNL A   1      34.677  30.241  28.078  1.00  0.00     0.251 C 
ATOM     27  H   UNL A   1      33.175  31.576  28.113  1.00  0.00     0.163 HD
ATOM     28  O   UNL A   1      34.047  29.415  27.424  1.00  0.00    -0.269 OA
BRANCH  26  29
ATOM     29  C   UNL A   1      36.056  29.957  28.525  1.00  0.00     0.039 A 
ATOM     30  C   UNL A   1      36.258  29.382  29.782  1.00  0.00     0.014 A 
ATOM     31  C   UNL A   1      37.139  30.202  27.677  1.00  0.00     0.014 A 
ATOM     32  C   UNL A   1      37.541  28.976  30.156  1.00  0.00     0.010 A 
ATOM     33  C   UNL A   1      38.402  29.734  28.023  1.00  0.00     0.010 A 
ATOM     34  C   UNL A   1      38.615  29.108  29.263  1.00  0.00    -0.014 A 
BRANCH  34  35
ATOM     35  C   UNL A   1      39.977  28.617  29.597  1.00  0.00     0.031 A 
ATOM     36  C   UNL A   1      40.809  29.369  30.599  1.00  0.00     0.074 A 
ATOM     37  C   UNL A   1      40.492  27.554  28.947  1.00  0.00     0.049 A 
ATOM     38  N   UNL A   1      42.069  29.216  30.913  1.00  0.00    -0.248 NA
ATOM     39  C   UNL A   1      40.136  30.462  31.319  1.00  0.00     0.031 C 
ATOM     40  C   UNL A   1      39.792  26.757  27.938  1.00  0.00     0.029 A 
ATOM     41  N   UNL A   1      41.733  26.972  29.024  1.00  0.00    -0.354 N 
ATOM     42  C   UNL A   1      42.345  30.200  31.856  1.00  0.00     0.074 A 
ATOM     43  C   UNL A   1      41.137  30.981  32.015  1.00  0.00     0.031 C 
ATOM     44  C   UNL A   1      40.610  25.786  27.498  1.00  0.00     0.029 A 
ATOM     45  C   UNL A   1      41.908  25.918  28.154  1.00  0.00     0.049 A 
ATOM     46  H   UNL A   1      42.435  27.278  29.644  1.00  0.00     0.167 HD
ATOM     47  C   UNL A   1      43.492  30.417  32.546  1.00  0.00     0.034 A 
ATOM     48  C   UNL A   1      42.995  25.163  27.900  1.00  0.00     0.034 A 
ATOM     49  C   UNL A   1      44.685  29.623  32.390  1.00  0.00     0.049 A 
ATOM     50  C   UNL A   1      44.269  25.441  28.662  1.00  0.00     0.074 A 
ATOM     51  C   UNL A   1      45.900  29.751  33.040  1.00  0.00     0.029 A 
ATOM     52  N   UNL A   1      44.811  28.544  31.523  1.00  0.00    -0.354 N 
ATOM     53  N   UNL A   1      44.509  26.371  29.558  1.00  0.00    -0.248 NA
ATOM     54  C   UNL A   1      45.414  24.562  28.387  1.00  0.00     0.031 C 
ATOM     55  C   UNL A   1      46.772  28.777  32.538  1.00  0.00     0.029 A 
ATOM     56  C   UNL A   1      46.082  28.003  31.620  1.00  0.00     0.049 A 
ATOM     57  H   UNL A   1      44.099  28.213  30.928  1.00  0.00     0.167 HD
ATOM     58  C   UNL A   1      45.819  26.160  29.981  1.00  0.00     0.074 A 
ATOM     59  C   UNL A   1      46.313  25.012  29.250  1.00  0.00     0.031 C 
ATOM     60  C   UNL A   1      46.548  26.847  30.895  1.00  0.00     0.034 A 
BRANCH  47  61
ATOM     61  C   UNL A   1      43.503  31.566  33.523  1.00  0.00     0.023 A 
ATOM     62  C   UNL A   1      43.156  31.381  34.872  1.00  0.00     0.031 A 
ATOM     63  C   UNL A   1      43.835  32.865  33.100  1.00  0.00     0.131 A 
ATOM     64  C   UNL A   1      43.079  32.484  35.734  1.00  0.00     0.055 A 
ATOM     65  C   UNL A   1      43.834  33.948  33.981  1.00  0.00     0.041 A 
ATOM     66  F   UNL A   1      44.154  33.106  31.818  1.00  0.00    -0.206 F 
ATOM     67  C   UNL A   1      43.440  33.763  35.304  1.00  0.00     0.022 A 
BRANCH  64  68
ATOM     68  S   UNL A   1      42.375  32.243  37.387  1.00  0.00     0.124 S 
ATOM     69  O   UNL A   1      41.142  33.021  37.296  1.00  0.00    -0.237 OA
ATOM     70  O   UNL A   1      42.212  30.795  37.454  1.00  0.00    -0.237 OA
ATOM     71  O   UNL A   1      43.392  32.800  38.277  1.00  0.00    -0.744 OA
ENDBRANCH  64  68
ENDBRANCH  47  61
BRANCH  48  72
ATOM     72  C   UNL A   1      42.953  24.083  26.871  1.00  0.00     0.023 A 
ATOM     73  C   UNL A   1      42.287  22.873  27.124  1.00  0.00     0.031 A 
ATOM     74  C   UNL A   1      43.643  24.212  25.653  1.00  0.00     0.131 A 
ATOM     75  C   UNL A   1      42.379  21.818  26.203  1.00  0.00     0.055 A 
ATOM     76  C   UNL A   1      43.682  23.180  24.714  1.00  0.00     0.041 A 
ATOM     77  F   UNL A   1      44.293  25.349  25.358  1.00  0.00    -0.206 F 
ATOM     78  C   UNL A   1      43.063  21.966  24.995  1.00  0.00     0.022 A 
BRANCH  75  79
ATOM     79  S   UNL A   1      41.693  20.203  26.666  1.00  0.00     0.124 S 
ATOM     80  O   UNL A   1      42.611  19.781  27.719  1.00  0.00    -0.237 OA
ATOM     81  O   UNL A   1      40.345  20.560  27.094  1.00  0.00    -0.237 OA
ATOM     82  O   UNL A   1      41.770  19.434  25.427  1.00  0.00    -0.744 OA
ENDBRANCH  75  79
ENDBRANCH  48  72
BRANCH  60  83
ATOM     83  C   UNL A   1      47.927  26.325  31.206  1.00  0.00     0.023 A 
ATOM     84  C   UNL A   1      48.167  25.453  32.281  1.00  0.00     0.031 A 
ATOM     85  C   UNL A   1      49.018  26.711  30.405  1.00  0.00     0.131 A 
ATOM     86  C   UNL A   1      49.477  25.032  32.556  1.00  0.00     0.055 A 
ATOM     87  C   UNL A   1      50.310  26.249  30.653  1.00  0.00     0.041 A 
ATOM     88  F   UNL A   1      48.840  27.541  29.364  1.00  0.00    -0.206 F 
ATOM     89  C   UNL A   1      50.547  25.413  31.741  1.00  0.00     0.022 A 
BRANCH  86  90
ATOM     90  S   UNL A   1      49.778  24.031  34.038  1.00  0.00     0.124 S 
ATOM     91  O   UNL A   1      50.622  22.961  33.517  1.00  0.00    -0.237 OA
ATOM     92  O   UNL A   1      50.433  24.982  34.930  1.00  0.00    -0.237 OA
ATOM     93  O   UNL A   1      48.438  23.618  34.451  1.00  0.00    -0.744 OA
ENDBRANCH  86  90
ENDBRANCH  60  83
ENDBRANCH  34  35
ENDBRANCH  26  29
ENDBRANCH  24  25
ENDBRANCH  23  24
ENDBRANCH   1  23
TORSDOF 20
ENDMDL
MODEL 2
REMARK VINA RESULT:     -10.0      4.576     10.767
REMARK SMILES Cc1cc(OCC(=O)N[C@@H](CO)C(=O)NCCCCNC(=O)c2ccc(-c3c4nc(c(-c5cc(S(=O)(=O)[O-])ccc5F)c5ccc([nH]5)c(-c5cc(S(=O)(=O)[O-])ccc5F)c5nc(c(-c6cc(S(=O)(=O)[O-])ccc6F)c6ccc3[nH]6)C=C5)C=C4)cc2)no1
REMARK SMILES IDX 17 1 16 2 15 3 13 4 14 5 10 7 9 8 7 9 8 10 6 12 5 13 4 14
REMARK SMILES IDX 1 15 2 16 3 17 87 18 86 19 11 20 12 21 18 23 19 24 20 25
REMARK SMILES IDX 21 26 22 28 23 29 24 30 85 31 25 32 84 33 26 34 27 35 28 36
REMARK SMILES IDX 78 37 29 38 83 39 77 40 79 41 30 42 82 43 76 44 75 45 31 47
REMARK SMILES IDX 63 48 43 49 62 50 44 51 47 52 61 53 80 54 45 55 46 56 60 58
REMARK SMILES IDX 81 59 48 60 32 61 33 62 41 63 34 64 40 65 42 66 39 67 35 68
REMARK SMILES IDX 36 69 37 70 38 71 64 72 65 73 73 74 66 75 72 76 74 77 71 78
REMARK SMILES IDX 67 79 68 80 69 81 70 82 49 83 50 84 58 85 51 86 57 87 59 88
REMARK SMILES IDX 56 89 52 90 53 91 54 92 55 93
REMARK H PARENT 15 6 9 11 12 22 20 27 79 46 47 57
REMARK Flexibility Score: inf
ROOT
ATOM      1  C   UNL A   1      32.243  29.899  26.833  1.00  0.00     0.023 C 
ENDROOT
BRANCH   1   2
ATOM      2  C   UNL A   1      33.368  29.319  25.981  1.00  0.00     0.116 C 
BRANCH   2   3
ATOM      3  N   UNL A   1      33.178  29.584  24.567  1.00  0.00    -0.354 N 
ATOM      4  C   UNL A   1      32.865  28.757  23.532  1.00  0.00     0.244 C 
ATOM      5  O   UNL A   1      32.572  29.285  22.454  1.00  0.00    -0.273 OA
ATOM      6  H   UNL A   1      33.298  30.527  24.312  1.00  0.00     0.163 HD
BRANCH   4   7
ATOM      7  C   UNL A   1      32.784  27.226  23.677  1.00  0.00     0.197 C 
BRANCH   7   8
ATOM      8  N   UNL A   1      31.651  26.815  24.514  1.00  0.00    -0.339 N 
ATOM      9  C   UNL A   1      30.322  26.864  24.223  1.00  0.00     0.258 C 
ATOM     10  O   UNL A   1      29.528  26.303  24.981  1.00  0.00    -0.271 OA
ATOM     11  H   UNL A   1      31.882  26.459  25.402  1.00  0.00     0.164 HD
BRANCH   9  12
ATOM     12  C   UNL A   1      29.837  27.635  22.994  1.00  0.00     0.331 C 
BRANCH  12  13
ATOM     13  O   UNL A   1      28.496  28.086  23.063  1.00  0.00    -0.465 OA
BRANCH  13  14
ATOM     14  C   UNL A   1      28.355  29.429  23.131  1.00  0.00     0.254 A 
ATOM     15  C   UNL A   1      28.790  33.053  23.081  1.00  0.00     0.091 C 
ATOM     16  C   UNL A   1      28.507  31.609  23.129  1.00  0.00     0.137 A 
ATOM     17  C   UNL A   1      29.288  30.480  23.093  1.00  0.00     0.116 A 
ATOM     18  O   UNL A   1      27.197  31.250  23.218  1.00  0.00    -0.358 OA
ATOM     19  N   UNL A   1      27.101  29.867  23.220  1.00  0.00    -0.041 NA
ENDBRANCH  13  14
ENDBRANCH  12  13
ENDBRANCH   9  12
ENDBRANCH   7   8
BRANCH   7  20
ATOM     20  C   UNL A   1      32.861  26.515  22.316  1.00  0.00     0.191 C 
BRANCH  20  21
ATOM     21  O   UNL A   1      32.763  25.096  22.408  1.00  0.00    -0.394 OA
ATOM     22  H   UNL A   1      32.547  24.729  21.537  1.00  0.00     0.210 HD
ENDBRANCH  20  21
ENDBRANCH   7  20
ENDBRANCH   4   7
ENDBRANCH   2   3
ENDBRANCH   1   2
BRANCH   1  23
ATOM     23  C   UNL A   1      32.060  31.411  26.710  1.00  0.00     0.023 C 
BRANCH  23  24
ATOM     24  C   UNL A   1      33.143  32.256  27.374  1.00  0.00     0.116 C 
BRANCH  24  25
ATOM     25  N   UNL A   1      32.721  33.623  27.642  1.00  0.00    -0.352 N 
ATOM     26  C   UNL A   1      33.208  34.500  28.584  1.00  0.00     0.251 C 
ATOM     27  H   UNL A   1      31.991  33.964  27.077  1.00  0.00     0.163 HD
ATOM     28  O   UNL A   1      32.659  35.583  28.761  1.00  0.00    -0.269 OA
BRANCH  26  29
ATOM     29  C   UNL A   1      34.372  34.100  29.402  1.00  0.00     0.039 A 
ATOM     30  C   UNL A   1      34.160  33.361  30.568  1.00  0.00     0.014 A 
ATOM     31  C   UNL A   1      35.669  34.403  28.981  1.00  0.00     0.014 A 
ATOM     32  C   UNL A   1      35.256  32.853  31.270  1.00  0.00     0.010 A 
ATOM     33  C   UNL A   1      36.755  33.839  29.642  1.00  0.00     0.010 A 
ATOM     34  C   UNL A   1      36.560  33.051  30.789  1.00  0.00    -0.014 A 
BRANCH  34  35
ATOM     35  C   UNL A   1      37.743  32.460  31.467  1.00  0.00     0.031 A 
ATOM     36  C   UNL A   1      38.466  31.309  30.823  1.00  0.00     0.074 A 
ATOM     37  C   UNL A   1      38.113  32.899  32.687  1.00  0.00     0.049 A 
ATOM     38  N   UNL A   1      39.408  30.543  31.311  1.00  0.00    -0.248 NA
ATOM     39  C   UNL A   1      38.048  30.955  29.458  1.00  0.00     0.031 C 
ATOM     40  C   UNL A   1      37.476  33.991  33.424  1.00  0.00     0.029 A 
ATOM     41  N   UNL A   1      39.104  32.465  33.532  1.00  0.00    -0.354 N 
ATOM     42  C   UNL A   1      39.685  29.609  30.320  1.00  0.00     0.074 A 
ATOM     43  C   UNL A   1      38.769  29.868  29.230  1.00  0.00     0.031 C 
ATOM     44  C   UNL A   1      38.097  34.149  34.605  1.00  0.00     0.029 A 
ATOM     45  C   UNL A   1      39.144  33.139  34.733  1.00  0.00     0.049 A 
ATOM     46  H   UNL A   1      39.730  31.741  33.302  1.00  0.00     0.167 HD
ATOM     47  C   UNL A   1      40.634  28.640  30.308  1.00  0.00     0.034 A 
ATOM     48  C   UNL A   1      39.920  32.948  35.819  1.00  0.00     0.034 A 
ATOM     49  C   UNL A   1      41.551  28.402  31.395  1.00  0.00     0.049 A 
ATOM     50  C   UNL A   1      40.951  31.846  35.792  1.00  0.00     0.074 A 
ATOM     51  C   UNL A   1      42.553  27.452  31.488  1.00  0.00     0.029 A 
ATOM     52  N   UNL A   1      41.581  29.127  32.579  1.00  0.00    -0.354 N 
ATOM     53  N   UNL A   1      41.206  30.976  34.841  1.00  0.00    -0.248 NA
ATOM     54  C   UNL A   1      41.806  31.705  36.979  1.00  0.00     0.031 C 
ATOM     55  C   UNL A   1      43.161  27.576  32.742  1.00  0.00     0.029 A 
ATOM     56  C   UNL A   1      42.580  28.642  33.407  1.00  0.00     0.049 A 
ATOM     57  H   UNL A   1      40.980  29.876  32.798  1.00  0.00     0.167 HD
ATOM     58  C   UNL A   1      42.278  30.215  35.302  1.00  0.00     0.074 A 
ATOM     59  C   UNL A   1      42.626  30.732  36.608  1.00  0.00     0.031 C 
ATOM     60  C   UNL A   1      42.922  29.185  34.699  1.00  0.00     0.034 A 
BRANCH  47  61
ATOM     61  C   UNL A   1      40.713  27.767  29.082  1.00  0.00     0.023 A 
ATOM     62  C   UNL A   1      41.652  28.017  28.065  1.00  0.00     0.031 A 
ATOM     63  C   UNL A   1      39.826  26.690  28.908  1.00  0.00     0.131 A 
ATOM     64  C   UNL A   1      41.636  27.250  26.892  1.00  0.00     0.055 A 
ATOM     65  C   UNL A   1      39.867  25.879  27.772  1.00  0.00     0.041 A 
ATOM     66  F   UNL A   1      38.894  26.416  29.835  1.00  0.00    -0.206 F 
ATOM     67  C   UNL A   1      40.767  26.166  26.749  1.00  0.00     0.022 A 
BRANCH  64  68
ATOM     68  S   UNL A   1      42.679  27.772  25.504  1.00  0.00     0.124 S 
ATOM     69  O   UNL A   1      42.598  26.608  24.624  1.00  0.00    -0.237 OA
ATOM     70  O   UNL A   1      42.001  28.975  25.034  1.00  0.00    -0.237 OA
ATOM     71  O   UNL A   1      43.985  27.991  26.121  1.00  0.00    -0.744 OA
ENDBRANCH  64  68
ENDBRANCH  47  61
BRANCH  48  72
ATOM     72  C   UNL A   1      39.753  33.794  37.037  1.00  0.00     0.023 A 
ATOM     73  C   UNL A   1      39.276  33.244  38.238  1.00  0.00     0.031 A 
ATOM     74  C   UNL A   1      39.994  35.179  36.997  1.00  0.00     0.131 A 
ATOM     75  C   UNL A   1      38.992  34.082  39.327  1.00  0.00     0.055 A 
ATOM     76  C   UNL A   1      39.765  35.999  38.104  1.00  0.00     0.041 A 
ATOM     77  F   UNL A   1      40.455  35.757  35.877  1.00  0.00    -0.206 F 
ATOM     78  C   UNL A   1      39.243  35.455  39.272  1.00  0.00     0.022 A 
BRANCH  75  79
ATOM     79  S   UNL A   1      38.170  33.366  40.778  1.00  0.00     0.124 S 
ATOM     80  O   UNL A   1      36.762  33.509  40.422  1.00  0.00    -0.237 OA
ATOM     81  O   UNL A   1      38.697  32.006  40.782  1.00  0.00    -0.237 OA
ATOM     82  O   UNL A   1      38.625  34.214  41.878  1.00  0.00    -0.744 OA
ENDBRANCH  75  79
ENDBRANCH  48  72
BRANCH  60  83
ATOM     83  C   UNL A   1      44.113  28.605  35.418  1.00  0.00     0.023 A 
ATOM     84  C   UNL A   1      43.981  27.580  36.369  1.00  0.00     0.031 A 
ATOM     85  C   UNL A   1      45.403  29.092  35.139  1.00  0.00     0.131 A 
ATOM     86  C   UNL A   1      45.116  27.106  37.044  1.00  0.00     0.055 A 
ATOM     87  C   UNL A   1      46.533  28.582  35.776  1.00  0.00     0.041 A 
ATOM     88  F   UNL A   1      45.583  30.070  34.236  1.00  0.00    -0.206 F 
ATOM     89  C   UNL A   1      46.392  27.590  36.742  1.00  0.00     0.022 A 
BRANCH  86  90
ATOM     90  S   UNL A   1      44.897  25.891  38.372  1.00  0.00     0.124 S 
ATOM     91  O   UNL A   1      44.095  26.636  39.337  1.00  0.00    -0.237 OA
ATOM     92  O   UNL A   1      44.215  24.798  37.687  1.00  0.00    -0.237 OA
ATOM     93  O   UNL A   1      46.264  25.597  38.798  1.00  0.00    -0.744 OA
ENDBRANCH  86  90
ENDBRANCH  60  83
ENDBRANCH  34  35
ENDBRANCH  26  29
ENDBRANCH  24  25
ENDBRANCH  23  24
ENDBRANCH   1  23
TORSDOF 20
ENDMDL
MODEL 3
REMARK VINA RESULT:     -10.0      4.186     10.427
REMARK SMILES Cc1cc(OCC(=O)N[C@@H](CO)C(=O)NCCCCNC(=O)c2ccc(-c3c4nc(c(-c5cc(S(=O)(=O)[O-])ccc5F)c5ccc([nH]5)c(-c5cc(S(=O)(=O)[O-])ccc5F)c5nc(c(-c6cc(S(=O)(=O)[O-])ccc6F)c6ccc3[nH]6)C=C5)C=C4)cc2)no1
REMARK SMILES IDX 17 1 16 2 15 3 13 4 14 5 10 7 9 8 7 9 8 10 6 12 5 13 4 14
REMARK SMILES IDX 1 15 2 16 3 17 87 18 86 19 11 20 12 21 18 23 19 24 20 25
REMARK SMILES IDX 21 26 22 28 23 29 24 30 85 31 25 32 84 33 26 34 27 35 28 36
REMARK SMILES IDX 78 37 29 38 83 39 77 40 79 41 30 42 82 43 76 44 75 45 31 47
REMARK SMILES IDX 63 48 43 49 62 50 44 51 47 52 61 53 80 54 45 55 46 56 60 58
REMARK SMILES IDX 81 59 48 60 32 61 33 62 41 63 34 64 40 65 42 66 39 67 35 68
REMARK SMILES IDX 36 69 37 70 38 71 64 72 65 73 73 74 66 75 72 76 74 77 71 78
REMARK SMILES IDX 67 79 68 80 69 81 70 82 49 83 50 84 58 85 51 86 57 87 59 88
REMARK SMILES IDX 56 89 52 90 53 91 54 92 55 93
REMARK H PARENT 15 6 9 11 12 22 20 27 79 46 47 57
REMARK Flexibility Score: inf
ROOT
ATOM      1  C   UNL A   1      33.647  28.029  24.819  1.00  0.00     0.023 C 
ENDROOT
BRANCH   1   2
ATOM      2  C   UNL A   1      33.697  27.101  26.030  1.00  0.00     0.116 C 
BRANCH   2   3
ATOM      3  N   UNL A   1      34.175  25.775  25.687  1.00  0.00    -0.354 N 
ATOM      4  C   UNL A   1      33.524  24.584  25.581  1.00  0.00     0.244 C 
ATOM      5  O   UNL A   1      34.146  23.642  25.079  1.00  0.00    -0.273 OA
ATOM      6  H   UNL A   1      35.141  25.729  25.501  1.00  0.00     0.163 HD
BRANCH   4   7
ATOM      7  C   UNL A   1      32.048  24.398  25.977  1.00  0.00     0.197 C 
BRANCH   7   8
ATOM      8  N   UNL A   1      31.221  23.998  24.832  1.00  0.00    -0.339 N 
ATOM      9  C   UNL A   1      30.582  24.792  23.931  1.00  0.00     0.258 C 
ATOM     10  O   UNL A   1      30.086  24.273  22.929  1.00  0.00    -0.271 OA
ATOM     11  H   UNL A   1      31.116  23.028  24.699  1.00  0.00     0.164 HD
BRANCH   9  12
ATOM     12  C   UNL A   1      30.458  26.295  24.191  1.00  0.00     0.331 C 
BRANCH  12  13
ATOM     13  O   UNL A   1      29.160  26.829  23.996  1.00  0.00    -0.465 OA
BRANCH  13  14
ATOM     14  C   UNL A   1      29.106  27.882  23.149  1.00  0.00     0.254 A 
ATOM     15  C   UNL A   1      28.306  30.956  21.349  1.00  0.00     0.091 C 
ATOM     16  C   UNL A   1      28.715  29.702  22.003  1.00  0.00     0.137 A 
ATOM     17  C   UNL A   1      28.144  28.889  22.952  1.00  0.00     0.116 A 
ATOM     18  O   UNL A   1      29.922  29.191  21.637  1.00  0.00    -0.358 OA
ATOM     19  N   UNL A   1      30.170  28.036  22.363  1.00  0.00    -0.041 NA
ENDBRANCH  13  14
ENDBRANCH  12  13
ENDBRANCH   9  12
ENDBRANCH   7   8
BRANCH   7  20
ATOM     20  C   UNL A   1      31.895  23.502  27.217  1.00  0.00     0.191 C 
BRANCH  20  21
ATOM     21  O   UNL A   1      30.589  22.949  27.362  1.00  0.00    -0.394 OA
ATOM     22  H   UNL A   1      30.350  22.467  26.555  1.00  0.00     0.210 HD
ENDBRANCH  20  21
ENDBRANCH   7  20
ENDBRANCH   4   7
ENDBRANCH   2   3
ENDBRANCH   1   2
BRANCH   1  23
ATOM     23  C   UNL A   1      32.857  29.320  25.032  1.00  0.00     0.023 C 
BRANCH  23  24
ATOM     24  C   UNL A   1      32.635  29.716  26.489  1.00  0.00     0.116 C 
BRANCH  24  25
ATOM     25  N   UNL A   1      32.398  31.141  26.666  1.00  0.00    -0.352 N 
ATOM     26  C   UNL A   1      33.175  32.062  27.331  1.00  0.00     0.251 C 
ATOM     27  H   UNL A   1      31.574  31.492  26.257  1.00  0.00     0.163 HD
ATOM     28  O   UNL A   1      32.771  33.210  27.490  1.00  0.00    -0.269 OA
BRANCH  26  29
ATOM     29  C   UNL A   1      34.477  31.636  27.883  1.00  0.00     0.039 A 
ATOM     30  C   UNL A   1      35.514  32.567  27.973  1.00  0.00     0.014 A 
ATOM     31  C   UNL A   1      34.648  30.337  28.367  1.00  0.00     0.014 A 
ATOM     32  C   UNL A   1      36.699  32.218  28.625  1.00  0.00     0.010 A 
ATOM     33  C   UNL A   1      35.801  30.014  29.076  1.00  0.00     0.010 A 
ATOM     34  C   UNL A   1      36.835  30.953  29.220  1.00  0.00    -0.014 A 
BRANCH  34  35
ATOM     35  C   UNL A   1      38.050  30.576  29.988  1.00  0.00     0.031 A 
ATOM     36  C   UNL A   1      39.015  29.581  29.402  1.00  0.00     0.074 A 
ATOM     37  C   UNL A   1      38.243  31.058  31.232  1.00  0.00     0.049 A 
ATOM     38  N   UNL A   1      40.039  28.990  29.962  1.00  0.00    -0.248 NA
ATOM     39  C   UNL A   1      38.770  29.175  28.010  1.00  0.00     0.031 C 
ATOM     40  C   UNL A   1      37.366  32.009  31.917  1.00  0.00     0.029 A 
ATOM     41  N   UNL A   1      39.229  30.798  32.151  1.00  0.00    -0.354 N 
ATOM     42  C   UNL A   1      40.553  28.133  28.996  1.00  0.00     0.074 A 
ATOM     43  C   UNL A   1      39.690  28.237  27.838  1.00  0.00     0.031 C 
ATOM     44  C   UNL A   1      37.858  32.260  33.141  1.00  0.00     0.029 A 
ATOM     45  C   UNL A   1      39.056  31.453  33.351  1.00  0.00     0.049 A 
ATOM     46  H   UNL A   1      39.990  30.200  31.970  1.00  0.00     0.167 HD
ATOM     47  C   UNL A   1      41.659  27.350  29.057  1.00  0.00     0.034 A 
ATOM     48  C   UNL A   1      39.770  31.390  34.493  1.00  0.00     0.034 A 
ATOM     49  C   UNL A   1      42.519  27.266  30.211  1.00  0.00     0.049 A 
ATOM     50  C   UNL A   1      40.981  30.491  34.546  1.00  0.00     0.074 A 
ATOM     51  C   UNL A   1      43.665  26.510  30.381  1.00  0.00     0.029 A 
ATOM     52  N   UNL A   1      42.329  27.969  31.394  1.00  0.00    -0.354 N 
ATOM     53  N   UNL A   1      41.459  29.693  33.618  1.00  0.00    -0.248 NA
ATOM     54  C   UNL A   1      41.756  30.490  35.795  1.00  0.00     0.031 C 
ATOM     55  C   UNL A   1      44.145  26.724  31.678  1.00  0.00     0.029 A 
ATOM     56  C   UNL A   1      43.333  27.661  32.296  1.00  0.00     0.049 A 
ATOM     57  H   UNL A   1      41.589  28.596  31.564  1.00  0.00     0.167 HD
ATOM     58  C   UNL A   1      42.612  29.130  34.160  1.00  0.00     0.074 A 
ATOM     59  C   UNL A   1      42.762  29.685  35.489  1.00  0.00     0.031 C 
ATOM     60  C   UNL A   1      43.474  28.240  33.609  1.00  0.00     0.034 A 
BRANCH  47  61
ATOM     61  C   UNL A   1      41.985  26.520  27.841  1.00  0.00     0.023 A 
ATOM     62  C   UNL A   1      41.660  25.154  27.780  1.00  0.00     0.031 A 
ATOM     63  C   UNL A   1      42.652  27.088  26.741  1.00  0.00     0.131 A 
ATOM     64  C   UNL A   1      42.064  24.385  26.680  1.00  0.00     0.055 A 
ATOM     65  C   UNL A   1      42.982  26.335  25.613  1.00  0.00     0.041 A 
ATOM     66  F   UNL A   1      43.007  28.383  26.751  1.00  0.00    -0.206 F 
ATOM     67  C   UNL A   1      42.700  24.972  25.583  1.00  0.00     0.022 A 
BRANCH  64  68
ATOM     68  S   UNL A   1      41.861  22.586  26.760  1.00  0.00     0.124 S 
ATOM     69  O   UNL A   1      40.490  22.467  27.250  1.00  0.00    -0.237 OA
ATOM     70  O   UNL A   1      42.081  22.181  25.376  1.00  0.00    -0.237 OA
ATOM     71  O   UNL A   1      42.894  22.167  27.706  1.00  0.00    -0.744 OA
ENDBRANCH  64  68
ENDBRANCH  47  61
BRANCH  48  72
ATOM     72  C   UNL A   1      39.363  32.178  35.693  1.00  0.00     0.023 A 
ATOM     73  C   UNL A   1      38.644  31.577  36.740  1.00  0.00     0.031 A 
ATOM     74  C   UNL A   1      39.616  33.558  35.777  1.00  0.00     0.131 A 
ATOM     75  C   UNL A   1      38.149  32.364  37.790  1.00  0.00     0.055 A 
ATOM     76  C   UNL A   1      39.171  34.326  36.854  1.00  0.00     0.041 A 
ATOM     77  F   UNL A   1      40.302  34.182  34.806  1.00  0.00    -0.206 F 
ATOM     78  C   UNL A   1      38.416  33.733  37.860  1.00  0.00     0.022 A 
BRANCH  75  79
ATOM     79  S   UNL A   1      37.040  31.592  39.003  1.00  0.00     0.124 S 
ATOM     80  O   UNL A   1      35.857  32.439  38.904  1.00  0.00    -0.237 OA
ATOM     81  O   UNL A   1      36.909  30.240  38.471  1.00  0.00    -0.237 OA
ATOM     82  O   UNL A   1      37.782  31.699  40.257  1.00  0.00    -0.744 OA
ENDBRANCH  75  79
ENDBRANCH  48  72
BRANCH  60  83
ATOM     83  C   UNL A   1      44.693  27.874  34.417  1.00  0.00     0.023 A 
ATOM     84  C   UNL A   1      44.699  26.779  35.298  1.00  0.00     0.031 A 
ATOM     85  C   UNL A   1      45.867  28.639  34.298  1.00  0.00     0.131 A 
ATOM     86  C   UNL A   1      45.844  26.507  36.062  1.00  0.00     0.055 A 
ATOM     87  C   UNL A   1      47.018  28.333  35.022  1.00  0.00     0.041 A 
ATOM     88  F   UNL A   1      45.912  29.694  33.468  1.00  0.00    -0.206 F 
ATOM     89  C   UNL A   1      47.008  27.268  35.919  1.00  0.00     0.022 A 
BRANCH  86  90
ATOM     90  S   UNL A   1      45.773  25.183  37.299  1.00  0.00     0.124 S 
ATOM     91  O   UNL A   1      45.120  24.109  36.558  1.00  0.00    -0.237 OA
ATOM     92  O   UNL A   1      47.182  24.974  37.614  1.00  0.00    -0.237 OA
ATOM     93  O   UNL A   1      44.978  25.764  38.379  1.00  0.00    -0.744 OA
ENDBRANCH  86  90
ENDBRANCH  60  83
ENDBRANCH  34  35
ENDBRANCH  26  29
ENDBRANCH  24  25
ENDBRANCH  23  24
ENDBRANCH   1  23
TORSDOF 20
ENDMDL
