MODEL 1
REMARK VINA RESULT:     -11.2      0.000      0.000
REMARK SMILES CC(=O)NNC(=O)C[NH2+][C@@](C)(C(=O)NCCCCNC(=O)c1ccc(-c2c3nc(c(-c4cc(S(=O)(=O)[O-])ccc4F)c4ccc([nH]4)c(-c4cc(S(=O)(=O)[O-])ccc4F)c4nc(c(-c5cc(S(=O)(=O)[O-])ccc5F)c5ccc2[nH]5)C=C4)C=C3)cc1)C(F)(F)F
REMARK SMILES IDX 16 1 15 2 14 3 12 4 13 5 10 7 11 8 9 9 8 12 6 13 5 14 7 16
REMARK SMILES IDX 4 17 1 18 2 19 3 20 85 22 86 23 87 24 88 25 17 26 18 27
REMARK SMILES IDX 19 28 20 29 21 31 22 32 23 33 84 34 24 35 83 36 25 37 26 38
REMARK SMILES IDX 27 39 77 40 28 41 82 42 76 43 78 44 29 45 81 46 75 47 74 48
REMARK SMILES IDX 30 50 62 51 42 52 61 53 43 54 46 55 60 56 79 57 44 58 45 59
REMARK SMILES IDX 59 61 80 62 47 63 31 64 32 65 40 66 33 67 39 68 41 69 38 70
REMARK SMILES IDX 34 71 35 72 36 73 37 74 63 75 64 76 72 77 65 78 71 79 73 80
REMARK SMILES IDX 70 81 66 82 67 83 68 84 69 85 48 86 49 87 57 88 50 89 56 90
REMARK SMILES IDX 58 91 55 92 51 93 52 94 53 95 54 96
REMARK H PARENT 14 6 9 10 9 11 5 15 4 21 19 30 78 49 46 60
REMARK Flexibility Score: inf
ROOT
ATOM      1  C   UNL A   1      32.914  26.288  25.437  1.00  0.00     0.023 C 
ENDROOT
BRANCH   1   2
ATOM      2  C   UNL A   1      34.021  25.236  25.399  1.00  0.00     0.116 C 
BRANCH   2   3
ATOM      3  N   UNL A   1      33.859  24.251  26.456  1.00  0.00    -0.350 N 
ATOM      4  C   UNL A   1      34.197  22.928  26.566  1.00  0.00     0.290 C 
ATOM      5  O   UNL A   1      33.871  22.383  27.622  1.00  0.00    -0.267 OA
ATOM      6  H   UNL A   1      33.418  24.610  27.260  1.00  0.00     0.163 HD
BRANCH   4   7
ATOM      7  C   UNL A   1      34.941  22.178  25.432  1.00  0.00     0.268 C 
ATOM      8  C   UNL A   1      34.255  22.502  24.088  1.00  0.00     0.101 C 
BRANCH   7   9
ATOM      9  N   UNL A   1      34.948  20.713  25.795  1.00  0.00    -0.318 N 
ATOM     10  H   UNL A   1      35.920  20.414  25.875  1.00  0.00     0.347 HD
ATOM     11  H   UNL A   1      34.421  20.637  26.665  1.00  0.00     0.347 HD
BRANCH   9  12
ATOM     12  C   UNL A   1      34.277  19.820  24.839  1.00  0.00     0.364 C 
BRANCH  12  13
ATOM     13  C   UNL A   1      32.911  19.394  25.402  1.00  0.00     0.293 C 
ATOM     14  N   UNL A   1      32.774  18.132  25.930  1.00  0.00    -0.263 N 
ATOM     15  H   UNL A   1      31.882  17.850  26.236  1.00  0.00     0.191 HD
ATOM     16  O   UNL A   1      31.943  20.156  25.383  1.00  0.00    -0.267 OA
BRANCH  14  17
ATOM     17  N   UNL A   1      33.828  17.230  26.054  1.00  0.00    -0.268 N 
ATOM     18  C   UNL A   1      33.292  16.201  23.883  1.00  0.00     0.116 C 
ATOM     19  C   UNL A   1      34.148  16.278  25.117  1.00  0.00     0.235 C 
ATOM     20  O   UNL A   1      35.097  15.517  25.293  1.00  0.00    -0.274 OA
ATOM     21  H   UNL A   1      34.382  17.279  26.867  1.00  0.00     0.191 HD
ENDBRANCH  14  17
ENDBRANCH  12  13
ENDBRANCH   9  12
ENDBRANCH   7   9
BRANCH   7  22
ATOM     22  C   UNL A   1      36.369  22.801  25.364  1.00  0.00     0.453 C 
ATOM     23  F   UNL A   1      36.720  23.429  26.509  1.00  0.00    -0.164 F 
ATOM     24  F   UNL A   1      37.293  21.813  25.178  1.00  0.00    -0.164 F 
ATOM     25  F   UNL A   1      36.531  23.655  24.330  1.00  0.00    -0.164 F 
ENDBRANCH   7  22
ENDBRANCH   4   7
ENDBRANCH   2   3
ENDBRANCH   1   2
BRANCH   1  26
ATOM     26  C   UNL A   1      33.223  27.505  26.310  1.00  0.00     0.023 C 
BRANCH  26  27
ATOM     27  C   UNL A   1      33.966  28.633  25.604  1.00  0.00     0.116 C 
BRANCH  27  28
ATOM     28  N   UNL A   1      33.666  29.941  26.162  1.00  0.00    -0.352 N 
ATOM     29  C   UNL A   1      34.283  30.603  27.194  1.00  0.00     0.251 C 
ATOM     30  H   UNL A   1      32.914  30.418  25.742  1.00  0.00     0.163 HD
ATOM     31  O   UNL A   1      33.778  31.635  27.633  1.00  0.00    -0.269 OA
BRANCH  29  32
ATOM     32  C   UNL A   1      35.525  30.062  27.789  1.00  0.00     0.039 A 
ATOM     33  C   UNL A   1      36.733  30.249  27.112  1.00  0.00     0.014 A 
ATOM     34  C   UNL A   1      35.502  29.366  29.000  1.00  0.00     0.014 A 
ATOM     35  C   UNL A   1      37.919  29.766  27.669  1.00  0.00     0.010 A 
ATOM     36  C   UNL A   1      36.696  28.969  29.598  1.00  0.00     0.010 A 
ATOM     37  C   UNL A   1      37.915  29.140  28.926  1.00  0.00    -0.014 A 
BRANCH  37  38
ATOM     38  C   UNL A   1      39.170  28.606  29.517  1.00  0.00     0.031 A 
ATOM     39  C   UNL A   1      39.703  29.189  30.802  1.00  0.00     0.074 A 
ATOM     40  C   UNL A   1      39.840  27.617  28.892  1.00  0.00     0.049 A 
ATOM     41  N   UNL A   1      40.779  28.869  31.474  1.00  0.00    -0.248 NA
ATOM     42  C   UNL A   1      38.941  30.302  31.389  1.00  0.00     0.031 C 
ATOM     43  C   UNL A   1      39.447  27.002  27.623  1.00  0.00     0.029 A 
ATOM     44  N   UNL A   1      40.987  26.950  29.241  1.00  0.00    -0.354 N 
ATOM     45  C   UNL A   1      40.829  29.748  32.552  1.00  0.00     0.074 A 
ATOM     46  C   UNL A   1      39.717  30.661  32.399  1.00  0.00     0.031 C 
ATOM     47  C   UNL A   1      40.311  26.018  27.325  1.00  0.00     0.029 A 
ATOM     48  C   UNL A   1      41.345  25.961  28.354  1.00  0.00     0.049 A 
ATOM     49  H   UNL A   1      41.506  27.159  30.051  1.00  0.00     0.167 HD
ATOM     50  C   UNL A   1      41.701  29.772  33.590  1.00  0.00     0.034 A 
ATOM     51  C   UNL A   1      42.386  25.104  28.371  1.00  0.00     0.034 A 
ATOM     52  C   UNL A   1      42.795  28.843  33.733  1.00  0.00     0.049 A 
ATOM     53  C   UNL A   1      43.353  25.160  29.528  1.00  0.00     0.074 A 
ATOM     54  C   UNL A   1      43.709  28.740  34.768  1.00  0.00     0.029 A 
ATOM     55  N   UNL A   1      43.129  27.858  32.812  1.00  0.00    -0.354 N 
ATOM     56  N   UNL A   1      43.352  25.959  30.571  1.00  0.00    -0.248 NA
ATOM     57  C   UNL A   1      44.448  24.183  29.519  1.00  0.00     0.031 C 
ATOM     58  C   UNL A   1      44.640  27.751  34.435  1.00  0.00     0.029 A 
ATOM     59  C   UNL A   1      44.253  27.166  33.239  1.00  0.00     0.049 A 
ATOM     60  H   UNL A   1      42.640  27.677  31.977  1.00  0.00     0.167 HD
ATOM     61  C   UNL A   1      44.421  25.548  31.364  1.00  0.00     0.074 A 
ATOM     62  C   UNL A   1      45.030  24.423  30.683  1.00  0.00     0.031 C 
ATOM     63  C   UNL A   1      44.854  26.047  32.550  1.00  0.00     0.034 A 
BRANCH  50  64
ATOM     64  C   UNL A   1      41.519  30.858  34.628  1.00  0.00     0.023 A 
ATOM     65  C   UNL A   1      40.417  30.875  35.500  1.00  0.00     0.031 A 
ATOM     66  C   UNL A   1      42.447  31.911  34.725  1.00  0.00     0.131 A 
ATOM     67  C   UNL A   1      40.222  31.962  36.367  1.00  0.00     0.055 A 
ATOM     68  C   UNL A   1      42.297  32.941  35.655  1.00  0.00     0.041 A 
ATOM     69  F   UNL A   1      43.508  31.966  33.905  1.00  0.00    -0.206 F 
ATOM     70  C   UNL A   1      41.171  32.982  36.472  1.00  0.00     0.022 A 
BRANCH  67  71
ATOM     71  S   UNL A   1      38.636  32.107  37.233  1.00  0.00     0.124 S 
ATOM     72  O   UNL A   1      39.072  32.335  38.610  1.00  0.00    -0.237 OA
ATOM     73  O   UNL A   1      38.012  33.243  36.564  1.00  0.00    -0.237 OA
ATOM     74  O   UNL A   1      37.996  30.815  36.997  1.00  0.00    -0.744 OA
ENDBRANCH  67  71
ENDBRANCH  50  64
BRANCH  51  75
ATOM     75  C   UNL A   1      42.571  24.111  27.272  1.00  0.00     0.023 A 
ATOM     76  C   UNL A   1      41.909  22.873  27.295  1.00  0.00     0.031 A 
ATOM     77  C   UNL A   1      43.456  24.362  26.208  1.00  0.00     0.131 A 
ATOM     78  C   UNL A   1      42.185  21.912  26.311  1.00  0.00     0.055 A 
ATOM     79  C   UNL A   1      43.680  23.426  25.197  1.00  0.00     0.041 A 
ATOM     80  F   UNL A   1      44.113  25.532  26.132  1.00  0.00    -0.206 F 
ATOM     81  C   UNL A   1      43.054  22.185  25.254  1.00  0.00     0.022 A 
BRANCH  78  82
ATOM     82  S   UNL A   1      41.466  20.255  26.489  1.00  0.00     0.124 S 
ATOM     83  O   UNL A   1      42.075  19.545  25.371  1.00  0.00    -0.237 OA
ATOM     84  O   UNL A   1      41.923  19.868  27.820  1.00  0.00    -0.237 OA
ATOM     85  O   UNL A   1      40.030  20.493  26.370  1.00  0.00    -0.744 OA
ENDBRANCH  78  82
ENDBRANCH  51  75
BRANCH  63  86
ATOM     86  C   UNL A   1      46.006  25.331  33.219  1.00  0.00     0.023 A 
ATOM     87  C   UNL A   1      45.808  24.244  34.087  1.00  0.00     0.031 A 
ATOM     88  C   UNL A   1      47.326  25.770  33.004  1.00  0.00     0.131 A 
ATOM     89  C   UNL A   1      46.899  23.685  34.768  1.00  0.00     0.055 A 
ATOM     90  C   UNL A   1      48.416  25.158  33.623  1.00  0.00     0.041 A 
ATOM     91  F   UNL A   1      47.578  26.806  32.187  1.00  0.00    -0.206 F 
ATOM     92  C   UNL A   1      48.205  24.121  34.527  1.00  0.00     0.022 A 
BRANCH  89  93
ATOM     93  S   UNL A   1      46.578  22.469  36.076  1.00  0.00     0.124 S 
ATOM     94  O   UNL A   1      45.362  22.995  36.686  1.00  0.00    -0.237 OA
ATOM     95  O   UNL A   1      46.428  21.231  35.319  1.00  0.00    -0.237 OA
ATOM     96  O   UNL A   1      47.774  22.543  36.914  1.00  0.00    -0.744 OA
ENDBRANCH  89  93
ENDBRANCH  63  86
ENDBRANCH  37  38
ENDBRANCH  29  32
ENDBRANCH  27  28
ENDBRANCH  26  27
ENDBRANCH   1  26
TORSDOF 19
ENDMDL
MODEL 2
REMARK VINA RESULT:     -11.0      5.222     10.445
REMARK SMILES CC(=O)NNC(=O)C[NH2+][C@@](C)(C(=O)NCCCCNC(=O)c1ccc(-c2c3nc(c(-c4cc(S(=O)(=O)[O-])ccc4F)c4ccc([nH]4)c(-c4cc(S(=O)(=O)[O-])ccc4F)c4nc(c(-c5cc(S(=O)(=O)[O-])ccc5F)c5ccc2[nH]5)C=C4)C=C3)cc1)C(F)(F)F
REMARK SMILES IDX 16 1 15 2 14 3 12 4 13 5 10 7 11 8 9 9 8 12 6 13 5 14 7 16
REMARK SMILES IDX 4 17 1 18 2 19 3 20 85 22 86 23 87 24 88 25 17 26 18 27
REMARK SMILES IDX 19 28 20 29 21 31 22 32 23 33 84 34 24 35 83 36 25 37 26 38
REMARK SMILES IDX 27 39 77 40 28 41 82 42 76 43 78 44 29 45 81 46 75 47 74 48
REMARK SMILES IDX 30 50 62 51 42 52 61 53 43 54 46 55 60 56 79 57 44 58 45 59
REMARK SMILES IDX 59 61 80 62 47 63 31 64 32 65 40 66 33 67 39 68 41 69 38 70
REMARK SMILES IDX 34 71 35 72 36 73 37 74 63 75 64 76 72 77 65 78 71 79 73 80
REMARK SMILES IDX 70 81 66 82 67 83 68 84 69 85 48 86 49 87 57 88 50 89 56 90
REMARK SMILES IDX 58 91 55 92 51 93 52 94 53 95 54 96
REMARK H PARENT 14 6 9 10 9 11 5 15 4 21 19 30 78 49 46 60
REMARK Flexibility Score: inf
ROOT
ATOM      1  C   UNL A   1      34.636  21.612  24.661  1.00  0.00     0.023 C 
ENDROOT
BRANCH   1   2
ATOM      2  C   UNL A   1      33.459  22.525  24.323  1.00  0.00     0.116 C 
BRANCH   2   3
ATOM      3  N   UNL A   1      33.802  23.474  23.276  1.00  0.00    -0.350 N 
ATOM      4  C   UNL A   1      33.599  24.821  23.128  1.00  0.00     0.290 C 
ATOM      5  O   UNL A   1      34.006  25.304  22.070  1.00  0.00    -0.267 OA
ATOM      6  H   UNL A   1      34.280  23.064  22.520  1.00  0.00     0.163 HD
BRANCH   4   7
ATOM      7  C   UNL A   1      32.905  25.668  24.224  1.00  0.00     0.268 C 
ATOM      8  C   UNL A   1      31.602  24.959  24.651  1.00  0.00     0.101 C 
BRANCH   7   9
ATOM      9  N   UNL A   1      32.708  27.054  23.660  1.00  0.00    -0.318 N 
ATOM     10  H   UNL A   1      33.217  27.710  24.253  1.00  0.00     0.347 HD
ATOM     11  H   UNL A   1      33.051  27.017  22.699  1.00  0.00     0.347 HD
BRANCH   9  12
ATOM     12  C   UNL A   1      31.314  27.510  23.572  1.00  0.00     0.364 C 
BRANCH  12  13
ATOM     13  C   UNL A   1      31.122  28.759  24.449  1.00  0.00     0.293 C 
ATOM     14  N   UNL A   1      30.613  29.901  23.878  1.00  0.00    -0.263 N 
ATOM     15  H   UNL A   1      30.547  30.710  24.435  1.00  0.00     0.191 HD
ATOM     16  O   UNL A   1      31.422  28.754  25.644  1.00  0.00    -0.267 OA
BRANCH  14  17
ATOM     17  N   UNL A   1      30.186  29.975  22.554  1.00  0.00    -0.268 N 
ATOM     18  C   UNL A   1      27.825  30.018  23.250  1.00  0.00     0.116 C 
ATOM     19  C   UNL A   1      28.870  30.041  22.168  1.00  0.00     0.235 C 
ATOM     20  O   UNL A   1      28.565  30.108  20.980  1.00  0.00    -0.274 OA
ATOM     21  H   UNL A   1      30.872  29.982  21.848  1.00  0.00     0.191 HD
ENDBRANCH  14  17
ENDBRANCH  12  13
ENDBRANCH   9  12
ENDBRANCH   7   9
BRANCH   7  22
ATOM     22  C   UNL A   1      33.854  25.637  25.461  1.00  0.00     0.453 C 
ATOM     23  F   UNL A   1      33.885  26.814  26.126  1.00  0.00    -0.164 F 
ATOM     24  F   UNL A   1      33.409  24.710  26.359  1.00  0.00    -0.164 F 
ATOM     25  F   UNL A   1      35.119  25.274  25.155  1.00  0.00    -0.164 F 
ENDBRANCH   7  22
ENDBRANCH   4   7
ENDBRANCH   2   3
ENDBRANCH   1   2
BRANCH   1  26
ATOM     26  C   UNL A   1      35.372  21.974  25.951  1.00  0.00     0.023 C 
BRANCH  26  27
ATOM     27  C   UNL A   1      36.803  22.464  25.763  1.00  0.00     0.116 C 
BRANCH  27  28
ATOM     28  N   UNL A   1      37.786  21.403  25.909  1.00  0.00    -0.352 N 
ATOM     29  C   UNL A   1      39.115  21.496  26.237  1.00  0.00     0.251 C 
ATOM     30  H   UNL A   1      37.451  20.492  25.749  1.00  0.00     0.163 HD
ATOM     31  O   UNL A   1      39.827  20.496  26.150  1.00  0.00    -0.269 OA
BRANCH  29  32
ATOM     32  C   UNL A   1      39.689  22.792  26.664  1.00  0.00     0.039 A 
ATOM     33  C   UNL A   1      39.286  23.956  26.007  1.00  0.00     0.014 A 
ATOM     34  C   UNL A   1      40.627  22.860  27.698  1.00  0.00     0.014 A 
ATOM     35  C   UNL A   1      39.799  25.191  26.410  1.00  0.00     0.010 A 
ATOM     36  C   UNL A   1      41.064  24.099  28.160  1.00  0.00     0.010 A 
ATOM     37  C   UNL A   1      40.677  25.276  27.504  1.00  0.00    -0.014 A 
BRANCH  37  38
ATOM     38  C   UNL A   1      41.243  26.584  27.927  1.00  0.00     0.031 A 
ATOM     39  C   UNL A   1      42.665  26.938  27.571  1.00  0.00     0.074 A 
ATOM     40  C   UNL A   1      40.491  27.440  28.648  1.00  0.00     0.049 A 
ATOM     41  N   UNL A   1      43.345  28.020  27.850  1.00  0.00    -0.248 NA
ATOM     42  C   UNL A   1      43.433  25.924  26.832  1.00  0.00     0.031 C 
ATOM     43  C   UNL A   1      39.118  27.192  29.089  1.00  0.00     0.029 A 
ATOM     44  N   UNL A   1      40.771  28.694  29.128  1.00  0.00    -0.354 N 
ATOM     45  C   UNL A   1      44.620  27.812  27.333  1.00  0.00     0.074 A 
ATOM     46  C   UNL A   1      44.638  26.470  26.793  1.00  0.00     0.031 C 
ATOM     47  C   UNL A   1      38.661  28.277  29.735  1.00  0.00     0.029 A 
ATOM     48  C   UNL A   1      39.719  29.280  29.796  1.00  0.00     0.049 A 
ATOM     49  H   UNL A   1      41.643  29.135  29.008  1.00  0.00     0.167 HD
ATOM     50  C   UNL A   1      45.669  28.670  27.285  1.00  0.00     0.034 A 
ATOM     51  C   UNL A   1      39.620  30.488  30.384  1.00  0.00     0.034 A 
ATOM     52  C   UNL A   1      45.626  30.011  27.815  1.00  0.00     0.049 A 
ATOM     53  C   UNL A   1      40.805  31.420  30.332  1.00  0.00     0.074 A 
ATOM     54  C   UNL A   1      46.609  30.985  27.777  1.00  0.00     0.029 A 
ATOM     55  N   UNL A   1      44.545  30.568  28.488  1.00  0.00    -0.354 N 
ATOM     56  N   UNL A   1      41.986  31.231  29.787  1.00  0.00    -0.248 NA
ATOM     57  C   UNL A   1      40.635  32.738  30.955  1.00  0.00     0.031 C 
ATOM     58  C   UNL A   1      46.154  32.097  28.493  1.00  0.00     0.029 A 
ATOM     59  C   UNL A   1      44.850  31.858  28.897  1.00  0.00     0.049 A 
ATOM     60  H   UNL A   1      43.688  30.112  28.652  1.00  0.00     0.167 HD
ATOM     61  C   UNL A   1      42.681  32.424  29.964  1.00  0.00     0.074 A 
ATOM     62  C   UNL A   1      41.780  33.328  30.652  1.00  0.00     0.031 C 
ATOM     63  C   UNL A   1      43.945  32.749  29.585  1.00  0.00     0.034 A 
BRANCH  50  64
ATOM     64  C   UNL A   1      46.953  28.167  26.664  1.00  0.00     0.023 A 
ATOM     65  C   UNL A   1      47.190  28.243  25.280  1.00  0.00     0.031 A 
ATOM     66  C   UNL A   1      47.945  27.572  27.465  1.00  0.00     0.131 A 
ATOM     67  C   UNL A   1      48.341  27.657  24.730  1.00  0.00     0.055 A 
ATOM     68  C   UNL A   1      49.132  27.077  26.923  1.00  0.00     0.041 A 
ATOM     69  F   UNL A   1      47.770  27.448  28.791  1.00  0.00    -0.206 F 
ATOM     70  C   UNL A   1      49.329  27.101  25.545  1.00  0.00     0.022 A 
BRANCH  67  71
ATOM     71  S   UNL A   1      48.450  27.488  22.928  1.00  0.00     0.124 S 
ATOM     72  O   UNL A   1      47.272  28.233  22.489  1.00  0.00    -0.237 OA
ATOM     73  O   UNL A   1      49.741  28.100  22.630  1.00  0.00    -0.237 OA
ATOM     74  O   UNL A   1      48.380  26.045  22.713  1.00  0.00    -0.744 OA
ENDBRANCH  67  71
ENDBRANCH  50  64
BRANCH  51  75
ATOM     75  C   UNL A   1      38.357  30.901  31.065  1.00  0.00     0.023 A 
ATOM     76  C   UNL A   1      37.318  31.518  30.351  1.00  0.00     0.031 A 
ATOM     77  C   UNL A   1      38.192  30.734  32.452  1.00  0.00     0.131 A 
ATOM     78  C   UNL A   1      36.188  31.998  31.031  1.00  0.00     0.055 A 
ATOM     79  C   UNL A   1      37.039  31.158  33.114  1.00  0.00     0.041 A 
ATOM     80  F   UNL A   1      39.151  30.145  33.185  1.00  0.00    -0.206 F 
ATOM     81  C   UNL A   1      36.035  31.809  32.405  1.00  0.00     0.022 A 
BRANCH  78  82
ATOM     82  S   UNL A   1      34.964  32.967  30.106  1.00  0.00     0.124 S 
ATOM     83  O   UNL A   1      34.496  31.996  29.125  1.00  0.00    -0.237 OA
ATOM     84  O   UNL A   1      34.013  33.330  31.153  1.00  0.00    -0.237 OA
ATOM     85  O   UNL A   1      35.745  34.076  29.566  1.00  0.00    -0.744 OA
ENDBRANCH  78  82
ENDBRANCH  51  75
BRANCH  63  86
ATOM     86  C   UNL A   1      44.400  34.167  29.850  1.00  0.00     0.023 A 
ATOM     87  C   UNL A   1      44.193  35.203  28.924  1.00  0.00     0.031 A 
ATOM     88  C   UNL A   1      45.082  34.475  31.041  1.00  0.00     0.131 A 
ATOM     89  C   UNL A   1      44.731  36.476  29.166  1.00  0.00     0.055 A 
ATOM     90  C   UNL A   1      45.546  35.762  31.313  1.00  0.00     0.041 A 
ATOM     91  F   UNL A   1      45.312  33.526  31.963  1.00  0.00    -0.206 F 
ATOM     92  C   UNL A   1      45.389  36.768  30.364  1.00  0.00     0.022 A 
BRANCH  89  93
ATOM     93  S   UNL A   1      44.678  37.710  27.837  1.00  0.00     0.124 S 
ATOM     94  O   UNL A   1      45.980  37.528  27.203  1.00  0.00    -0.237 OA
ATOM     95  O   UNL A   1      43.523  37.279  27.058  1.00  0.00    -0.237 OA
ATOM     96  O   UNL A   1      44.508  38.975  28.551  1.00  0.00    -0.744 OA
ENDBRANCH  89  93
ENDBRANCH  63  86
ENDBRANCH  37  38
ENDBRANCH  29  32
ENDBRANCH  27  28
ENDBRANCH  26  27
ENDBRANCH   1  26
TORSDOF 19
ENDMDL
MODEL 3
REMARK VINA RESULT:     -10.6      2.247      2.974
REMARK SMILES CC(=O)NNC(=O)C[NH2+][C@@](C)(C(=O)NCCCCNC(=O)c1ccc(-c2c3nc(c(-c4cc(S(=O)(=O)[O-])ccc4F)c4ccc([nH]4)c(-c4cc(S(=O)(=O)[O-])ccc4F)c4nc(c(-c5cc(S(=O)(=O)[O-])ccc5F)c5ccc2[nH]5)C=C4)C=C3)cc1)C(F)(F)F
REMARK SMILES IDX 16 1 15 2 14 3 12 4 13 5 10 7 11 8 9 9 8 12 6 13 5 14 7 16
REMARK SMILES IDX 4 17 1 18 2 19 3 20 85 22 86 23 87 24 88 25 17 26 18 27
REMARK SMILES IDX 19 28 20 29 21 31 22 32 23 33 84 34 24 35 83 36 25 37 26 38
REMARK SMILES IDX 27 39 77 40 28 41 82 42 76 43 78 44 29 45 81 46 75 47 74 48
REMARK SMILES IDX 30 50 62 51 42 52 61 53 43 54 46 55 60 56 79 57 44 58 45 59
REMARK SMILES IDX 59 61 80 62 47 63 31 64 32 65 40 66 33 67 39 68 41 69 38 70
REMARK SMILES IDX 34 71 35 72 36 73 37 74 63 75 64 76 72 77 65 78 71 79 73 80
REMARK SMILES IDX 70 81 66 82 67 83 68 84 69 85 48 86 49 87 57 88 50 89 56 90
REMARK SMILES IDX 58 91 55 92 51 93 52 94 53 95 54 96
REMARK H PARENT 14 6 9 10 9 11 5 15 4 21 19 30 78 49 46 60
REMARK Flexibility Score: inf
ROOT
ATOM      1  C   UNL A   1      34.004  27.493  24.353  1.00  0.00     0.023 C 
ENDROOT
BRANCH   1   2
ATOM      2  C   UNL A   1      33.253  26.163  24.353  1.00  0.00     0.116 C 
BRANCH   2   3
ATOM      3  N   UNL A   1      32.077  26.213  25.205  1.00  0.00    -0.350 N 
ATOM      4  C   UNL A   1      31.426  25.275  25.963  1.00  0.00     0.290 C 
ATOM      5  O   UNL A   1      30.416  25.672  26.547  1.00  0.00    -0.267 OA
ATOM      6  H   UNL A   1      31.663  27.106  25.248  1.00  0.00     0.163 HD
BRANCH   4   7
ATOM      7  C   UNL A   1      31.937  23.815  26.072  1.00  0.00     0.268 C 
ATOM      8  C   UNL A   1      31.121  23.082  27.157  1.00  0.00     0.101 C 
BRANCH   7   9
ATOM      9  N   UNL A   1      33.421  23.881  26.339  1.00  0.00    -0.318 N 
ATOM     10  H   UNL A   1      33.906  23.697  25.461  1.00  0.00     0.347 HD
ATOM     11  H   UNL A   1      33.597  24.811  26.719  1.00  0.00     0.347 HD
BRANCH   9  12
ATOM     12  C   UNL A   1      33.926  22.933  27.343  1.00  0.00     0.364 C 
BRANCH  12  13
ATOM     13  C   UNL A   1      34.366  21.633  26.650  1.00  0.00     0.293 C 
ATOM     14  N   UNL A   1      35.666  21.517  26.217  1.00  0.00    -0.263 N 
ATOM     15  H   UNL A   1      35.922  20.703  25.726  1.00  0.00     0.191 HD
ATOM     16  O   UNL A   1      33.578  20.703  26.472  1.00  0.00    -0.267 OA
BRANCH  14  17
ATOM     17  N   UNL A   1      36.640  22.488  26.436  1.00  0.00    -0.268 N 
ATOM     18  C   UNL A   1      36.667  23.095  24.051  1.00  0.00     0.116 C 
ATOM     19  C   UNL A   1      37.168  23.291  25.456  1.00  0.00     0.235 C 
ATOM     20  O   UNL A   1      38.024  24.130  25.723  1.00  0.00    -0.274 OA
ATOM     21  H   UNL A   1      36.972  22.608  27.356  1.00  0.00     0.191 HD
ENDBRANCH  14  17
ENDBRANCH  12  13
ENDBRANCH   9  12
ENDBRANCH   7   9
BRANCH   7  22
ATOM     22  C   UNL A   1      31.587  23.132  24.714  1.00  0.00     0.453 C 
ATOM     23  F   UNL A   1      32.646  23.058  23.877  1.00  0.00    -0.164 F 
ATOM     24  F   UNL A   1      31.192  21.844  24.936  1.00  0.00    -0.164 F 
ATOM     25  F   UNL A   1      30.559  23.725  24.067  1.00  0.00    -0.164 F 
ENDBRANCH   7  22
ENDBRANCH   4   7
ENDBRANCH   2   3
ENDBRANCH   1   2
BRANCH   1  26
ATOM     26  C   UNL A   1      33.284  28.630  25.080  1.00  0.00     0.023 C 
BRANCH  26  27
ATOM     27  C   UNL A   1      33.806  28.935  26.479  1.00  0.00     0.116 C 
BRANCH  27  28
ATOM     28  N   UNL A   1      33.759  30.351  26.802  1.00  0.00    -0.352 N 
ATOM     29  C   UNL A   1      34.598  31.083  27.603  1.00  0.00     0.251 C 
ATOM     30  H   UNL A   1      33.022  30.855  26.388  1.00  0.00     0.163 HD
ATOM     31  O   UNL A   1      34.299  32.241  27.888  1.00  0.00    -0.269 OA
BRANCH  29  32
ATOM     32  C   UNL A   1      35.835  30.473  28.141  1.00  0.00     0.039 A 
ATOM     33  C   UNL A   1      37.027  30.628  27.430  1.00  0.00     0.014 A 
ATOM     34  C   UNL A   1      35.821  29.744  29.334  1.00  0.00     0.014 A 
ATOM     35  C   UNL A   1      38.209  30.079  27.933  1.00  0.00     0.010 A 
ATOM     36  C   UNL A   1      37.015  29.280  29.880  1.00  0.00     0.010 A 
ATOM     37  C   UNL A   1      38.218  29.417  29.172  1.00  0.00    -0.014 A 
BRANCH  37  38
ATOM     38  C   UNL A   1      39.467  28.813  29.706  1.00  0.00     0.031 A 
ATOM     39  C   UNL A   1      40.095  29.370  30.959  1.00  0.00     0.074 A 
ATOM     40  C   UNL A   1      40.047  27.784  29.057  1.00  0.00     0.049 A 
ATOM     41  N   UNL A   1      41.182  28.991  31.580  1.00  0.00    -0.248 NA
ATOM     42  C   UNL A   1      39.429  30.529  31.573  1.00  0.00     0.031 C 
ATOM     43  C   UNL A   1      39.557  27.187  27.813  1.00  0.00     0.029 A 
ATOM     44  N   UNL A   1      41.168  27.052  29.355  1.00  0.00    -0.354 N 
ATOM     45  C   UNL A   1      41.335  29.871  32.648  1.00  0.00     0.074 A 
ATOM     46  C   UNL A   1      40.273  30.846  32.542  1.00  0.00     0.031 C 
ATOM     47  C   UNL A   1      40.347  26.152  27.482  1.00  0.00     0.029 A 
ATOM     48  C   UNL A   1      41.425  26.040  28.459  1.00  0.00     0.049 A 
ATOM     49  H   UNL A   1      41.738  27.235  30.138  1.00  0.00     0.167 HD
ATOM     50  C   UNL A   1      42.257  29.849  33.642  1.00  0.00     0.034 A 
ATOM     51  C   UNL A   1      42.413  25.124  28.432  1.00  0.00     0.034 A 
ATOM     52  C   UNL A   1      43.300  28.857  33.740  1.00  0.00     0.049 A 
ATOM     53  C   UNL A   1      43.437  25.128  29.541  1.00  0.00     0.074 A 
ATOM     54  C   UNL A   1      44.256  28.706  34.730  1.00  0.00     0.029 A 
ATOM     55  N   UNL A   1      43.531  27.850  32.811  1.00  0.00    -0.354 N 
ATOM     56  N   UNL A   1      43.534  25.931  30.577  1.00  0.00    -0.248 NA
ATOM     57  C   UNL A   1      44.471  24.089  29.487  1.00  0.00     0.031 C 
ATOM     58  C   UNL A   1      45.111  27.663  34.360  1.00  0.00     0.029 A 
ATOM     59  C   UNL A   1      44.633  27.096  33.189  1.00  0.00     0.049 A 
ATOM     60  H   UNL A   1      42.992  27.694  32.003  1.00  0.00     0.167 HD
ATOM     61  C   UNL A   1      44.614  25.462  31.320  1.00  0.00     0.074 A 
ATOM     62  C   UNL A   1      45.123  24.300  30.619  1.00  0.00     0.031 C 
ATOM     63  C   UNL A   1      45.133  25.940  32.480  1.00  0.00     0.034 A 
BRANCH  50  64
ATOM     64  C   UNL A   1      42.190  30.948  34.680  1.00  0.00     0.023 A 
ATOM     65  C   UNL A   1      42.929  32.137  34.551  1.00  0.00     0.031 A 
ATOM     66  C   UNL A   1      41.399  30.791  35.832  1.00  0.00     0.131 A 
ATOM     67  C   UNL A   1      42.933  33.080  35.591  1.00  0.00     0.055 A 
ATOM     68  C   UNL A   1      41.333  31.776  36.820  1.00  0.00     0.041 A 
ATOM     69  F   UNL A   1      40.688  29.670  36.027  1.00  0.00    -0.206 F 
ATOM     70  C   UNL A   1      42.116  32.921  36.713  1.00  0.00     0.022 A 
BRANCH  67  71
ATOM     71  S   UNL A   1      44.141  34.431  35.533  1.00  0.00     0.124 S 
ATOM     72  O   UNL A   1      44.443  34.495  34.104  1.00  0.00    -0.237 OA
ATOM     73  O   UNL A   1      43.386  35.554  36.077  1.00  0.00    -0.237 OA
ATOM     74  O   UNL A   1      45.236  33.950  36.372  1.00  0.00    -0.744 OA
ENDBRANCH  67  71
ENDBRANCH  50  64
BRANCH  51  75
ATOM     75  C   UNL A   1      42.487  24.116  27.333  1.00  0.00     0.023 A 
ATOM     76  C   UNL A   1      41.646  22.991  27.324  1.00  0.00     0.031 A 
ATOM     77  C   UNL A   1      43.437  24.233  26.304  1.00  0.00     0.131 A 
ATOM     78  C   UNL A   1      41.809  22.002  26.343  1.00  0.00     0.055 A 
ATOM     79  C   UNL A   1      43.553  23.276  25.294  1.00  0.00     0.041 A 
ATOM     80  F   UNL A   1      44.264  25.291  26.259  1.00  0.00    -0.206 F 
ATOM     81  C   UNL A   1      42.747  22.143  25.320  1.00  0.00     0.022 A 
BRANCH  78  82
ATOM     82  S   UNL A   1      40.843  20.472  26.483  1.00  0.00     0.124 S 
ATOM     83  O   UNL A   1      39.532  20.904  26.013  1.00  0.00    -0.237 OA
ATOM     84  O   UNL A   1      41.576  19.570  25.600  1.00  0.00    -0.237 OA
ATOM     85  O   UNL A   1      40.922  20.149  27.905  1.00  0.00    -0.744 OA
ENDBRANCH  78  82
ENDBRANCH  51  75
BRANCH  63  86
ATOM     86  C   UNL A   1      46.273  25.161  33.098  1.00  0.00     0.023 A 
ATOM     87  C   UNL A   1      46.054  24.083  33.972  1.00  0.00     0.031 A 
ATOM     88  C   UNL A   1      47.604  25.529  32.827  1.00  0.00     0.131 A 
ATOM     89  C   UNL A   1      47.142  23.464  34.605  1.00  0.00     0.055 A 
ATOM     90  C   UNL A   1      48.685  24.858  33.398  1.00  0.00     0.041 A 
ATOM     91  F   UNL A   1      47.876  26.553  32.001  1.00  0.00    -0.206 F 
ATOM     92  C   UNL A   1      48.457  23.830  34.308  1.00  0.00     0.022 A 
BRANCH  89  93
ATOM     93  S   UNL A   1      46.812  22.262  35.924  1.00  0.00     0.124 S 
ATOM     94  O   UNL A   1      45.983  21.278  35.236  1.00  0.00    -0.237 OA
ATOM     95  O   UNL A   1      48.154  21.823  36.287  1.00  0.00    -0.237 OA
ATOM     96  O   UNL A   1      46.120  23.051  36.942  1.00  0.00    -0.744 OA
ENDBRANCH  89  93
ENDBRANCH  63  86
ENDBRANCH  37  38
ENDBRANCH  29  32
ENDBRANCH  27  28
ENDBRANCH  26  27
ENDBRANCH   1  26
TORSDOF 19
ENDMDL
