MODEL 1
REMARK VINA RESULT:     -10.4      0.000      0.000
REMARK SMILES C[NH2+]C[C@H](C)C(=O)NC[C@](C)(O)C(=O)NCCCCNC(=O)c1ccc(-c2c3nc(c(-c4cc(S(=O)(=O)[O-])ccc4F)c4ccc([nH]4)c(-c4cc(S(=O)(=O)[O-])ccc4F)c4nc(c(-c5cc(S(=O)(=O)[O-])ccc5F)c5ccc2[nH]5)C=C4)C=C3)cc1
REMARK SMILES IDX 16 1 15 2 13 3 14 4 10 6 11 7 9 8 8 9 6 10 7 11 4 13 5 14
REMARK SMILES IDX 3 15 2 16 1 17 12 20 17 22 18 23 19 24 20 25 21 26 22 28
REMARK SMILES IDX 23 29 24 30 85 31 25 32 84 33 26 34 27 35 28 36 78 37 29 38
REMARK SMILES IDX 83 39 77 40 79 41 30 42 82 43 76 44 75 45 31 47 63 48 43 49
REMARK SMILES IDX 62 50 44 51 47 52 61 53 80 54 45 55 46 56 60 58 81 59 48 60
REMARK SMILES IDX 32 61 33 62 41 63 34 64 40 65 42 66 39 67 35 68 36 69 37 70
REMARK SMILES IDX 38 71 64 72 65 73 73 74 66 75 72 76 74 77 71 78 67 79 68 80
REMARK SMILES IDX 69 81 70 82 49 83 50 84 58 85 51 86 57 87 59 88 56 89 52 90
REMARK SMILES IDX 53 91 54 92 55 93
REMARK H PARENT 15 5 8 12 2 18 2 19 12 21 20 27 79 46 47 57
REMARK Flexibility Score: inf
ROOT
ATOM      1  C   UNL A   1      31.047  26.699  26.212  1.00  0.00     0.116 C 
ENDROOT
BRANCH   1   2
ATOM      2  N   UNL A   1      30.999  25.415  26.886  1.00  0.00    -0.354 N 
ATOM      3  C   UNL A   1      31.252  24.162  26.402  1.00  0.00     0.253 C 
ATOM      4  O   UNL A   1      31.342  23.253  27.234  1.00  0.00    -0.272 OA
ATOM      5  H   UNL A   1      30.746  25.451  27.836  1.00  0.00     0.163 HD
BRANCH   3   6
ATOM      6  C   UNL A   1      31.481  23.881  24.883  1.00  0.00     0.157 C 
ATOM      7  C   UNL A   1      32.212  22.526  24.773  1.00  0.00     0.055 C 
BRANCH   6   8
ATOM      8  C   UNL A   1      32.395  24.971  24.270  1.00  0.00     0.160 C 
BRANCH   8   9
ATOM      9  N   UNL A   1      31.944  25.407  22.959  1.00  0.00    -0.352 N 
ATOM     10  C   UNL A   1      31.950  26.615  22.349  1.00  0.00     0.228 C 
ATOM     11  O   UNL A   1      31.385  26.683  21.252  1.00  0.00    -0.275 OA
ATOM     12  H   UNL A   1      31.561  24.684  22.409  1.00  0.00     0.163 HD
BRANCH  10  13
ATOM     13  C   UNL A   1      32.623  27.844  22.943  1.00  0.00     0.130 C 
ATOM     14  C   UNL A   1      34.021  28.108  22.382  1.00  0.00     0.024 C 
BRANCH  13  15
ATOM     15  C   UNL A   1      31.731  29.094  22.885  1.00  0.00     0.273 C 
BRANCH  15  16
ATOM     16  N   UNL A   1      30.340  28.925  23.325  1.00  0.00    -0.348 N 
ATOM     17  C   UNL A   1      29.377  29.452  22.363  1.00  0.00     0.330 C 
ATOM     18  H   UNL A   1      30.158  27.931  23.458  1.00  0.00     0.346 HD
ATOM     19  H   UNL A   1      30.225  29.448  24.193  1.00  0.00     0.346 HD
ENDBRANCH  15  16
ENDBRANCH  13  15
ENDBRANCH  10  13
ENDBRANCH   8   9
ENDBRANCH   6   8
BRANCH   6  20
ATOM     20  O   UNL A   1      30.284  23.774  24.109  1.00  0.00    -0.378 OA
ATOM     21  H   UNL A   1      29.738  24.564  24.246  1.00  0.00     0.212 HD
ENDBRANCH   6  20
ENDBRANCH   3   6
ENDBRANCH   1   2
BRANCH   1  22
ATOM     22  C   UNL A   1      32.071  27.671  26.792  1.00  0.00     0.023 C 
BRANCH  22  23
ATOM     23  C   UNL A   1      31.687  29.153  26.737  1.00  0.00     0.023 C 
BRANCH  23  24
ATOM     24  C   UNL A   1      32.772  30.112  26.247  1.00  0.00     0.116 C 
BRANCH  24  25
ATOM     25  N   UNL A   1      32.597  31.477  26.723  1.00  0.00    -0.352 N 
ATOM     26  C   UNL A   1      33.404  32.240  27.538  1.00  0.00     0.251 C 
ATOM     27  H   UNL A   1      31.777  31.924  26.413  1.00  0.00     0.163 HD
ATOM     28  O   UNL A   1      33.006  33.326  27.951  1.00  0.00    -0.269 OA
BRANCH  26  29
ATOM     29  C   UNL A   1      34.735  31.738  27.951  1.00  0.00     0.039 A 
ATOM     30  C   UNL A   1      35.808  32.631  28.002  1.00  0.00     0.014 A 
ATOM     31  C   UNL A   1      34.922  30.399  28.301  1.00  0.00     0.014 A 
ATOM     32  C   UNL A   1      37.037  32.208  28.520  1.00  0.00     0.010 A 
ATOM     33  C   UNL A   1      36.125  29.998  28.880  1.00  0.00     0.010 A 
ATOM     34  C   UNL A   1      37.186  30.906  29.023  1.00  0.00    -0.014 A 
BRANCH  34  35
ATOM     35  C   UNL A   1      38.408  30.491  29.765  1.00  0.00     0.031 A 
ATOM     36  C   UNL A   1      39.335  29.455  29.191  1.00  0.00     0.074 A 
ATOM     37  C   UNL A   1      38.625  30.973  31.006  1.00  0.00     0.049 A 
ATOM     38  N   UNL A   1      40.362  28.864  29.747  1.00  0.00    -0.248 NA
ATOM     39  C   UNL A   1      39.053  29.008  27.819  1.00  0.00     0.031 C 
ATOM     40  C   UNL A   1      37.781  31.958  31.688  1.00  0.00     0.029 A 
ATOM     41  N   UNL A   1      39.603  30.687  31.926  1.00  0.00    -0.354 N 
ATOM     42  C   UNL A   1      40.842  27.966  28.801  1.00  0.00     0.074 A 
ATOM     43  C   UNL A   1      39.961  28.059  27.654  1.00  0.00     0.031 C 
ATOM     44  C   UNL A   1      38.282  32.199  32.909  1.00  0.00     0.029 A 
ATOM     45  C   UNL A   1      39.446  31.347  33.125  1.00  0.00     0.049 A 
ATOM     46  H   UNL A   1      40.347  30.067  31.746  1.00  0.00     0.167 HD
ATOM     47  C   UNL A   1      41.925  27.152  28.877  1.00  0.00     0.034 A 
ATOM     48  C   UNL A   1      40.138  31.256  34.277  1.00  0.00     0.034 A 
ATOM     49  C   UNL A   1      42.798  27.078  30.024  1.00  0.00     0.049 A 
ATOM     50  C   UNL A   1      41.301  30.300  34.359  1.00  0.00     0.074 A 
ATOM     51  C   UNL A   1      43.963  26.346  30.174  1.00  0.00     0.029 A 
ATOM     52  N   UNL A   1      42.595  27.745  31.225  1.00  0.00    -0.354 N 
ATOM     53  N   UNL A   1      41.774  29.496  33.434  1.00  0.00    -0.248 NA
ATOM     54  C   UNL A   1      42.021  30.237  35.637  1.00  0.00     0.031 C 
ATOM     55  C   UNL A   1      44.423  26.513  31.485  1.00  0.00     0.029 A 
ATOM     56  C   UNL A   1      43.586  27.406  32.134  1.00  0.00     0.049 A 
ATOM     57  H   UNL A   1      41.854  28.368  31.406  1.00  0.00     0.167 HD
ATOM     58  C   UNL A   1      42.858  28.846  34.017  1.00  0.00     0.074 A 
ATOM     59  C   UNL A   1      42.979  29.363  35.364  1.00  0.00     0.031 C 
ATOM     60  C   UNL A   1      43.682  27.910  33.484  1.00  0.00     0.034 A 
BRANCH  47  61
ATOM     61  C   UNL A   1      42.206  26.254  27.696  1.00  0.00     0.023 A 
ATOM     62  C   UNL A   1      41.717  24.938  27.637  1.00  0.00     0.031 A 
ATOM     63  C   UNL A   1      42.983  26.718  26.620  1.00  0.00     0.131 A 
ATOM     64  C   UNL A   1      42.068  24.109  26.561  1.00  0.00     0.055 A 
ATOM     65  C   UNL A   1      43.265  25.912  25.514  1.00  0.00     0.041 A 
ATOM     66  F   UNL A   1      43.492  27.960  26.627  1.00  0.00    -0.206 F 
ATOM     67  C   UNL A   1      42.819  24.594  25.487  1.00  0.00     0.022 A 
BRANCH  64  68
ATOM     68  S   UNL A   1      41.642  22.348  26.651  1.00  0.00     0.124 S 
ATOM     69  O   UNL A   1      42.253  21.833  25.427  1.00  0.00    -0.237 OA
ATOM     70  O   UNL A   1      42.268  21.935  27.901  1.00  0.00    -0.237 OA
ATOM     71  O   UNL A   1      40.180  22.350  26.655  1.00  0.00    -0.744 OA
ENDBRANCH  64  68
ENDBRANCH  47  61
BRANCH  48  72
ATOM     72  C   UNL A   1      39.732  32.057  35.468  1.00  0.00     0.023 A 
ATOM     73  C   UNL A   1      38.886  31.516  36.448  1.00  0.00     0.031 A 
ATOM     74  C   UNL A   1      40.152  33.390  35.621  1.00  0.00     0.131 A 
ATOM     75  C   UNL A   1      38.453  32.317  37.516  1.00  0.00     0.055 A 
ATOM     76  C   UNL A   1      39.760  34.167  36.712  1.00  0.00     0.041 A 
ATOM     77  F   UNL A   1      40.964  33.955  34.713  1.00  0.00    -0.206 F 
ATOM     78  C   UNL A   1      38.895  33.634  37.662  1.00  0.00     0.022 A 
BRANCH  75  79
ATOM     79  S   UNL A   1      37.233  31.635  38.673  1.00  0.00     0.124 S 
ATOM     80  O   UNL A   1      37.038  30.291  38.141  1.00  0.00    -0.237 OA
ATOM     81  O   UNL A   1      37.940  31.726  39.946  1.00  0.00    -0.237 OA
ATOM     82  O   UNL A   1      36.090  32.535  38.531  1.00  0.00    -0.744 OA
ENDBRANCH  75  79
ENDBRANCH  48  72
BRANCH  60  83
ATOM     83  C   UNL A   1      44.802  27.405  34.358  1.00  0.00     0.023 A 
ATOM     84  C   UNL A   1      44.648  26.266  35.167  1.00  0.00     0.031 A 
ATOM     85  C   UNL A   1      46.040  28.071  34.379  1.00  0.00     0.131 A 
ATOM     86  C   UNL A   1      45.702  25.849  35.995  1.00  0.00     0.055 A 
ATOM     87  C   UNL A   1      47.102  27.622  35.165  1.00  0.00     0.041 A 
ATOM     88  F   UNL A   1      46.239  29.166  33.628  1.00  0.00    -0.206 F 
ATOM     89  C   UNL A   1      46.933  26.510  35.985  1.00  0.00     0.022 A 
BRANCH  86  90
ATOM     90  S   UNL A   1      45.424  24.465  37.133  1.00  0.00     0.124 S 
ATOM     91  O   UNL A   1      44.888  23.443  36.239  1.00  0.00    -0.237 OA
ATOM     92  O   UNL A   1      46.762  24.214  37.658  1.00  0.00    -0.237 OA
ATOM     93  O   UNL A   1      44.471  25.002  38.102  1.00  0.00    -0.744 OA
ENDBRANCH  86  90
ENDBRANCH  60  83
ENDBRANCH  34  35
ENDBRANCH  26  29
ENDBRANCH  24  25
ENDBRANCH  23  24
ENDBRANCH  22  23
ENDBRANCH   1  22
TORSDOF 20
ENDMDL
MODEL 2
REMARK VINA RESULT:     -10.3      1.497      2.502
REMARK SMILES C[NH2+]C[C@H](C)C(=O)NC[C@](C)(O)C(=O)NCCCCNC(=O)c1ccc(-c2c3nc(c(-c4cc(S(=O)(=O)[O-])ccc4F)c4ccc([nH]4)c(-c4cc(S(=O)(=O)[O-])ccc4F)c4nc(c(-c5cc(S(=O)(=O)[O-])ccc5F)c5ccc2[nH]5)C=C4)C=C3)cc1
REMARK SMILES IDX 16 1 15 2 13 3 14 4 10 6 11 7 9 8 8 9 6 10 7 11 4 13 5 14
REMARK SMILES IDX 3 15 2 16 1 17 12 20 17 22 18 23 19 24 20 25 21 26 22 28
REMARK SMILES IDX 23 29 24 30 85 31 25 32 84 33 26 34 27 35 28 36 78 37 29 38
REMARK SMILES IDX 83 39 77 40 79 41 30 42 82 43 76 44 75 45 31 47 63 48 43 49
REMARK SMILES IDX 62 50 44 51 47 52 61 53 80 54 45 55 46 56 60 58 81 59 48 60
REMARK SMILES IDX 32 61 33 62 41 63 34 64 40 65 42 66 39 67 35 68 36 69 37 70
REMARK SMILES IDX 38 71 64 72 65 73 73 74 66 75 72 76 74 77 71 78 67 79 68 80
REMARK SMILES IDX 69 81 70 82 49 83 50 84 58 85 51 86 57 87 59 88 56 89 52 90
REMARK SMILES IDX 53 91 54 92 55 93
REMARK H PARENT 15 5 8 12 2 18 2 19 12 21 20 27 79 46 47 57
REMARK Flexibility Score: inf
ROOT
ATOM      1  C   UNL A   1      31.055  26.685  26.244  1.00  0.00     0.116 C 
ENDROOT
BRANCH   1   2
ATOM      2  N   UNL A   1      31.038  25.368  26.851  1.00  0.00    -0.354 N 
ATOM      3  C   UNL A   1      31.568  24.190  26.405  1.00  0.00     0.253 C 
ATOM      4  O   UNL A   1      31.595  23.252  27.209  1.00  0.00    -0.272 OA
ATOM      5  H   UNL A   1      30.573  25.314  27.718  1.00  0.00     0.163 HD
BRANCH   3   6
ATOM      6  C   UNL A   1      32.172  24.033  24.973  1.00  0.00     0.157 C 
ATOM      7  C   UNL A   1      30.995  23.809  24.001  1.00  0.00     0.055 C 
BRANCH   6   8
ATOM      8  C   UNL A   1      33.089  22.786  24.915  1.00  0.00     0.160 C 
BRANCH   8   9
ATOM      9  N   UNL A   1      34.150  22.918  23.930  1.00  0.00    -0.352 N 
ATOM     10  C   UNL A   1      35.454  22.555  23.943  1.00  0.00     0.228 C 
ATOM     11  O   UNL A   1      36.136  22.910  22.975  1.00  0.00    -0.275 OA
ATOM     12  H   UNL A   1      33.865  23.355  23.094  1.00  0.00     0.163 HD
BRANCH  10  13
ATOM     13  C   UNL A   1      36.080  21.737  25.063  1.00  0.00     0.130 C 
ATOM     14  C   UNL A   1      35.845  20.233  24.928  1.00  0.00     0.024 C 
BRANCH  13  15
ATOM     15  C   UNL A   1      37.564  22.074  25.284  1.00  0.00     0.273 C 
BRANCH  15  16
ATOM     16  N   UNL A   1      37.943  23.485  25.133  1.00  0.00    -0.348 N 
ATOM     17  C   UNL A   1      38.042  24.180  26.413  1.00  0.00     0.330 C 
ATOM     18  H   UNL A   1      38.849  23.531  24.666  1.00  0.00     0.346 HD
ATOM     19  H   UNL A   1      37.214  23.944  24.588  1.00  0.00     0.346 HD
ENDBRANCH  15  16
ENDBRANCH  13  15
ENDBRANCH  10  13
ENDBRANCH   8   9
ENDBRANCH   6   8
BRANCH   6  20
ATOM     20  O   UNL A   1      32.892  25.176  24.501  1.00  0.00    -0.378 OA
ATOM     21  H   UNL A   1      33.571  25.420  25.149  1.00  0.00     0.212 HD
ENDBRANCH   6  20
ENDBRANCH   3   6
ENDBRANCH   1   2
BRANCH   1  22
ATOM     22  C   UNL A   1      32.010  27.670  26.914  1.00  0.00     0.023 C 
BRANCH  22  23
ATOM     23  C   UNL A   1      31.643  29.151  26.776  1.00  0.00     0.023 C 
BRANCH  23  24
ATOM     24  C   UNL A   1      32.764  30.082  26.316  1.00  0.00     0.116 C 
BRANCH  24  25
ATOM     25  N   UNL A   1      32.599  31.456  26.768  1.00  0.00    -0.352 N 
ATOM     26  C   UNL A   1      33.426  32.236  27.547  1.00  0.00     0.251 C 
ATOM     27  H   UNL A   1      31.770  31.896  26.472  1.00  0.00     0.163 HD
ATOM     28  O   UNL A   1      33.036  33.330  27.948  1.00  0.00    -0.269 OA
BRANCH  26  29
ATOM     29  C   UNL A   1      34.768  31.745  27.935  1.00  0.00     0.039 A 
ATOM     30  C   UNL A   1      35.841  32.640  27.940  1.00  0.00     0.014 A 
ATOM     31  C   UNL A   1      34.968  30.413  28.305  1.00  0.00     0.014 A 
ATOM     32  C   UNL A   1      37.084  32.231  28.432  1.00  0.00     0.010 A 
ATOM     33  C   UNL A   1      36.186  30.026  28.860  1.00  0.00     0.010 A 
ATOM     34  C   UNL A   1      37.249  30.939  28.957  1.00  0.00    -0.014 A 
BRANCH  34  35
ATOM     35  C   UNL A   1      38.491  30.540  29.675  1.00  0.00     0.031 A 
ATOM     36  C   UNL A   1      39.421  29.520  29.080  1.00  0.00     0.074 A 
ATOM     37  C   UNL A   1      38.724  31.024  30.912  1.00  0.00     0.049 A 
ATOM     38  N   UNL A   1      40.468  28.943  29.615  1.00  0.00    -0.248 NA
ATOM     39  C   UNL A   1      39.120  29.071  27.713  1.00  0.00     0.031 C 
ATOM     40  C   UNL A   1      37.879  31.994  31.612  1.00  0.00     0.029 A 
ATOM     41  N   UNL A   1      39.724  30.750  31.813  1.00  0.00    -0.354 N 
ATOM     42  C   UNL A   1      40.943  28.054  28.658  1.00  0.00     0.074 A 
ATOM     43  C   UNL A   1      40.039  28.136  27.529  1.00  0.00     0.031 C 
ATOM     44  C   UNL A   1      38.400  32.240  32.824  1.00  0.00     0.029 A 
ATOM     45  C   UNL A   1      39.580  31.405  33.016  1.00  0.00     0.049 A 
ATOM     46  H   UNL A   1      40.473  30.142  31.617  1.00  0.00     0.167 HD
ATOM     47  C   UNL A   1      42.039  27.256  28.712  1.00  0.00     0.034 A 
ATOM     48  C   UNL A   1      40.296  31.322  34.155  1.00  0.00     0.034 A 
ATOM     49  C   UNL A   1      42.935  27.193  29.841  1.00  0.00     0.049 A 
ATOM     50  C   UNL A   1      41.474  30.383  34.211  1.00  0.00     0.074 A 
ATOM     51  C   UNL A   1      44.114  26.478  29.968  1.00  0.00     0.029 A 
ATOM     52  N   UNL A   1      42.745  27.854  31.048  1.00  0.00    -0.354 N 
ATOM     53  N   UNL A   1      41.941  29.589  33.276  1.00  0.00    -0.248 NA
ATOM     54  C   UNL A   1      42.220  30.328  35.476  1.00  0.00     0.031 C 
ATOM     55  C   UNL A   1      44.596  26.649  31.270  1.00  0.00     0.029 A 
ATOM     56  C   UNL A   1      43.759  27.528  31.937  1.00  0.00     0.049 A 
ATOM     57  H   UNL A   1      41.999  28.466  31.244  1.00  0.00     0.167 HD
ATOM     58  C   UNL A   1      43.046  28.954  33.837  1.00  0.00     0.074 A 
ATOM     59  C   UNL A   1      43.185  29.470  35.182  1.00  0.00     0.031 C 
ATOM     60  C   UNL A   1      43.873  28.031  33.285  1.00  0.00     0.034 A 
BRANCH  47  61
ATOM     61  C   UNL A   1      42.311  26.365  27.524  1.00  0.00     0.023 A 
ATOM     62  C   UNL A   1      41.960  25.004  27.526  1.00  0.00     0.031 A 
ATOM     63  C   UNL A   1      42.938  26.881  26.377  1.00  0.00     0.131 A 
ATOM     64  C   UNL A   1      42.303  24.190  26.436  1.00  0.00     0.055 A 
ATOM     65  C   UNL A   1      43.208  26.083  25.262  1.00  0.00     0.041 A 
ATOM     66  F   UNL A   1      43.312  28.169  26.321  1.00  0.00    -0.206 F 
ATOM     67  C   UNL A   1      42.903  24.725  25.294  1.00  0.00     0.022 A 
BRANCH  64  68
ATOM     68  S   UNL A   1      42.074  22.397  26.588  1.00  0.00     0.124 S 
ATOM     69  O   UNL A   1      42.713  21.913  25.367  1.00  0.00    -0.237 OA
ATOM     70  O   UNL A   1      42.766  22.095  27.835  1.00  0.00    -0.237 OA
ATOM     71  O   UNL A   1      40.621  22.240  26.626  1.00  0.00    -0.744 OA
ENDBRANCH  64  68
ENDBRANCH  47  61
BRANCH  48  72
ATOM     72  C   UNL A   1      39.901  32.115  35.355  1.00  0.00     0.023 A 
ATOM     73  C   UNL A   1      39.027  31.584  36.316  1.00  0.00     0.031 A 
ATOM     74  C   UNL A   1      40.361  33.432  35.536  1.00  0.00     0.131 A 
ATOM     75  C   UNL A   1      38.606  32.379  37.392  1.00  0.00     0.055 A 
ATOM     76  C   UNL A   1      39.980  34.201  36.636  1.00  0.00     0.041 A 
ATOM     77  F   UNL A   1      41.201  33.986  34.647  1.00  0.00    -0.206 F 
ATOM     78  C   UNL A   1      39.087  33.679  37.567  1.00  0.00     0.022 A 
BRANCH  75  79
ATOM     79  S   UNL A   1      37.352  31.716  38.523  1.00  0.00     0.124 S 
ATOM     80  O   UNL A   1      37.107  30.396  37.954  1.00  0.00    -0.237 OA
ATOM     81  O   UNL A   1      38.053  31.745  39.802  1.00  0.00    -0.237 OA
ATOM     82  O   UNL A   1      36.247  32.665  38.399  1.00  0.00    -0.744 OA
ENDBRANCH  75  79
ENDBRANCH  48  72
BRANCH  60  83
ATOM     83  C   UNL A   1      45.017  27.541  34.136  1.00  0.00     0.023 A 
ATOM     84  C   UNL A   1      44.856  26.482  35.047  1.00  0.00     0.031 A 
ATOM     85  C   UNL A   1      46.284  28.140  34.034  1.00  0.00     0.131 A 
ATOM     86  C   UNL A   1      45.936  26.080  35.848  1.00  0.00     0.055 A 
ATOM     87  C   UNL A   1      47.368  27.701  34.796  1.00  0.00     0.041 A 
ATOM     88  F   UNL A   1      46.492  29.158  33.182  1.00  0.00    -0.206 F 
ATOM     89  C   UNL A   1      47.195  26.672  35.715  1.00  0.00     0.022 A 
BRANCH  86  90
ATOM     90  S   UNL A   1      45.659  24.810  37.113  1.00  0.00     0.124 S 
ATOM     91  O   UNL A   1      44.996  23.760  36.347  1.00  0.00    -0.237 OA
ATOM     92  O   UNL A   1      47.015  24.510  37.562  1.00  0.00    -0.237 OA
ATOM     93  O   UNL A   1      44.817  25.484  38.099  1.00  0.00    -0.744 OA
ENDBRANCH  86  90
ENDBRANCH  60  83
ENDBRANCH  34  35
ENDBRANCH  26  29
ENDBRANCH  24  25
ENDBRANCH  23  24
ENDBRANCH  22  23
ENDBRANCH   1  22
TORSDOF 20
ENDMDL
MODEL 3
REMARK VINA RESULT:     -10.2      4.955      9.702
REMARK SMILES C[NH2+]C[C@H](C)C(=O)NC[C@](C)(O)C(=O)NCCCCNC(=O)c1ccc(-c2c3nc(c(-c4cc(S(=O)(=O)[O-])ccc4F)c4ccc([nH]4)c(-c4cc(S(=O)(=O)[O-])ccc4F)c4nc(c(-c5cc(S(=O)(=O)[O-])ccc5F)c5ccc2[nH]5)C=C4)C=C3)cc1
REMARK SMILES IDX 16 1 15 2 13 3 14 4 10 6 11 7 9 8 8 9 6 10 7 11 4 13 5 14
REMARK SMILES IDX 3 15 2 16 1 17 12 20 17 22 18 23 19 24 20 25 21 26 22 28
REMARK SMILES IDX 23 29 24 30 85 31 25 32 84 33 26 34 27 35 28 36 78 37 29 38
REMARK SMILES IDX 83 39 77 40 79 41 30 42 82 43 76 44 75 45 31 47 63 48 43 49
REMARK SMILES IDX 62 50 44 51 47 52 61 53 80 54 45 55 46 56 60 58 81 59 48 60
REMARK SMILES IDX 32 61 33 62 41 63 34 64 40 65 42 66 39 67 35 68 36 69 37 70
REMARK SMILES IDX 38 71 64 72 65 73 73 74 66 75 72 76 74 77 71 78 67 79 68 80
REMARK SMILES IDX 69 81 70 82 49 83 50 84 58 85 51 86 57 87 59 88 56 89 52 90
REMARK SMILES IDX 53 91 54 92 55 93
REMARK H PARENT 15 5 8 12 2 18 2 19 12 21 20 27 79 46 47 57
REMARK Flexibility Score: inf
ROOT
ATOM      1  C   UNL A   1      33.239  21.948  25.593  1.00  0.00     0.116 C 
ENDROOT
BRANCH   1   2
ATOM      2  N   UNL A   1      32.146  22.305  24.709  1.00  0.00    -0.354 N 
ATOM      3  C   UNL A   1      31.450  23.476  24.605  1.00  0.00     0.253 C 
ATOM      4  O   UNL A   1      30.700  23.594  23.630  1.00  0.00    -0.272 OA
ATOM      5  H   UNL A   1      31.860  21.594  24.090  1.00  0.00     0.163 HD
BRANCH   3   6
ATOM      6  C   UNL A   1      31.626  24.648  25.623  1.00  0.00     0.157 C 
ATOM      7  C   UNL A   1      30.476  25.647  25.375  1.00  0.00     0.055 C 
BRANCH   6   8
ATOM      8  C   UNL A   1      32.965  25.382  25.365  1.00  0.00     0.160 C 
BRANCH   8   9
ATOM      9  N   UNL A   1      33.386  25.306  23.976  1.00  0.00    -0.352 N 
ATOM     10  C   UNL A   1      33.436  26.231  22.988  1.00  0.00     0.228 C 
ATOM     11  O   UNL A   1      33.745  25.821  21.864  1.00  0.00    -0.275 OA
ATOM     12  H   UNL A   1      33.693  24.411  23.701  1.00  0.00     0.163 HD
BRANCH  10  13
ATOM     13  C   UNL A   1      33.153  27.708  23.215  1.00  0.00     0.130 C 
ATOM     14  C   UNL A   1      34.191  28.636  22.584  1.00  0.00     0.024 C 
BRANCH  13  15
ATOM     15  C   UNL A   1      31.717  28.102  22.833  1.00  0.00     0.273 C 
BRANCH  15  16
ATOM     16  N   UNL A   1      31.547  29.412  22.190  1.00  0.00    -0.348 N 
ATOM     17  C   UNL A   1      30.146  29.798  22.063  1.00  0.00     0.330 C 
ATOM     18  H   UNL A   1      32.030  30.115  22.750  1.00  0.00     0.346 HD
ATOM     19  H   UNL A   1      31.936  29.347  21.250  1.00  0.00     0.346 HD
ENDBRANCH  15  16
ENDBRANCH  13  15
ENDBRANCH  10  13
ENDBRANCH   8   9
ENDBRANCH   6   8
BRANCH   6  20
ATOM     20  O   UNL A   1      31.553  24.260  26.998  1.00  0.00    -0.378 OA
ATOM     21  H   UNL A   1      30.720  23.787  27.156  1.00  0.00     0.212 HD
ENDBRANCH   6  20
ENDBRANCH   3   6
ENDBRANCH   1   2
BRANCH   1  22
ATOM     22  C   UNL A   1      34.194  20.907  25.016  1.00  0.00     0.023 C 
BRANCH  22  23
ATOM     23  C   UNL A   1      35.490  21.456  24.410  1.00  0.00     0.023 C 
BRANCH  23  24
ATOM     24  C   UNL A   1      36.616  21.766  25.396  1.00  0.00     0.116 C 
BRANCH  24  25
ATOM     25  N   UNL A   1      37.639  20.733  25.451  1.00  0.00    -0.352 N 
ATOM     26  C   UNL A   1      38.944  20.802  25.890  1.00  0.00     0.251 C 
ATOM     27  H   UNL A   1      37.356  19.848  25.127  1.00  0.00     0.163 HD
ATOM     28  O   UNL A   1      39.700  19.850  25.714  1.00  0.00    -0.269 OA
BRANCH  26  29
ATOM     29  C   UNL A   1      39.449  22.034  26.537  1.00  0.00     0.039 A 
ATOM     30  C   UNL A   1      40.501  21.935  27.452  1.00  0.00     0.014 A 
ATOM     31  C   UNL A   1      38.901  23.283  26.235  1.00  0.00     0.014 A 
ATOM     32  C   UNL A   1      41.082  23.097  27.969  1.00  0.00     0.010 A 
ATOM     33  C   UNL A   1      39.525  24.440  26.696  1.00  0.00     0.010 A 
ATOM     34  C   UNL A   1      40.641  24.361  27.545  1.00  0.00    -0.014 A 
BRANCH  34  35
ATOM     35  C   UNL A   1      41.368  25.607  27.913  1.00  0.00     0.031 A 
ATOM     36  C   UNL A   1      40.651  26.735  28.601  1.00  0.00     0.074 A 
ATOM     37  C   UNL A   1      42.653  25.759  27.533  1.00  0.00     0.049 A 
ATOM     38  N   UNL A   1      41.075  27.943  28.870  1.00  0.00    -0.248 NA
ATOM     39  C   UNL A   1      39.265  26.476  29.018  1.00  0.00     0.031 C 
ATOM     40  C   UNL A   1      43.451  24.750  26.830  1.00  0.00     0.029 A 
ATOM     41  N   UNL A   1      43.510  26.825  27.658  1.00  0.00    -0.354 N 
ATOM     42  C   UNL A   1      40.006  28.596  29.475  1.00  0.00     0.074 A 
ATOM     43  C   UNL A   1      38.901  27.660  29.488  1.00  0.00     0.031 C 
ATOM     44  C   UNL A   1      44.678  25.242  26.597  1.00  0.00     0.029 A 
ATOM     45  C   UNL A   1      44.741  26.618  27.077  1.00  0.00     0.049 A 
ATOM     46  H   UNL A   1      43.266  27.660  28.120  1.00  0.00     0.167 HD
ATOM     47  C   UNL A   1      39.959  29.852  29.985  1.00  0.00     0.034 A 
ATOM     48  C   UNL A   1      45.791  27.448  26.918  1.00  0.00     0.034 A 
ATOM     49  C   UNL A   1      41.073  30.770  29.972  1.00  0.00     0.049 A 
ATOM     50  C   UNL A   1      45.693  28.859  27.439  1.00  0.00     0.074 A 
ATOM     51  C   UNL A   1      41.154  32.035  30.529  1.00  0.00     0.029 A 
ATOM     52  N   UNL A   1      42.295  30.531  29.356  1.00  0.00    -0.354 N 
ATOM     53  N   UNL A   1      44.692  29.442  28.057  1.00  0.00    -0.248 NA
ATOM     54  C   UNL A   1      46.863  29.723  27.240  1.00  0.00     0.031 C 
ATOM     55  C   UNL A   1      42.394  32.587  30.190  1.00  0.00     0.029 A 
ATOM     56  C   UNL A   1      43.117  31.642  29.481  1.00  0.00     0.049 A 
ATOM     57  H   UNL A   1      42.542  29.696  28.897  1.00  0.00     0.167 HD
ATOM     58  C   UNL A   1      45.122  30.736  28.335  1.00  0.00     0.074 A 
ATOM     59  C   UNL A   1      46.476  30.842  27.833  1.00  0.00     0.031 C 
ATOM     60  C   UNL A   1      44.458  31.745  28.954  1.00  0.00     0.034 A 
BRANCH  47  61
ATOM     61  C   UNL A   1      38.648  30.316  30.572  1.00  0.00     0.023 A 
ATOM     62  C   UNL A   1      37.735  31.083  29.827  1.00  0.00     0.031 A 
ATOM     63  C   UNL A   1      38.310  29.996  31.899  1.00  0.00     0.131 A 
ATOM     64  C   UNL A   1      36.565  31.564  30.434  1.00  0.00     0.055 A 
ATOM     65  C   UNL A   1      37.107  30.413  32.474  1.00  0.00     0.041 A 
ATOM     66  F   UNL A   1      39.149  29.281  32.665  1.00  0.00    -0.206 F 
ATOM     67  C   UNL A   1      36.233  31.215  31.745  1.00  0.00     0.022 A 
BRANCH  64  68
ATOM     68  S   UNL A   1      35.550  32.763  29.527  1.00  0.00     0.124 S 
ATOM     69  O   UNL A   1      34.310  32.744  30.299  1.00  0.00    -0.237 OA
ATOM     70  O   UNL A   1      36.343  33.983  29.622  1.00  0.00    -0.237 OA
ATOM     71  O   UNL A   1      35.451  32.184  28.189  1.00  0.00    -0.744 OA
ENDBRANCH  64  68
ENDBRANCH  47  61
BRANCH  48  72
ATOM     72  C   UNL A   1      47.015  26.989  26.199  1.00  0.00     0.023 A 
ATOM     73  C   UNL A   1      48.069  26.371  26.889  1.00  0.00     0.031 A 
ATOM     74  C   UNL A   1      47.164  27.201  24.817  1.00  0.00     0.131 A 
ATOM     75  C   UNL A   1      49.243  26.024  26.203  1.00  0.00     0.055 A 
ATOM     76  C   UNL A   1      48.312  26.807  24.130  1.00  0.00     0.041 A 
ATOM     77  F   UNL A   1      46.183  27.786  24.109  1.00  0.00    -0.206 F 
ATOM     78  C   UNL A   1      49.367  26.224  24.826  1.00  0.00     0.022 A 
BRANCH  75  79
ATOM     79  S   UNL A   1      50.645  25.377  27.156  1.00  0.00     0.124 S 
ATOM     80  O   UNL A   1      51.569  24.986  26.097  1.00  0.00    -0.237 OA
ATOM     81  O   UNL A   1      51.031  26.537  27.951  1.00  0.00    -0.237 OA
ATOM     82  O   UNL A   1      50.060  24.273  27.913  1.00  0.00    -0.744 OA
ENDBRANCH  75  79
ENDBRANCH  48  72
BRANCH  60  83
ATOM     83  C   UNL A   1      45.202  33.042  29.141  1.00  0.00     0.023 A 
ATOM     84  C   UNL A   1      45.999  33.277  30.275  1.00  0.00     0.031 A 
ATOM     85  C   UNL A   1      45.115  34.055  28.171  1.00  0.00     0.131 A 
ATOM     86  C   UNL A   1      46.646  34.512  30.431  1.00  0.00     0.055 A 
ATOM     87  C   UNL A   1      45.803  35.262  28.306  1.00  0.00     0.041 A 
ATOM     88  F   UNL A   1      44.364  33.885  27.070  1.00  0.00    -0.206 F 
ATOM     89  C   UNL A   1      46.567  35.499  29.444  1.00  0.00     0.022 A 
BRANCH  86  90
ATOM     90  S   UNL A   1      47.549  34.838  31.970  1.00  0.00     0.124 S 
ATOM     91  O   UNL A   1      48.590  35.757  31.520  1.00  0.00    -0.237 OA
ATOM     92  O   UNL A   1      46.516  35.415  32.825  1.00  0.00    -0.237 OA
ATOM     93  O   UNL A   1      48.021  33.516  32.377  1.00  0.00    -0.744 OA
ENDBRANCH  86  90
ENDBRANCH  60  83
ENDBRANCH  34  35
ENDBRANCH  26  29
ENDBRANCH  24  25
ENDBRANCH  23  24
ENDBRANCH  22  23
ENDBRANCH   1  22
TORSDOF 20
ENDMDL
