MODEL 1
REMARK VINA RESULT:     -13.2      0.000      0.000
REMARK SMILES Cc1ccc(C(=O)N2C[C@H](C(=O)NCCCCNC(=O)c3ccc(-c4c5nc(c(-c6cc(S(=O)(=O)[O-])ccc6F)c6ccc([nH]6)c(-c6cc(S(=O)(=O)[O-])ccc6F)c6nc(c(-c7cc(S(=O)(=O)[O-])ccc7F)c7ccc4[nH]7)C=C6)C=C5)cc3)Oc3ccccc32)o1
REMARK SMILES IDX 16 1 15 2 14 3 13 4 11 5 12 6 10 8 8 9 9 10 90 11 85 12
REMARK SMILES IDX 89 13 84 14 86 15 88 16 87 17 6 18 7 19 5 20 1 21 2 22 3 23
REMARK SMILES IDX 91 24 4 25 17 26 18 27 19 28 20 30 21 31 22 32 83 33 23 34
REMARK SMILES IDX 82 35 24 36 25 37 26 38 76 39 27 40 81 41 75 42 77 43 28 44
REMARK SMILES IDX 80 45 74 46 73 47 29 49 61 50 41 51 60 52 42 53 45 54 59 55
REMARK SMILES IDX 78 56 43 57 44 58 58 60 79 61 46 62 30 63 31 64 39 65 32 66
REMARK SMILES IDX 38 67 40 68 37 69 33 70 34 71 35 72 36 73 62 74 63 75 71 76
REMARK SMILES IDX 64 77 70 78 72 79 69 80 65 81 66 82 67 83 68 84 47 85 48 86
REMARK SMILES IDX 56 87 49 88 55 89 57 90 54 91 50 92 51 93 52 94 53 95
REMARK H PARENT 13 7 18 29 77 48 45 59
REMARK Flexibility Score: inf
ROOT
ATOM      1  C   UNL A   1      33.543  28.605  24.280  1.00  0.00     0.023 C 
ENDROOT
BRANCH   1   2
ATOM      2  C   UNL A   1      32.063  28.345  23.991  1.00  0.00     0.023 C 
BRANCH   2   3
ATOM      3  C   UNL A   1      31.705  26.882  23.731  1.00  0.00     0.116 C 
BRANCH   3   4
ATOM      4  N   UNL A   1      32.197  26.434  22.439  1.00  0.00    -0.353 N 
ATOM      5  C   UNL A   1      32.947  25.336  22.115  1.00  0.00     0.262 C 
ATOM      6  O   UNL A   1      33.274  25.192  20.934  1.00  0.00    -0.271 OA
ATOM      7  H   UNL A   1      31.951  27.009  21.678  1.00  0.00     0.163 HD
BRANCH   5   8
ATOM      8  C   UNL A   1      33.422  24.347  23.183  1.00  0.00     0.281 C 
ATOM      9  N   UNL A   1      33.086  22.046  24.027  1.00  0.00    -0.298 N 
ATOM     10  C   UNL A   1      32.611  23.060  23.086  1.00  0.00     0.181 C 
ATOM     11  C   UNL A   1      34.498  22.025  24.243  1.00  0.00     0.087 A 
ATOM     12  C   UNL A   1      35.304  23.043  23.704  1.00  0.00     0.144 A 
ATOM     13  C   UNL A   1      35.131  20.950  24.882  1.00  0.00     0.030 A 
ATOM     14  O   UNL A   1      34.827  24.141  23.039  1.00  0.00    -0.477 OA
ATOM     15  C   UNL A   1      36.697  22.968  23.780  1.00  0.00     0.049 A 
ATOM     16  C   UNL A   1      36.526  20.879  24.961  1.00  0.00     0.002 A 
ATOM     17  C   UNL A   1      37.309  21.885  24.405  1.00  0.00     0.004 A 
BRANCH   9  18
ATOM     18  C   UNL A   1      32.214  21.148  24.656  1.00  0.00     0.294 C 
ATOM     19  O   UNL A   1      31.443  21.522  25.545  1.00  0.00    -0.265 OA
BRANCH  18  20
ATOM     20  C   UNL A   1      32.298  19.746  24.264  1.00  0.00     0.192 A 
ATOM     21  C   UNL A   1      32.652  16.446  25.613  1.00  0.00     0.087 C 
ATOM     22  C   UNL A   1      32.532  17.591  24.691  1.00  0.00     0.101 A 
ATOM     23  C   UNL A   1      32.611  17.720  23.323  1.00  0.00     0.046 A 
ATOM     24  O   UNL A   1      32.330  18.806  25.264  1.00  0.00    -0.456 OA
ATOM     25  C   UNL A   1      32.474  19.103  23.049  1.00  0.00     0.056 A 
ENDBRANCH  18  20
ENDBRANCH   9  18
ENDBRANCH   5   8
ENDBRANCH   3   4
ENDBRANCH   2   3
ENDBRANCH   1   2
BRANCH   1  26
ATOM     26  C   UNL A   1      33.905  28.755  25.755  1.00  0.00     0.116 C 
BRANCH  26  27
ATOM     27  N   UNL A   1      33.672  30.096  26.263  1.00  0.00    -0.352 N 
ATOM     28  C   UNL A   1      34.364  30.795  27.221  1.00  0.00     0.251 C 
ATOM     29  H   UNL A   1      32.910  30.571  25.862  1.00  0.00     0.163 HD
ATOM     30  O   UNL A   1      33.924  31.876  27.604  1.00  0.00    -0.269 OA
BRANCH  28  31
ATOM     31  C   UNL A   1      35.604  30.241  27.812  1.00  0.00     0.039 A 
ATOM     32  C   UNL A   1      35.528  29.625  29.065  1.00  0.00     0.014 A 
ATOM     33  C   UNL A   1      36.838  30.351  27.163  1.00  0.00     0.014 A 
ATOM     34  C   UNL A   1      36.677  29.085  29.648  1.00  0.00     0.010 A 
ATOM     35  C   UNL A   1      37.972  29.757  27.716  1.00  0.00     0.010 A 
ATOM     36  C   UNL A   1      37.905  29.130  28.969  1.00  0.00    -0.014 A 
BRANCH  36  37
ATOM     37  C   UNL A   1      39.136  28.566  29.578  1.00  0.00     0.031 A 
ATOM     38  C   UNL A   1      39.657  29.132  30.872  1.00  0.00     0.074 A 
ATOM     39  C   UNL A   1      39.809  27.586  28.948  1.00  0.00     0.049 A 
ATOM     40  N   UNL A   1      40.742  28.824  31.536  1.00  0.00    -0.248 NA
ATOM     41  C   UNL A   1      38.865  30.211  31.480  1.00  0.00     0.031 C 
ATOM     42  C   UNL A   1      39.429  26.989  27.665  1.00  0.00     0.029 A 
ATOM     43  N   UNL A   1      40.957  26.922  29.294  1.00  0.00    -0.354 N 
ATOM     44  C   UNL A   1      40.774  29.683  32.629  1.00  0.00     0.074 A 
ATOM     45  C   UNL A   1      39.629  30.560  32.504  1.00  0.00     0.031 C 
ATOM     46  C   UNL A   1      40.320  26.037  27.343  1.00  0.00     0.029 A 
ATOM     47  C   UNL A   1      41.345  25.971  28.380  1.00  0.00     0.049 A 
ATOM     48  H   UNL A   1      41.458  27.110  30.122  1.00  0.00     0.167 HD
ATOM     49  C   UNL A   1      41.665  29.726  33.652  1.00  0.00     0.034 A 
ATOM     50  C   UNL A   1      42.406  25.142  28.381  1.00  0.00     0.034 A 
ATOM     51  C   UNL A   1      42.791  28.832  33.772  1.00  0.00     0.049 A 
ATOM     52  C   UNL A   1      43.358  25.174  29.548  1.00  0.00     0.074 A 
ATOM     53  C   UNL A   1      43.741  28.766  34.778  1.00  0.00     0.029 A 
ATOM     54  N   UNL A   1      43.118  27.842  32.855  1.00  0.00    -0.354 N 
ATOM     55  N   UNL A   1      43.357  25.970  30.591  1.00  0.00    -0.248 NA
ATOM     56  C   UNL A   1      44.438  24.179  29.547  1.00  0.00     0.031 C 
ATOM     57  C   UNL A   1      44.661  27.761  34.449  1.00  0.00     0.029 A 
ATOM     58  C   UNL A   1      44.254  27.164  33.267  1.00  0.00     0.049 A 
ATOM     59  H   UNL A   1      42.613  27.648  32.032  1.00  0.00     0.167 HD
ATOM     60  C   UNL A   1      44.417  25.549  31.388  1.00  0.00     0.074 A 
ATOM     61  C   UNL A   1      45.028  24.424  30.708  1.00  0.00     0.031 C 
ATOM     62  C   UNL A   1      44.846  26.044  32.577  1.00  0.00     0.034 A 
BRANCH  49  63
ATOM     63  C   UNL A   1      41.457  30.794  34.699  1.00  0.00     0.023 A 
ATOM     64  C   UNL A   1      40.308  30.817  35.508  1.00  0.00     0.031 A 
ATOM     65  C   UNL A   1      42.392  31.832  34.855  1.00  0.00     0.131 A 
ATOM     66  C   UNL A   1      40.078  31.900  36.368  1.00  0.00     0.055 A 
ATOM     67  C   UNL A   1      42.197  32.865  35.775  1.00  0.00     0.041 A 
ATOM     68  F   UNL A   1      43.500  31.875  34.097  1.00  0.00    -0.206 F 
ATOM     69  C   UNL A   1      41.026  32.912  36.527  1.00  0.00     0.022 A 
BRANCH  66  70
ATOM     70  S   UNL A   1      38.454  32.043  37.162  1.00  0.00     0.124 S 
ATOM     71  O   UNL A   1      38.824  32.447  38.517  1.00  0.00    -0.237 OA
ATOM     72  O   UNL A   1      37.792  33.059  36.351  1.00  0.00    -0.237 OA
ATOM     73  O   UNL A   1      37.896  30.696  37.052  1.00  0.00    -0.744 OA
ENDBRANCH  66  70
ENDBRANCH  49  63
BRANCH  50  74
ATOM     74  C   UNL A   1      42.621  24.197  27.251  1.00  0.00     0.023 A 
ATOM     75  C   UNL A   1      42.042  22.918  27.261  1.00  0.00     0.031 A 
ATOM     76  C   UNL A   1      43.437  24.547  26.162  1.00  0.00     0.131 A 
ATOM     77  C   UNL A   1      42.324  22.016  26.225  1.00  0.00     0.055 A 
ATOM     78  C   UNL A   1      43.682  23.660  25.112  1.00  0.00     0.041 A 
ATOM     79  F   UNL A   1      44.001  25.763  26.102  1.00  0.00    -0.206 F 
ATOM     80  C   UNL A   1      43.133  22.381  25.147  1.00  0.00     0.022 A 
BRANCH  77  81
ATOM     81  S   UNL A   1      41.668  20.329  26.342  1.00  0.00     0.124 S 
ATOM     82  O   UNL A   1      42.076  19.942  27.687  1.00  0.00    -0.237 OA
ATOM     83  O   UNL A   1      40.239  20.546  26.140  1.00  0.00    -0.237 OA
ATOM     84  O   UNL A   1      42.348  19.625  25.256  1.00  0.00    -0.744 OA
ENDBRANCH  77  81
ENDBRANCH  50  74
BRANCH  62  85
ATOM     85  C   UNL A   1      45.994  25.324  33.236  1.00  0.00     0.023 A 
ATOM     86  C   UNL A   1      45.783  24.289  34.165  1.00  0.00     0.031 A 
ATOM     87  C   UNL A   1      47.317  25.700  32.948  1.00  0.00     0.131 A 
ATOM     88  C   UNL A   1      46.879  23.705  34.816  1.00  0.00     0.055 A 
ATOM     89  C   UNL A   1      48.405  25.081  33.563  1.00  0.00     0.041 A 
ATOM     90  F   UNL A   1      47.571  26.682  32.069  1.00  0.00    -0.206 F 
ATOM     91  C   UNL A   1      48.189  24.087  34.514  1.00  0.00     0.022 A 
BRANCH  88  92
ATOM     92  S   UNL A   1      46.567  22.500  36.137  1.00  0.00     0.124 S 
ATOM     93  O   UNL A   1      45.139  22.673  36.377  1.00  0.00    -0.237 OA
ATOM     94  O   UNL A   1      46.960  21.243  35.509  1.00  0.00    -0.237 OA
ATOM     95  O   UNL A   1      47.437  22.949  37.223  1.00  0.00    -0.744 OA
ENDBRANCH  88  92
ENDBRANCH  62  85
ENDBRANCH  36  37
ENDBRANCH  28  31
ENDBRANCH  26  27
ENDBRANCH   1  26
TORSDOF 16
ENDMDL
MODEL 2
REMARK VINA RESULT:     -13.1      1.540      1.780
REMARK SMILES Cc1ccc(C(=O)N2C[C@H](C(=O)NCCCCNC(=O)c3ccc(-c4c5nc(c(-c6cc(S(=O)(=O)[O-])ccc6F)c6ccc([nH]6)c(-c6cc(S(=O)(=O)[O-])ccc6F)c6nc(c(-c7cc(S(=O)(=O)[O-])ccc7F)c7ccc4[nH]7)C=C6)C=C5)cc3)Oc3ccccc32)o1
REMARK SMILES IDX 16 1 15 2 14 3 13 4 11 5 12 6 10 8 8 9 9 10 90 11 85 12
REMARK SMILES IDX 89 13 84 14 86 15 88 16 87 17 6 18 7 19 5 20 1 21 2 22 3 23
REMARK SMILES IDX 91 24 4 25 17 26 18 27 19 28 20 30 21 31 22 32 83 33 23 34
REMARK SMILES IDX 82 35 24 36 25 37 26 38 76 39 27 40 81 41 75 42 77 43 28 44
REMARK SMILES IDX 80 45 74 46 73 47 29 49 61 50 41 51 60 52 42 53 45 54 59 55
REMARK SMILES IDX 78 56 43 57 44 58 58 60 79 61 46 62 30 63 31 64 39 65 32 66
REMARK SMILES IDX 38 67 40 68 37 69 33 70 34 71 35 72 36 73 62 74 63 75 71 76
REMARK SMILES IDX 64 77 70 78 72 79 69 80 65 81 66 82 67 83 68 84 47 85 48 86
REMARK SMILES IDX 56 87 49 88 55 89 57 90 54 91 50 92 51 93 52 94 53 95
REMARK H PARENT 13 7 18 29 77 48 45 59
REMARK Flexibility Score: inf
ROOT
ATOM      1  C   UNL A   1      33.745  28.675  24.389  1.00  0.00     0.023 C 
ENDROOT
BRANCH   1   2
ATOM      2  C   UNL A   1      32.333  28.422  23.854  1.00  0.00     0.023 C 
BRANCH   2   3
ATOM      3  C   UNL A   1      31.955  26.949  23.705  1.00  0.00     0.116 C 
BRANCH   3   4
ATOM      4  N   UNL A   1      32.353  26.425  22.409  1.00  0.00    -0.353 N 
ATOM      5  C   UNL A   1      33.012  25.269  22.092  1.00  0.00     0.262 C 
ATOM      6  O   UNL A   1      33.271  25.063  20.903  1.00  0.00    -0.271 OA
ATOM      7  H   UNL A   1      32.108  26.989  21.640  1.00  0.00     0.163 HD
BRANCH   5   8
ATOM      8  C   UNL A   1      33.473  24.287  23.174  1.00  0.00     0.281 C 
ATOM      9  N   UNL A   1      33.124  21.993  24.029  1.00  0.00    -0.298 N 
ATOM     10  C   UNL A   1      32.662  23.000  23.075  1.00  0.00     0.181 C 
ATOM     11  C   UNL A   1      34.532  21.971  24.263  1.00  0.00     0.087 A 
ATOM     12  C   UNL A   1      35.346  22.984  23.728  1.00  0.00     0.144 A 
ATOM     13  C   UNL A   1      35.156  20.900  24.918  1.00  0.00     0.030 A 
ATOM     14  O   UNL A   1      34.879  24.078  23.048  1.00  0.00    -0.477 OA
ATOM     15  C   UNL A   1      36.739  22.909  23.822  1.00  0.00     0.049 A 
ATOM     16  C   UNL A   1      36.550  20.829  25.015  1.00  0.00     0.002 A 
ATOM     17  C   UNL A   1      37.341  21.830  24.462  1.00  0.00     0.004 A 
BRANCH   9  18
ATOM     18  C   UNL A   1      32.242  21.099  24.654  1.00  0.00     0.294 C 
ATOM     19  O   UNL A   1      31.467  21.480  25.537  1.00  0.00    -0.265 OA
BRANCH  18  20
ATOM     20  C   UNL A   1      32.322  19.697  24.266  1.00  0.00     0.192 A 
ATOM     21  C   UNL A   1      32.683  16.400  25.622  1.00  0.00     0.087 C 
ATOM     22  C   UNL A   1      32.557  17.542  24.697  1.00  0.00     0.101 A 
ATOM     23  C   UNL A   1      32.628  17.668  23.329  1.00  0.00     0.046 A 
ATOM     24  O   UNL A   1      32.360  18.760  25.268  1.00  0.00    -0.456 OA
ATOM     25  C   UNL A   1      32.490  19.050  23.051  1.00  0.00     0.056 A 
ENDBRANCH  18  20
ENDBRANCH   9  18
ENDBRANCH   5   8
ENDBRANCH   3   4
ENDBRANCH   2   3
ENDBRANCH   1   2
BRANCH   1  26
ATOM     26  C   UNL A   1      33.867  28.729  25.910  1.00  0.00     0.116 C 
BRANCH  26  27
ATOM     27  N   UNL A   1      33.609  30.052  26.452  1.00  0.00    -0.352 N 
ATOM     28  C   UNL A   1      34.317  30.759  27.393  1.00  0.00     0.251 C 
ATOM     29  H   UNL A   1      32.814  30.506  26.093  1.00  0.00     0.163 HD
ATOM     30  O   UNL A   1      33.856  31.817  27.814  1.00  0.00    -0.269 OA
BRANCH  28  31
ATOM     31  C   UNL A   1      35.601  30.242  27.919  1.00  0.00     0.039 A 
ATOM     32  C   UNL A   1      35.609  29.637  29.181  1.00  0.00     0.014 A 
ATOM     33  C   UNL A   1      36.794  30.374  27.203  1.00  0.00     0.014 A 
ATOM     34  C   UNL A   1      36.801  29.129  29.704  1.00  0.00     0.010 A 
ATOM     35  C   UNL A   1      37.970  29.812  27.698  1.00  0.00     0.010 A 
ATOM     36  C   UNL A   1      37.988  29.197  28.958  1.00  0.00    -0.014 A 
BRANCH  36  37
ATOM     37  C   UNL A   1      39.263  28.669  29.503  1.00  0.00     0.031 A 
ATOM     38  C   UNL A   1      39.915  29.351  30.676  1.00  0.00     0.074 A 
ATOM     39  C   UNL A   1      39.858  27.613  28.918  1.00  0.00     0.049 A 
ATOM     40  N   UNL A   1      41.054  29.087  31.263  1.00  0.00    -0.248 NA
ATOM     41  C   UNL A   1      39.201  30.506  31.240  1.00  0.00     0.031 C 
ATOM     42  C   UNL A   1      39.347  26.897  27.745  1.00  0.00     0.029 A 
ATOM     43  N   UNL A   1      41.025  26.961  29.221  1.00  0.00    -0.354 N 
ATOM     44  C   UNL A   1      41.205  30.052  32.252  1.00  0.00     0.074 A 
ATOM     45  C   UNL A   1      40.065  30.939  32.146  1.00  0.00     0.031 C 
ATOM     46  C   UNL A   1      40.189  25.896  27.442  1.00  0.00     0.029 A 
ATOM     47  C   UNL A   1      41.309  25.912  28.379  1.00  0.00     0.049 A 
ATOM     48  H   UNL A   1      41.606  27.219  29.974  1.00  0.00     0.167 HD
ATOM     49  C   UNL A   1      42.190  30.177  33.177  1.00  0.00     0.034 A 
ATOM     50  C   UNL A   1      42.353  25.061  28.365  1.00  0.00     0.034 A 
ATOM     51  C   UNL A   1      43.309  29.274  33.282  1.00  0.00     0.049 A 
ATOM     52  C   UNL A   1      43.413  25.190  29.428  1.00  0.00     0.074 A 
ATOM     53  C   UNL A   1      44.351  29.287  34.195  1.00  0.00     0.029 A 
ATOM     54  N   UNL A   1      43.532  28.187  32.447  1.00  0.00    -0.354 N 
ATOM     55  N   UNL A   1      43.524  26.088  30.378  1.00  0.00    -0.248 NA
ATOM     56  C   UNL A   1      44.474  24.174  29.428  1.00  0.00     0.031 C 
ATOM     57  C   UNL A   1      45.221  28.232  33.887  1.00  0.00     0.029 A 
ATOM     58  C   UNL A   1      44.693  27.527  32.818  1.00  0.00     0.049 A 
ATOM     59  H   UNL A   1      42.948  27.923  31.699  1.00  0.00     0.167 HD
ATOM     60  C   UNL A   1      44.651  25.725  31.110  1.00  0.00     0.074 A 
ATOM     61  C   UNL A   1      45.176  24.522  30.496  1.00  0.00     0.031 C 
ATOM     62  C   UNL A   1      45.199  26.329  32.195  1.00  0.00     0.034 A 
BRANCH  49  63
ATOM     63  C   UNL A   1      42.100  31.352  34.121  1.00  0.00     0.023 A 
ATOM     64  C   UNL A   1      41.208  31.354  35.208  1.00  0.00     0.031 A 
ATOM     65  C   UNL A   1      42.875  32.505  33.904  1.00  0.00     0.131 A 
ATOM     66  C   UNL A   1      41.046  32.514  35.979  1.00  0.00     0.055 A 
ATOM     67  C   UNL A   1      42.770  33.627  34.728  1.00  0.00     0.041 A 
ATOM     68  F   UNL A   1      43.730  32.569  32.871  1.00  0.00    -0.206 F 
ATOM     69  C   UNL A   1      41.839  33.643  35.763  1.00  0.00     0.022 A 
BRANCH  66  70
ATOM     70  S   UNL A   1      39.679  32.577  37.169  1.00  0.00     0.124 S 
ATOM     71  O   UNL A   1      39.015  31.300  36.922  1.00  0.00    -0.237 OA
ATOM     72  O   UNL A   1      40.375  32.700  38.445  1.00  0.00    -0.237 OA
ATOM     73  O   UNL A   1      38.920  33.757  36.757  1.00  0.00    -0.744 OA
ENDBRANCH  66  70
ENDBRANCH  49  63
BRANCH  50  74
ATOM     74  C   UNL A   1      42.445  24.001  27.325  1.00  0.00     0.023 A 
ATOM     75  C   UNL A   1      41.831  22.752  27.513  1.00  0.00     0.031 A 
ATOM     76  C   UNL A   1      43.176  24.209  26.144  1.00  0.00     0.131 A 
ATOM     77  C   UNL A   1      41.998  21.741  26.555  1.00  0.00     0.055 A 
ATOM     78  C   UNL A   1      43.306  23.213  25.174  1.00  0.00     0.041 A 
ATOM     79  F   UNL A   1      43.769  25.391  25.913  1.00  0.00    -0.206 F 
ATOM     80  C   UNL A   1      42.724  21.966  25.384  1.00  0.00     0.022 A 
BRANCH  77  81
ATOM     81  S   UNL A   1      41.305  20.100  26.897  1.00  0.00     0.124 S 
ATOM     82  O   UNL A   1      42.432  19.229  26.587  1.00  0.00    -0.237 OA
ATOM     83  O   UNL A   1      40.948  20.212  28.308  1.00  0.00    -0.237 OA
ATOM     84  O   UNL A   1      40.174  20.011  25.976  1.00  0.00    -0.744 OA
ENDBRANCH  77  81
ENDBRANCH  50  74
BRANCH  62  85
ATOM     85  C   UNL A   1      46.395  25.652  32.814  1.00  0.00     0.023 A 
ATOM     86  C   UNL A   1      47.691  25.817  32.293  1.00  0.00     0.031 A 
ATOM     87  C   UNL A   1      46.227  24.810  33.927  1.00  0.00     0.131 A 
ATOM     88  C   UNL A   1      48.761  25.102  32.851  1.00  0.00     0.055 A 
ATOM     89  C   UNL A   1      47.304  24.139  34.507  1.00  0.00     0.041 A 
ATOM     90  F   UNL A   1      45.011  24.620  34.461  1.00  0.00    -0.206 F 
ATOM     91  C   UNL A   1      48.578  24.272  33.961  1.00  0.00     0.022 A 
BRANCH  88  92
ATOM     92  S   UNL A   1      50.385  25.196  32.047  1.00  0.00     0.124 S 
ATOM     93  O   UNL A   1      50.769  23.791  31.967  1.00  0.00    -0.237 OA
ATOM     94  O   UNL A   1      50.065  25.843  30.779  1.00  0.00    -0.237 OA
ATOM     95  O   UNL A   1      51.179  26.004  32.972  1.00  0.00    -0.744 OA
ENDBRANCH  88  92
ENDBRANCH  62  85
ENDBRANCH  36  37
ENDBRANCH  28  31
ENDBRANCH  26  27
ENDBRANCH   1  26
TORSDOF 16
ENDMDL
MODEL 3
REMARK VINA RESULT:     -13.1      1.985      7.745
REMARK SMILES Cc1ccc(C(=O)N2C[C@H](C(=O)NCCCCNC(=O)c3ccc(-c4c5nc(c(-c6cc(S(=O)(=O)[O-])ccc6F)c6ccc([nH]6)c(-c6cc(S(=O)(=O)[O-])ccc6F)c6nc(c(-c7cc(S(=O)(=O)[O-])ccc7F)c7ccc4[nH]7)C=C6)C=C5)cc3)Oc3ccccc32)o1
REMARK SMILES IDX 16 1 15 2 14 3 13 4 11 5 12 6 10 8 8 9 9 10 90 11 85 12
REMARK SMILES IDX 89 13 84 14 86 15 88 16 87 17 6 18 7 19 5 20 1 21 2 22 3 23
REMARK SMILES IDX 91 24 4 25 17 26 18 27 19 28 20 30 21 31 22 32 83 33 23 34
REMARK SMILES IDX 82 35 24 36 25 37 26 38 76 39 27 40 81 41 75 42 77 43 28 44
REMARK SMILES IDX 80 45 74 46 73 47 29 49 61 50 41 51 60 52 42 53 45 54 59 55
REMARK SMILES IDX 78 56 43 57 44 58 58 60 79 61 46 62 30 63 31 64 39 65 32 66
REMARK SMILES IDX 38 67 40 68 37 69 33 70 34 71 35 72 36 73 62 74 63 75 71 76
REMARK SMILES IDX 64 77 70 78 72 79 69 80 65 81 66 82 67 83 68 84 47 85 48 86
REMARK SMILES IDX 56 87 49 88 55 89 57 90 54 91 50 92 51 93 52 94 53 95
REMARK H PARENT 13 7 18 29 77 48 45 59
REMARK Flexibility Score: inf
ROOT
ATOM      1  C   UNL A   1      31.926  28.125  24.973  1.00  0.00     0.023 C 
ENDROOT
BRANCH   1   2
ATOM      2  C   UNL A   1      31.474  27.893  23.529  1.00  0.00     0.023 C 
BRANCH   2   3
ATOM      3  C   UNL A   1      31.155  26.439  23.180  1.00  0.00     0.116 C 
BRANCH   3   4
ATOM      4  N   UNL A   1      31.843  26.017  21.971  1.00  0.00    -0.353 N 
ATOM      5  C   UNL A   1      32.777  25.035  21.787  1.00  0.00     0.262 C 
ATOM      6  O   UNL A   1      33.246  24.893  20.654  1.00  0.00    -0.271 OA
ATOM      7  H   UNL A   1      31.598  26.516  21.158  1.00  0.00     0.163 HD
BRANCH   5   8
ATOM      8  C   UNL A   1      33.275  24.175  22.952  1.00  0.00     0.281 C 
ATOM      9  N   UNL A   1      33.064  21.934  23.979  1.00  0.00    -0.298 N 
ATOM     10  C   UNL A   1      32.559  22.830  22.938  1.00  0.00     0.181 C 
ATOM     11  C   UNL A   1      34.464  22.032  24.244  1.00  0.00     0.087 A 
ATOM     12  C   UNL A   1      35.219  23.057  23.648  1.00  0.00     0.144 A 
ATOM     13  C   UNL A   1      35.143  21.063  24.995  1.00  0.00     0.030 A 
ATOM     14  O   UNL A   1      34.695  24.058  22.874  1.00  0.00    -0.477 OA
ATOM     15  C   UNL A   1      36.611  23.089  23.777  1.00  0.00     0.049 A 
ATOM     16  C   UNL A   1      36.535  21.099  25.127  1.00  0.00     0.002 A 
ATOM     17  C   UNL A   1      37.269  22.109  24.514  1.00  0.00     0.004 A 
BRANCH   9  18
ATOM     18  C   UNL A   1      32.230  21.031  24.652  1.00  0.00     0.294 C 
ATOM     19  O   UNL A   1      31.465  21.411  25.544  1.00  0.00    -0.265 OA
BRANCH  18  20
ATOM     20  C   UNL A   1      32.350  19.621  24.304  1.00  0.00     0.192 A 
ATOM     21  C   UNL A   1      32.818  16.377  25.752  1.00  0.00     0.087 C 
ATOM     22  C   UNL A   1      32.652  17.488  24.795  1.00  0.00     0.101 A 
ATOM     23  C   UNL A   1      32.709  17.576  23.423  1.00  0.00     0.046 A 
ATOM     24  O   UNL A   1      32.422  18.715  25.333  1.00  0.00    -0.456 OA
ATOM     25  C   UNL A   1      32.529  18.944  23.108  1.00  0.00     0.056 A 
ENDBRANCH  18  20
ENDBRANCH   9  18
ENDBRANCH   5   8
ENDBRANCH   3   4
ENDBRANCH   2   3
ENDBRANCH   1   2
BRANCH   1  26
ATOM     26  C   UNL A   1      32.911  29.274  25.173  1.00  0.00     0.116 C 
BRANCH  26  27
ATOM     27  N   UNL A   1      32.284  30.470  25.706  1.00  0.00    -0.352 N 
ATOM     28  C   UNL A   1      32.625  31.212  26.811  1.00  0.00     0.251 C 
ATOM     29  H   UNL A   1      31.503  30.797  25.204  1.00  0.00     0.163 HD
ATOM     30  O   UNL A   1      31.882  32.122  27.170  1.00  0.00    -0.269 OA
BRANCH  28  31
ATOM     31  C   UNL A   1      33.852  30.902  27.580  1.00  0.00     0.039 A 
ATOM     32  C   UNL A   1      34.693  31.957  27.948  1.00  0.00     0.014 A 
ATOM     33  C   UNL A   1      34.197  29.588  27.912  1.00  0.00     0.014 A 
ATOM     34  C   UNL A   1      35.854  31.700  28.682  1.00  0.00     0.010 A 
ATOM     35  C   UNL A   1      35.321  29.340  28.697  1.00  0.00     0.010 A 
ATOM     36  C   UNL A   1      36.168  30.391  29.078  1.00  0.00    -0.014 A 
BRANCH  36  37
ATOM     37  C   UNL A   1      37.401  30.102  29.852  1.00  0.00     0.031 A 
ATOM     38  C   UNL A   1      38.473  29.232  29.253  1.00  0.00     0.074 A 
ATOM     39  C   UNL A   1      37.535  30.579  31.104  1.00  0.00     0.049 A 
ATOM     40  N   UNL A   1      39.593  28.811  29.783  1.00  0.00    -0.248 NA
ATOM     41  C   UNL A   1      38.233  28.743  27.888  1.00  0.00     0.031 C 
ATOM     42  C   UNL A   1      36.543  31.394  31.809  1.00  0.00     0.029 A 
ATOM     43  N   UNL A   1      38.555  30.440  32.009  1.00  0.00    -0.354 N 
ATOM     44  C   UNL A   1      40.183  27.994  28.825  1.00  0.00     0.074 A 
ATOM     45  C   UNL A   1      39.267  27.936  27.705  1.00  0.00     0.031 C 
ATOM     46  C   UNL A   1      37.013  31.696  33.031  1.00  0.00     0.029 A 
ATOM     47  C   UNL A   1      38.325  31.079  33.205  1.00  0.00     0.049 A 
ATOM     48  H   UNL A   1      39.378  29.932  31.820  1.00  0.00     0.167 HD
ATOM     49  C   UNL A   1      41.385  27.366  28.865  1.00  0.00     0.034 A 
ATOM     50  C   UNL A   1      39.085  31.157  34.314  1.00  0.00     0.034 A 
ATOM     51  C   UNL A   1      42.296  27.449  29.980  1.00  0.00     0.049 A 
ATOM     52  C   UNL A   1      40.436  30.490  34.321  1.00  0.00     0.074 A 
ATOM     53  C   UNL A   1      43.550  26.878  30.120  1.00  0.00     0.029 A 
ATOM     54  N   UNL A   1      42.052  28.155  31.152  1.00  0.00    -0.354 N 
ATOM     55  N   UNL A   1      40.994  29.748  33.393  1.00  0.00    -0.248 NA
ATOM     56  C   UNL A   1      41.266  30.693  35.516  1.00  0.00     0.031 C 
ATOM     57  C   UNL A   1      44.046  27.208  31.388  1.00  0.00     0.029 A 
ATOM     58  C   UNL A   1      43.127  28.030  32.018  1.00  0.00     0.049 A 
ATOM     59  H   UNL A   1      41.234  28.670  31.338  1.00  0.00     0.167 HD
ATOM     60  C   UNL A   1      42.257  29.423  33.881  1.00  0.00     0.074 A 
ATOM     61  C   UNL A   1      42.378  30.057  35.178  1.00  0.00     0.031 C 
ATOM     62  C   UNL A   1      43.230  28.672  33.306  1.00  0.00     0.034 A 
BRANCH  49  63
ATOM     63  C   UNL A   1      41.757  26.519  27.672  1.00  0.00     0.023 A 
ATOM     64  C   UNL A   1      41.483  25.140  27.636  1.00  0.00     0.031 A 
ATOM     65  C   UNL A   1      42.441  27.082  26.581  1.00  0.00     0.131 A 
ATOM     66  C   UNL A   1      41.968  24.357  26.579  1.00  0.00     0.055 A 
ATOM     67  C   UNL A   1      42.848  26.310  25.490  1.00  0.00     0.041 A 
ATOM     68  F   UNL A   1      42.748  28.389  26.567  1.00  0.00    -0.206 F 
ATOM     69  C   UNL A   1      42.627  24.936  25.492  1.00  0.00     0.022 A 
BRANCH  66  70
ATOM     70  S   UNL A   1      41.859  22.552  26.718  1.00  0.00     0.124 S 
ATOM     71  O   UNL A   1      42.241  22.130  25.373  1.00  0.00    -0.237 OA
ATOM     72  O   UNL A   1      42.817  22.257  27.777  1.00  0.00    -0.237 OA
ATOM     73  O   UNL A   1      40.457  22.319  27.063  1.00  0.00    -0.744 OA
ENDBRANCH  66  70
ENDBRANCH  49  63
BRANCH  50  74
ATOM     74  C   UNL A   1      38.602  31.906  35.505  1.00  0.00     0.023 A 
ATOM     75  C   UNL A   1      38.080  31.230  36.619  1.00  0.00     0.031 A 
ATOM     76  C   UNL A   1      38.623  33.311  35.533  1.00  0.00     0.131 A 
ATOM     77  C   UNL A   1      37.557  31.959  37.697  1.00  0.00     0.055 A 
ATOM     78  C   UNL A   1      38.139  34.032  36.625  1.00  0.00     0.041 A 
ATOM     79  F   UNL A   1      39.125  34.001  34.497  1.00  0.00    -0.206 F 
ATOM     80  C   UNL A   1      37.591  33.355  37.711  1.00  0.00     0.022 A 
BRANCH  77  81
ATOM     81  S   UNL A   1      36.769  31.053  39.056  1.00  0.00     0.124 S 
ATOM     82  O   UNL A   1      35.515  31.780  39.213  1.00  0.00    -0.237 OA
ATOM     83  O   UNL A   1      36.667  29.707  38.501  1.00  0.00    -0.237 OA
ATOM     84  O   UNL A   1      37.718  31.200  40.157  1.00  0.00    -0.744 OA
ENDBRANCH  77  81
ENDBRANCH  50  74
BRANCH  62  85
ATOM     85  C   UNL A   1      44.530  28.554  34.061  1.00  0.00     0.023 A 
ATOM     86  C   UNL A   1      44.715  27.591  35.069  1.00  0.00     0.031 A 
ATOM     87  C   UNL A   1      45.586  29.437  33.781  1.00  0.00     0.131 A 
ATOM     88  C   UNL A   1      45.911  27.573  35.802  1.00  0.00     0.055 A 
ATOM     89  C   UNL A   1      46.792  29.382  34.482  1.00  0.00     0.041 A 
ATOM     90  F   UNL A   1      45.459  30.374  32.828  1.00  0.00    -0.206 F 
ATOM     91  C   UNL A   1      46.954  28.455  35.508  1.00  0.00     0.022 A 
BRANCH  88  92
ATOM     92  S   UNL A   1      46.050  26.439  37.212  1.00  0.00     0.124 S 
ATOM     93  O   UNL A   1      46.150  25.142  36.552  1.00  0.00    -0.237 OA
ATOM     94  O   UNL A   1      47.262  26.914  37.872  1.00  0.00    -0.237 OA
ATOM     95  O   UNL A   1      44.812  26.663  37.956  1.00  0.00    -0.744 OA
ENDBRANCH  88  92
ENDBRANCH  62  85
ENDBRANCH  36  37
ENDBRANCH  28  31
ENDBRANCH  26  27
ENDBRANCH   1  26
TORSDOF 16
ENDMDL
