MODEL 1
REMARK VINA RESULT:     -12.5      0.000      0.000
REMARK SMILES Cc1ccc(NC(=O)C[C@H]2C(=O)NCCN2C(=O)CCC(=O)NCCCCNC(=O)c2ccc(-c3c4nc(c(-c5cc(S(=O)(=O)[O-])ccc5F)c5ccc([nH]5)c(-c5cc(S(=O)(=O)[O-])ccc5F)c5nc(c(-c6cc(S(=O)(=O)[O-])ccc6F)c6ccc3[nH]6)C=C5)C=C4)cc2)c(C)c1
REMARK SMILES IDX 24 1 23 2 21 3 22 4 20 6 19 7 17 8 18 9 16 10 10 11 11 12
REMARK SMILES IDX 12 13 13 14 15 15 14 16 9 18 7 19 6 20 8 22 5 23 1 24 2 25
REMARK SMILES IDX 3 26 96 27 4 28 94 29 95 30 25 31 26 32 27 33 28 34 29 35
REMARK SMILES IDX 30 37 31 38 32 39 93 40 33 41 92 42 34 43 35 44 36 45 86 46
REMARK SMILES IDX 37 47 91 48 85 49 87 50 38 51 90 52 84 53 83 54 39 56 71 57
REMARK SMILES IDX 51 58 70 59 52 60 55 61 69 62 88 63 53 64 54 65 68 67 89 68
REMARK SMILES IDX 56 69 40 70 41 71 49 72 42 73 48 74 50 75 47 76 43 77 44 78
REMARK SMILES IDX 45 79 46 80 72 81 73 82 81 83 74 84 80 85 82 86 79 87 75 88
REMARK SMILES IDX 76 89 77 90 78 91 57 92 58 93 66 94 59 95 65 96 67 97 64 98
REMARK SMILES IDX 60 99 61 100 62 101 63 102
REMARK H PARENT 23 5 13 17 6 21 28 36 87 55 55 66
REMARK Flexibility Score: inf
ROOT
ATOM      1  C   UNL A   1      32.087  26.176  26.399  1.00  0.00     0.116 C 
ENDROOT
BRANCH   1   2
ATOM      2  N   UNL A   1      31.800  24.820  26.926  1.00  0.00    -0.356 N 
ATOM      3  C   UNL A   1      32.499  23.645  27.001  1.00  0.00     0.220 C 
ATOM      4  O   UNL A   1      32.001  22.678  27.545  1.00  0.00    -0.275 OA
ATOM      5  H   UNL A   1      30.897  24.748  27.312  1.00  0.00     0.163 HD
BRANCH   3   6
ATOM      6  C   UNL A   1      33.842  23.562  26.356  1.00  0.00     0.110 C 
BRANCH   6   7
ATOM      7  C   UNL A   1      34.719  22.624  27.148  1.00  0.00     0.110 C 
BRANCH   7   8
ATOM      8  C   UNL A   1      35.538  21.740  26.259  1.00  0.00     0.223 C 
ATOM      9  O   UNL A   1      36.768  21.910  26.288  1.00  0.00    -0.275 OA
BRANCH   8  10
ATOM     10  N   UNL A   1      34.960  20.787  25.399  1.00  0.00    -0.328 N 
ATOM     11  C   UNL A   1      33.454  20.448  25.154  1.00  0.00     0.183 C 
ATOM     12  C   UNL A   1      33.280  18.899  25.271  1.00  0.00     0.243 C 
ATOM     13  O   UNL A   1      32.179  18.386  25.462  1.00  0.00    -0.273 OA
ATOM     14  N   UNL A   1      34.349  18.069  25.073  1.00  0.00    -0.353 N 
ATOM     15  C   UNL A   1      36.032  19.877  24.949  1.00  0.00     0.141 C 
ATOM     16  C   UNL A   1      35.654  18.455  24.611  1.00  0.00     0.137 C 
ATOM     17  H   UNL A   1      34.211  17.114  25.266  1.00  0.00     0.163 HD
BRANCH  11  18
ATOM     18  C   UNL A   1      32.305  20.987  23.956  1.00  0.00     0.135 C 
BRANCH  18  19
ATOM     19  C   UNL A   1      31.793  22.003  22.685  1.00  0.00     0.227 C 
ATOM     20  N   UNL A   1      31.391  23.303  22.413  1.00  0.00    -0.326 N 
ATOM     21  H   UNL A   1      31.139  23.342  21.462  1.00  0.00     0.169 HD
ATOM     22  O   UNL A   1      31.714  21.363  21.602  1.00  0.00    -0.275 OA
BRANCH  20  23
ATOM     23  C   UNL A   1      31.194  24.617  22.967  1.00  0.00     0.044 A 
ATOM     24  C   UNL A   1      29.478  28.514  22.896  1.00  0.00     0.044 C 
ATOM     25  C   UNL A   1      30.196  27.252  23.311  1.00  0.00    -0.051 A 
ATOM     26  C   UNL A   1      29.493  26.161  23.829  1.00  0.00     0.005 A 
ATOM     27  C   UNL A   1      31.528  27.035  22.931  1.00  0.00     0.009 A 
ATOM     28  C   UNL A   1      30.037  24.856  23.738  1.00  0.00     0.026 A 
ATOM     29  C   UNL A   1      32.044  25.717  22.773  1.00  0.00    -0.027 A 
ATOM     30  C   UNL A   1      33.494  25.563  22.427  1.00  0.00     0.046 C 
ENDBRANCH  20  23
ENDBRANCH  18  19
ENDBRANCH  11  18
ENDBRANCH   8  10
ENDBRANCH   7   8
ENDBRANCH   6   7
ENDBRANCH   3   6
ENDBRANCH   1   2
BRANCH   1  31
ATOM     31  C   UNL A   1      31.553  27.613  26.918  1.00  0.00     0.023 C 
BRANCH  31  32
ATOM     32  C   UNL A   1      31.522  29.063  26.345  1.00  0.00     0.023 C 
BRANCH  32  33
ATOM     33  C   UNL A   1      32.828  29.865  26.120  1.00  0.00     0.116 C 
BRANCH  33  34
ATOM     34  N   UNL A   1      32.744  31.242  26.557  1.00  0.00    -0.352 N 
ATOM     35  C   UNL A   1      33.554  31.972  27.398  1.00  0.00     0.251 C 
ATOM     36  H   UNL A   1      31.978  31.741  26.193  1.00  0.00     0.163 HD
ATOM     37  O   UNL A   1      33.197  33.116  27.679  1.00  0.00    -0.269 OA
BRANCH  35  38
ATOM     38  C   UNL A   1      34.800  31.425  28.010  1.00  0.00     0.039 A 
ATOM     39  C   UNL A   1      35.924  32.262  28.057  1.00  0.00     0.014 A 
ATOM     40  C   UNL A   1      34.924  30.113  28.475  1.00  0.00     0.014 A 
ATOM     41  C   UNL A   1      37.134  31.807  28.602  1.00  0.00     0.010 A 
ATOM     42  C   UNL A   1      36.116  29.682  29.085  1.00  0.00     0.010 A 
ATOM     43  C   UNL A   1      37.242  30.519  29.153  1.00  0.00    -0.014 A 
BRANCH  43  44
ATOM     44  C   UNL A   1      38.528  30.078  29.785  1.00  0.00     0.031 A 
ATOM     45  C   UNL A   1      38.933  30.557  31.159  1.00  0.00     0.074 A 
ATOM     46  C   UNL A   1      39.346  29.234  29.118  1.00  0.00     0.049 A 
ATOM     47  N   UNL A   1      39.967  30.211  31.889  1.00  0.00    -0.248 NA
ATOM     48  C   UNL A   1      38.085  31.581  31.782  1.00  0.00     0.031 C 
ATOM     49  C   UNL A   1      39.126  28.754  27.751  1.00  0.00     0.029 A 
ATOM     50  N   UNL A   1      40.514  28.613  29.495  1.00  0.00    -0.354 N 
ATOM     51  C   UNL A   1      39.896  30.981  33.048  1.00  0.00     0.074 A 
ATOM     52  C   UNL A   1      38.762  31.865  32.884  1.00  0.00     0.031 C 
ATOM     53  C   UNL A   1      40.089  27.876  27.428  1.00  0.00     0.029 A 
ATOM     54  C   UNL A   1      41.015  27.746  28.550  1.00  0.00     0.049 A 
ATOM     55  H   UNL A   1      40.953  28.775  30.362  1.00  0.00     0.167 HD
ATOM     56  C   UNL A   1      40.677  30.936  34.160  1.00  0.00     0.034 A 
ATOM     57  C   UNL A   1      42.083  26.922  28.583  1.00  0.00     0.034 A 
ATOM     58  C   UNL A   1      41.801  30.043  34.320  1.00  0.00     0.049 A 
ATOM     59  C   UNL A   1      42.913  26.857  29.841  1.00  0.00     0.074 A 
ATOM     60  C   UNL A   1      42.627  29.876  35.418  1.00  0.00     0.029 A 
ATOM     61  N   UNL A   1      42.259  29.163  33.346  1.00  0.00    -0.354 N 
ATOM     62  N   UNL A   1      42.777  27.532  30.958  1.00  0.00    -0.248 NA
ATOM     63  C   UNL A   1      44.024  25.897  29.849  1.00  0.00     0.031 C 
ATOM     64  C   UNL A   1      43.618  28.943  35.090  1.00  0.00     0.029 A 
ATOM     65  C   UNL A   1      43.366  28.467  33.814  1.00  0.00     0.049 A 
ATOM     66  H   UNL A   1      41.859  29.049  32.455  1.00  0.00     0.167 HD
ATOM     67  C   UNL A   1      43.768  27.055  31.812  1.00  0.00     0.074 A 
ATOM     68  C   UNL A   1      44.471  26.016  31.090  1.00  0.00     0.031 C 
ATOM     69  C   UNL A   1      44.070  27.440  33.080  1.00  0.00     0.034 A 
BRANCH  56  70
ATOM     70  C   UNL A   1      40.341  31.897  35.283  1.00  0.00     0.023 A 
ATOM     71  C   UNL A   1      39.391  31.572  36.270  1.00  0.00     0.031 A 
ATOM     72  C   UNL A   1      40.946  33.164  35.352  1.00  0.00     0.131 A 
ATOM     73  C   UNL A   1      39.005  32.529  37.219  1.00  0.00     0.055 A 
ATOM     74  C   UNL A   1      40.623  34.082  36.357  1.00  0.00     0.041 A 
ATOM     75  F   UNL A   1      41.851  33.543  34.437  1.00  0.00    -0.206 F 
ATOM     76  C   UNL A   1      39.633  33.775  37.286  1.00  0.00     0.022 A 
BRANCH  73  77
ATOM     77  S   UNL A   1      37.562  32.182  38.262  1.00  0.00     0.124 S 
ATOM     78  O   UNL A   1      38.071  32.522  39.589  1.00  0.00    -0.237 OA
ATOM     79  O   UNL A   1      36.553  33.083  37.716  1.00  0.00    -0.237 OA
ATOM     80  O   UNL A   1      37.314  30.759  38.044  1.00  0.00    -0.744 OA
ENDBRANCH  73  77
ENDBRANCH  56  70
BRANCH  57  81
ATOM     81  C   UNL A   1      42.420  26.063  27.407  1.00  0.00     0.023 A 
ATOM     82  C   UNL A   1      41.981  24.730  27.330  1.00  0.00     0.031 A 
ATOM     83  C   UNL A   1      43.227  26.549  26.363  1.00  0.00     0.131 A 
ATOM     84  C   UNL A   1      42.391  23.915  26.261  1.00  0.00     0.055 A 
ATOM     85  C   UNL A   1      43.587  25.751  25.275  1.00  0.00     0.041 A 
ATOM     86  F   UNL A   1      43.668  27.816  26.380  1.00  0.00    -0.206 F 
ATOM     87  C   UNL A   1      43.181  24.421  25.228  1.00  0.00     0.022 A 
BRANCH  84  88
ATOM     88  S   UNL A   1      41.945  22.156  26.284  1.00  0.00     0.124 S 
ATOM     89  O   UNL A   1      42.771  21.625  25.205  1.00  0.00    -0.237 OA
ATOM     90  O   UNL A   1      42.327  21.765  27.637  1.00  0.00    -0.237 OA
ATOM     91  O   UNL A   1      40.507  22.167  26.024  1.00  0.00    -0.744 OA
ENDBRANCH  84  88
ENDBRANCH  57  81
BRANCH  69  92
ATOM     92  C   UNL A   1      45.189  26.695  33.772  1.00  0.00     0.023 A 
ATOM     93  C   UNL A   1      44.963  25.484  34.450  1.00  0.00     0.031 A 
ATOM     94  C   UNL A   1      46.490  27.226  33.789  1.00  0.00     0.131 A 
ATOM     95  C   UNL A   1      45.999  24.889  35.185  1.00  0.00     0.055 A 
ATOM     96  C   UNL A   1      47.536  26.591  34.462  1.00  0.00     0.041 A 
ATOM     97  F   UNL A   1      46.766  28.380  33.160  1.00  0.00    -0.206 F 
ATOM     98  C   UNL A   1      47.288  25.427  35.181  1.00  0.00     0.022 A 
BRANCH  95  99
ATOM     99  S   UNL A   1      45.606  23.478  36.256  1.00  0.00     0.124 S 
ATOM    100  O   UNL A   1      45.567  24.100  37.575  1.00  0.00    -0.237 OA
ATOM    101  O   UNL A   1      44.323  23.030  35.723  1.00  0.00    -0.237 OA
ATOM    102  O   UNL A   1      46.723  22.560  36.036  1.00  0.00    -0.744 OA
ENDBRANCH  95  99
ENDBRANCH  69  92
ENDBRANCH  43  44
ENDBRANCH  35  38
ENDBRANCH  33  34
ENDBRANCH  32  33
ENDBRANCH  31  32
ENDBRANCH   1  31
TORSDOF 20
ENDMDL
MODEL 2
REMARK VINA RESULT:     -12.5      4.692      8.595
REMARK SMILES Cc1ccc(NC(=O)C[C@H]2C(=O)NCCN2C(=O)CCC(=O)NCCCCNC(=O)c2ccc(-c3c4nc(c(-c5cc(S(=O)(=O)[O-])ccc5F)c5ccc([nH]5)c(-c5cc(S(=O)(=O)[O-])ccc5F)c5nc(c(-c6cc(S(=O)(=O)[O-])ccc6F)c6ccc3[nH]6)C=C5)C=C4)cc2)c(C)c1
REMARK SMILES IDX 24 1 23 2 21 3 22 4 20 6 19 7 17 8 18 9 16 10 10 11 11 12
REMARK SMILES IDX 12 13 13 14 15 15 14 16 9 18 7 19 6 20 8 22 5 23 1 24 2 25
REMARK SMILES IDX 3 26 96 27 4 28 94 29 95 30 25 31 26 32 27 33 28 34 29 35
REMARK SMILES IDX 30 37 31 38 32 39 93 40 33 41 92 42 34 43 35 44 36 45 86 46
REMARK SMILES IDX 37 47 91 48 85 49 87 50 38 51 90 52 84 53 83 54 39 56 71 57
REMARK SMILES IDX 51 58 70 59 52 60 55 61 69 62 88 63 53 64 54 65 68 67 89 68
REMARK SMILES IDX 56 69 40 70 41 71 49 72 42 73 48 74 50 75 47 76 43 77 44 78
REMARK SMILES IDX 45 79 46 80 72 81 73 82 81 83 74 84 80 85 82 86 79 87 75 88
REMARK SMILES IDX 76 89 77 90 78 91 57 92 58 93 66 94 59 95 65 96 67 97 64 98
REMARK SMILES IDX 60 99 61 100 62 101 63 102
REMARK H PARENT 23 5 13 17 6 21 28 36 87 55 55 66
REMARK Flexibility Score: inf
ROOT
ATOM      1  C   UNL A   1      33.457  36.784  28.928  1.00  0.00     0.116 C 
ENDROOT
BRANCH   1   2
ATOM      2  N   UNL A   1      33.301  37.727  30.062  1.00  0.00    -0.356 N 
ATOM      3  C   UNL A   1      33.104  37.591  31.410  1.00  0.00     0.220 C 
ATOM      4  O   UNL A   1      33.056  38.579  32.117  1.00  0.00    -0.275 OA
ATOM      5  H   UNL A   1      33.352  38.668  29.780  1.00  0.00     0.163 HD
BRANCH   3   6
ATOM      6  C   UNL A   1      32.891  36.226  31.974  1.00  0.00     0.110 C 
BRANCH   6   7
ATOM      7  C   UNL A   1      34.040  35.880  32.889  1.00  0.00     0.110 C 
BRANCH   7   8
ATOM      8  C   UNL A   1      34.252  34.400  32.985  1.00  0.00     0.223 C 
ATOM      9  O   UNL A   1      33.233  33.691  32.971  1.00  0.00    -0.275 OA
BRANCH   8  10
ATOM     10  N   UNL A   1      35.530  33.827  33.124  1.00  0.00    -0.328 N 
ATOM     11  C   UNL A   1      36.216  32.702  32.282  1.00  0.00     0.183 C 
ATOM     12  C   UNL A   1      36.784  31.634  33.272  1.00  0.00     0.243 C 
ATOM     13  O   UNL A   1      37.065  30.495  32.901  1.00  0.00    -0.273 OA
ATOM     14  N   UNL A   1      37.064  31.975  34.567  1.00  0.00    -0.353 N 
ATOM     15  C   UNL A   1      36.066  34.233  34.438  1.00  0.00     0.141 C 
ATOM     16  C   UNL A   1      37.030  33.297  35.126  1.00  0.00     0.137 C 
ATOM     17  H   UNL A   1      37.314  31.242  35.175  1.00  0.00     0.163 HD
BRANCH  11  18
ATOM     18  C   UNL A   1      37.308  32.748  30.923  1.00  0.00     0.135 C 
BRANCH  18  19
ATOM     19  C   UNL A   1      38.574  33.435  30.008  1.00  0.00     0.227 C 
ATOM     20  N   UNL A   1      39.866  33.929  30.120  1.00  0.00    -0.326 N 
ATOM     21  H   UNL A   1      40.128  34.274  29.236  1.00  0.00     0.169 HD
ATOM     22  O   UNL A   1      38.228  33.587  28.806  1.00  0.00    -0.275 OA
BRANCH  20  23
ATOM     23  C   UNL A   1      40.976  34.137  31.012  1.00  0.00     0.044 A 
ATOM     24  C   UNL A   1      43.770  36.646  33.022  1.00  0.00     0.044 C 
ATOM     25  C   UNL A   1      42.937  35.468  32.574  1.00  0.00    -0.051 A 
ATOM     26  C   UNL A   1      41.655  35.256  33.087  1.00  0.00     0.005 A 
ATOM     27  C   UNL A   1      43.305  34.729  31.441  1.00  0.00     0.009 A 
ATOM     28  C   UNL A   1      40.706  34.511  32.346  1.00  0.00     0.026 A 
ATOM     29  C   UNL A   1      42.332  34.042  30.661  1.00  0.00    -0.027 A 
ATOM     30  C   UNL A   1      42.807  33.220  29.501  1.00  0.00     0.046 C 
ENDBRANCH  20  23
ENDBRANCH  18  19
ENDBRANCH  11  18
ENDBRANCH   8  10
ENDBRANCH   7   8
ENDBRANCH   6   7
ENDBRANCH   3   6
ENDBRANCH   1   2
BRANCH   1  31
ATOM     31  C   UNL A   1      33.379  35.167  28.919  1.00  0.00     0.023 C 
BRANCH  31  32
ATOM     32  C   UNL A   1      34.350  34.004  29.285  1.00  0.00     0.023 C 
BRANCH  32  33
ATOM     33  C   UNL A   1      35.070  33.183  28.186  1.00  0.00     0.116 C 
BRANCH  33  34
ATOM     34  N   UNL A   1      34.318  32.031  27.738  1.00  0.00    -0.352 N 
ATOM     35  C   UNL A   1      34.647  30.694  27.711  1.00  0.00     0.251 C 
ATOM     36  H   UNL A   1      33.419  32.238  27.393  1.00  0.00     0.163 HD
ATOM     37  O   UNL A   1      33.845  29.923  27.184  1.00  0.00    -0.269 OA
BRANCH  35  38
ATOM     38  C   UNL A   1      35.935  30.159  28.241  1.00  0.00     0.039 A 
ATOM     39  C   UNL A   1      37.079  30.305  27.444  1.00  0.00     0.014 A 
ATOM     40  C   UNL A   1      36.047  29.466  29.450  1.00  0.00     0.014 A 
ATOM     41  C   UNL A   1      38.318  29.810  27.872  1.00  0.00     0.010 A 
ATOM     42  C   UNL A   1      37.303  29.033  29.909  1.00  0.00     0.010 A 
ATOM     43  C   UNL A   1      38.459  29.191  29.126  1.00  0.00    -0.014 A 
BRANCH  43  44
ATOM     44  C   UNL A   1      39.807  28.724  29.587  1.00  0.00     0.031 A 
ATOM     45  C   UNL A   1      40.492  29.356  30.776  1.00  0.00     0.074 A 
ATOM     46  C   UNL A   1      40.426  27.719  28.932  1.00  0.00     0.049 A 
ATOM     47  N   UNL A   1      41.617  29.020  31.361  1.00  0.00    -0.248 NA
ATOM     48  C   UNL A   1      39.847  30.536  31.365  1.00  0.00     0.031 C 
ATOM     49  C   UNL A   1      39.923  27.070  27.718  1.00  0.00     0.029 A 
ATOM     50  N   UNL A   1      41.598  27.049  29.194  1.00  0.00    -0.354 N 
ATOM     51  C   UNL A   1      41.816  29.953  32.377  1.00  0.00     0.074 A 
ATOM     52  C   UNL A   1      40.735  30.909  32.273  1.00  0.00     0.031 C 
ATOM     53  C   UNL A   1      40.746  26.065  27.377  1.00  0.00     0.029 A 
ATOM     54  C   UNL A   1      41.854  26.010  28.327  1.00  0.00     0.049 A 
ATOM     55  H   UNL A   1      42.201  27.291  29.935  1.00  0.00     0.167 HD
ATOM     56  C   UNL A   1      42.786  29.994  33.329  1.00  0.00     0.034 A 
ATOM     57  C   UNL A   1      42.850  25.100  28.305  1.00  0.00     0.034 A 
ATOM     58  C   UNL A   1      43.856  29.029  33.432  1.00  0.00     0.049 A 
ATOM     59  C   UNL A   1      43.894  25.138  29.394  1.00  0.00     0.074 A 
ATOM     60  C   UNL A   1      44.859  28.944  34.383  1.00  0.00     0.029 A 
ATOM     61  N   UNL A   1      44.064  27.978  32.547  1.00  0.00    -0.354 N 
ATOM     62  N   UNL A   1      44.015  25.978  30.396  1.00  0.00    -0.248 NA
ATOM     63  C   UNL A   1      44.919  24.087  29.362  1.00  0.00     0.031 C 
ATOM     64  C   UNL A   1      45.706  27.883  34.040  1.00  0.00     0.029 A 
ATOM     65  C   UNL A   1      45.188  27.254  32.920  1.00  0.00     0.049 A 
ATOM     66  H   UNL A   1      43.498  27.776  31.768  1.00  0.00     0.167 HD
ATOM     67  C   UNL A   1      45.113  25.535  31.130  1.00  0.00     0.074 A 
ATOM     68  C   UNL A   1      45.596  24.340  30.472  1.00  0.00     0.031 C 
ATOM     69  C   UNL A   1      45.671  26.069  32.248  1.00  0.00     0.034 A 
BRANCH  56  70
ATOM     70  C   UNL A   1      42.732  31.135  34.326  1.00  0.00     0.023 A 
ATOM     71  C   UNL A   1      41.754  31.182  35.338  1.00  0.00     0.031 A 
ATOM     72  C   UNL A   1      43.641  32.205  34.247  1.00  0.00     0.131 A 
ATOM     73  C   UNL A   1      41.647  32.312  36.162  1.00  0.00     0.055 A 
ATOM     74  C   UNL A   1      43.585  33.287  35.130  1.00  0.00     0.041 A 
ATOM     75  F   UNL A   1      44.590  32.230  33.298  1.00  0.00    -0.206 F 
ATOM     76  C   UNL A   1      42.572  33.355  36.082  1.00  0.00     0.022 A 
BRANCH  73  77
ATOM     77  S   UNL A   1      40.188  32.470  37.228  1.00  0.00     0.124 S 
ATOM     78  O   UNL A   1      39.721  33.813  36.888  1.00  0.00    -0.237 OA
ATOM     79  O   UNL A   1      39.346  31.368  36.778  1.00  0.00    -0.237 OA
ATOM     80  O   UNL A   1      40.732  32.332  38.577  1.00  0.00    -0.744 OA
ENDBRANCH  73  77
ENDBRANCH  56  70
BRANCH  57  81
ATOM     81  C   UNL A   1      42.903  24.052  27.241  1.00  0.00     0.023 A 
ATOM     82  C   UNL A   1      42.172  22.857  27.360  1.00  0.00     0.031 A 
ATOM     83  C   UNL A   1      43.723  24.210  26.109  1.00  0.00     0.131 A 
ATOM     84  C   UNL A   1      42.313  21.848  26.393  1.00  0.00     0.055 A 
ATOM     85  C   UNL A   1      43.818  23.225  25.123  1.00  0.00     0.041 A 
ATOM     86  F   UNL A   1      44.437  25.333  25.940  1.00  0.00    -0.206 F 
ATOM     87  C   UNL A   1      43.122  22.029  25.270  1.00  0.00     0.022 A 
BRANCH  84  88
ATOM     88  S   UNL A   1      41.487  20.256  26.667  1.00  0.00     0.124 S 
ATOM     89  O   UNL A   1      41.766  19.555  25.418  1.00  0.00    -0.237 OA
ATOM     90  O   UNL A   1      42.177  19.757  27.852  1.00  0.00    -0.237 OA
ATOM     91  O   UNL A   1      40.089  20.629  26.875  1.00  0.00    -0.744 OA
ENDBRANCH  84  88
ENDBRANCH  57  81
BRANCH  69  92
ATOM     92  C   UNL A   1      46.845  25.327  32.845  1.00  0.00     0.023 A 
ATOM     93  C   UNL A   1      46.674  24.348  33.841  1.00  0.00     0.031 A 
ATOM     94  C   UNL A   1      48.157  25.635  32.442  1.00  0.00     0.131 A 
ATOM     95  C   UNL A   1      47.795  23.775  34.458  1.00  0.00     0.055 A 
ATOM     96  C   UNL A   1      49.267  25.006  33.010  1.00  0.00     0.041 A 
ATOM     97  F   UNL A   1      48.383  26.561  31.498  1.00  0.00    -0.206 F 
ATOM     98  C   UNL A   1      49.090  24.085  34.038  1.00  0.00     0.022 A 
BRANCH  95  99
ATOM     99  S   UNL A   1      47.541  22.717  35.911  1.00  0.00     0.124 S 
ATOM    100  O   UNL A   1      47.692  23.667  37.008  1.00  0.00    -0.237 OA
ATOM    101  O   UNL A   1      46.192  22.205  35.691  1.00  0.00    -0.237 OA
ATOM    102  O   UNL A   1      48.608  21.723  35.801  1.00  0.00    -0.744 OA
ENDBRANCH  95  99
ENDBRANCH  69  92
ENDBRANCH  43  44
ENDBRANCH  35  38
ENDBRANCH  33  34
ENDBRANCH  32  33
ENDBRANCH  31  32
ENDBRANCH   1  31
TORSDOF 20
ENDMDL
MODEL 3
REMARK VINA RESULT:     -12.3      4.715      9.893
REMARK SMILES Cc1ccc(NC(=O)C[C@H]2C(=O)NCCN2C(=O)CCC(=O)NCCCCNC(=O)c2ccc(-c3c4nc(c(-c5cc(S(=O)(=O)[O-])ccc5F)c5ccc([nH]5)c(-c5cc(S(=O)(=O)[O-])ccc5F)c5nc(c(-c6cc(S(=O)(=O)[O-])ccc6F)c6ccc3[nH]6)C=C5)C=C4)cc2)c(C)c1
REMARK SMILES IDX 24 1 23 2 21 3 22 4 20 6 19 7 17 8 18 9 16 10 10 11 11 12
REMARK SMILES IDX 12 13 13 14 15 15 14 16 9 18 7 19 6 20 8 22 5 23 1 24 2 25
REMARK SMILES IDX 3 26 96 27 4 28 94 29 95 30 25 31 26 32 27 33 28 34 29 35
REMARK SMILES IDX 30 37 31 38 32 39 93 40 33 41 92 42 34 43 35 44 36 45 86 46
REMARK SMILES IDX 37 47 91 48 85 49 87 50 38 51 90 52 84 53 83 54 39 56 71 57
REMARK SMILES IDX 51 58 70 59 52 60 55 61 69 62 88 63 53 64 54 65 68 67 89 68
REMARK SMILES IDX 56 69 40 70 41 71 49 72 42 73 48 74 50 75 47 76 43 77 44 78
REMARK SMILES IDX 45 79 46 80 72 81 73 82 81 83 74 84 80 85 82 86 79 87 75 88
REMARK SMILES IDX 76 89 77 90 78 91 57 92 58 93 66 94 59 95 65 96 67 97 64 98
REMARK SMILES IDX 60 99 61 100 62 101 63 102
REMARK H PARENT 23 5 13 17 6 21 28 36 87 55 55 66
REMARK Flexibility Score: inf
ROOT
ATOM      1  C   UNL A   1      33.622  24.713  26.156  1.00  0.00     0.116 C 
ENDROOT
BRANCH   1   2
ATOM      2  N   UNL A   1      32.389  24.170  26.775  1.00  0.00    -0.356 N 
ATOM      3  C   UNL A   1      31.054  24.460  26.684  1.00  0.00     0.220 C 
ATOM      4  O   UNL A   1      30.246  23.792  27.301  1.00  0.00    -0.275 OA
ATOM      5  H   UNL A   1      32.573  23.427  27.395  1.00  0.00     0.163 HD
BRANCH   3   6
ATOM      6  C   UNL A   1      30.625  25.636  25.872  1.00  0.00     0.110 C 
BRANCH   6   7
ATOM      7  C   UNL A   1      30.892  26.902  26.647  1.00  0.00     0.110 C 
BRANCH   7   8
ATOM      8  C   UNL A   1      31.520  27.959  25.792  1.00  0.00     0.223 C 
ATOM      9  O   UNL A   1      31.882  28.997  26.369  1.00  0.00    -0.275 OA
BRANCH   8  10
ATOM     10  N   UNL A   1      31.664  27.818  24.399  1.00  0.00    -0.328 N 
ATOM     11  C   UNL A   1      32.875  27.278  23.570  1.00  0.00     0.183 C 
ATOM     12  C   UNL A   1      33.187  28.311  22.439  1.00  0.00     0.243 C 
ATOM     13  O   UNL A   1      34.272  28.325  21.860  1.00  0.00    -0.273 OA
ATOM     14  N   UNL A   1      32.217  29.173  22.006  1.00  0.00    -0.353 N 
ATOM     15  C   UNL A   1      30.573  28.576  23.754  1.00  0.00     0.141 C 
ATOM     16  C   UNL A   1      30.831  29.156  22.384  1.00  0.00     0.137 C 
ATOM     17  H   UNL A   1      32.496  29.873  21.372  1.00  0.00     0.163 HD
BRANCH  11  18
ATOM     18  C   UNL A   1      33.248  25.703  22.920  1.00  0.00     0.135 C 
BRANCH  18  19
ATOM     19  C   UNL A   1      32.958  24.369  21.897  1.00  0.00     0.227 C 
ATOM     20  N   UNL A   1      32.601  23.028  21.917  1.00  0.00    -0.326 N 
ATOM     21  H   UNL A   1      32.633  22.700  20.989  1.00  0.00     0.169 HD
ATOM     22  O   UNL A   1      33.164  24.674  20.692  1.00  0.00    -0.275 OA
BRANCH  20  23
ATOM     23  C   UNL A   1      32.201  21.926  22.752  1.00  0.00     0.044 A 
ATOM     24  C   UNL A   1      33.028  18.864  25.594  1.00  0.00     0.044 C 
ATOM     25  C   UNL A   1      32.337  19.842  24.674  1.00  0.00    -0.051 A 
ATOM     26  C   UNL A   1      32.084  21.155  25.078  1.00  0.00     0.005 A 
ATOM     27  C   UNL A   1      32.187  19.550  23.312  1.00  0.00     0.009 A 
ATOM     28  C   UNL A   1      31.924  22.179  24.112  1.00  0.00     0.026 A 
ATOM     29  C   UNL A   1      32.100  20.588  22.341  1.00  0.00    -0.027 A 
ATOM     30  C   UNL A   1      31.877  20.201  20.910  1.00  0.00     0.046 C 
ENDBRANCH  20  23
ENDBRANCH  18  19
ENDBRANCH  11  18
ENDBRANCH   8  10
ENDBRANCH   7   8
ENDBRANCH   6   7
ENDBRANCH   3   6
ENDBRANCH   1   2
BRANCH   1  31
ATOM     31  C   UNL A   1      34.991  23.949  25.753  1.00  0.00     0.023 C 
BRANCH  31  32
ATOM     32  C   UNL A   1      35.359  22.531  25.221  1.00  0.00     0.023 C 
BRANCH  32  33
ATOM     33  C   UNL A   1      36.702  22.270  24.495  1.00  0.00     0.116 C 
BRANCH  33  34
ATOM     34  N   UNL A   1      37.399  21.094  24.971  1.00  0.00    -0.352 N 
ATOM     35  C   UNL A   1      38.559  20.968  25.702  1.00  0.00     0.251 C 
ATOM     36  H   UNL A   1      36.972  20.240  24.732  1.00  0.00     0.163 HD
ATOM     37  O   UNL A   1      38.988  19.830  25.896  1.00  0.00    -0.269 OA
BRANCH  35  38
ATOM     38  C   UNL A   1      39.331  22.136  26.218  1.00  0.00     0.039 A 
ATOM     39  C   UNL A   1      38.979  23.409  25.747  1.00  0.00     0.014 A 
ATOM     40  C   UNL A   1      40.420  22.023  27.087  1.00  0.00     0.014 A 
ATOM     41  C   UNL A   1      39.674  24.549  26.175  1.00  0.00     0.010 A 
ATOM     42  C   UNL A   1      41.069  23.173  27.569  1.00  0.00     0.010 A 
ATOM     43  C   UNL A   1      40.712  24.455  27.117  1.00  0.00    -0.014 A 
BRANCH  43  44
ATOM     44  C   UNL A   1      41.399  25.695  27.605  1.00  0.00     0.031 A 
ATOM     45  C   UNL A   1      42.820  26.015  27.203  1.00  0.00     0.074 A 
ATOM     46  C   UNL A   1      40.740  26.548  28.418  1.00  0.00     0.049 A 
ATOM     47  N   UNL A   1      43.536  27.083  27.463  1.00  0.00    -0.248 NA
ATOM     48  C   UNL A   1      43.540  24.990  26.437  1.00  0.00     0.031 C 
ATOM     49  C   UNL A   1      39.394  26.328  28.956  1.00  0.00     0.029 A 
ATOM     50  N   UNL A   1      41.094  27.777  28.925  1.00  0.00    -0.354 N 
ATOM     51  C   UNL A   1      44.791  26.851  26.902  1.00  0.00     0.074 A 
ATOM     52  C   UNL A   1      44.756  25.511  26.359  1.00  0.00     0.031 C 
ATOM     53  C   UNL A   1      39.018  27.405  29.664  1.00  0.00     0.029 A 
ATOM     54  C   UNL A   1      40.100  28.385  29.660  1.00  0.00     0.049 A 
ATOM     55  H   UNL A   1      41.978  28.185  28.777  1.00  0.00     0.167 HD
ATOM     56  C   UNL A   1      45.861  27.685  26.815  1.00  0.00     0.034 A 
ATOM     57  C   UNL A   1      40.051  29.599  30.248  1.00  0.00     0.034 A 
ATOM     58  C   UNL A   1      45.884  29.026  27.352  1.00  0.00     0.049 A 
ATOM     59  C   UNL A   1      41.234  30.525  30.105  1.00  0.00     0.074 A 
ATOM     60  C   UNL A   1      46.891  29.973  27.276  1.00  0.00     0.029 A 
ATOM     61  N   UNL A   1      44.847  29.612  28.068  1.00  0.00    -0.354 N 
ATOM     62  N   UNL A   1      42.378  30.318  29.496  1.00  0.00    -0.248 NA
ATOM     63  C   UNL A   1      41.105  31.857  30.707  1.00  0.00     0.031 C 
ATOM     64  C   UNL A   1      46.490  31.105  27.997  1.00  0.00     0.029 A 
ATOM     65  C   UNL A   1      45.199  30.898  28.456  1.00  0.00     0.049 A 
ATOM     66  H   UNL A   1      43.987  29.178  28.272  1.00  0.00     0.167 HD
ATOM     67  C   UNL A   1      43.092  31.508  29.616  1.00  0.00     0.074 A 
ATOM     68  C   UNL A   1      42.235  32.433  30.328  1.00  0.00     0.031 C 
ATOM     69  C   UNL A   1      44.342  31.809  29.178  1.00  0.00     0.034 A 
BRANCH  56  70
ATOM     70  C   UNL A   1      47.099  27.154  26.121  1.00  0.00     0.023 A 
ATOM     71  C   UNL A   1      48.072  26.413  26.818  1.00  0.00     0.031 A 
ATOM     72  C   UNL A   1      47.332  27.419  24.760  1.00  0.00     0.131 A 
ATOM     73  C   UNL A   1      49.268  26.048  26.183  1.00  0.00     0.055 A 
ATOM     74  C   UNL A   1      48.487  26.974  24.108  1.00  0.00     0.041 A 
ATOM     75  F   UNL A   1      46.452  28.131  24.040  1.00  0.00    -0.206 F 
ATOM     76  C   UNL A   1      49.473  26.301  24.825  1.00  0.00     0.022 A 
BRANCH  73  77
ATOM     77  S   UNL A   1      50.618  25.381  27.195  1.00  0.00     0.124 S 
ATOM     78  O   UNL A   1      51.585  24.987  26.173  1.00  0.00    -0.237 OA
ATOM     79  O   UNL A   1      50.991  26.525  28.019  1.00  0.00    -0.237 OA
ATOM     80  O   UNL A   1      49.994  24.271  27.912  1.00  0.00    -0.744 OA
ENDBRANCH  73  77
ENDBRANCH  56  70
BRANCH  57  81
ATOM     81  C   UNL A   1      38.834  30.033  30.999  1.00  0.00     0.023 A 
ATOM     82  C   UNL A   1      37.829  30.793  30.378  1.00  0.00     0.031 A 
ATOM     83  C   UNL A   1      38.682  29.734  32.365  1.00  0.00     0.131 A 
ATOM     84  C   UNL A   1      36.742  31.270  31.130  1.00  0.00     0.055 A 
ATOM     85  C   UNL A   1      37.572  30.165  33.096  1.00  0.00     0.041 A 
ATOM     86  F   UNL A   1      39.607  29.005  33.008  1.00  0.00    -0.206 F 
ATOM     87  C   UNL A   1      36.602  30.951  32.482  1.00  0.00     0.022 A 
BRANCH  84  88
ATOM     88  S   UNL A   1      35.554  32.387  30.335  1.00  0.00     0.124 S 
ATOM     89  O   UNL A   1      36.319  33.626  30.248  1.00  0.00    -0.237 OA
ATOM     90  O   UNL A   1      35.293  31.703  29.073  1.00  0.00    -0.237 OA
ATOM     91  O   UNL A   1      34.430  32.411  31.271  1.00  0.00    -0.744 OA
ENDBRANCH  84  88
ENDBRANCH  57  81
BRANCH  69  92
ATOM     92  C   UNL A   1      44.831  33.218  29.427  1.00  0.00     0.023 A 
ATOM     93  C   UNL A   1      44.544  34.270  28.538  1.00  0.00     0.031 A 
ATOM     94  C   UNL A   1      45.633  33.503  30.547  1.00  0.00     0.131 A 
ATOM     95  C   UNL A   1      45.121  35.532  28.738  1.00  0.00     0.055 A 
ATOM     96  C   UNL A   1      46.144  34.780  30.780  1.00  0.00     0.041 A 
ATOM     97  F   UNL A   1      45.942  32.539  31.429  1.00  0.00    -0.206 F 
ATOM     98  C   UNL A   1      45.906  35.799  29.862  1.00  0.00     0.022 A 
BRANCH  95  99
ATOM     99  S   UNL A   1      44.942  36.785  27.438  1.00  0.00     0.124 S 
ATOM    100  O   UNL A   1      46.171  36.605  26.671  1.00  0.00    -0.237 OA
ATOM    101  O   UNL A   1      43.709  36.372  26.774  1.00  0.00    -0.237 OA
ATOM    102  O   UNL A   1      44.854  38.041  28.182  1.00  0.00    -0.744 OA
ENDBRANCH  95  99
ENDBRANCH  69  92
ENDBRANCH  43  44
ENDBRANCH  35  38
ENDBRANCH  33  34
ENDBRANCH  32  33
ENDBRANCH  31  32
ENDBRANCH   1  31
TORSDOF 20
ENDMDL
