MODEL 1
REMARK VINA RESULT:     -13.6      0.000      0.000
REMARK SMILES CC1=C(CC(=O)NCCCCNC(=O)c2ccc(-c3c4nc(c(-c5cc(S(=O)(=O)[O-])ccc5F)c5ccc([nH]5)c(-c5cc(S(=O)(=O)[O-])ccc5F)c5nc(c(-c6cc(S(=O)(=O)[O-])ccc6F)c6ccc3[nH]6)C=C5)C=C4)cc2)c2cc(F)ccc2/C1=C\c1ccc([S@@+](C)[O-])cc1
REMARK SMILES IDX 9 1 8 2 7 3 5 4 6 5 4 7 3 8 1 9 2 10 85 11 78 12 84 13 86 14
REMARK SMILES IDX 79 15 83 16 80 17 82 18 81 19 87 20 88 21 95 22 89 23 94 24
REMARK SMILES IDX 90 25 91 26 92 27 93 28 10 29 11 30 12 31 13 32 14 34 15 35
REMARK SMILES IDX 16 36 77 37 17 38 76 39 18 40 19 41 20 42 70 43 21 44 75 45
REMARK SMILES IDX 69 46 71 47 22 48 74 49 68 50 67 51 23 53 55 54 35 55 54 56
REMARK SMILES IDX 36 57 39 58 53 59 72 60 37 61 38 62 52 64 73 65 40 66 24 67
REMARK SMILES IDX 25 68 33 69 26 70 32 71 34 72 31 73 27 74 28 75 29 76 30 77
REMARK SMILES IDX 56 78 57 79 65 80 58 81 64 82 66 83 63 84 59 85 60 86 61 87
REMARK SMILES IDX 62 88 41 89 42 90 50 91 43 92 49 93 51 94 48 95 44 96 45 97
REMARK SMILES IDX 46 98 47 99
REMARK H PARENT 7 6 12 33 71 52 39 63
REMARK Flexibility Score: inf
ROOT
ATOM      1  C   UNL A   1      34.523  20.908  25.514  1.00  0.00     0.023 C 
ENDROOT
BRANCH   1   2
ATOM      2  C   UNL A   1      33.063  21.251  25.212  1.00  0.00     0.116 C 
BRANCH   2   3
ATOM      3  N   UNL A   1      32.411  21.922  26.318  1.00  0.00    -0.356 N 
ATOM      4  C   UNL A   1      32.402  23.250  26.628  1.00  0.00     0.224 C 
ATOM      5  O   UNL A   1      31.772  23.618  27.624  1.00  0.00    -0.275 OA
ATOM      6  H   UNL A   1      31.906  21.339  26.930  1.00  0.00     0.163 HD
BRANCH   4   7
ATOM      7  C   UNL A   1      33.124  24.262  25.739  1.00  0.00     0.136 C 
BRANCH   7   8
ATOM      8  C   UNL A   1      32.236  25.347  25.221  1.00  0.00    -0.027 C 
ATOM      9  C   UNL A   1      30.663  24.009  23.729  1.00  0.00     0.045 C 
ATOM     10  C   UNL A   1      31.216  25.258  24.334  1.00  0.00    -0.039 C 
ATOM     11  C   UNL A   1      30.690  26.602  24.051  1.00  0.00    -0.014 C 
ATOM     12  C   UNL A   1      32.343  26.753  25.645  1.00  0.00    -0.011 A 
ATOM     13  C   UNL A   1      31.370  27.525  24.983  1.00  0.00    -0.010 A 
ATOM     14  C   UNL A   1      29.821  26.891  23.061  1.00  0.00     0.017 C 
ATOM     15  C   UNL A   1      33.202  27.337  26.568  1.00  0.00     0.048 A 
ATOM     16  C   UNL A   1      31.213  28.871  25.287  1.00  0.00     0.012 A 
ATOM     17  C   UNL A   1      33.069  28.698  26.825  1.00  0.00     0.123 A 
ATOM     18  C   UNL A   1      32.082  29.463  26.205  1.00  0.00     0.040 A 
ATOM     19  F   UNL A   1      33.890  29.286  27.705  1.00  0.00    -0.207 F 
BRANCH  14  20
ATOM     20  C   UNL A   1      29.320  28.228  22.736  1.00  0.00    -0.025 A 
ATOM     21  C   UNL A   1      30.152  29.194  22.156  1.00  0.00     0.013 A 
ATOM     22  C   UNL A   1      28.024  28.578  23.120  1.00  0.00     0.013 A 
ATOM     23  C   UNL A   1      29.733  30.527  22.081  1.00  0.00     0.061 A 
ATOM     24  C   UNL A   1      27.600  29.905  23.023  1.00  0.00     0.061 A 
ATOM     25  C   UNL A   1      28.464  30.897  22.540  1.00  0.00     0.152 A 
BRANCH  25  26
ATOM     26  S   UNL A   1      27.990  32.639  22.697  1.00  0.00    -0.018 S 
ATOM     27  C   UNL A   1      29.546  33.332  23.284  1.00  0.00     0.346 C 
ATOM     28  O   UNL A   1      27.735  33.179  21.244  1.00  0.00    -0.612 OA
ENDBRANCH  25  26
ENDBRANCH  14  20
ENDBRANCH   7   8
ENDBRANCH   4   7
ENDBRANCH   2   3
ENDBRANCH   1   2
BRANCH   1  29
ATOM     29  C   UNL A   1      35.554  21.619  24.636  1.00  0.00     0.023 C 
BRANCH  29  30
ATOM     30  C   UNL A   1      36.833  22.044  25.345  1.00  0.00     0.116 C 
BRANCH  30  31
ATOM     31  N   UNL A   1      37.878  21.029  25.343  1.00  0.00    -0.352 N 
ATOM     32  C   UNL A   1      39.141  21.111  25.890  1.00  0.00     0.251 C 
ATOM     33  H   UNL A   1      37.655  20.181  24.895  1.00  0.00     0.163 HD
ATOM     34  O   UNL A   1      39.945  20.197  25.728  1.00  0.00    -0.269 OA
BRANCH  32  35
ATOM     35  C   UNL A   1      39.531  22.341  26.616  1.00  0.00     0.039 A 
ATOM     36  C   UNL A   1      38.993  23.576  26.252  1.00  0.00     0.014 A 
ATOM     37  C   UNL A   1      40.513  22.268  27.608  1.00  0.00     0.014 A 
ATOM     38  C   UNL A   1      39.577  24.745  26.727  1.00  0.00     0.010 A 
ATOM     39  C   UNL A   1      41.038  23.445  28.151  1.00  0.00     0.010 A 
ATOM     40  C   UNL A   1      40.624  24.694  27.663  1.00  0.00    -0.014 A 
BRANCH  40  41
ATOM     41  C   UNL A   1      41.285  25.962  28.076  1.00  0.00     0.031 A 
ATOM     42  C   UNL A   1      42.692  26.278  27.634  1.00  0.00     0.074 A 
ATOM     43  C   UNL A   1      40.583  26.872  28.781  1.00  0.00     0.049 A 
ATOM     44  N   UNL A   1      43.389  27.368  27.827  1.00  0.00    -0.248 NA
ATOM     45  C   UNL A   1      43.414  25.239  26.882  1.00  0.00     0.031 C 
ATOM     46  C   UNL A   1      39.216  26.675  29.265  1.00  0.00     0.029 A 
ATOM     47  N   UNL A   1      40.899  28.146  29.182  1.00  0.00    -0.354 N 
ATOM     48  C   UNL A   1      44.628  27.143  27.240  1.00  0.00     0.074 A 
ATOM     49  C   UNL A   1      44.604  25.798  26.711  1.00  0.00     0.031 C 
ATOM     50  C   UNL A   1      38.789  27.806  29.842  1.00  0.00     0.029 A 
ATOM     51  C   UNL A   1      39.867  28.793  29.825  1.00  0.00     0.049 A 
ATOM     52  H   UNL A   1      41.779  28.559  29.026  1.00  0.00     0.167 HD
ATOM     53  C   UNL A   1      45.683  27.987  27.135  1.00  0.00     0.034 A 
ATOM     54  C   UNL A   1      39.791  30.037  30.342  1.00  0.00     0.034 A 
ATOM     55  C   UNL A   1      45.686  29.336  27.639  1.00  0.00     0.049 A 
ATOM     56  C   UNL A   1      40.972  30.960  30.195  1.00  0.00     0.074 A 
ATOM     57  C   UNL A   1      46.706  30.270  27.574  1.00  0.00     0.029 A 
ATOM     58  N   UNL A   1      44.622  29.953  28.280  1.00  0.00    -0.354 N 
ATOM     59  N   UNL A   1      42.120  30.740  29.599  1.00  0.00    -0.248 NA
ATOM     60  C   UNL A   1      40.851  32.304  30.777  1.00  0.00     0.031 C 
ATOM     61  C   UNL A   1      46.278  31.432  28.215  1.00  0.00     0.029 A 
ATOM     62  C   UNL A   1      44.966  31.250  28.623  1.00  0.00     0.049 A 
ATOM     63  H   UNL A   1      43.752  29.531  28.465  1.00  0.00     0.167 HD
ATOM     64  C   UNL A   1      42.845  31.924  29.710  1.00  0.00     0.074 A 
ATOM     65  C   UNL A   1      41.995  32.866  30.408  1.00  0.00     0.031 C 
ATOM     66  C   UNL A   1      44.101  32.198  29.280  1.00  0.00     0.034 A 
BRANCH  53  67
ATOM     67  C   UNL A   1      46.931  27.509  26.436  1.00  0.00     0.023 A 
ATOM     68  C   UNL A   1      47.144  27.825  25.080  1.00  0.00     0.031 A 
ATOM     69  C   UNL A   1      47.826  26.624  27.061  1.00  0.00     0.131 A 
ATOM     70  C   UNL A   1      48.201  27.226  24.383  1.00  0.00     0.055 A 
ATOM     71  C   UNL A   1      48.902  26.060  26.372  1.00  0.00     0.041 A 
ATOM     72  F   UNL A   1      47.668  26.296  28.354  1.00  0.00    -0.206 F 
ATOM     73  C   UNL A   1      49.084  26.351  25.023  1.00  0.00     0.022 A 
BRANCH  70  74
ATOM     74  S   UNL A   1      48.434  27.511  22.607  1.00  0.00     0.124 S 
ATOM     75  O   UNL A   1      49.739  28.169  22.577  1.00  0.00    -0.237 OA
ATOM     76  O   UNL A   1      48.408  26.152  22.074  1.00  0.00    -0.237 OA
ATOM     77  O   UNL A   1      47.306  28.358  22.236  1.00  0.00    -0.744 OA
ENDBRANCH  70  74
ENDBRANCH  53  67
BRANCH  54  78
ATOM     78  C   UNL A   1      38.518  30.480  30.983  1.00  0.00     0.023 A 
ATOM     79  C   UNL A   1      37.537  31.164  30.241  1.00  0.00     0.031 A 
ATOM     80  C   UNL A   1      38.309  30.320  32.363  1.00  0.00     0.131 A 
ATOM     81  C   UNL A   1      36.430  31.722  30.895  1.00  0.00     0.055 A 
ATOM     82  C   UNL A   1      37.168  30.813  32.997  1.00  0.00     0.041 A 
ATOM     83  F   UNL A   1      39.223  29.689  33.116  1.00  0.00    -0.206 F 
ATOM     84  C   UNL A   1      36.230  31.535  32.266  1.00  0.00     0.022 A 
BRANCH  81  85
ATOM     85  S   UNL A   1      35.300  32.836  30.014  1.00  0.00     0.124 S 
ATOM     86  O   UNL A   1      34.867  32.005  28.895  1.00  0.00    -0.237 OA
ATOM     87  O   UNL A   1      34.286  33.104  31.033  1.00  0.00    -0.237 OA
ATOM     88  O   UNL A   1      36.143  33.976  29.669  1.00  0.00    -0.744 OA
ENDBRANCH  81  85
ENDBRANCH  54  78
BRANCH  66  89
ATOM     89  C   UNL A   1      44.663  33.581  29.510  1.00  0.00     0.023 A 
ATOM     90  C   UNL A   1      44.760  34.484  28.434  1.00  0.00     0.031 A 
ATOM     91  C   UNL A   1      45.248  33.940  30.736  1.00  0.00     0.131 A 
ATOM     92  C   UNL A   1      45.457  35.687  28.594  1.00  0.00     0.055 A 
ATOM     93  C   UNL A   1      45.905  35.160  30.903  1.00  0.00     0.041 A 
ATOM     94  F   UNL A   1      45.196  33.106  31.786  1.00  0.00    -0.206 F 
ATOM     95  C   UNL A   1      46.025  36.032  29.825  1.00  0.00     0.022 A 
BRANCH  92  96
ATOM     96  S   UNL A   1      45.736  36.802  27.191  1.00  0.00     0.124 S 
ATOM     97  O   UNL A   1      44.562  37.670  27.258  1.00  0.00    -0.237 OA
ATOM     98  O   UNL A   1      47.002  37.437  27.547  1.00  0.00    -0.237 OA
ATOM     99  O   UNL A   1      45.786  35.911  26.036  1.00  0.00    -0.744 OA
ENDBRANCH  92  96
ENDBRANCH  66  89
ENDBRANCH  40  41
ENDBRANCH  32  35
ENDBRANCH  30  31
ENDBRANCH  29  30
ENDBRANCH   1  29
TORSDOF 17
ENDMDL
MODEL 2
REMARK VINA RESULT:     -13.3      1.742      2.049
REMARK SMILES CC1=C(CC(=O)NCCCCNC(=O)c2ccc(-c3c4nc(c(-c5cc(S(=O)(=O)[O-])ccc5F)c5ccc([nH]5)c(-c5cc(S(=O)(=O)[O-])ccc5F)c5nc(c(-c6cc(S(=O)(=O)[O-])ccc6F)c6ccc3[nH]6)C=C5)C=C4)cc2)c2cc(F)ccc2/C1=C\c1ccc([S@@+](C)[O-])cc1
REMARK SMILES IDX 9 1 8 2 7 3 5 4 6 5 4 7 3 8 1 9 2 10 85 11 78 12 84 13 86 14
REMARK SMILES IDX 79 15 83 16 80 17 82 18 81 19 87 20 88 21 95 22 89 23 94 24
REMARK SMILES IDX 90 25 91 26 92 27 93 28 10 29 11 30 12 31 13 32 14 34 15 35
REMARK SMILES IDX 16 36 77 37 17 38 76 39 18 40 19 41 20 42 70 43 21 44 75 45
REMARK SMILES IDX 69 46 71 47 22 48 74 49 68 50 67 51 23 53 55 54 35 55 54 56
REMARK SMILES IDX 36 57 39 58 53 59 72 60 37 61 38 62 52 64 73 65 40 66 24 67
REMARK SMILES IDX 25 68 33 69 26 70 32 71 34 72 31 73 27 74 28 75 29 76 30 77
REMARK SMILES IDX 56 78 57 79 65 80 58 81 64 82 66 83 63 84 59 85 60 86 61 87
REMARK SMILES IDX 62 88 41 89 42 90 50 91 43 92 49 93 51 94 48 95 44 96 45 97
REMARK SMILES IDX 46 98 47 99
REMARK H PARENT 7 6 12 33 71 52 39 63
REMARK Flexibility Score: inf
ROOT
ATOM      1  C   UNL A   1      34.411  20.879  25.504  1.00  0.00     0.023 C 
ENDROOT
BRANCH   1   2
ATOM      2  C   UNL A   1      32.948  21.239  25.240  1.00  0.00     0.116 C 
BRANCH   2   3
ATOM      3  N   UNL A   1      32.344  21.951  26.348  1.00  0.00    -0.356 N 
ATOM      4  C   UNL A   1      32.368  23.287  26.621  1.00  0.00     0.224 C 
ATOM      5  O   UNL A   1      31.778  23.693  27.626  1.00  0.00    -0.275 OA
ATOM      6  H   UNL A   1      31.849  21.394  26.991  1.00  0.00     0.163 HD
BRANCH   4   7
ATOM      7  C   UNL A   1      33.079  24.261  25.682  1.00  0.00     0.136 C 
BRANCH   7   8
ATOM      8  C   UNL A   1      32.197  25.357  25.177  1.00  0.00    -0.027 C 
ATOM      9  C   UNL A   1      30.581  24.040  23.713  1.00  0.00     0.045 C 
ATOM     10  C   UNL A   1      31.162  25.282  24.306  1.00  0.00    -0.039 C 
ATOM     11  C   UNL A   1      30.650  26.633  24.030  1.00  0.00    -0.014 C 
ATOM     12  C   UNL A   1      32.332  26.763  25.596  1.00  0.00    -0.011 A 
ATOM     13  C   UNL A   1      31.359  27.548  24.949  1.00  0.00    -0.010 A 
ATOM     14  C   UNL A   1      29.770  26.932  23.054  1.00  0.00     0.017 C 
ATOM     15  C   UNL A   1      33.214  27.336  26.504  1.00  0.00     0.048 A 
ATOM     16  C   UNL A   1      31.226  28.896  25.253  1.00  0.00     0.012 A 
ATOM     17  C   UNL A   1      33.104  28.699  26.761  1.00  0.00     0.123 A 
ATOM     18  C   UNL A   1      32.118  29.477  26.154  1.00  0.00     0.040 A 
ATOM     19  F   UNL A   1      33.948  29.277  27.626  1.00  0.00    -0.207 F 
BRANCH  14  20
ATOM     20  C   UNL A   1      29.282  28.276  22.735  1.00  0.00    -0.025 A 
ATOM     21  C   UNL A   1      30.113  29.223  22.124  1.00  0.00     0.013 A 
ATOM     22  C   UNL A   1      28.004  28.650  23.154  1.00  0.00     0.013 A 
ATOM     23  C   UNL A   1      29.715  30.563  22.053  1.00  0.00     0.061 A 
ATOM     24  C   UNL A   1      27.600  29.984  23.060  1.00  0.00     0.061 A 
ATOM     25  C   UNL A   1      28.466  30.958  22.545  1.00  0.00     0.152 A 
BRANCH  25  26
ATOM     26  S   UNL A   1      28.027  32.708  22.704  1.00  0.00    -0.018 S 
ATOM     27  C   UNL A   1      29.597  33.370  23.289  1.00  0.00     0.346 C 
ATOM     28  O   UNL A   1      27.781  33.254  21.252  1.00  0.00    -0.612 OA
ENDBRANCH  25  26
ENDBRANCH  14  20
ENDBRANCH   7   8
ENDBRANCH   4   7
ENDBRANCH   2   3
ENDBRANCH   1   2
BRANCH   1  29
ATOM     29  C   UNL A   1      35.424  21.551  24.577  1.00  0.00     0.023 C 
BRANCH  29  30
ATOM     30  C   UNL A   1      36.732  21.972  25.235  1.00  0.00     0.116 C 
BRANCH  30  31
ATOM     31  N   UNL A   1      37.733  20.915  25.294  1.00  0.00    -0.352 N 
ATOM     32  C   UNL A   1      38.990  20.968  25.859  1.00  0.00     0.251 C 
ATOM     33  H   UNL A   1      37.481  20.058  24.880  1.00  0.00     0.163 HD
ATOM     34  O   UNL A   1      39.756  20.014  25.750  1.00  0.00    -0.269 OA
BRANCH  32  35
ATOM     35  C   UNL A   1      39.421  22.212  26.537  1.00  0.00     0.039 A 
ATOM     36  C   UNL A   1      38.922  23.448  26.127  1.00  0.00     0.014 A 
ATOM     37  C   UNL A   1      40.403  22.145  27.529  1.00  0.00     0.014 A 
ATOM     38  C   UNL A   1      39.544  24.615  26.556  1.00  0.00     0.010 A 
ATOM     39  C   UNL A   1      40.967  23.324  28.026  1.00  0.00     0.010 A 
ATOM     40  C   UNL A   1      40.592  24.567  27.492  1.00  0.00    -0.014 A 
BRANCH  40  41
ATOM     41  C   UNL A   1      41.294  25.827  27.855  1.00  0.00     0.031 A 
ATOM     42  C   UNL A   1      42.692  26.102  27.360  1.00  0.00     0.074 A 
ATOM     43  C   UNL A   1      40.636  26.767  28.564  1.00  0.00     0.049 A 
ATOM     44  N   UNL A   1      43.418  27.180  27.505  1.00  0.00    -0.248 NA
ATOM     45  C   UNL A   1      43.364  25.031  26.605  1.00  0.00     0.031 C 
ATOM     46  C   UNL A   1      39.283  26.611  29.097  1.00  0.00     0.029 A 
ATOM     47  N   UNL A   1      40.994  28.042  28.927  1.00  0.00    -0.354 N 
ATOM     48  C   UNL A   1      44.632  26.915  26.881  1.00  0.00     0.074 A 
ATOM     49  C   UNL A   1      44.560  25.560  26.383  1.00  0.00     0.031 C 
ATOM     50  C   UNL A   1      38.900  27.763  29.664  1.00  0.00     0.029 A 
ATOM     51  C   UNL A   1      39.999  28.724  29.590  1.00  0.00     0.049 A 
ATOM     52  H   UNL A   1      41.877  28.431  28.732  1.00  0.00     0.167 HD
ATOM     53  C   UNL A   1      45.701  27.732  26.724  1.00  0.00     0.034 A 
ATOM     54  C   UNL A   1      39.968  29.980  30.082  1.00  0.00     0.034 A 
ATOM     55  C   UNL A   1      45.751  29.091  27.198  1.00  0.00     0.049 A 
ATOM     56  C   UNL A   1      41.163  30.874  29.876  1.00  0.00     0.074 A 
ATOM     57  C   UNL A   1      46.788  30.000  27.079  1.00  0.00     0.029 A 
ATOM     58  N   UNL A   1      44.723  29.745  27.861  1.00  0.00    -0.354 N 
ATOM     59  N   UNL A   1      42.285  30.615  29.247  1.00  0.00    -0.248 NA
ATOM     60  C   UNL A   1      41.091  32.232  30.433  1.00  0.00     0.031 C 
ATOM     61  C   UNL A   1      46.408  31.184  27.708  1.00  0.00     0.029 A 
ATOM     62  C   UNL A   1      45.107  31.040  28.165  1.00  0.00     0.049 A 
ATOM     63  H   UNL A   1      43.850  29.346  28.085  1.00  0.00     0.167 HD
ATOM     64  C   UNL A   1      43.039  31.785  29.308  1.00  0.00     0.074 A 
ATOM     65  C   UNL A   1      42.235  32.760  30.014  1.00  0.00     0.031 C 
ATOM     66  C   UNL A   1      44.286  32.022  28.830  1.00  0.00     0.034 A 
BRANCH  53  67
ATOM     67  C   UNL A   1      46.914  27.212  25.993  1.00  0.00     0.023 A 
ATOM     68  C   UNL A   1      47.961  26.603  26.711  1.00  0.00     0.031 A 
ATOM     69  C   UNL A   1      47.098  27.450  24.620  1.00  0.00     0.131 A 
ATOM     70  C   UNL A   1      49.162  26.293  26.061  1.00  0.00     0.055 A 
ATOM     71  C   UNL A   1      48.283  27.103  23.968  1.00  0.00     0.041 A 
ATOM     72  F   UNL A   1      46.126  28.023  23.892  1.00  0.00    -0.206 F 
ATOM     73  C   UNL A   1      49.326  26.534  24.693  1.00  0.00     0.022 A 
BRANCH  70  74
ATOM     74  S   UNL A   1      50.578  25.623  26.975  1.00  0.00     0.124 S 
ATOM     75  O   UNL A   1      49.990  24.453  27.624  1.00  0.00    -0.237 OA
ATOM     76  O   UNL A   1      51.524  25.332  25.903  1.00  0.00    -0.237 OA
ATOM     77  O   UNL A   1      50.958  26.705  27.877  1.00  0.00    -0.744 OA
ENDBRANCH  70  74
ENDBRANCH  53  67
BRANCH  54  78
ATOM     78  C   UNL A   1      38.727  30.466  30.756  1.00  0.00     0.023 A 
ATOM     79  C   UNL A   1      37.719  31.121  30.026  1.00  0.00     0.031 A 
ATOM     80  C   UNL A   1      38.579  30.375  32.150  1.00  0.00     0.131 A 
ATOM     81  C   UNL A   1      36.646  31.720  30.699  1.00  0.00     0.055 A 
ATOM     82  C   UNL A   1      37.470  30.908  32.809  1.00  0.00     0.041 A 
ATOM     83  F   UNL A   1      39.522  29.773  32.893  1.00  0.00    -0.206 F 
ATOM     84  C   UNL A   1      36.506  31.601  32.085  1.00  0.00     0.022 A 
BRANCH  81  85
ATOM     85  S   UNL A   1      35.485  32.800  29.816  1.00  0.00     0.124 S 
ATOM     86  O   UNL A   1      34.601  33.237  30.891  1.00  0.00    -0.237 OA
ATOM     87  O   UNL A   1      36.378  33.823  29.275  1.00  0.00    -0.237 OA
ATOM     88  O   UNL A   1      34.886  31.916  28.821  1.00  0.00    -0.744 OA
ENDBRANCH  81  85
ENDBRANCH  54  78
BRANCH  66  89
ATOM     89  C   UNL A   1      44.885  33.396  29.012  1.00  0.00     0.023 A 
ATOM     90  C   UNL A   1      45.597  33.697  30.188  1.00  0.00     0.031 A 
ATOM     91  C   UNL A   1      44.613  34.439  28.111  1.00  0.00     0.131 A 
ATOM     92  C   UNL A   1      45.982  35.017  30.451  1.00  0.00     0.055 A 
ATOM     93  C   UNL A   1      45.038  35.746  28.357  1.00  0.00     0.041 A 
ATOM     94  F   UNL A   1      43.925  34.204  26.983  1.00  0.00    -0.206 F 
ATOM     95  C   UNL A   1      45.712  36.042  29.538  1.00  0.00     0.022 A 
BRANCH  92  96
ATOM     96  S   UNL A   1      46.762  35.470  32.025  1.00  0.00     0.124 S 
ATOM     97  O   UNL A   1      47.360  36.764  31.704  1.00  0.00    -0.237 OA
ATOM     98  O   UNL A   1      45.619  35.520  32.933  1.00  0.00    -0.237 OA
ATOM     99  O   UNL A   1      47.711  34.390  32.273  1.00  0.00    -0.744 OA
ENDBRANCH  92  96
ENDBRANCH  66  89
ENDBRANCH  40  41
ENDBRANCH  32  35
ENDBRANCH  30  31
ENDBRANCH  29  30
ENDBRANCH   1  29
TORSDOF 17
ENDMDL
MODEL 3
REMARK VINA RESULT:     -13.3      5.266     10.677
REMARK SMILES CC1=C(CC(=O)NCCCCNC(=O)c2ccc(-c3c4nc(c(-c5cc(S(=O)(=O)[O-])ccc5F)c5ccc([nH]5)c(-c5cc(S(=O)(=O)[O-])ccc5F)c5nc(c(-c6cc(S(=O)(=O)[O-])ccc6F)c6ccc3[nH]6)C=C5)C=C4)cc2)c2cc(F)ccc2/C1=C\c1ccc([S@@+](C)[O-])cc1
REMARK SMILES IDX 9 1 8 2 7 3 5 4 6 5 4 7 3 8 1 9 2 10 85 11 78 12 84 13 86 14
REMARK SMILES IDX 79 15 83 16 80 17 82 18 81 19 87 20 88 21 95 22 89 23 94 24
REMARK SMILES IDX 90 25 91 26 92 27 93 28 10 29 11 30 12 31 13 32 14 34 15 35
REMARK SMILES IDX 16 36 77 37 17 38 76 39 18 40 19 41 20 42 70 43 21 44 75 45
REMARK SMILES IDX 69 46 71 47 22 48 74 49 68 50 67 51 23 53 55 54 35 55 54 56
REMARK SMILES IDX 36 57 39 58 53 59 72 60 37 61 38 62 52 64 73 65 40 66 24 67
REMARK SMILES IDX 25 68 33 69 26 70 32 71 34 72 31 73 27 74 28 75 29 76 30 77
REMARK SMILES IDX 56 78 57 79 65 80 58 81 64 82 66 83 63 84 59 85 60 86 61 87
REMARK SMILES IDX 62 88 41 89 42 90 50 91 43 92 49 93 51 94 48 95 44 96 45 97
REMARK SMILES IDX 46 98 47 99
REMARK H PARENT 7 6 12 33 71 52 39 63
REMARK Flexibility Score: inf
ROOT
ATOM      1  C   UNL A   1      30.965  29.943  24.631  1.00  0.00     0.023 C 
ENDROOT
BRANCH   1   2
ATOM      2  C   UNL A   1      30.701  28.497  24.207  1.00  0.00     0.116 C 
BRANCH   2   3
ATOM      3  N   UNL A   1      30.687  27.584  25.332  1.00  0.00    -0.356 N 
ATOM      4  C   UNL A   1      31.499  26.515  25.576  1.00  0.00     0.224 C 
ATOM      5  O   UNL A   1      31.320  25.864  26.609  1.00  0.00    -0.275 OA
ATOM      6  H   UNL A   1      29.998  27.758  26.012  1.00  0.00     0.163 HD
BRANCH   4   7
ATOM      7  C   UNL A   1      32.628  26.158  24.610  1.00  0.00     0.136 C 
BRANCH   7   8
ATOM      8  C   UNL A   1      32.831  24.686  24.444  1.00  0.00    -0.027 C 
ATOM      9  C   UNL A   1      30.646  24.022  23.316  1.00  0.00     0.045 C 
ATOM     10  C   UNL A   1      31.980  23.763  23.937  1.00  0.00    -0.039 C 
ATOM     11  C   UNL A   1      32.573  22.423  24.061  1.00  0.00    -0.014 C 
ATOM     12  C   UNL A   1      34.075  23.993  24.820  1.00  0.00    -0.011 A 
ATOM     13  C   UNL A   1      33.957  22.619  24.541  1.00  0.00    -0.010 A 
ATOM     14  C   UNL A   1      31.909  21.269  23.850  1.00  0.00     0.017 C 
ATOM     15  C   UNL A   1      35.255  24.511  25.341  1.00  0.00     0.048 A 
ATOM     16  C   UNL A   1      35.039  21.767  24.725  1.00  0.00     0.012 A 
ATOM     17  C   UNL A   1      36.314  23.638  25.570  1.00  0.00     0.123 A 
ATOM     18  C   UNL A   1      36.221  22.282  25.260  1.00  0.00     0.040 A 
ATOM     19  F   UNL A   1      37.459  24.112  26.079  1.00  0.00    -0.207 F 
BRANCH  14  20
ATOM     20  C   UNL A   1      32.469  19.926  24.011  1.00  0.00    -0.025 A 
ATOM     21  C   UNL A   1      32.543  19.036  22.933  1.00  0.00     0.013 A 
ATOM     22  C   UNL A   1      32.827  19.489  25.289  1.00  0.00     0.013 A 
ATOM     23  C   UNL A   1      32.847  17.688  23.154  1.00  0.00     0.061 A 
ATOM     24  C   UNL A   1      33.153  18.148  25.504  1.00  0.00     0.061 A 
ATOM     25  C   UNL A   1      33.127  17.229  24.446  1.00  0.00     0.152 A 
BRANCH  25  26
ATOM     26  S   UNL A   1      33.270  15.459  24.806  1.00  0.00    -0.018 S 
ATOM     27  C   UNL A   1      35.001  15.380  25.297  1.00  0.00     0.346 C 
ATOM     28  O   UNL A   1      32.391  15.176  26.078  1.00  0.00    -0.612 OA
ENDBRANCH  25  26
ENDBRANCH  14  20
ENDBRANCH   7   8
ENDBRANCH   4   7
ENDBRANCH   2   3
ENDBRANCH   1   2
BRANCH   1  29
ATOM     29  C   UNL A   1      32.256  30.165  25.420  1.00  0.00     0.023 C 
BRANCH  29  30
ATOM     30  C   UNL A   1      32.069  30.560  26.879  1.00  0.00     0.116 C 
BRANCH  30  31
ATOM     31  N   UNL A   1      31.959  31.996  27.095  1.00  0.00    -0.352 N 
ATOM     32  C   UNL A   1      32.924  32.859  27.571  1.00  0.00     0.251 C 
ATOM     33  H   UNL A   1      31.088  32.400  26.875  1.00  0.00     0.163 HD
ATOM     34  O   UNL A   1      32.648  34.038  27.781  1.00  0.00    -0.269 OA
BRANCH  32  35
ATOM     35  C   UNL A   1      34.271  32.330  27.882  1.00  0.00     0.039 A 
ATOM     36  C   UNL A   1      34.447  30.977  28.174  1.00  0.00     0.014 A 
ATOM     37  C   UNL A   1      35.349  33.214  27.973  1.00  0.00     0.014 A 
ATOM     38  C   UNL A   1      35.637  30.549  28.750  1.00  0.00     0.010 A 
ATOM     39  C   UNL A   1      36.576  32.761  28.470  1.00  0.00     0.010 A 
ATOM     40  C   UNL A   1      36.708  31.441  28.930  1.00  0.00    -0.014 A 
BRANCH  40  41
ATOM     41  C   UNL A   1      37.931  30.970  29.634  1.00  0.00     0.031 A 
ATOM     42  C   UNL A   1      38.187  31.347  31.071  1.00  0.00     0.074 A 
ATOM     43  C   UNL A   1      38.771  30.125  29.002  1.00  0.00     0.049 A 
ATOM     44  N   UNL A   1      39.152  30.956  31.864  1.00  0.00    -0.248 NA
ATOM     45  C   UNL A   1      37.244  32.284  31.703  1.00  0.00     0.031 C 
ATOM     46  C   UNL A   1      38.626  29.693  27.612  1.00  0.00     0.029 A 
ATOM     47  N   UNL A   1      39.885  29.456  29.445  1.00  0.00    -0.354 N 
ATOM     48  C   UNL A   1      38.944  31.608  33.074  1.00  0.00     0.074 A 
ATOM     49  C   UNL A   1      37.780  32.448  32.904  1.00  0.00     0.031 C 
ATOM     50  C   UNL A   1      39.573  28.786  27.334  1.00  0.00     0.029 A 
ATOM     51  C   UNL A   1      40.432  28.613  28.503  1.00  0.00     0.049 A 
ATOM     52  H   UNL A   1      40.258  29.567  30.349  1.00  0.00     0.167 HD
ATOM     53  C   UNL A   1      39.649  31.502  34.227  1.00  0.00     0.034 A 
ATOM     54  C   UNL A   1      41.500  27.791  28.569  1.00  0.00     0.034 A 
ATOM     55  C   UNL A   1      40.790  30.638  34.395  1.00  0.00     0.049 A 
ATOM     56  C   UNL A   1      42.254  27.679  29.868  1.00  0.00     0.074 A 
ATOM     57  C   UNL A   1      41.564  30.458  35.528  1.00  0.00     0.029 A 
ATOM     58  N   UNL A   1      41.309  29.800  33.419  1.00  0.00    -0.354 N 
ATOM     59  N   UNL A   1      42.015  28.274  31.013  1.00  0.00    -0.248 NA
ATOM     60  C   UNL A   1      43.415  26.778  29.896  1.00  0.00     0.031 C 
ATOM     61  C   UNL A   1      42.577  29.548  35.226  1.00  0.00     0.029 A 
ATOM     62  C   UNL A   1      42.398  29.109  33.923  1.00  0.00     0.049 A 
ATOM     63  H   UNL A   1      40.956  29.711  32.504  1.00  0.00     0.167 HD
ATOM     64  C   UNL A   1      42.977  27.799  31.901  1.00  0.00     0.074 A 
ATOM     65  C   UNL A   1      43.785  26.848  31.168  1.00  0.00     0.031 C 
ATOM     66  C   UNL A   1      43.174  28.130  33.202  1.00  0.00     0.034 A 
BRANCH  53  67
ATOM     67  C   UNL A   1      39.217  32.315  35.422  1.00  0.00     0.023 A 
ATOM     68  C   UNL A   1      39.686  33.633  35.583  1.00  0.00     0.031 A 
ATOM     69  C   UNL A   1      38.470  31.740  36.465  1.00  0.00     0.131 A 
ATOM     70  C   UNL A   1      39.439  34.316  36.781  1.00  0.00     0.055 A 
ATOM     71  C   UNL A   1      38.194  32.441  37.641  1.00  0.00     0.041 A 
ATOM     72  F   UNL A   1      37.998  30.488  36.355  1.00  0.00    -0.206 F 
ATOM     73  C   UNL A   1      38.691  33.730  37.807  1.00  0.00     0.022 A 
BRANCH  70  74
ATOM     74  S   UNL A   1      40.130  35.967  37.078  1.00  0.00     0.124 S 
ATOM     75  O   UNL A   1      39.723  36.684  35.871  1.00  0.00    -0.237 OA
ATOM     76  O   UNL A   1      39.446  36.369  38.303  1.00  0.00    -0.237 OA
ATOM     77  O   UNL A   1      41.564  35.730  37.202  1.00  0.00    -0.744 OA
ENDBRANCH  70  74
ENDBRANCH  53  67
BRANCH  54  78
ATOM     78  C   UNL A   1      41.860  26.972  27.374  1.00  0.00     0.023 A 
ATOM     79  C   UNL A   1      41.585  25.592  27.336  1.00  0.00     0.031 A 
ATOM     80  C   UNL A   1      42.575  27.531  26.302  1.00  0.00     0.131 A 
ATOM     81  C   UNL A   1      42.082  24.810  26.286  1.00  0.00     0.055 A 
ATOM     82  C   UNL A   1      43.003  26.761  25.220  1.00  0.00     0.041 A 
ATOM     83  F   UNL A   1      42.875  28.840  26.299  1.00  0.00    -0.206 F 
ATOM     84  C   UNL A   1      42.774  25.389  25.218  1.00  0.00     0.022 A 
BRANCH  81  85
ATOM     85  S   UNL A   1      41.979  22.999  26.352  1.00  0.00     0.124 S 
ATOM     86  O   UNL A   1      42.767  22.695  27.542  1.00  0.00    -0.237 OA
ATOM     87  O   UNL A   1      40.539  22.783  26.476  1.00  0.00    -0.237 OA
ATOM     88  O   UNL A   1      42.559  22.577  25.081  1.00  0.00    -0.744 OA
ENDBRANCH  81  85
ENDBRANCH  54  78
BRANCH  66  89
ATOM     89  C   UNL A   1      44.288  27.454  33.964  1.00  0.00     0.023 A 
ATOM     90  C   UNL A   1      44.066  26.198  34.559  1.00  0.00     0.031 A 
ATOM     91  C   UNL A   1      45.496  28.118  34.238  1.00  0.00     0.131 A 
ATOM     92  C   UNL A   1      45.022  25.659  35.428  1.00  0.00     0.055 A 
ATOM     93  C   UNL A   1      46.465  27.556  35.071  1.00  0.00     0.041 A 
ATOM     94  F   UNL A   1      45.747  29.324  33.706  1.00  0.00    -0.206 F 
ATOM     95  C   UNL A   1      46.224  26.330  35.682  1.00  0.00     0.022 A 
BRANCH  92  96
ATOM     96  S   UNL A   1      44.704  24.120  36.333  1.00  0.00     0.124 S 
ATOM     97  O   UNL A   1      44.560  24.602  37.705  1.00  0.00    -0.237 OA
ATOM     98  O   UNL A   1      43.474  23.642  35.708  1.00  0.00    -0.237 OA
ATOM     99  O   UNL A   1      45.891  23.310  36.080  1.00  0.00    -0.744 OA
ENDBRANCH  92  96
ENDBRANCH  66  89
ENDBRANCH  40  41
ENDBRANCH  32  35
ENDBRANCH  30  31
ENDBRANCH  29  30
ENDBRANCH   1  29
TORSDOF 17
ENDMDL
