MODEL 1
REMARK VINA RESULT:     -13.6      0.000      0.000
REMARK SMILES C[C@H](C(=O)Nc1ccc(C(F)(F)F)cc1)n1nc(C(=O)NCCCCNC(=O)c2ccc(-c3c4nc(c(-c5cc(S(=O)(=O)[O-])ccc5F)c5ccc([nH]5)c(-c5cc(S(=O)(=O)[O-])ccc5F)c5nc(c(-c6cc(S(=O)(=O)[O-])ccc6F)c6ccc3[nH]6)C=C5)C=C4)cc2)c2ccccc2c1=O
REMARK SMILES IDX 23 1 22 2 21 3 19 4 20 5 18 7 16 8 17 9 98 10 97 11 99 12
REMARK SMILES IDX 92 13 96 14 93 15 95 16 94 17 2 18 1 19 3 20 4 21 5 22 6 24
REMARK SMILES IDX 7 25 15 26 8 27 14 28 9 29 10 30 11 31 12 32 13 33 24 34
REMARK SMILES IDX 25 35 26 36 27 37 28 39 29 40 30 41 91 42 31 43 90 44 32 45
REMARK SMILES IDX 33 46 34 47 84 48 35 49 89 50 83 51 85 52 36 53 88 54 82 55
REMARK SMILES IDX 81 56 37 58 69 59 49 60 68 61 50 62 53 63 67 64 86 65 51 66
REMARK SMILES IDX 52 67 66 69 87 70 54 71 38 72 39 73 47 74 40 75 46 76 48 77
REMARK SMILES IDX 45 78 41 79 42 80 43 81 44 82 70 83 71 84 79 85 72 86 78 87
REMARK SMILES IDX 80 88 77 89 73 90 74 91 75 92 76 93 55 94 56 95 64 96 57 97
REMARK SMILES IDX 63 98 65 99 62 100 58 101 59 102 60 103 61 104
REMARK H PARENT 21 6 5 23 26 38 85 57 53 68
REMARK Flexibility Score: inf
ROOT
ATOM      1  C   UNL A   1      32.118  29.763  26.978  1.00  0.00     0.023 C 
ENDROOT
BRANCH   1   2
ATOM      2  C   UNL A   1      33.290  28.899  26.501  1.00  0.00     0.116 C 
BRANCH   2   3
ATOM      3  N   UNL A   1      33.646  29.266  25.139  1.00  0.00    -0.351 N 
ATOM      4  C   UNL A   1      33.705  28.429  24.041  1.00  0.00     0.272 C 
ATOM      5  O   UNL A   1      34.219  28.784  22.989  1.00  0.00    -0.267 OA
ATOM      6  H   UNL A   1      33.867  30.213  24.983  1.00  0.00     0.163 HD
BRANCH   4   7
ATOM      7  C   UNL A   1      32.959  27.100  24.124  1.00  0.00     0.156 A 
ATOM      8  N   UNL A   1      32.807  25.076  25.283  1.00  0.00    -0.216 N 
ATOM      9  N   UNL A   1      33.595  26.017  24.525  1.00  0.00    -0.163 NA
ATOM     10  C   UNL A   1      31.724  25.728  25.849  1.00  0.00     0.275 A 
ATOM     11  C   UNL A   1      30.827  26.266  24.838  1.00  0.00     0.051 A 
ATOM     12  O   UNL A   1      31.726  26.246  26.957  1.00  0.00    -0.267 OA
ATOM     13  C   UNL A   1      31.483  27.134  23.981  1.00  0.00     0.020 A 
ATOM     14  C   UNL A   1      29.455  26.056  24.782  1.00  0.00     0.014 A 
ATOM     15  C   UNL A   1      30.747  27.890  23.076  1.00  0.00     0.011 A 
ATOM     16  C   UNL A   1      28.719  26.781  23.849  1.00  0.00     0.001 A 
ATOM     17  C   UNL A   1      29.358  27.711  23.017  1.00  0.00     0.001 A 
BRANCH   8  18
ATOM     18  C   UNL A   1      33.620  24.144  26.126  1.00  0.00     0.197 C 
ATOM     19  C   UNL A   1      34.788  23.622  25.267  1.00  0.00     0.044 C 
BRANCH  18  20
ATOM     20  C   UNL A   1      32.891  22.870  26.726  1.00  0.00     0.249 C 
ATOM     21  O   UNL A   1      32.798  22.667  27.939  1.00  0.00    -0.272 OA
ATOM     22  N   UNL A   1      32.199  22.061  25.830  1.00  0.00    -0.324 N 
ATOM     23  H   UNL A   1      31.228  22.197  25.740  1.00  0.00     0.170 HD
BRANCH  22  24
ATOM     24  C   UNL A   1      32.803  21.056  25.039  1.00  0.00     0.041 A 
ATOM     25  C   UNL A   1      34.038  20.543  25.458  1.00  0.00     0.027 A 
ATOM     26  C   UNL A   1      32.149  20.461  23.956  1.00  0.00     0.027 A 
ATOM     27  C   UNL A   1      34.489  19.311  24.965  1.00  0.00     0.015 A 
ATOM     28  C   UNL A   1      32.620  19.242  23.440  1.00  0.00     0.015 A 
ATOM     29  C   UNL A   1      33.734  18.608  24.015  1.00  0.00     0.056 A 
BRANCH  29  30
ATOM     30  C   UNL A   1      34.011  17.152  23.716  1.00  0.00     0.416 C 
ATOM     31  F   UNL A   1      34.327  16.932  22.409  1.00  0.00    -0.166 F 
ATOM     32  F   UNL A   1      35.036  16.622  24.441  1.00  0.00    -0.166 F 
ATOM     33  F   UNL A   1      32.933  16.352  23.967  1.00  0.00    -0.166 F 
ENDBRANCH  29  30
ENDBRANCH  22  24
ENDBRANCH  18  20
ENDBRANCH   8  18
ENDBRANCH   4   7
ENDBRANCH   2   3
ENDBRANCH   1   2
BRANCH   1  34
ATOM     34  C   UNL A   1      32.279  31.231  26.584  1.00  0.00     0.023 C 
BRANCH  34  35
ATOM     35  C   UNL A   1      33.211  31.996  27.509  1.00  0.00     0.116 C 
BRANCH  35  36
ATOM     36  N   UNL A   1      32.840  33.397  27.642  1.00  0.00    -0.352 N 
ATOM     37  C   UNL A   1      33.348  34.332  28.522  1.00  0.00     0.251 C 
ATOM     38  H   UNL A   1      32.139  33.718  27.029  1.00  0.00     0.163 HD
ATOM     39  O   UNL A   1      32.864  35.438  28.602  1.00  0.00    -0.269 OA
BRANCH  37  40
ATOM     40  C   UNL A   1      34.471  33.914  29.392  1.00  0.00     0.039 A 
ATOM     41  C   UNL A   1      34.198  33.115  30.503  1.00  0.00     0.014 A 
ATOM     42  C   UNL A   1      35.787  34.228  29.042  1.00  0.00     0.014 A 
ATOM     43  C   UNL A   1      35.258  32.573  31.230  1.00  0.00     0.010 A 
ATOM     44  C   UNL A   1      36.837  33.619  29.717  1.00  0.00     0.010 A 
ATOM     45  C   UNL A   1      36.585  32.788  30.819  1.00  0.00    -0.014 A 
BRANCH  45  46
ATOM     46  C   UNL A   1      37.722  32.163  31.541  1.00  0.00     0.031 A 
ATOM     47  C   UNL A   1      38.509  31.062  30.884  1.00  0.00     0.074 A 
ATOM     48  C   UNL A   1      38.004  32.543  32.802  1.00  0.00     0.049 A 
ATOM     49  N   UNL A   1      39.508  30.362  31.355  1.00  0.00    -0.248 NA
ATOM     50  C   UNL A   1      38.088  30.673  29.531  1.00  0.00     0.031 C 
ATOM     51  C   UNL A   1      37.275  33.560  33.563  1.00  0.00     0.029 A 
ATOM     52  N   UNL A   1      38.980  32.118  33.667  1.00  0.00    -0.354 N 
ATOM     53  C   UNL A   1      39.823  29.439  30.365  1.00  0.00     0.074 A 
ATOM     54  C   UNL A   1      38.856  29.621  29.302  1.00  0.00     0.031 C 
ATOM     55  C   UNL A   1      37.857  33.711  34.765  1.00  0.00     0.029 A 
ATOM     56  C   UNL A   1      38.973  32.778  34.875  1.00  0.00     0.049 A 
ATOM     57  H   UNL A   1      39.626  31.410  33.446  1.00  0.00     0.167 HD
ATOM     58  C   UNL A   1      40.842  28.544  30.329  1.00  0.00     0.034 A 
ATOM     59  C   UNL A   1      39.779  32.645  35.946  1.00  0.00     0.034 A 
ATOM     60  C   UNL A   1      41.806  28.392  31.391  1.00  0.00     0.049 A 
ATOM     61  C   UNL A   1      40.899  31.637  35.891  1.00  0.00     0.074 A 
ATOM     62  C   UNL A   1      42.919  27.571  31.439  1.00  0.00     0.029 A 
ATOM     63  N   UNL A   1      41.765  29.072  32.603  1.00  0.00    -0.354 N 
ATOM     64  N   UNL A   1      41.228  30.819  34.919  1.00  0.00    -0.248 NA
ATOM     65  C   UNL A   1      41.761  31.547  37.076  1.00  0.00     0.031 C 
ATOM     66  C   UNL A   1      43.511  27.705  32.700  1.00  0.00     0.029 A 
ATOM     67  C   UNL A   1      42.813  28.665  33.416  1.00  0.00     0.049 A 
ATOM     68  H   UNL A   1      41.090  29.745  32.849  1.00  0.00     0.167 HD
ATOM     69  C   UNL A   1      42.360  30.139  35.364  1.00  0.00     0.074 A 
ATOM     70  C   UNL A   1      42.659  30.655  36.685  1.00  0.00     0.031 C 
ATOM     71  C   UNL A   1      43.089  29.179  34.738  1.00  0.00     0.034 A 
BRANCH  58  72
ATOM     72  C   UNL A   1      40.934  27.654  29.111  1.00  0.00     0.023 A 
ATOM     73  C   UNL A   1      41.950  27.819  28.150  1.00  0.00     0.031 A 
ATOM     74  C   UNL A   1      39.960  26.669  28.870  1.00  0.00     0.131 A 
ATOM     75  C   UNL A   1      41.908  27.090  26.952  1.00  0.00     0.055 A 
ATOM     76  C   UNL A   1      39.980  25.880  27.717  1.00  0.00     0.041 A 
ATOM     77  F   UNL A   1      38.955  26.475  29.737  1.00  0.00    -0.206 F 
ATOM     78  C   UNL A   1      40.945  26.103  26.739  1.00  0.00     0.022 A 
BRANCH  75  79
ATOM     79  S   UNL A   1      43.017  27.584  25.604  1.00  0.00     0.124 S 
ATOM     80  O   UNL A   1      43.998  28.403  26.313  1.00  0.00    -0.237 OA
ATOM     81  O   UNL A   1      43.497  26.301  25.105  1.00  0.00    -0.237 OA
ATOM     82  O   UNL A   1      42.143  28.323  24.694  1.00  0.00    -0.744 OA
ENDBRANCH  75  79
ENDBRANCH  58  72
BRANCH  59  83
ATOM     83  C   UNL A   1      39.582  33.497  37.154  1.00  0.00     0.023 A 
ATOM     84  C   UNL A   1      38.842  33.027  38.250  1.00  0.00     0.031 A 
ATOM     85  C   UNL A   1      40.096  34.803  37.215  1.00  0.00     0.131 A 
ATOM     86  C   UNL A   1      38.598  33.871  39.344  1.00  0.00     0.055 A 
ATOM     87  C   UNL A   1      39.890  35.624  38.327  1.00  0.00     0.041 A 
ATOM     88  F   UNL A   1      40.817  35.299  36.198  1.00  0.00    -0.206 F 
ATOM     89  C   UNL A   1      39.127  35.163  39.395  1.00  0.00     0.022 A 
BRANCH  86  90
ATOM     90  S   UNL A   1      37.515  33.278  40.673  1.00  0.00     0.124 S 
ATOM     91  O   UNL A   1      37.282  34.501  41.434  1.00  0.00    -0.237 OA
ATOM     92  O   UNL A   1      36.374  32.760  39.925  1.00  0.00    -0.237 OA
ATOM     93  O   UNL A   1      38.326  32.267  41.347  1.00  0.00    -0.744 OA
ENDBRANCH  86  90
ENDBRANCH  59  83
BRANCH  71  94
ATOM     94  C   UNL A   1      44.305  28.664  35.469  1.00  0.00     0.023 A 
ATOM     95  C   UNL A   1      44.216  27.635  36.421  1.00  0.00     0.031 A 
ATOM     96  C   UNL A   1      45.568  29.236  35.227  1.00  0.00     0.131 A 
ATOM     97  C   UNL A   1      45.355  27.251  37.144  1.00  0.00     0.055 A 
ATOM     98  C   UNL A   1      46.709  28.806  35.904  1.00  0.00     0.041 A 
ATOM     99  F   UNL A   1      45.711  30.224  34.330  1.00  0.00    -0.206 F 
ATOM    100  C   UNL A   1      46.605  27.819  36.880  1.00  0.00     0.022 A 
BRANCH  97 101
ATOM    101  S   UNL A   1      45.162  26.074  38.511  1.00  0.00     0.124 S 
ATOM    102  O   UNL A   1      44.225  26.773  39.384  1.00  0.00    -0.237 OA
ATOM    103  O   UNL A   1      44.642  24.892  37.833  1.00  0.00    -0.237 OA
ATOM    104  O   UNL A   1      46.519  25.939  39.040  1.00  0.00    -0.744 OA
ENDBRANCH  97 101
ENDBRANCH  71  94
ENDBRANCH  45  46
ENDBRANCH  37  40
ENDBRANCH  35  36
ENDBRANCH  34  35
ENDBRANCH   1  34
TORSDOF 18
ENDMDL
MODEL 2
REMARK VINA RESULT:     -13.6      6.109     11.867
REMARK SMILES C[C@H](C(=O)Nc1ccc(C(F)(F)F)cc1)n1nc(C(=O)NCCCCNC(=O)c2ccc(-c3c4nc(c(-c5cc(S(=O)(=O)[O-])ccc5F)c5ccc([nH]5)c(-c5cc(S(=O)(=O)[O-])ccc5F)c5nc(c(-c6cc(S(=O)(=O)[O-])ccc6F)c6ccc3[nH]6)C=C5)C=C4)cc2)c2ccccc2c1=O
REMARK SMILES IDX 23 1 22 2 21 3 19 4 20 5 18 7 16 8 17 9 98 10 97 11 99 12
REMARK SMILES IDX 92 13 96 14 93 15 95 16 94 17 2 18 1 19 3 20 4 21 5 22 6 24
REMARK SMILES IDX 7 25 15 26 8 27 14 28 9 29 10 30 11 31 12 32 13 33 24 34
REMARK SMILES IDX 25 35 26 36 27 37 28 39 29 40 30 41 91 42 31 43 90 44 32 45
REMARK SMILES IDX 33 46 34 47 84 48 35 49 89 50 83 51 85 52 36 53 88 54 82 55
REMARK SMILES IDX 81 56 37 58 69 59 49 60 68 61 50 62 53 63 67 64 86 65 51 66
REMARK SMILES IDX 52 67 66 69 87 70 54 71 38 72 39 73 47 74 40 75 46 76 48 77
REMARK SMILES IDX 45 78 41 79 42 80 43 81 44 82 70 83 71 84 79 85 72 86 78 87
REMARK SMILES IDX 80 88 77 89 73 90 74 91 75 92 76 93 55 94 56 95 64 96 57 97
REMARK SMILES IDX 63 98 65 99 62 100 58 101 59 102 60 103 61 104
REMARK H PARENT 21 6 5 23 26 38 85 57 53 68
REMARK Flexibility Score: inf
ROOT
ATOM      1  C   UNL A   1      38.889  22.980  26.431  1.00  0.00     0.023 C 
ENDROOT
BRANCH   1   2
ATOM      2  C   UNL A   1      37.533  23.458  25.904  1.00  0.00     0.116 C 
BRANCH   2   3
ATOM      3  N   UNL A   1      37.535  23.427  24.450  1.00  0.00    -0.351 N 
ATOM      4  C   UNL A   1      36.490  23.056  23.625  1.00  0.00     0.272 C 
ATOM      5  O   UNL A   1      36.654  22.858  22.429  1.00  0.00    -0.267 OA
ATOM      6  H   UNL A   1      38.370  23.701  24.006  1.00  0.00     0.163 HD
BRANCH   4   7
ATOM      7  C   UNL A   1      35.084  23.062  24.218  1.00  0.00     0.156 A 
ATOM      8  N   UNL A   1      33.025  24.169  24.212  1.00  0.00    -0.216 N 
ATOM      9  N   UNL A   1      34.454  24.207  24.397  1.00  0.00    -0.163 NA
ATOM     10  C   UNL A   1      32.689  23.089  23.411  1.00  0.00     0.275 A 
ATOM     11  C   UNL A   1      33.039  21.822  24.036  1.00  0.00     0.051 A 
ATOM     12  O   UNL A   1      32.600  23.129  22.192  1.00  0.00    -0.267 OA
ATOM     13  C   UNL A   1      34.388  21.759  24.344  1.00  0.00     0.020 A 
ATOM     14  C   UNL A   1      32.182  20.743  24.205  1.00  0.00     0.014 A 
ATOM     15  C   UNL A   1      34.938  20.554  24.767  1.00  0.00     0.011 A 
ATOM     16  C   UNL A   1      32.721  19.545  24.668  1.00  0.00     0.001 A 
ATOM     17  C   UNL A   1      34.096  19.444  24.923  1.00  0.00     0.001 A 
BRANCH   8  18
ATOM     18  C   UNL A   1      32.412  25.505  23.929  1.00  0.00     0.197 C 
ATOM     19  C   UNL A   1      33.551  26.538  23.831  1.00  0.00     0.044 C 
BRANCH  18  20
ATOM     20  C   UNL A   1      31.370  26.073  24.980  1.00  0.00     0.249 C 
ATOM     21  O   UNL A   1      30.607  25.347  25.620  1.00  0.00    -0.272 OA
ATOM     22  N   UNL A   1      31.462  27.428  25.286  1.00  0.00    -0.324 N 
ATOM     23  H   UNL A   1      31.958  27.686  26.097  1.00  0.00     0.170 HD
BRANCH  22  24
ATOM     24  C   UNL A   1      30.888  28.459  24.506  1.00  0.00     0.041 A 
ATOM     25  C   UNL A   1      29.995  28.095  23.490  1.00  0.00     0.027 A 
ATOM     26  C   UNL A   1      31.063  29.813  24.808  1.00  0.00     0.027 A 
ATOM     27  C   UNL A   1      29.112  29.046  22.959  1.00  0.00     0.015 A 
ATOM     28  C   UNL A   1      30.199  30.770  24.250  1.00  0.00     0.015 A 
ATOM     29  C   UNL A   1      29.150  30.375  23.403  1.00  0.00     0.056 A 
BRANCH  29  30
ATOM     30  C   UNL A   1      28.018  31.333  23.108  1.00  0.00     0.416 C 
ATOM     31  F   UNL A   1      27.102  31.393  24.115  1.00  0.00    -0.166 F 
ATOM     32  F   UNL A   1      28.419  32.617  22.893  1.00  0.00    -0.166 F 
ATOM     33  F   UNL A   1      27.310  30.979  21.995  1.00  0.00    -0.166 F 
ENDBRANCH  29  30
ENDBRANCH  22  24
ENDBRANCH  18  20
ENDBRANCH   8  18
ENDBRANCH   4   7
ENDBRANCH   2   3
ENDBRANCH   1   2
BRANCH   1  34
ATOM     34  C   UNL A   1      39.310  21.641  25.828  1.00  0.00     0.023 C 
BRANCH  34  35
ATOM     35  C   UNL A   1      39.873  20.674  26.858  1.00  0.00     0.116 C 
BRANCH  35  36
ATOM     36  N   UNL A   1      40.715  19.649  26.260  1.00  0.00    -0.352 N 
ATOM     37  C   UNL A   1      42.023  19.766  25.830  1.00  0.00     0.251 C 
ATOM     38  H   UNL A   1      40.301  18.763  26.146  1.00  0.00     0.163 HD
ATOM     39  O   UNL A   1      42.567  18.860  25.243  1.00  0.00    -0.269 OA
BRANCH  37  40
ATOM     40  C   UNL A   1      42.710  21.055  26.074  1.00  0.00     0.039 A 
ATOM     41  C   UNL A   1      42.884  21.935  25.005  1.00  0.00     0.014 A 
ATOM     42  C   UNL A   1      43.080  21.420  27.371  1.00  0.00     0.014 A 
ATOM     43  C   UNL A   1      43.373  23.219  25.253  1.00  0.00     0.010 A 
ATOM     44  C   UNL A   1      43.486  22.724  27.623  1.00  0.00     0.010 A 
ATOM     45  C   UNL A   1      43.640  23.636  26.568  1.00  0.00    -0.014 A 
BRANCH  45  46
ATOM     46  C   UNL A   1      44.095  25.020  26.855  1.00  0.00     0.031 A 
ATOM     47  C   UNL A   1      43.129  26.021  27.426  1.00  0.00     0.074 A 
ATOM     48  C   UNL A   1      45.353  25.388  26.547  1.00  0.00     0.049 A 
ATOM     49  N   UNL A   1      43.314  27.284  27.711  1.00  0.00    -0.248 NA
ATOM     50  C   UNL A   1      41.759  25.544  27.671  1.00  0.00     0.031 C 
ATOM     51  C   UNL A   1      46.364  24.521  25.937  1.00  0.00     0.029 A 
ATOM     52  N   UNL A   1      45.999  26.588  26.704  1.00  0.00    -0.354 N 
ATOM     53  C   UNL A   1      42.083  27.756  28.153  1.00  0.00     0.074 A 
ATOM     54  C   UNL A   1      41.144  26.661  28.021  1.00  0.00     0.031 C 
ATOM     55  C   UNL A   1      47.514  25.205  25.813  1.00  0.00     0.029 A 
ATOM     56  C   UNL A   1      47.313  26.566  26.296  1.00  0.00     0.049 A 
ATOM     57  H   UNL A   1      45.564  27.389  27.074  1.00  0.00     0.167 HD
ATOM     58  C   UNL A   1      41.770  28.978  28.650  1.00  0.00     0.034 A 
ATOM     59  C   UNL A   1      48.249  27.536  26.316  1.00  0.00     0.034 A 
ATOM     60  C   UNL A   1      42.726  30.050  28.790  1.00  0.00     0.049 A 
ATOM     61  C   UNL A   1      47.878  28.891  26.863  1.00  0.00     0.074 A 
ATOM     62  C   UNL A   1      42.544  31.305  29.344  1.00  0.00     0.029 A 
ATOM     63  N   UNL A   1      44.047  29.996  28.361  1.00  0.00    -0.354 N 
ATOM     64  N   UNL A   1      46.728  29.303  27.342  1.00  0.00    -0.248 NA
ATOM     65  C   UNL A   1      48.939  29.905  26.881  1.00  0.00     0.031 C 
ATOM     66  C   UNL A   1      43.731  32.030  29.191  1.00  0.00     0.029 A 
ATOM     67  C   UNL A   1      44.680  31.205  28.608  1.00  0.00     0.049 A 
ATOM     68  H   UNL A   1      44.472  29.212  27.943  1.00  0.00     0.167 HD
ATOM     69  C   UNL A   1      46.938  30.618  27.750  1.00  0.00     0.074 A 
ATOM     70  C   UNL A   1      48.328  30.920  27.472  1.00  0.00     0.031 C 
ATOM     71  C   UNL A   1      46.064  31.495  28.310  1.00  0.00     0.034 A 
BRANCH  58  72
ATOM     72  C   UNL A   1      40.331  29.212  29.049  1.00  0.00     0.023 A 
ATOM     73  C   UNL A   1      39.932  29.229  30.398  1.00  0.00     0.031 A 
ATOM     74  C   UNL A   1      39.332  29.356  28.070  1.00  0.00     0.131 A 
ATOM     75  C   UNL A   1      38.568  29.279  30.726  1.00  0.00     0.055 A 
ATOM     76  C   UNL A   1      37.985  29.501  28.407  1.00  0.00     0.041 A 
ATOM     77  F   UNL A   1      39.645  29.328  26.765  1.00  0.00    -0.206 F 
ATOM     78  C   UNL A   1      37.593  29.441  29.742  1.00  0.00     0.022 A 
BRANCH  75  79
ATOM     79  S   UNL A   1      38.082  28.940  32.441  1.00  0.00     0.124 S 
ATOM     80  O   UNL A   1      38.322  27.503  32.538  1.00  0.00    -0.237 OA
ATOM     81  O   UNL A   1      38.989  29.792  33.201  1.00  0.00    -0.237 OA
ATOM     82  O   UNL A   1      36.674  29.333  32.482  1.00  0.00    -0.744 OA
ENDBRANCH  75  79
ENDBRANCH  58  72
BRANCH  59  83
ATOM     83  C   UNL A   1      49.631  27.265  25.827  1.00  0.00     0.023 A 
ATOM     84  C   UNL A   1      49.970  27.473  24.482  1.00  0.00     0.031 A 
ATOM     85  C   UNL A   1      50.621  26.760  26.688  1.00  0.00     0.131 A 
ATOM     86  C   UNL A   1      51.252  27.137  24.022  1.00  0.00     0.055 A 
ATOM     87  C   UNL A   1      51.911  26.471  26.236  1.00  0.00     0.041 A 
ATOM     88  F   UNL A   1      50.352  26.551  27.986  1.00  0.00    -0.206 F 
ATOM     89  C   UNL A   1      52.229  26.647  24.893  1.00  0.00     0.022 A 
BRANCH  86  90
ATOM     90  S   UNL A   1      51.605  27.281  22.249  1.00  0.00     0.124 S 
ATOM     91  O   UNL A   1      52.686  26.315  22.081  1.00  0.00    -0.237 OA
ATOM     92  O   UNL A   1      50.322  26.918  21.655  1.00  0.00    -0.237 OA
ATOM     93  O   UNL A   1      51.987  28.682  22.091  1.00  0.00    -0.744 OA
ENDBRANCH  86  90
ENDBRANCH  59  83
BRANCH  71  94
ATOM     94  C   UNL A   1      46.612  32.849  28.693  1.00  0.00     0.023 A 
ATOM     95  C   UNL A   1      46.600  33.932  27.798  1.00  0.00     0.031 A 
ATOM     96  C   UNL A   1      47.182  33.046  29.964  1.00  0.00     0.131 A 
ATOM     97  C   UNL A   1      47.203  35.145  28.162  1.00  0.00     0.055 A 
ATOM     98  C   UNL A   1      47.723  34.274  30.343  1.00  0.00     0.041 A 
ATOM     99  F   UNL A   1      47.221  32.045  30.857  1.00  0.00    -0.206 F 
ATOM    100  C   UNL A   1      47.751  35.328  29.434  1.00  0.00     0.022 A 
BRANCH  97 101
ATOM    101  S   UNL A   1      47.360  36.449  26.909  1.00  0.00     0.124 S 
ATOM    102  O   UNL A   1      47.402  37.655  27.730  1.00  0.00    -0.237 OA
ATOM    103  O   UNL A   1      48.605  36.089  26.239  1.00  0.00    -0.237 OA
ATOM    104  O   UNL A   1      46.153  36.292  26.099  1.00  0.00    -0.744 OA
ENDBRANCH  97 101
ENDBRANCH  71  94
ENDBRANCH  45  46
ENDBRANCH  37  40
ENDBRANCH  35  36
ENDBRANCH  34  35
ENDBRANCH   1  34
TORSDOF 18
ENDMDL
MODEL 3
REMARK VINA RESULT:     -13.5      6.130     10.339
REMARK SMILES C[C@H](C(=O)Nc1ccc(C(F)(F)F)cc1)n1nc(C(=O)NCCCCNC(=O)c2ccc(-c3c4nc(c(-c5cc(S(=O)(=O)[O-])ccc5F)c5ccc([nH]5)c(-c5cc(S(=O)(=O)[O-])ccc5F)c5nc(c(-c6cc(S(=O)(=O)[O-])ccc6F)c6ccc3[nH]6)C=C5)C=C4)cc2)c2ccccc2c1=O
REMARK SMILES IDX 23 1 22 2 21 3 19 4 20 5 18 7 16 8 17 9 98 10 97 11 99 12
REMARK SMILES IDX 92 13 96 14 93 15 95 16 94 17 2 18 1 19 3 20 4 21 5 22 6 24
REMARK SMILES IDX 7 25 15 26 8 27 14 28 9 29 10 30 11 31 12 32 13 33 24 34
REMARK SMILES IDX 25 35 26 36 27 37 28 39 29 40 30 41 91 42 31 43 90 44 32 45
REMARK SMILES IDX 33 46 34 47 84 48 35 49 89 50 83 51 85 52 36 53 88 54 82 55
REMARK SMILES IDX 81 56 37 58 69 59 49 60 68 61 50 62 53 63 67 64 86 65 51 66
REMARK SMILES IDX 52 67 66 69 87 70 54 71 38 72 39 73 47 74 40 75 46 76 48 77
REMARK SMILES IDX 45 78 41 79 42 80 43 81 44 82 70 83 71 84 79 85 72 86 78 87
REMARK SMILES IDX 80 88 77 89 73 90 74 91 75 92 76 93 55 94 56 95 64 96 57 97
REMARK SMILES IDX 63 98 65 99 62 100 58 101 59 102 60 103 61 104
REMARK H PARENT 21 6 5 23 26 38 85 57 53 68
REMARK Flexibility Score: inf
ROOT
ATOM      1  C   UNL A   1      39.032  22.574  26.433  1.00  0.00     0.023 C 
ENDROOT
BRANCH   1   2
ATOM      2  C   UNL A   1      37.682  23.129  25.968  1.00  0.00     0.116 C 
BRANCH   2   3
ATOM      3  N   UNL A   1      37.673  23.241  24.518  1.00  0.00    -0.351 N 
ATOM      4  C   UNL A   1      36.605  23.004  23.673  1.00  0.00     0.272 C 
ATOM      5  O   UNL A   1      36.751  22.916  22.461  1.00  0.00    -0.267 OA
ATOM      6  H   UNL A   1      38.517  23.516  24.093  1.00  0.00     0.163 HD
BRANCH   4   7
ATOM      7  C   UNL A   1      35.205  23.021  24.280  1.00  0.00     0.156 A 
ATOM      8  N   UNL A   1      33.154  24.143  24.295  1.00  0.00    -0.216 N 
ATOM      9  N   UNL A   1      34.586  24.171  24.465  1.00  0.00    -0.163 NA
ATOM     10  C   UNL A   1      32.802  23.066  23.498  1.00  0.00     0.275 A 
ATOM     11  C   UNL A   1      33.149  21.797  24.118  1.00  0.00     0.051 A 
ATOM     12  O   UNL A   1      32.701  23.107  22.280  1.00  0.00    -0.267 OA
ATOM     13  C   UNL A   1      34.500  21.723  24.413  1.00  0.00     0.020 A 
ATOM     14  C   UNL A   1      32.286  20.724  24.296  1.00  0.00     0.014 A 
ATOM     15  C   UNL A   1      35.045  20.514  24.830  1.00  0.00     0.011 A 
ATOM     16  C   UNL A   1      32.820  19.522  24.754  1.00  0.00     0.001 A 
ATOM     17  C   UNL A   1      34.197  19.410  24.995  1.00  0.00     0.001 A 
BRANCH   8  18
ATOM     18  C   UNL A   1      32.549  25.484  24.019  1.00  0.00     0.197 C 
ATOM     19  C   UNL A   1      33.507  26.560  24.566  1.00  0.00     0.044 C 
BRANCH  18  20
ATOM     20  C   UNL A   1      31.121  25.788  24.637  1.00  0.00     0.249 C 
ATOM     21  O   UNL A   1      30.415  24.914  25.143  1.00  0.00    -0.272 OA
ATOM     22  N   UNL A   1      30.756  27.127  24.745  1.00  0.00    -0.324 N 
ATOM     23  H   UNL A   1      30.889  27.574  25.613  1.00  0.00     0.170 HD
BRANCH  22  24
ATOM     24  C   UNL A   1      30.205  27.887  23.687  1.00  0.00     0.041 A 
ATOM     25  C   UNL A   1      28.817  27.846  23.502  1.00  0.00     0.027 A 
ATOM     26  C   UNL A   1      30.968  28.781  22.930  1.00  0.00     0.027 A 
ATOM     27  C   UNL A   1      28.178  28.848  22.757  1.00  0.00     0.015 A 
ATOM     28  C   UNL A   1      30.328  29.765  22.157  1.00  0.00     0.015 A 
ATOM     29  C   UNL A   1      28.927  29.868  22.153  1.00  0.00     0.056 A 
BRANCH  29  30
ATOM     30  C   UNL A   1      28.264  31.125  21.637  1.00  0.00     0.416 C 
ATOM     31  F   UNL A   1      27.290  31.588  22.469  1.00  0.00    -0.166 F 
ATOM     32  F   UNL A   1      29.122  32.168  21.451  1.00  0.00    -0.166 F 
ATOM     33  F   UNL A   1      27.651  30.936  20.432  1.00  0.00    -0.166 F 
ENDBRANCH  29  30
ENDBRANCH  22  24
ENDBRANCH  18  20
ENDBRANCH   8  18
ENDBRANCH   4   7
ENDBRANCH   2   3
ENDBRANCH   1   2
BRANCH   1  34
ATOM     34  C   UNL A   1      39.345  21.212  25.816  1.00  0.00     0.023 C 
BRANCH  34  35
ATOM     35  C   UNL A   1      39.993  20.248  26.798  1.00  0.00     0.116 C 
BRANCH  35  36
ATOM     36  N   UNL A   1      40.926  19.338  26.154  1.00  0.00    -0.352 N 
ATOM     37  C   UNL A   1      42.229  19.588  25.766  1.00  0.00     0.251 C 
ATOM     38  H   UNL A   1      40.588  18.431  25.970  1.00  0.00     0.163 HD
ATOM     39  O   UNL A   1      42.856  18.771  25.132  1.00  0.00    -0.269 OA
BRANCH  37  40
ATOM     40  C   UNL A   1      42.804  20.908  26.113  1.00  0.00     0.039 A 
ATOM     41  C   UNL A   1      43.033  21.830  25.091  1.00  0.00     0.014 A 
ATOM     42  C   UNL A   1      43.012  21.254  27.450  1.00  0.00     0.014 A 
ATOM     43  C   UNL A   1      43.411  23.132  25.421  1.00  0.00     0.010 A 
ATOM     44  C   UNL A   1      43.305  22.572  27.777  1.00  0.00     0.010 A 
ATOM     45  C   UNL A   1      43.512  23.524  26.766  1.00  0.00    -0.014 A 
BRANCH  45  46
ATOM     46  C   UNL A   1      43.846  24.923  27.135  1.00  0.00     0.031 A 
ATOM     47  C   UNL A   1      45.271  25.397  27.053  1.00  0.00     0.074 A 
ATOM     48  C   UNL A   1      42.881  25.741  27.598  1.00  0.00     0.049 A 
ATOM     49  N   UNL A   1      45.777  26.562  27.365  1.00  0.00    -0.248 NA
ATOM     50  C   UNL A   1      46.264  24.413  26.596  1.00  0.00     0.031 C 
ATOM     51  C   UNL A   1      41.474  25.376  27.776  1.00  0.00     0.029 A 
ATOM     52  N   UNL A   1      42.937  27.050  28.005  1.00  0.00    -0.354 N 
ATOM     53  C   UNL A   1      47.147  26.446  27.159  1.00  0.00     0.074 A 
ATOM     54  C   UNL A   1      47.396  25.074  26.771  1.00  0.00     0.031 C 
ATOM     55  C   UNL A   1      40.793  26.449  28.212  1.00  0.00     0.029 A 
ATOM     56  C   UNL A   1      41.718  27.564  28.384  1.00  0.00     0.049 A 
ATOM     57  H   UNL A   1      43.771  27.573  28.024  1.00  0.00     0.167 HD
ATOM     58  C   UNL A   1      48.104  27.402  27.254  1.00  0.00     0.034 A 
ATOM     59  C   UNL A   1      41.387  28.796  28.817  1.00  0.00     0.034 A 
ATOM     60  C   UNL A   1      47.831  28.770  27.624  1.00  0.00     0.049 A 
ATOM     61  C   UNL A   1      42.468  29.841  28.925  1.00  0.00     0.074 A 
ATOM     62  C   UNL A   1      48.705  29.840  27.686  1.00  0.00     0.029 A 
ATOM     63  N   UNL A   1      46.586  29.254  28.008  1.00  0.00    -0.354 N 
ATOM     64  N   UNL A   1      43.750  29.738  28.660  1.00  0.00    -0.248 NA
ATOM     65  C   UNL A   1      42.051  31.173  29.381  1.00  0.00     0.031 C 
ATOM     66  C   UNL A   1      48.005  30.953  28.168  1.00  0.00     0.029 A 
ATOM     67  C   UNL A   1      46.676  30.598  28.338  1.00  0.00     0.049 A 
ATOM     68  H   UNL A   1      45.759  28.720  28.040  1.00  0.00     0.167 HD
ATOM     69  C   UNL A   1      44.286  31.003  28.885  1.00  0.00     0.074 A 
ATOM     70  C   UNL A   1      43.185  31.852  29.294  1.00  0.00     0.031 C 
ATOM     71  C   UNL A   1      45.571  31.427  28.760  1.00  0.00     0.034 A 
BRANCH  58  72
ATOM     72  C   UNL A   1      49.529  26.980  26.975  1.00  0.00     0.023 A 
ATOM     73  C   UNL A   1      50.474  26.841  28.009  1.00  0.00     0.031 A 
ATOM     74  C   UNL A   1      49.969  26.777  25.655  1.00  0.00     0.131 A 
ATOM     75  C   UNL A   1      51.823  26.614  27.700  1.00  0.00     0.055 A 
ATOM     76  C   UNL A   1      51.296  26.456  25.362  1.00  0.00     0.041 A 
ATOM     77  F   UNL A   1      49.122  26.914  24.623  1.00  0.00    -0.206 F 
ATOM     78  C   UNL A   1      52.238  26.395  26.385  1.00  0.00     0.022 A 
BRANCH  75  79
ATOM     79  S   UNL A   1      53.052  26.797  29.022  1.00  0.00     0.124 S 
ATOM     80  O   UNL A   1      54.251  26.250  28.390  1.00  0.00    -0.237 OA
ATOM     81  O   UNL A   1      53.053  28.236  29.256  1.00  0.00    -0.237 OA
ATOM     82  O   UNL A   1      52.508  25.986  30.110  1.00  0.00    -0.744 OA
ENDBRANCH  75  79
ENDBRANCH  58  72
BRANCH  59  83
ATOM     83  C   UNL A   1      39.974  29.126  29.158  1.00  0.00     0.023 A 
ATOM     84  C   UNL A   1      39.551  29.169  30.495  1.00  0.00     0.031 A 
ATOM     85  C   UNL A   1      39.019  29.364  28.154  1.00  0.00     0.131 A 
ATOM     86  C   UNL A   1      38.200  29.401  30.794  1.00  0.00     0.055 A 
ATOM     87  C   UNL A   1      37.685  29.641  28.459  1.00  0.00     0.041 A 
ATOM     88  F   UNL A   1      39.373  29.342  26.860  1.00  0.00    -0.206 F 
ATOM     89  C   UNL A   1      37.266  29.648  29.786  1.00  0.00     0.022 A 
BRANCH  86  90
ATOM     90  S   UNL A   1      37.665  29.303  32.525  1.00  0.00     0.124 S 
ATOM     91  O   UNL A   1      37.776  27.872  32.790  1.00  0.00    -0.237 OA
ATOM     92  O   UNL A   1      38.641  30.158  33.193  1.00  0.00    -0.237 OA
ATOM     93  O   UNL A   1      36.302  29.828  32.490  1.00  0.00    -0.744 OA
ENDBRANCH  86  90
ENDBRANCH  59  83
BRANCH  71  94
ATOM     94  C   UNL A   1      45.832  32.889  29.031  1.00  0.00     0.023 A 
ATOM     95  C   UNL A   1      45.753  33.856  28.016  1.00  0.00     0.031 A 
ATOM     96  C   UNL A   1      46.196  33.313  30.323  1.00  0.00     0.131 A 
ATOM     97  C   UNL A   1      46.095  35.189  28.292  1.00  0.00     0.055 A 
ATOM     98  C   UNL A   1      46.472  34.650  30.605  1.00  0.00     0.041 A 
ATOM     99  F   UNL A   1      46.289  32.431  31.331  1.00  0.00    -0.206 F 
ATOM    100  C   UNL A   1      46.439  35.595  29.584  1.00  0.00     0.022 A 
BRANCH  97 101
ATOM    101  S   UNL A   1      46.189  36.366  26.914  1.00  0.00     0.124 S 
ATOM    102  O   UNL A   1      47.434  37.071  27.201  1.00  0.00    -0.237 OA
ATOM    103  O   UNL A   1      46.208  35.484  25.752  1.00  0.00    -0.237 OA
ATOM    104  O   UNL A   1      44.974  37.166  27.064  1.00  0.00    -0.744 OA
ENDBRANCH  97 101
ENDBRANCH  71  94
ENDBRANCH  45  46
ENDBRANCH  37  40
ENDBRANCH  35  36
ENDBRANCH  34  35
ENDBRANCH   1  34
TORSDOF 18
ENDMDL
