MODEL 1
REMARK VINA RESULT:     -10.9      0.000      0.000
REMARK SMILES C=CCNC(=O)C[NH2+][C@](C)(C(=O)NCCCCNC(=O)c1ccc(-c2c3nc(c(-c4cc(S(=O)(=O)[O-])ccc4F)c4ccc([nH]4)c(-c4cc(S(=O)(=O)[O-])ccc4F)c4nc(c(-c5cc(S(=O)(=O)[O-])ccc5F)c5ccc2[nH]5)C=C4)C=C3)cc1)C(F)(F)F
REMARK SMILES IDX 14 1 13 2 11 3 12 4 9 6 10 7 8 8 7 11 5 12 4 13 6 15 3 16
REMARK SMILES IDX 2 17 1 18 84 19 85 20 86 21 87 22 15 23 16 24 17 25 18 26
REMARK SMILES IDX 19 27 20 29 21 30 22 31 83 32 23 33 82 34 24 35 25 36 26 37
REMARK SMILES IDX 76 38 27 39 81 40 75 41 77 42 28 43 80 44 74 45 73 46 29 48
REMARK SMILES IDX 61 49 41 50 60 51 42 52 45 53 59 54 78 55 43 56 44 57 58 59
REMARK SMILES IDX 79 60 46 61 30 62 31 63 39 64 32 65 38 66 40 67 37 68 33 69
REMARK SMILES IDX 34 70 35 71 36 72 62 73 63 74 71 75 64 76 70 77 72 78 69 79
REMARK SMILES IDX 65 80 66 81 67 82 68 83 47 84 48 85 56 86 49 87 55 88 57 89
REMARK SMILES IDX 54 90 50 91 51 92 52 93 53 94
REMARK H PARENT 13 5 8 9 8 10 4 14 18 28 77 47 45 58
REMARK Flexibility Score: inf
ROOT
ATOM      1  C   UNL A   1      34.167  24.319  25.276  1.00  0.00     0.116 C 
ENDROOT
BRANCH   1   2
ATOM      2  N   UNL A   1      33.005  24.588  26.106  1.00  0.00    -0.350 N 
ATOM      3  C   UNL A   1      31.762  25.092  25.848  1.00  0.00     0.290 C 
ATOM      4  O   UNL A   1      31.028  25.215  26.832  1.00  0.00    -0.267 OA
ATOM      5  H   UNL A   1      33.143  24.358  27.053  1.00  0.00     0.163 HD
BRANCH   3   6
ATOM      6  C   UNL A   1      31.281  25.442  24.422  1.00  0.00     0.268 C 
ATOM      7  C   UNL A   1      29.915  26.153  24.472  1.00  0.00     0.101 C 
BRANCH   6   8
ATOM      8  N   UNL A   1      32.257  26.371  23.742  1.00  0.00    -0.318 N 
ATOM      9  H   UNL A   1      33.201  26.106  24.020  1.00  0.00     0.347 HD
ATOM     10  H   UNL A   1      32.107  26.278  22.737  1.00  0.00     0.347 HD
BRANCH   8  11
ATOM     11  C   UNL A   1      32.053  27.794  24.080  1.00  0.00     0.362 C 
BRANCH  11  12
ATOM     12  C   UNL A   1      32.344  28.648  22.840  1.00  0.00     0.275 C 
ATOM     13  N   UNL A   1      31.312  29.265  22.194  1.00  0.00    -0.348 N 
ATOM     14  H   UNL A   1      31.548  29.751  21.372  1.00  0.00     0.163 HD
ATOM     15  O   UNL A   1      33.493  28.807  22.424  1.00  0.00    -0.268 OA
BRANCH  13  16
ATOM     16  C   UNL A   1      29.917  29.293  22.566  1.00  0.00     0.143 C 
BRANCH  16  17
ATOM     17  C   UNL A   1      29.322  30.528  21.968  1.00  0.00    -0.014 C 
ATOM     18  C   UNL A   1      28.211  30.551  21.219  1.00  0.00     0.006 C 
ENDBRANCH  16  17
ENDBRANCH  13  16
ENDBRANCH  11  12
ENDBRANCH   8  11
ENDBRANCH   6   8
BRANCH   6  19
ATOM     19  C   UNL A   1      31.034  24.090  23.682  1.00  0.00     0.453 C 
ATOM     20  F   UNL A   1      32.070  23.732  22.889  1.00  0.00    -0.164 F 
ATOM     21  F   UNL A   1      30.888  23.082  24.589  1.00  0.00    -0.164 F 
ATOM     22  F   UNL A   1      29.908  24.080  22.933  1.00  0.00    -0.164 F 
ENDBRANCH   6  19
ENDBRANCH   3   6
ENDBRANCH   1   2
BRANCH   1  23
ATOM     23  C   UNL A   1      34.947  23.107  25.775  1.00  0.00     0.023 C 
BRANCH  23  24
ATOM     24  C   UNL A   1      35.376  22.129  24.681  1.00  0.00     0.023 C 
BRANCH  24  25
ATOM     25  C   UNL A   1      36.868  22.116  24.365  1.00  0.00     0.116 C 
BRANCH  25  26
ATOM     26  N   UNL A   1      37.545  20.922  24.843  1.00  0.00    -0.352 N 
ATOM     27  C   UNL A   1      38.672  20.825  25.625  1.00  0.00     0.251 C 
ATOM     28  H   UNL A   1      37.143  20.066  24.570  1.00  0.00     0.163 HD
ATOM     29  O   UNL A   1      39.182  19.727  25.831  1.00  0.00    -0.269 OA
BRANCH  27  30
ATOM     30  C   UNL A   1      39.281  22.055  26.174  1.00  0.00     0.039 A 
ATOM     31  C   UNL A   1      40.513  21.966  26.829  1.00  0.00     0.014 A 
ATOM     32  C   UNL A   1      38.660  23.295  26.003  1.00  0.00     0.014 A 
ATOM     33  C   UNL A   1      41.158  23.133  27.245  1.00  0.00     0.010 A 
ATOM     34  C   UNL A   1      39.338  24.459  26.351  1.00  0.00     0.010 A 
ATOM     35  C   UNL A   1      40.595  24.390  26.972  1.00  0.00    -0.014 A 
BRANCH  35  36
ATOM     36  C   UNL A   1      41.301  25.647  27.331  1.00  0.00     0.031 A 
ATOM     37  C   UNL A   1      40.609  26.684  28.172  1.00  0.00     0.074 A 
ATOM     38  C   UNL A   1      42.532  25.885  26.841  1.00  0.00     0.049 A 
ATOM     39  N   UNL A   1      41.021  27.874  28.526  1.00  0.00    -0.248 NA
ATOM     40  C   UNL A   1      39.261  26.345  28.645  1.00  0.00     0.031 C 
ATOM     41  C   UNL A   1      43.291  24.976  25.978  1.00  0.00     0.029 A 
ATOM     42  N   UNL A   1      43.361  26.968  26.989  1.00  0.00    -0.354 N 
ATOM     43  C   UNL A   1      39.975  28.433  29.254  1.00  0.00     0.074 A 
ATOM     44  C   UNL A   1      38.888  27.478  29.221  1.00  0.00     0.031 C 
ATOM     45  C   UNL A   1      44.484  25.524  25.703  1.00  0.00     0.029 A 
ATOM     46  C   UNL A   1      44.561  26.840  26.329  1.00  0.00     0.049 A 
ATOM     47  H   UNL A   1      43.121  27.762  27.520  1.00  0.00     0.167 HD
ATOM     48  C   UNL A   1      39.935  29.619  29.913  1.00  0.00     0.034 A 
ATOM     49  C   UNL A   1      45.602  27.689  26.235  1.00  0.00     0.034 A 
ATOM     50  C   UNL A   1      41.031  30.558  29.938  1.00  0.00     0.049 A 
ATOM     51  C   UNL A   1      45.527  29.018  26.941  1.00  0.00     0.074 A 
ATOM     52  C   UNL A   1      41.124  31.764  30.610  1.00  0.00     0.029 A 
ATOM     53  N   UNL A   1      42.227  30.401  29.245  1.00  0.00    -0.354 N 
ATOM     54  N   UNL A   1      44.551  29.515  27.665  1.00  0.00    -0.248 NA
ATOM     55  C   UNL A   1      46.698  29.894  26.822  1.00  0.00     0.031 C 
ATOM     56  C   UNL A   1      42.344  32.363  30.275  1.00  0.00     0.029 A 
ATOM     57  C   UNL A   1      43.048  31.500  29.450  1.00  0.00     0.049 A 
ATOM     58  H   UNL A   1      42.458  29.622  28.689  1.00  0.00     0.167 HD
ATOM     59  C   UNL A   1      45.003  30.752  28.113  1.00  0.00     0.074 A 
ATOM     60  C   UNL A   1      46.343  30.919  27.584  1.00  0.00     0.031 C 
ATOM     61  C   UNL A   1      44.374  31.663  28.899  1.00  0.00     0.034 A 
BRANCH  48  62
ATOM     62  C   UNL A   1      38.648  29.960  30.630  1.00  0.00     0.023 A 
ATOM     63  C   UNL A   1      37.666  30.771  30.032  1.00  0.00     0.031 A 
ATOM     64  C   UNL A   1      38.431  29.535  31.952  1.00  0.00     0.131 A 
ATOM     65  C   UNL A   1      36.574  31.222  30.788  1.00  0.00     0.055 A 
ATOM     66  C   UNL A   1      37.289  29.908  32.666  1.00  0.00     0.041 A 
ATOM     67  F   UNL A   1      39.337  28.775  32.585  1.00  0.00    -0.206 F 
ATOM     68  C   UNL A   1      36.365  30.777  32.093  1.00  0.00     0.022 A 
BRANCH  65  69
ATOM     69  S   UNL A   1      35.544  32.550  30.102  1.00  0.00     0.124 S 
ATOM     70  O   UNL A   1      36.431  33.704  30.225  1.00  0.00    -0.237 OA
ATOM     71  O   UNL A   1      35.288  32.081  28.745  1.00  0.00    -0.237 OA
ATOM     72  O   UNL A   1      34.380  32.572  30.986  1.00  0.00    -0.744 OA
ENDBRANCH  65  69
ENDBRANCH  48  62
BRANCH  49  73
ATOM     73  C   UNL A   1      46.810  27.310  25.452  1.00  0.00     0.023 A 
ATOM     74  C   UNL A   1      46.976  27.749  24.130  1.00  0.00     0.031 A 
ATOM     75  C   UNL A   1      47.811  26.495  26.009  1.00  0.00     0.131 A 
ATOM     76  C   UNL A   1      48.100  27.345  23.395  1.00  0.00     0.055 A 
ATOM     77  C   UNL A   1      48.948  26.128  25.288  1.00  0.00     0.041 A 
ATOM     78  F   UNL A   1      47.703  26.057  27.275  1.00  0.00    -0.206 F 
ATOM     79  C   UNL A   1      49.093  26.547  23.968  1.00  0.00     0.022 A 
BRANCH  76  80
ATOM     80  S   UNL A   1      48.225  27.840  21.655  1.00  0.00     0.124 S 
ATOM     81  O   UNL A   1      49.395  28.710  21.676  1.00  0.00    -0.237 OA
ATOM     82  O   UNL A   1      48.392  26.555  20.984  1.00  0.00    -0.237 OA
ATOM     83  O   UNL A   1      46.952  28.511  21.400  1.00  0.00    -0.744 OA
ENDBRANCH  76  80
ENDBRANCH  49  73
BRANCH  61  84
ATOM     84  C   UNL A   1      45.153  32.903  29.264  1.00  0.00     0.023 A 
ATOM     85  C   UNL A   1      45.117  34.062  28.468  1.00  0.00     0.031 A 
ATOM     86  C   UNL A   1      45.956  32.917  30.418  1.00  0.00     0.131 A 
ATOM     87  C   UNL A   1      45.912  35.168  28.809  1.00  0.00     0.055 A 
ATOM     88  C   UNL A   1      46.701  34.040  30.782  1.00  0.00     0.041 A 
ATOM     89  F   UNL A   1      46.030  31.837  31.212  1.00  0.00    -0.206 F 
ATOM     90  C   UNL A   1      46.691  35.169  29.969  1.00  0.00     0.022 A 
BRANCH  87  91
ATOM     91  S   UNL A   1      45.984  36.575  27.665  1.00  0.00     0.124 S 
ATOM     92  O   UNL A   1      45.949  37.711  28.580  1.00  0.00    -0.237 OA
ATOM     93  O   UNL A   1      47.249  36.351  26.974  1.00  0.00    -0.237 OA
ATOM     94  O   UNL A   1      44.789  36.407  26.839  1.00  0.00    -0.744 OA
ENDBRANCH  87  91
ENDBRANCH  61  84
ENDBRANCH  35  36
ENDBRANCH  27  30
ENDBRANCH  25  26
ENDBRANCH  24  25
ENDBRANCH  23  24
ENDBRANCH   1  23
TORSDOF 20
ENDMDL
MODEL 2
REMARK VINA RESULT:     -10.6      3.179      8.254
REMARK SMILES C=CCNC(=O)C[NH2+][C@](C)(C(=O)NCCCCNC(=O)c1ccc(-c2c3nc(c(-c4cc(S(=O)(=O)[O-])ccc4F)c4ccc([nH]4)c(-c4cc(S(=O)(=O)[O-])ccc4F)c4nc(c(-c5cc(S(=O)(=O)[O-])ccc5F)c5ccc2[nH]5)C=C4)C=C3)cc1)C(F)(F)F
REMARK SMILES IDX 14 1 13 2 11 3 12 4 9 6 10 7 8 8 7 11 5 12 4 13 6 15 3 16
REMARK SMILES IDX 2 17 1 18 84 19 85 20 86 21 87 22 15 23 16 24 17 25 18 26
REMARK SMILES IDX 19 27 20 29 21 30 22 31 83 32 23 33 82 34 24 35 25 36 26 37
REMARK SMILES IDX 76 38 27 39 81 40 75 41 77 42 28 43 80 44 74 45 73 46 29 48
REMARK SMILES IDX 61 49 41 50 60 51 42 52 45 53 59 54 78 55 43 56 44 57 58 59
REMARK SMILES IDX 79 60 46 61 30 62 31 63 39 64 32 65 38 66 40 67 37 68 33 69
REMARK SMILES IDX 34 70 35 71 36 72 62 73 63 74 71 75 64 76 70 77 72 78 69 79
REMARK SMILES IDX 65 80 66 81 67 82 68 83 47 84 48 85 56 86 49 87 55 88 57 89
REMARK SMILES IDX 54 90 50 91 51 92 52 93 53 94
REMARK H PARENT 13 5 8 9 8 10 4 14 18 28 77 47 45 58
REMARK Flexibility Score: inf
ROOT
ATOM      1  C   UNL A   1      34.434  25.064  24.879  1.00  0.00     0.116 C 
ENDROOT
BRANCH   1   2
ATOM      2  N   UNL A   1      33.739  25.702  23.775  1.00  0.00    -0.350 N 
ATOM      3  C   UNL A   1      32.823  26.713  23.699  1.00  0.00     0.290 C 
ATOM      4  O   UNL A   1      32.416  26.972  22.563  1.00  0.00    -0.267 OA
ATOM      5  H   UNL A   1      33.979  25.328  22.897  1.00  0.00     0.163 HD
BRANCH   3   6
ATOM      6  C   UNL A   1      32.360  27.516  24.935  1.00  0.00     0.268 C 
ATOM      7  C   UNL A   1      31.193  28.452  24.565  1.00  0.00     0.101 C 
BRANCH   6   8
ATOM      8  N   UNL A   1      31.876  26.588  26.023  1.00  0.00    -0.318 N 
ATOM      9  H   UNL A   1      32.602  25.896  26.203  1.00  0.00     0.347 HD
ATOM     10  H   UNL A   1      31.677  27.165  26.841  1.00  0.00     0.347 HD
BRANCH   8  11
ATOM     11  C   UNL A   1      30.628  25.876  25.682  1.00  0.00     0.362 C 
BRANCH  11  12
ATOM     12  C   UNL A   1      30.798  24.387  26.008  1.00  0.00     0.275 C 
ATOM     13  N   UNL A   1      30.776  23.473  24.994  1.00  0.00    -0.348 N 
ATOM     14  H   UNL A   1      30.831  22.528  25.264  1.00  0.00     0.163 HD
ATOM     15  O   UNL A   1      30.974  23.997  27.163  1.00  0.00    -0.268 OA
BRANCH  13  16
ATOM     16  C   UNL A   1      30.682  23.718  23.574  1.00  0.00     0.143 C 
BRANCH  16  17
ATOM     17  C   UNL A   1      31.854  23.050  22.928  1.00  0.00    -0.014 C 
ATOM     18  C   UNL A   1      32.179  21.761  23.091  1.00  0.00     0.006 C 
ENDBRANCH  16  17
ENDBRANCH  13  16
ENDBRANCH  11  12
ENDBRANCH   8  11
ENDBRANCH   6   8
BRANCH   6  19
ATOM     19  C   UNL A   1      33.544  28.447  25.342  1.00  0.00     0.453 C 
ATOM     20  F   UNL A   1      34.262  27.956  26.379  1.00  0.00    -0.164 F 
ATOM     21  F   UNL A   1      34.419  28.570  24.303  1.00  0.00    -0.164 F 
ATOM     22  F   UNL A   1      33.161  29.706  25.656  1.00  0.00    -0.164 F 
ENDBRANCH   6  19
ENDBRANCH   3   6
ENDBRANCH   1   2
BRANCH   1  23
ATOM     23  C   UNL A   1      35.100  23.762  24.449  1.00  0.00     0.023 C 
BRANCH  23  24
ATOM     24  C   UNL A   1      36.618  23.727  24.638  1.00  0.00     0.023 C 
BRANCH  24  25
ATOM     25  C   UNL A   1      37.091  23.443  26.060  1.00  0.00     0.116 C 
BRANCH  25  26
ATOM     26  N   UNL A   1      38.072  22.372  26.134  1.00  0.00    -0.352 N 
ATOM     27  C   UNL A   1      39.411  22.450  26.438  1.00  0.00     0.251 C 
ATOM     28  H   UNL A   1      37.732  21.468  25.941  1.00  0.00     0.163 HD
ATOM     29  O   UNL A   1      40.121  21.455  26.331  1.00  0.00    -0.269 OA
BRANCH  27  30
ATOM     30  C   UNL A   1      39.987  23.748  26.849  1.00  0.00     0.039 A 
ATOM     31  C   UNL A   1      40.091  24.771  25.902  1.00  0.00     0.014 A 
ATOM     32  C   UNL A   1      40.380  23.966  28.171  1.00  0.00     0.014 A 
ATOM     33  C   UNL A   1      40.519  26.039  26.303  1.00  0.00     0.010 A 
ATOM     34  C   UNL A   1      40.733  25.248  28.583  1.00  0.00     0.010 A 
ATOM     35  C   UNL A   1      40.804  26.298  27.654  1.00  0.00    -0.014 A 
BRANCH  35  36
ATOM     36  C   UNL A   1      41.180  27.658  28.118  1.00  0.00     0.031 A 
ATOM     37  C   UNL A   1      42.627  28.063  28.159  1.00  0.00     0.074 A 
ATOM     38  C   UNL A   1      40.229  28.498  28.567  1.00  0.00     0.049 A 
ATOM     39  N   UNL A   1      43.166  29.170  28.604  1.00  0.00    -0.248 NA
ATOM     40  C   UNL A   1      43.595  27.075  27.667  1.00  0.00     0.031 C 
ATOM     41  C   UNL A   1      38.795  28.204  28.617  1.00  0.00     0.029 A 
ATOM     42  N   UNL A   1      40.324  29.768  29.077  1.00  0.00    -0.354 N 
ATOM     43  C   UNL A   1      44.540  29.005  28.457  1.00  0.00     0.074 A 
ATOM     44  C   UNL A   1      44.746  27.663  27.955  1.00  0.00     0.031 C 
ATOM     45  C   UNL A   1      38.143  29.274  29.097  1.00  0.00     0.029 A 
ATOM     46  C   UNL A   1      39.112  30.314  29.431  1.00  0.00     0.049 A 
ATOM     47  H   UNL A   1      41.179  30.245  29.178  1.00  0.00     0.167 HD
ATOM     48  C   UNL A   1      45.535  29.898  28.692  1.00  0.00     0.034 A 
ATOM     49  C   UNL A   1      38.817  31.512  29.969  1.00  0.00     0.034 A 
ATOM     50  C   UNL A   1      45.309  31.234  29.190  1.00  0.00     0.049 A 
ATOM     51  C   UNL A   1      39.935  32.478  30.259  1.00  0.00     0.074 A 
ATOM     52  C   UNL A   1      46.230  32.241  29.419  1.00  0.00     0.029 A 
ATOM     53  N   UNL A   1      44.068  31.748  29.551  1.00  0.00    -0.354 N 
ATOM     54  N   UNL A   1      41.226  32.328  30.072  1.00  0.00    -0.248 NA
ATOM     55  C   UNL A   1      39.554  33.778  30.824  1.00  0.00     0.031 C 
ATOM     56  C   UNL A   1      45.558  33.336  29.975  1.00  0.00     0.029 A 
ATOM     57  C   UNL A   1      44.205  33.043  30.028  1.00  0.00     0.049 A 
ATOM     58  H   UNL A   1      43.214  31.261  29.480  1.00  0.00     0.167 HD
ATOM     59  C   UNL A   1      41.809  33.527  30.470  1.00  0.00     0.074 A 
ATOM     60  C   UNL A   1      40.726  34.391  30.898  1.00  0.00     0.031 C 
ATOM     61  C   UNL A   1      43.118  33.886  30.472  1.00  0.00     0.034 A 
BRANCH  48  62
ATOM     62  C   UNL A   1      46.949  29.431  28.433  1.00  0.00     0.023 A 
ATOM     63  C   UNL A   1      47.732  28.856  29.451  1.00  0.00     0.031 A 
ATOM     64  C   UNL A   1      47.550  29.628  27.177  1.00  0.00     0.131 A 
ATOM     65  C   UNL A   1      49.094  28.606  29.232  1.00  0.00     0.055 A 
ATOM     66  C   UNL A   1      48.883  29.284  26.938  1.00  0.00     0.041 A 
ATOM     67  F   UNL A   1      46.863  30.188  26.170  1.00  0.00    -0.206 F 
ATOM     68  C   UNL A   1      49.670  28.793  27.975  1.00  0.00     0.022 A 
BRANCH  65  69
ATOM     69  S   UNL A   1      50.140  28.223  30.666  1.00  0.00     0.124 S 
ATOM     70  O   UNL A   1      50.028  26.768  30.731  1.00  0.00    -0.237 OA
ATOM     71  O   UNL A   1      51.438  28.747  30.258  1.00  0.00    -0.237 OA
ATOM     72  O   UNL A   1      49.493  28.940  31.763  1.00  0.00    -0.744 OA
ENDBRANCH  65  69
ENDBRANCH  48  62
BRANCH  49  73
ATOM     73  C   UNL A   1      37.402  31.875  30.260  1.00  0.00     0.023 A 
ATOM     74  C   UNL A   1      36.623  32.546  29.307  1.00  0.00     0.031 A 
ATOM     75  C   UNL A   1      36.813  31.566  31.499  1.00  0.00     0.131 A 
ATOM     76  C   UNL A   1      35.306  32.918  29.617  1.00  0.00     0.055 A 
ATOM     77  C   UNL A   1      35.490  31.901  31.788  1.00  0.00     0.041 A 
ATOM     78  F   UNL A   1      37.515  30.914  32.441  1.00  0.00    -0.206 F 
ATOM     79  C   UNL A   1      34.730  32.590  30.847  1.00  0.00     0.022 A 
BRANCH  76  80
ATOM     80  S   UNL A   1      34.367  33.883  28.403  1.00  0.00     0.124 S 
ATOM     81  O   UNL A   1      33.286  32.964  28.064  1.00  0.00    -0.237 OA
ATOM     82  O   UNL A   1      33.989  35.061  29.176  1.00  0.00    -0.237 OA
ATOM     83  O   UNL A   1      35.337  34.126  27.337  1.00  0.00    -0.744 OA
ENDBRANCH  76  80
ENDBRANCH  49  73
BRANCH  61  84
ATOM     84  C   UNL A   1      43.440  35.292  30.916  1.00  0.00     0.023 A 
ATOM     85  C   UNL A   1      43.469  36.367  30.010  1.00  0.00     0.031 A 
ATOM     86  C   UNL A   1      43.739  35.555  32.264  1.00  0.00     0.131 A 
ATOM     87  C   UNL A   1      43.842  37.645  30.455  1.00  0.00     0.055 A 
ATOM     88  C   UNL A   1      44.053  36.839  32.712  1.00  0.00     0.041 A 
ATOM     89  F   UNL A   1      43.729  34.565  33.171  1.00  0.00    -0.206 F 
ATOM     90  C   UNL A   1      44.118  37.890  31.802  1.00  0.00     0.022 A 
BRANCH  87  91
ATOM     91  S   UNL A   1      44.049  38.969  29.230  1.00  0.00     0.124 S 
ATOM     92  O   UNL A   1      44.122  38.217  27.982  1.00  0.00    -0.237 OA
ATOM     93  O   UNL A   1      42.842  39.766  29.425  1.00  0.00    -0.237 OA
ATOM     94  O   UNL A   1      45.294  39.620  29.636  1.00  0.00    -0.744 OA
ENDBRANCH  87  91
ENDBRANCH  61  84
ENDBRANCH  35  36
ENDBRANCH  27  30
ENDBRANCH  25  26
ENDBRANCH  24  25
ENDBRANCH  23  24
ENDBRANCH   1  23
TORSDOF 20
ENDMDL
MODEL 3
REMARK VINA RESULT:     -10.6      5.023      7.346
REMARK SMILES C=CCNC(=O)C[NH2+][C@](C)(C(=O)NCCCCNC(=O)c1ccc(-c2c3nc(c(-c4cc(S(=O)(=O)[O-])ccc4F)c4ccc([nH]4)c(-c4cc(S(=O)(=O)[O-])ccc4F)c4nc(c(-c5cc(S(=O)(=O)[O-])ccc5F)c5ccc2[nH]5)C=C4)C=C3)cc1)C(F)(F)F
REMARK SMILES IDX 14 1 13 2 11 3 12 4 9 6 10 7 8 8 7 11 5 12 4 13 6 15 3 16
REMARK SMILES IDX 2 17 1 18 84 19 85 20 86 21 87 22 15 23 16 24 17 25 18 26
REMARK SMILES IDX 19 27 20 29 21 30 22 31 83 32 23 33 82 34 24 35 25 36 26 37
REMARK SMILES IDX 76 38 27 39 81 40 75 41 77 42 28 43 80 44 74 45 73 46 29 48
REMARK SMILES IDX 61 49 41 50 60 51 42 52 45 53 59 54 78 55 43 56 44 57 58 59
REMARK SMILES IDX 79 60 46 61 30 62 31 63 39 64 32 65 38 66 40 67 37 68 33 69
REMARK SMILES IDX 34 70 35 71 36 72 62 73 63 74 71 75 64 76 70 77 72 78 69 79
REMARK SMILES IDX 65 80 66 81 67 82 68 83 47 84 48 85 56 86 49 87 55 88 57 89
REMARK SMILES IDX 54 90 50 91 51 92 52 93 53 94
REMARK H PARENT 13 5 8 9 8 10 4 14 18 28 77 47 45 58
REMARK Flexibility Score: inf
ROOT
ATOM      1  C   UNL A   1      31.147  26.700  26.287  1.00  0.00     0.116 C 
ENDROOT
BRANCH   1   2
ATOM      2  N   UNL A   1      31.047  25.376  26.877  1.00  0.00    -0.350 N 
ATOM      3  C   UNL A   1      31.302  24.118  26.409  1.00  0.00     0.290 C 
ATOM      4  O   UNL A   1      31.064  23.203  27.202  1.00  0.00    -0.267 OA
ATOM      5  H   UNL A   1      30.731  25.388  27.808  1.00  0.00     0.163 HD
BRANCH   3   6
ATOM      6  C   UNL A   1      31.892  23.851  25.007  1.00  0.00     0.268 C 
ATOM      7  C   UNL A   1      30.787  23.918  23.934  1.00  0.00     0.101 C 
BRANCH   6   8
ATOM      8  N   UNL A   1      32.932  24.887  24.658  1.00  0.00    -0.318 N 
ATOM      9  H   UNL A   1      32.831  25.673  25.299  1.00  0.00     0.347 HD
ATOM     10  H   UNL A   1      33.843  24.435  24.738  1.00  0.00     0.347 HD
BRANCH   8  11
ATOM     11  C   UNL A   1      32.821  25.396  23.276  1.00  0.00     0.362 C 
BRANCH  11  12
ATOM     12  C   UNL A   1      33.031  26.915  23.285  1.00  0.00     0.275 C 
ATOM     13  N   UNL A   1      32.018  27.734  22.877  1.00  0.00    -0.348 N 
ATOM     14  H   UNL A   1      32.226  28.695  22.848  1.00  0.00     0.163 HD
ATOM     15  O   UNL A   1      34.089  27.416  23.671  1.00  0.00    -0.268 OA
BRANCH  13  16
ATOM     16  C   UNL A   1      30.677  27.366  22.484  1.00  0.00     0.143 C 
BRANCH  16  17
ATOM     17  C   UNL A   1      29.744  28.360  23.098  1.00  0.00    -0.014 C 
ATOM     18  C   UNL A   1      30.131  29.470  23.740  1.00  0.00     0.006 C 
ENDBRANCH  16  17
ENDBRANCH  13  16
ENDBRANCH  11  12
ENDBRANCH   8  11
ENDBRANCH   6   8
BRANCH   6  19
ATOM     19  C   UNL A   1      32.404  22.376  25.003  1.00  0.00     0.453 C 
ATOM     20  F   UNL A   1      32.920  22.006  23.808  1.00  0.00    -0.164 F 
ATOM     21  F   UNL A   1      33.411  22.231  25.911  1.00  0.00    -0.164 F 
ATOM     22  F   UNL A   1      31.459  21.473  25.350  1.00  0.00    -0.164 F 
ENDBRANCH   6  19
ENDBRANCH   3   6
ENDBRANCH   1   2
BRANCH   1  23
ATOM     23  C   UNL A   1      32.249  27.527  26.941  1.00  0.00     0.023 C 
BRANCH  23  24
ATOM     24  C   UNL A   1      32.024  29.039  26.899  1.00  0.00     0.023 C 
BRANCH  24  25
ATOM     25  C   UNL A   1      33.242  29.869  26.507  1.00  0.00     0.116 C 
BRANCH  25  26
ATOM     26  N   UNL A   1      33.170  31.246  26.967  1.00  0.00    -0.352 N 
ATOM     27  C   UNL A   1      34.041  31.929  27.782  1.00  0.00     0.251 C 
ATOM     28  H   UNL A   1      32.391  31.760  26.652  1.00  0.00     0.163 HD
ATOM     29  O   UNL A   1      33.757  33.058  28.173  1.00  0.00    -0.269 OA
BRANCH  27  30
ATOM     30  C   UNL A   1      35.295  31.274  28.214  1.00  0.00     0.039 A 
ATOM     31  C   UNL A   1      36.493  31.989  28.136  1.00  0.00     0.014 A 
ATOM     32  C   UNL A   1      35.277  29.978  28.734  1.00  0.00     0.014 A 
ATOM     33  C   UNL A   1      37.663  31.429  28.653  1.00  0.00     0.010 A 
ATOM     34  C   UNL A   1      36.428  29.453  29.314  1.00  0.00     0.010 A 
ATOM     35  C   UNL A   1      37.632  30.174  29.282  1.00  0.00    -0.014 A 
BRANCH  35  36
ATOM     36  C   UNL A   1      38.846  29.594  29.912  1.00  0.00     0.031 A 
ATOM     37  C   UNL A   1      39.299  30.082  31.260  1.00  0.00     0.074 A 
ATOM     38  C   UNL A   1      39.577  28.685  29.241  1.00  0.00     0.049 A 
ATOM     39  N   UNL A   1      40.370  29.763  31.941  1.00  0.00    -0.248 NA
ATOM     40  C   UNL A   1      38.449  31.089  31.908  1.00  0.00     0.031 C 
ATOM     41  C   UNL A   1      39.265  28.164  27.908  1.00  0.00     0.029 A 
ATOM     42  N   UNL A   1      40.740  28.042  29.582  1.00  0.00    -0.354 N 
ATOM     43  C   UNL A   1      40.329  30.541  33.093  1.00  0.00     0.074 A 
ATOM     44  C   UNL A   1      39.168  31.398  32.976  1.00  0.00     0.031 C 
ATOM     45  C   UNL A   1      40.193  27.259  27.560  1.00  0.00     0.029 A 
ATOM     46  C   UNL A   1      41.191  27.166  28.622  1.00  0.00     0.049 A 
ATOM     47  H   UNL A   1      41.209  28.193  30.435  1.00  0.00     0.167 HD
ATOM     48  C   UNL A   1      41.166  30.524  34.163  1.00  0.00     0.034 A 
ATOM     49  C   UNL A   1      42.285  26.383  28.598  1.00  0.00     0.034 A 
ATOM     50  C   UNL A   1      42.317  29.659  34.263  1.00  0.00     0.049 A 
ATOM     51  C   UNL A   1      43.223  26.402  29.776  1.00  0.00     0.074 A 
ATOM     52  C   UNL A   1      43.205  29.518  35.315  1.00  0.00     0.029 A 
ATOM     53  N   UNL A   1      42.750  28.794  33.264  1.00  0.00    -0.354 N 
ATOM     54  N   UNL A   1      43.148  27.108  30.881  1.00  0.00    -0.248 NA
ATOM     55  C   UNL A   1      44.388  25.512  29.707  1.00  0.00     0.031 C 
ATOM     56  C   UNL A   1      44.206  28.619  34.930  1.00  0.00     0.029 A 
ATOM     57  C   UNL A   1      43.907  28.141  33.664  1.00  0.00     0.049 A 
ATOM     58  H   UNL A   1      42.301  28.664  32.397  1.00  0.00     0.167 HD
ATOM     59  C   UNL A   1      44.242  26.724  31.651  1.00  0.00     0.074 A 
ATOM     60  C   UNL A   1      44.954  25.718  30.887  1.00  0.00     0.031 C 
ATOM     61  C   UNL A   1      44.619  27.155  32.882  1.00  0.00     0.034 A 
BRANCH  48  62
ATOM     62  C   UNL A   1      40.863  31.492  35.284  1.00  0.00     0.023 A 
ATOM     63  C   UNL A   1      39.698  31.373  36.063  1.00  0.00     0.031 A 
ATOM     64  C   UNL A   1      41.707  32.589  35.530  1.00  0.00     0.131 A 
ATOM     65  C   UNL A   1      39.352  32.388  36.967  1.00  0.00     0.055 A 
ATOM     66  C   UNL A   1      41.404  33.546  36.503  1.00  0.00     0.041 A 
ATOM     67  F   UNL A   1      42.824  32.770  34.809  1.00  0.00    -0.206 F 
ATOM     68  C   UNL A   1      40.208  33.462  37.211  1.00  0.00     0.022 A 
BRANCH  65  69
ATOM     69  S   UNL A   1      37.677  32.381  37.668  1.00  0.00     0.124 S 
ATOM     70  O   UNL A   1      36.902  32.982  36.585  1.00  0.00    -0.237 OA
ATOM     71  O   UNL A   1      37.444  30.963  37.911  1.00  0.00    -0.237 OA
ATOM     72  O   UNL A   1      37.804  33.209  38.866  1.00  0.00    -0.744 OA
ENDBRANCH  65  69
ENDBRANCH  48  62
BRANCH  49  73
ATOM     73  C   UNL A   1      42.553  25.504  27.426  1.00  0.00     0.023 A 
ATOM     74  C   UNL A   1      42.103  24.175  27.408  1.00  0.00     0.031 A 
ATOM     75  C   UNL A   1      43.270  25.976  26.313  1.00  0.00     0.131 A 
ATOM     76  C   UNL A   1      42.403  23.351  26.313  1.00  0.00     0.055 A 
ATOM     77  C   UNL A   1      43.531  25.165  25.208  1.00  0.00     0.041 A 
ATOM     78  F   UNL A   1      43.712  27.244  26.277  1.00  0.00    -0.206 F 
ATOM     79  C   UNL A   1      43.104  23.839  25.208  1.00  0.00     0.022 A 
BRANCH  76  80
ATOM     80  S   UNL A   1      41.904  21.609  26.375  1.00  0.00     0.124 S 
ATOM     81  O   UNL A   1      40.480  21.697  26.070  1.00  0.00    -0.237 OA
ATOM     82  O   UNL A   1      42.746  21.014  25.343  1.00  0.00    -0.237 OA
ATOM     83  O   UNL A   1      42.226  21.211  27.743  1.00  0.00    -0.744 OA
ENDBRANCH  76  80
ENDBRANCH  49  73
BRANCH  61  84
ATOM     84  C   UNL A   1      45.837  26.504  33.490  1.00  0.00     0.023 A 
ATOM     85  C   UNL A   1      45.754  25.293  34.200  1.00  0.00     0.031 A 
ATOM     86  C   UNL A   1      47.097  27.117  33.372  1.00  0.00     0.131 A 
ATOM     87  C   UNL A   1      46.901  24.761  34.808  1.00  0.00     0.055 A 
ATOM     88  C   UNL A   1      48.245  26.554  33.931  1.00  0.00     0.041 A 
ATOM     89  F   UNL A   1      47.232  28.277  32.708  1.00  0.00    -0.206 F 
ATOM     90  C   UNL A   1      48.148  25.375  34.665  1.00  0.00     0.022 A 
BRANCH  87  91
ATOM     91  S   UNL A   1      46.727  23.298  35.868  1.00  0.00     0.124 S 
ATOM     92  O   UNL A   1      47.881  23.425  36.752  1.00  0.00    -0.237 OA
ATOM     93  O   UNL A   1      45.424  23.514  36.487  1.00  0.00    -0.237 OA
ATOM     94  O   UNL A   1      46.788  22.182  34.925  1.00  0.00    -0.744 OA
ENDBRANCH  87  91
ENDBRANCH  61  84
ENDBRANCH  35  36
ENDBRANCH  27  30
ENDBRANCH  25  26
ENDBRANCH  24  25
ENDBRANCH  23  24
ENDBRANCH   1  23
TORSDOF 20
ENDMDL
