MODEL 1
REMARK VINA RESULT:     -12.9      0.000      0.000
REMARK SMILES Cc1ccc2c(c1)c(-c1ccnc3c(C)cccc13)c(C)n2CC(=O)NCCCCNC(=O)c1ccc(-c2c3nc(c(-c4cc(S(=O)(=O)[O-])ccc4F)c4ccc([nH]4)c(-c4cc(S(=O)(=O)[O-])ccc4F)c4nc(c(-c5cc(S(=O)(=O)[O-])ccc5F)c5ccc2[nH]5)C=C4)C=C3)cc1
REMARK SMILES IDX 29 1 28 2 27 3 26 4 24 5 25 6 23 8 22 9 1 10 2 11 3 12 7 13
REMARK SMILES IDX 4 14 6 15 5 16 8 17 20 18 21 19 9 20 10 21 19 22 11 23 13 24
REMARK SMILES IDX 18 25 12 26 14 27 17 28 15 29 16 30 30 31 31 32 32 33 33 35
REMARK SMILES IDX 34 36 35 37 96 38 36 39 95 40 37 41 38 42 39 43 89 44 40 45
REMARK SMILES IDX 94 46 88 47 90 48 41 49 93 50 87 51 86 52 42 54 74 55 54 56
REMARK SMILES IDX 73 57 55 58 58 59 72 60 91 61 56 62 57 63 71 65 92 66 59 67
REMARK SMILES IDX 43 68 44 69 52 70 45 71 51 72 53 73 50 74 46 75 47 76 48 77
REMARK SMILES IDX 49 78 75 79 76 80 84 81 77 82 83 83 85 84 82 85 78 86 79 87
REMARK SMILES IDX 80 88 81 89 60 90 61 91 69 92 62 93 68 94 70 95 67 96 63 97
REMARK SMILES IDX 64 98 65 99 66 100
REMARK H PARENT 26 7 31 34 90 53 58 64
REMARK Flexibility Score: inf
ROOT
ATOM      1  C   UNL A   1      33.136  29.042  27.328  1.00  0.00     0.023 C 
ENDROOT
BRANCH   1   2
ATOM      2  C   UNL A   1      31.729  28.951  26.721  1.00  0.00     0.023 C 
BRANCH   2   3
ATOM      3  C   UNL A   1      31.591  27.923  25.601  1.00  0.00     0.116 C 
BRANCH   3   4
ATOM      4  N   UNL A   1      30.982  26.688  26.055  1.00  0.00    -0.355 N 
ATOM      5  C   UNL A   1      31.586  25.536  26.468  1.00  0.00     0.239 C 
ATOM      6  O   UNL A   1      30.868  24.620  26.876  1.00  0.00    -0.273 OA
ATOM      7  H   UNL A   1      29.998  26.679  26.067  1.00  0.00     0.163 HD
BRANCH   5   8
ATOM      8  C   UNL A   1      33.099  25.420  26.501  1.00  0.00     0.222 C 
BRANCH   8   9
ATOM      9  N   UNL A   1      33.631  24.413  25.587  1.00  0.00    -0.335 N 
ATOM     10  C   UNL A   1      33.146  23.654  20.003  1.00  0.00     0.044 C 
ATOM     11  C   UNL A   1      33.279  23.942  21.469  1.00  0.00    -0.050 A 
ATOM     12  C   UNL A   1      32.875  25.172  21.987  1.00  0.00     0.005 A 
ATOM     13  C   UNL A   1      33.850  22.987  22.324  1.00  0.00     0.014 A 
ATOM     14  C   UNL A   1      32.992  25.459  23.351  1.00  0.00     0.027 A 
ATOM     15  C   UNL A   1      33.963  23.245  23.708  1.00  0.00     0.008 A 
ATOM     16  C   UNL A   1      33.510  24.468  24.206  1.00  0.00     0.049 A 
ATOM     17  C   UNL A   1      34.456  22.495  24.816  1.00  0.00     0.011 A 
ATOM     18  C   UNL A   1      34.298  23.262  25.962  1.00  0.00     0.024 A 
ATOM     19  C   UNL A   1      34.682  22.940  27.370  1.00  0.00     0.065 C 
BRANCH  17  20
ATOM     20  C   UNL A   1      35.046  21.161  24.815  1.00  0.00    -0.005 A 
ATOM     21  C   UNL A   1      36.423  21.068  24.996  1.00  0.00     0.029 A 
ATOM     22  C   UNL A   1      34.271  19.988  24.623  1.00  0.00     0.008 A 
ATOM     23  C   UNL A   1      36.986  19.813  25.001  1.00  0.00     0.112 A 
ATOM     24  C   UNL A   1      34.947  18.745  24.647  1.00  0.00     0.074 A 
ATOM     25  C   UNL A   1      32.873  20.005  24.402  1.00  0.00     0.011 A 
ATOM     26  N   UNL A   1      36.282  18.676  24.843  1.00  0.00    -0.256 NA
ATOM     27  C   UNL A   1      34.198  17.572  24.459  1.00  0.00    -0.025 A 
ATOM     28  C   UNL A   1      32.149  18.836  24.204  1.00  0.00     0.001 A 
ATOM     29  C   UNL A   1      34.841  16.209  24.481  1.00  0.00     0.047 C 
ATOM     30  C   UNL A   1      32.811  17.622  24.233  1.00  0.00     0.005 A 
ENDBRANCH  17  20
ENDBRANCH   8   9
ENDBRANCH   5   8
ENDBRANCH   3   4
ENDBRANCH   2   3
ENDBRANCH   1   2
BRANCH   1  31
ATOM     31  C   UNL A   1      33.886  30.319  26.945  1.00  0.00     0.116 C 
BRANCH  31  32
ATOM     32  N   UNL A   1      34.119  31.204  28.067  1.00  0.00    -0.352 N 
ATOM     33  C   UNL A   1      35.216  31.568  28.795  1.00  0.00     0.251 C 
ATOM     34  H   UNL A   1      33.296  31.647  28.376  1.00  0.00     0.163 HD
ATOM     35  O   UNL A   1      35.034  32.458  29.630  1.00  0.00    -0.269 OA
BRANCH  33  36
ATOM     36  C   UNL A   1      36.550  30.918  28.703  1.00  0.00     0.039 A 
ATOM     37  C   UNL A   1      36.804  29.679  28.118  1.00  0.00     0.014 A 
ATOM     38  C   UNL A   1      37.607  31.594  29.343  1.00  0.00     0.014 A 
ATOM     39  C   UNL A   1      38.031  29.060  28.290  1.00  0.00     0.010 A 
ATOM     40  C   UNL A   1      38.847  30.992  29.494  1.00  0.00     0.010 A 
ATOM     41  C   UNL A   1      39.027  29.695  29.030  1.00  0.00    -0.014 A 
BRANCH  41  42
ATOM     42  C   UNL A   1      40.265  28.959  29.242  1.00  0.00     0.031 A 
ATOM     43  C   UNL A   1      40.539  28.605  30.665  1.00  0.00     0.074 A 
ATOM     44  C   UNL A   1      41.043  28.565  28.217  1.00  0.00     0.049 A 
ATOM     45  N   UNL A   1      41.526  28.971  31.418  1.00  0.00    -0.248 NA
ATOM     46  C   UNL A   1      39.482  27.873  31.380  1.00  0.00     0.031 C 
ATOM     47  C   UNL A   1      40.728  28.598  26.784  1.00  0.00     0.029 A 
ATOM     48  N   UNL A   1      42.244  27.932  28.246  1.00  0.00    -0.354 N 
ATOM     49  C   UNL A   1      41.319  28.344  32.649  1.00  0.00     0.074 A 
ATOM     50  C   UNL A   1      39.970  27.840  32.619  1.00  0.00     0.031 C 
ATOM     51  C   UNL A   1      41.576  27.777  26.125  1.00  0.00     0.029 A 
ATOM     52  C   UNL A   1      42.577  27.294  27.060  1.00  0.00     0.049 A 
ATOM     53  H   UNL A   1      42.828  27.927  29.039  1.00  0.00     0.167 HD
ATOM     54  C   UNL A   1      42.338  28.095  33.520  1.00  0.00     0.034 A 
ATOM     55  C   UNL A   1      43.536  26.350  26.893  1.00  0.00     0.034 A 
ATOM     56  C   UNL A   1      43.493  28.896  33.218  1.00  0.00     0.049 A 
ATOM     57  C   UNL A   1      44.453  26.416  28.057  1.00  0.00     0.074 A 
ATOM     58  C   UNL A   1      43.769  30.246  33.223  1.00  0.00     0.029 A 
ATOM     59  N   UNL A   1      44.505  28.306  32.502  1.00  0.00    -0.354 N 
ATOM     60  N   UNL A   1      45.263  27.411  28.293  1.00  0.00    -0.248 NA
ATOM     61  C   UNL A   1      44.138  25.578  29.204  1.00  0.00     0.031 C 
ATOM     62  C   UNL A   1      44.654  30.445  32.126  1.00  0.00     0.029 A 
ATOM     63  C   UNL A   1      44.911  29.199  31.548  1.00  0.00     0.049 A 
ATOM     64  H   UNL A   1      44.872  27.404  32.649  1.00  0.00     0.167 HD
ATOM     65  C   UNL A   1      45.195  27.593  29.667  1.00  0.00     0.074 A 
ATOM     66  C   UNL A   1      44.564  26.379  30.182  1.00  0.00     0.031 C 
ATOM     67  C   UNL A   1      45.388  28.822  30.232  1.00  0.00     0.034 A 
BRANCH  54  68
ATOM     68  C   UNL A   1      42.407  26.870  34.408  1.00  0.00     0.023 A 
ATOM     69  C   UNL A   1      43.171  25.733  34.086  1.00  0.00     0.031 A 
ATOM     70  C   UNL A   1      41.902  26.910  35.725  1.00  0.00     0.131 A 
ATOM     71  C   UNL A   1      43.419  24.718  35.019  1.00  0.00     0.055 A 
ATOM     72  C   UNL A   1      42.204  25.929  36.679  1.00  0.00     0.041 A 
ATOM     73  F   UNL A   1      41.154  27.941  36.149  1.00  0.00    -0.206 F 
ATOM     74  C   UNL A   1      42.973  24.826  36.329  1.00  0.00     0.022 A 
BRANCH  71  75
ATOM     75  S   UNL A   1      44.357  23.243  34.532  1.00  0.00     0.124 S 
ATOM     76  O   UNL A   1      44.526  22.561  35.810  1.00  0.00    -0.237 OA
ATOM     77  O   UNL A   1      43.440  22.608  33.590  1.00  0.00    -0.237 OA
ATOM     78  O   UNL A   1      45.571  23.792  33.935  1.00  0.00    -0.744 OA
ENDBRANCH  71  75
ENDBRANCH  54  68
BRANCH  55  79
ATOM     79  C   UNL A   1      43.369  25.100  26.111  1.00  0.00     0.023 A 
ATOM     80  C   UNL A   1      42.419  24.145  26.522  1.00  0.00     0.031 A 
ATOM     81  C   UNL A   1      44.328  24.695  25.169  1.00  0.00     0.131 A 
ATOM     82  C   UNL A   1      42.472  22.831  26.037  1.00  0.00     0.055 A 
ATOM     83  C   UNL A   1      44.368  23.386  24.672  1.00  0.00     0.041 A 
ATOM     84  F   UNL A   1      45.286  25.544  24.765  1.00  0.00    -0.206 F 
ATOM     85  C   UNL A   1      43.444  22.443  25.117  1.00  0.00     0.022 A 
BRANCH  82  86
ATOM     86  S   UNL A   1      41.321  21.581  26.673  1.00  0.00     0.124 S 
ATOM     87  O   UNL A   1      40.122  21.833  25.869  1.00  0.00    -0.237 OA
ATOM     88  O   UNL A   1      42.032  20.341  26.361  1.00  0.00    -0.237 OA
ATOM     89  O   UNL A   1      41.198  21.908  28.082  1.00  0.00    -0.744 OA
ENDBRANCH  82  86
ENDBRANCH  55  79
BRANCH  67  90
ATOM     90  C   UNL A   1      45.898  29.955  29.368  1.00  0.00     0.023 A 
ATOM     91  C   UNL A   1      44.961  30.606  28.549  1.00  0.00     0.031 A 
ATOM     92  C   UNL A   1      47.260  30.234  29.146  1.00  0.00     0.131 A 
ATOM     93  C   UNL A   1      45.388  31.453  27.521  1.00  0.00     0.055 A 
ATOM     94  C   UNL A   1      47.681  31.140  28.165  1.00  0.00     0.041 A 
ATOM     95  F   UNL A   1      48.226  29.576  29.798  1.00  0.00    -0.206 F 
ATOM     96  C   UNL A   1      46.743  31.740  27.333  1.00  0.00     0.022 A 
BRANCH  93  97
ATOM     97  S   UNL A   1      44.206  32.058  26.291  1.00  0.00     0.124 S 
ATOM     98  O   UNL A   1      45.068  32.348  25.150  1.00  0.00    -0.237 OA
ATOM     99  O   UNL A   1      43.315  30.911  26.130  1.00  0.00    -0.237 OA
ATOM    100  O   UNL A   1      43.598  33.224  26.928  1.00  0.00    -0.744 OA
ENDBRANCH  93  97
ENDBRANCH  67  90
ENDBRANCH  41  42
ENDBRANCH  33  36
ENDBRANCH  31  32
ENDBRANCH   1  31
TORSDOF 16
ENDMDL
MODEL 2
REMARK VINA RESULT:     -12.7      1.623      2.111
REMARK SMILES Cc1ccc2c(c1)c(-c1ccnc3c(C)cccc13)c(C)n2CC(=O)NCCCCNC(=O)c1ccc(-c2c3nc(c(-c4cc(S(=O)(=O)[O-])ccc4F)c4ccc([nH]4)c(-c4cc(S(=O)(=O)[O-])ccc4F)c4nc(c(-c5cc(S(=O)(=O)[O-])ccc5F)c5ccc2[nH]5)C=C4)C=C3)cc1
REMARK SMILES IDX 29 1 28 2 27 3 26 4 24 5 25 6 23 8 22 9 1 10 2 11 3 12 7 13
REMARK SMILES IDX 4 14 6 15 5 16 8 17 20 18 21 19 9 20 10 21 19 22 11 23 13 24
REMARK SMILES IDX 18 25 12 26 14 27 17 28 15 29 16 30 30 31 31 32 32 33 33 35
REMARK SMILES IDX 34 36 35 37 96 38 36 39 95 40 37 41 38 42 39 43 89 44 40 45
REMARK SMILES IDX 94 46 88 47 90 48 41 49 93 50 87 51 86 52 42 54 74 55 54 56
REMARK SMILES IDX 73 57 55 58 58 59 72 60 91 61 56 62 57 63 71 65 92 66 59 67
REMARK SMILES IDX 43 68 44 69 52 70 45 71 51 72 53 73 50 74 46 75 47 76 48 77
REMARK SMILES IDX 49 78 75 79 76 80 84 81 77 82 83 83 85 84 82 85 78 86 79 87
REMARK SMILES IDX 80 88 81 89 60 90 61 91 69 92 62 93 68 94 70 95 67 96 63 97
REMARK SMILES IDX 64 98 65 99 66 100
REMARK H PARENT 26 7 31 34 90 53 58 64
REMARK Flexibility Score: inf
ROOT
ATOM      1  C   UNL A   1      33.113  30.474  27.359  1.00  0.00     0.023 C 
ENDROOT
BRANCH   1   2
ATOM      2  C   UNL A   1      32.044  30.593  26.264  1.00  0.00     0.023 C 
BRANCH   2   3
ATOM      3  C   UNL A   1      31.924  29.366  25.364  1.00  0.00     0.116 C 
BRANCH   3   4
ATOM      4  N   UNL A   1      31.152  28.304  25.977  1.00  0.00    -0.355 N 
ATOM      5  C   UNL A   1      31.562  27.060  26.365  1.00  0.00     0.239 C 
ATOM      6  O   UNL A   1      30.743  26.331  26.930  1.00  0.00    -0.273 OA
ATOM      7  H   UNL A   1      30.202  28.507  26.136  1.00  0.00     0.163 HD
BRANCH   5   8
ATOM      8  C   UNL A   1      33.003  26.624  26.179  1.00  0.00     0.222 C 
BRANCH   8   9
ATOM      9  N   UNL A   1      33.164  25.501  25.260  1.00  0.00    -0.335 N 
ATOM     10  C   UNL A   1      32.725  25.043  19.639  1.00  0.00     0.044 C 
ATOM     11  C   UNL A   1      32.878  25.244  21.118  1.00  0.00    -0.050 A 
ATOM     12  C   UNL A   1      32.942  26.529  21.654  1.00  0.00     0.005 A 
ATOM     13  C   UNL A   1      32.999  24.134  21.969  1.00  0.00     0.014 A 
ATOM     14  C   UNL A   1      33.086  26.735  23.030  1.00  0.00     0.027 A 
ATOM     15  C   UNL A   1      33.128  24.315  23.364  1.00  0.00     0.008 A 
ATOM     16  C   UNL A   1      33.146  25.612  23.877  1.00  0.00     0.049 A 
ATOM     17  C   UNL A   1      33.242  23.422  24.469  1.00  0.00     0.011 A 
ATOM     18  C   UNL A   1      33.325  24.178  25.629  1.00  0.00     0.024 A 
ATOM     19  C   UNL A   1      33.484  23.720  27.043  1.00  0.00     0.065 C 
BRANCH  17  20
ATOM     20  C   UNL A   1      33.284  21.964  24.455  1.00  0.00    -0.005 A 
ATOM     21  C   UNL A   1      32.072  21.289  24.329  1.00  0.00     0.029 A 
ATOM     22  C   UNL A   1      34.496  21.237  24.580  1.00  0.00     0.008 A 
ATOM     23  C   UNL A   1      32.104  19.914  24.310  1.00  0.00     0.112 A 
ATOM     24  C   UNL A   1      34.420  19.824  24.548  1.00  0.00     0.074 A 
ATOM     25  C   UNL A   1      35.761  21.852  24.743  1.00  0.00     0.011 A 
ATOM     26  N   UNL A   1      33.236  19.189  24.406  1.00  0.00    -0.256 NA
ATOM     27  C   UNL A   1      35.608  19.087  24.670  1.00  0.00    -0.025 A 
ATOM     28  C   UNL A   1      36.925  21.108  24.878  1.00  0.00     0.001 A 
ATOM     29  C   UNL A   1      35.613  17.580  24.635  1.00  0.00     0.047 C 
ATOM     30  C   UNL A   1      36.848  19.727  24.840  1.00  0.00     0.005 A 
ENDBRANCH  17  20
ENDBRANCH   8   9
ENDBRANCH   5   8
ENDBRANCH   3   4
ENDBRANCH   2   3
ENDBRANCH   1   2
BRANCH   1  31
ATOM     31  C   UNL A   1      33.951  31.741  27.538  1.00  0.00     0.116 C 
BRANCH  31  32
ATOM     32  N   UNL A   1      34.140  32.111  28.925  1.00  0.00    -0.352 N 
ATOM     33  C   UNL A   1      35.174  32.018  29.814  1.00  0.00     0.251 C 
ATOM     34  H   UNL A   1      33.339  32.526  29.319  1.00  0.00     0.163 HD
ATOM     35  O   UNL A   1      34.990  32.558  30.908  1.00  0.00    -0.269 OA
BRANCH  33  36
ATOM     36  C   UNL A   1      36.430  31.258  29.580  1.00  0.00     0.039 A 
ATOM     37  C   UNL A   1      36.506  29.899  29.280  1.00  0.00     0.014 A 
ATOM     38  C   UNL A   1      37.626  31.977  29.767  1.00  0.00     0.014 A 
ATOM     39  C   UNL A   1      37.724  29.240  29.311  1.00  0.00     0.010 A 
ATOM     40  C   UNL A   1      38.852  31.329  29.771  1.00  0.00     0.010 A 
ATOM     41  C   UNL A   1      38.884  29.949  29.617  1.00  0.00    -0.014 A 
BRANCH  41  42
ATOM     42  C   UNL A   1      40.120  29.185  29.712  1.00  0.00     0.031 A 
ATOM     43  C   UNL A   1      40.511  28.812  31.102  1.00  0.00     0.074 A 
ATOM     44  C   UNL A   1      40.795  28.785  28.618  1.00  0.00     0.049 A 
ATOM     45  N   UNL A   1      41.569  29.149  31.767  1.00  0.00    -0.248 NA
ATOM     46  C   UNL A   1      39.506  28.094  31.902  1.00  0.00     0.031 C 
ATOM     47  C   UNL A   1      40.355  28.839  27.220  1.00  0.00     0.029 A 
ATOM     48  N   UNL A   1      41.981  28.127  28.536  1.00  0.00    -0.354 N 
ATOM     49  C   UNL A   1      41.457  28.515  33.007  1.00  0.00     0.074 A 
ATOM     50  C   UNL A   1      40.101  28.039  33.093  1.00  0.00     0.031 C 
ATOM     51  C   UNL A   1      41.124  28.008  26.481  1.00  0.00     0.029 A 
ATOM     52  C   UNL A   1      42.193  27.495  27.320  1.00  0.00     0.049 A 
ATOM     53  H   UNL A   1      42.632  28.102  29.274  1.00  0.00     0.167 HD
ATOM     54  C   UNL A   1      42.545  28.235  33.782  1.00  0.00     0.034 A 
ATOM     55  C   UNL A   1      43.113  26.533  27.060  1.00  0.00     0.034 A 
ATOM     56  C   UNL A   1      43.685  29.016  33.385  1.00  0.00     0.049 A 
ATOM     57  C   UNL A   1      44.131  26.569  28.139  1.00  0.00     0.074 A 
ATOM     58  C   UNL A   1      43.990  30.360  33.376  1.00  0.00     0.029 A 
ATOM     59  N   UNL A   1      44.617  28.412  32.578  1.00  0.00    -0.354 N 
ATOM     60  N   UNL A   1      44.979  27.544  28.311  1.00  0.00    -0.248 NA
ATOM     61  C   UNL A   1      43.901  25.726  29.303  1.00  0.00     0.031 C 
ATOM     62  C   UNL A   1      44.778  30.551  32.207  1.00  0.00     0.029 A 
ATOM     63  C   UNL A   1      44.956  29.306  31.598  1.00  0.00     0.049 A 
ATOM     64  H   UNL A   1      44.976  27.502  32.684  1.00  0.00     0.167 HD
ATOM     65  C   UNL A   1      45.037  27.714  29.687  1.00  0.00     0.074 A 
ATOM     66  C   UNL A   1      44.429  26.508  30.246  1.00  0.00     0.031 C 
ATOM     67  C   UNL A   1      45.306  28.933  30.242  1.00  0.00     0.034 A 
BRANCH  54  68
ATOM     68  C   UNL A   1      42.665  27.001  34.650  1.00  0.00     0.023 A 
ATOM     69  C   UNL A   1      43.407  25.867  34.270  1.00  0.00     0.031 A 
ATOM     70  C   UNL A   1      42.241  27.027  35.995  1.00  0.00     0.131 A 
ATOM     71  C   UNL A   1      43.711  24.841  35.175  1.00  0.00     0.055 A 
ATOM     72  C   UNL A   1      42.599  26.034  36.919  1.00  0.00     0.041 A 
ATOM     73  F   UNL A   1      41.522  28.053  36.476  1.00  0.00    -0.206 F 
ATOM     74  C   UNL A   1      43.344  24.935  36.511  1.00  0.00     0.022 A 
BRANCH  71  75
ATOM     75  S   UNL A   1      44.615  23.372  34.616  1.00  0.00     0.124 S 
ATOM     76  O   UNL A   1      44.942  22.723  35.880  1.00  0.00    -0.237 OA
ATOM     77  O   UNL A   1      43.608  22.698  33.799  1.00  0.00    -0.237 OA
ATOM     78  O   UNL A   1      45.742  23.927  33.871  1.00  0.00    -0.744 OA
ENDBRANCH  71  75
ENDBRANCH  54  68
BRANCH  55  79
ATOM     79  C   UNL A   1      42.851  25.295  26.287  1.00  0.00     0.023 A 
ATOM     80  C   UNL A   1      41.862  24.395  26.729  1.00  0.00     0.031 A 
ATOM     81  C   UNL A   1      43.755  24.836  25.316  1.00  0.00     0.131 A 
ATOM     82  C   UNL A   1      41.824  23.081  26.245  1.00  0.00     0.055 A 
ATOM     83  C   UNL A   1      43.705  23.526  24.820  1.00  0.00     0.041 A 
ATOM     84  F   UNL A   1      44.748  25.628  24.881  1.00  0.00    -0.206 F 
ATOM     85  C   UNL A   1      42.744  22.637  25.296  1.00  0.00     0.022 A 
BRANCH  82  86
ATOM     86  S   UNL A   1      40.624  21.899  26.918  1.00  0.00     0.124 S 
ATOM     87  O   UNL A   1      41.007  21.846  28.331  1.00  0.00    -0.237 OA
ATOM     88  O   UNL A   1      39.357  22.576  26.641  1.00  0.00    -0.237 OA
ATOM     89  O   UNL A   1      40.874  20.684  26.165  1.00  0.00    -0.744 OA
ENDBRANCH  82  86
ENDBRANCH  55  79
BRANCH  67  90
ATOM     90  C   UNL A   1      45.762  30.063  29.346  1.00  0.00     0.023 A 
ATOM     91  C   UNL A   1      47.139  30.334  29.308  1.00  0.00     0.031 A 
ATOM     92  C   UNL A   1      44.898  31.005  28.752  1.00  0.00     0.131 A 
ATOM     93  C   UNL A   1      47.612  31.525  28.745  1.00  0.00     0.055 A 
ATOM     94  C   UNL A   1      45.380  32.159  28.124  1.00  0.00     0.041 A 
ATOM     95  F   UNL A   1      43.568  30.890  28.841  1.00  0.00    -0.206 F 
ATOM     96  C   UNL A   1      46.742  32.433  28.136  1.00  0.00     0.022 A 
BRANCH  93  97
ATOM     97  S   UNL A   1      49.344  32.004  28.954  1.00  0.00     0.124 S 
ATOM     98  O   UNL A   1      49.647  31.495  30.288  1.00  0.00    -0.237 OA
ATOM     99  O   UNL A   1      49.995  31.299  27.851  1.00  0.00    -0.237 OA
ATOM    100  O   UNL A   1      49.326  33.459  28.829  1.00  0.00    -0.744 OA
ENDBRANCH  93  97
ENDBRANCH  67  90
ENDBRANCH  41  42
ENDBRANCH  33  36
ENDBRANCH  31  32
ENDBRANCH   1  31
TORSDOF 16
ENDMDL
MODEL 3
REMARK VINA RESULT:     -12.5      1.774      2.472
REMARK SMILES Cc1ccc2c(c1)c(-c1ccnc3c(C)cccc13)c(C)n2CC(=O)NCCCCNC(=O)c1ccc(-c2c3nc(c(-c4cc(S(=O)(=O)[O-])ccc4F)c4ccc([nH]4)c(-c4cc(S(=O)(=O)[O-])ccc4F)c4nc(c(-c5cc(S(=O)(=O)[O-])ccc5F)c5ccc2[nH]5)C=C4)C=C3)cc1
REMARK SMILES IDX 29 1 28 2 27 3 26 4 24 5 25 6 23 8 22 9 1 10 2 11 3 12 7 13
REMARK SMILES IDX 4 14 6 15 5 16 8 17 20 18 21 19 9 20 10 21 19 22 11 23 13 24
REMARK SMILES IDX 18 25 12 26 14 27 17 28 15 29 16 30 30 31 31 32 32 33 33 35
REMARK SMILES IDX 34 36 35 37 96 38 36 39 95 40 37 41 38 42 39 43 89 44 40 45
REMARK SMILES IDX 94 46 88 47 90 48 41 49 93 50 87 51 86 52 42 54 74 55 54 56
REMARK SMILES IDX 73 57 55 58 58 59 72 60 91 61 56 62 57 63 71 65 92 66 59 67
REMARK SMILES IDX 43 68 44 69 52 70 45 71 51 72 53 73 50 74 46 75 47 76 48 77
REMARK SMILES IDX 49 78 75 79 76 80 84 81 77 82 83 83 85 84 82 85 78 86 79 87
REMARK SMILES IDX 80 88 81 89 60 90 61 91 69 92 62 93 68 94 70 95 67 96 63 97
REMARK SMILES IDX 64 98 65 99 66 100
REMARK H PARENT 26 7 31 34 90 53 58 64
REMARK Flexibility Score: inf
ROOT
ATOM      1  C   UNL A   1      32.279  30.343  26.876  1.00  0.00     0.023 C 
ENDROOT
BRANCH   1   2
ATOM      2  C   UNL A   1      31.552  28.999  27.027  1.00  0.00     0.023 C 
BRANCH   2   3
ATOM      3  C   UNL A   1      31.546  28.141  25.765  1.00  0.00     0.116 C 
BRANCH   3   4
ATOM      4  N   UNL A   1      32.799  28.212  25.041  1.00  0.00    -0.355 N 
ATOM      5  C   UNL A   1      33.188  27.522  23.929  1.00  0.00     0.239 C 
ATOM      6  O   UNL A   1      34.287  27.789  23.437  1.00  0.00    -0.273 OA
ATOM      7  H   UNL A   1      33.462  28.846  25.401  1.00  0.00     0.163 HD
BRANCH   5   8
ATOM      8  C   UNL A   1      32.259  26.517  23.274  1.00  0.00     0.222 C 
BRANCH   8   9
ATOM      9  N   UNL A   1      32.297  25.193  23.888  1.00  0.00    -0.335 N 
ATOM     10  C   UNL A   1      29.075  22.673  27.794  1.00  0.00     0.044 C 
ATOM     11  C   UNL A   1      29.856  23.379  26.725  1.00  0.00    -0.050 A 
ATOM     12  C   UNL A   1      29.371  24.554  26.154  1.00  0.00     0.005 A 
ATOM     13  C   UNL A   1      31.065  22.835  26.264  1.00  0.00     0.014 A 
ATOM     14  C   UNL A   1      30.085  25.224  25.156  1.00  0.00     0.027 A 
ATOM     15  C   UNL A   1      31.815  23.502  25.270  1.00  0.00     0.008 A 
ATOM     16  C   UNL A   1      31.326  24.700  24.747  1.00  0.00     0.049 A 
ATOM     17  C   UNL A   1      33.057  23.235  24.624  1.00  0.00     0.011 A 
ATOM     18  C   UNL A   1      33.308  24.264  23.727  1.00  0.00     0.024 A 
ATOM     19  C   UNL A   1      34.460  24.437  22.791  1.00  0.00     0.065 C 
BRANCH  17  20
ATOM     20  C   UNL A   1      33.951  22.098  24.815  1.00  0.00    -0.005 A 
ATOM     21  C   UNL A   1      35.190  22.347  25.398  1.00  0.00     0.029 A 
ATOM     22  C   UNL A   1      33.602  20.782  24.413  1.00  0.00     0.008 A 
ATOM     23  C   UNL A   1      36.036  21.279  25.586  1.00  0.00     0.112 A 
ATOM     24  C   UNL A   1      34.544  19.753  24.652  1.00  0.00     0.074 A 
ATOM     25  C   UNL A   1      32.375  20.458  23.786  1.00  0.00     0.011 A 
ATOM     26  N   UNL A   1      35.734  20.013  25.237  1.00  0.00    -0.256 NA
ATOM     27  C   UNL A   1      34.218  18.444  24.263  1.00  0.00    -0.025 A 
ATOM     28  C   UNL A   1      32.074  19.160  23.393  1.00  0.00     0.001 A 
ATOM     29  C   UNL A   1      35.161  17.291  24.490  1.00  0.00     0.047 C 
ATOM     30  C   UNL A   1      32.995  18.155  23.632  1.00  0.00     0.005 A 
ENDBRANCH  17  20
ENDBRANCH   8   9
ENDBRANCH   5   8
ENDBRANCH   3   4
ENDBRANCH   2   3
ENDBRANCH   1   2
BRANCH   1  31
ATOM     31  C   UNL A   1      33.644  30.381  27.566  1.00  0.00     0.116 C 
BRANCH  31  32
ATOM     32  N   UNL A   1      34.229  31.705  27.604  1.00  0.00    -0.352 N 
ATOM     33  C   UNL A   1      35.478  32.200  27.853  1.00  0.00     0.251 C 
ATOM     34  H   UNL A   1      33.575  32.413  27.402  1.00  0.00     0.163 HD
ATOM     35  O   UNL A   1      35.618  33.413  27.678  1.00  0.00    -0.269 OA
BRANCH  33  36
ATOM     36  C   UNL A   1      36.615  31.405  28.386  1.00  0.00     0.039 A 
ATOM     37  C   UNL A   1      37.712  31.926  29.071  1.00  0.00     0.014 A 
ATOM     38  C   UNL A   1      36.598  30.030  28.083  1.00  0.00     0.014 A 
ATOM     39  C   UNL A   1      38.823  31.138  29.319  1.00  0.00     0.010 A 
ATOM     40  C   UNL A   1      37.696  29.228  28.354  1.00  0.00     0.010 A 
ATOM     41  C   UNL A   1      38.833  29.807  28.904  1.00  0.00    -0.014 A 
BRANCH  41  42
ATOM     42  C   UNL A   1      40.061  29.055  29.121  1.00  0.00     0.031 A 
ATOM     43  C   UNL A   1      40.380  28.792  30.554  1.00  0.00     0.074 A 
ATOM     44  C   UNL A   1      40.789  28.572  28.097  1.00  0.00     0.049 A 
ATOM     45  N   UNL A   1      41.404  29.182  31.243  1.00  0.00    -0.248 NA
ATOM     46  C   UNL A   1      39.334  28.138  31.356  1.00  0.00     0.031 C 
ATOM     47  C   UNL A   1      40.421  28.517  26.678  1.00  0.00     0.029 A 
ATOM     48  N   UNL A   1      41.976  27.912  28.126  1.00  0.00    -0.354 N 
ATOM     49  C   UNL A   1      41.229  28.646  32.521  1.00  0.00     0.074 A 
ATOM     50  C   UNL A   1      39.869  28.177  32.575  1.00  0.00     0.031 C 
ATOM     51  C   UNL A   1      41.223  27.631  26.046  1.00  0.00     0.029 A 
ATOM     52  C   UNL A   1      42.248  27.187  26.975  1.00  0.00     0.049 A 
ATOM     53  H   UNL A   1      42.589  27.946  28.896  1.00  0.00     0.167 HD
ATOM     54  C   UNL A   1      42.275  28.430  33.370  1.00  0.00     0.034 A 
ATOM     55  C   UNL A   1      43.177  26.208  26.839  1.00  0.00     0.034 A 
ATOM     56  C   UNL A   1      43.436  29.179  32.971  1.00  0.00     0.049 A 
ATOM     57  C   UNL A   1      44.140  26.330  27.961  1.00  0.00     0.074 A 
ATOM     58  C   UNL A   1      43.744  30.519  32.872  1.00  0.00     0.029 A 
ATOM     59  N   UNL A   1      44.406  28.516  32.261  1.00  0.00    -0.354 N 
ATOM     60  N   UNL A   1      44.981  27.317  28.099  1.00  0.00    -0.248 NA
ATOM     61  C   UNL A   1      43.849  25.580  29.175  1.00  0.00     0.031 C 
ATOM     62  C   UNL A   1      44.591  30.619  31.733  1.00  0.00     0.029 A 
ATOM     63  C   UNL A   1      44.796  29.331  31.233  1.00  0.00     0.049 A 
ATOM     64  H   UNL A   1      44.757  27.617  32.456  1.00  0.00     0.167 HD
ATOM     65  C   UNL A   1      44.970  27.594  29.459  1.00  0.00     0.074 A 
ATOM     66  C   UNL A   1      44.331  26.435  30.079  1.00  0.00     0.031 C 
ATOM     67  C   UNL A   1      45.213  28.853  29.930  1.00  0.00     0.034 A 
BRANCH  54  68
ATOM     68  C   UNL A   1      42.348  27.268  34.336  1.00  0.00     0.023 A 
ATOM     69  C   UNL A   1      43.087  26.099  34.074  1.00  0.00     0.031 A 
ATOM     70  C   UNL A   1      41.879  27.405  35.660  1.00  0.00     0.131 A 
ATOM     71  C   UNL A   1      43.345  25.145  35.067  1.00  0.00     0.055 A 
ATOM     72  C   UNL A   1      42.191  26.485  36.671  1.00  0.00     0.041 A 
ATOM     73  F   UNL A   1      41.157  28.474  36.032  1.00  0.00    -0.206 F 
ATOM     74  C   UNL A   1      42.934  25.349  36.378  1.00  0.00     0.022 A 
BRANCH  71  75
ATOM     75  S   UNL A   1      44.248  23.626  34.658  1.00  0.00     0.124 S 
ATOM     76  O   UNL A   1      43.317  22.958  33.756  1.00  0.00    -0.237 OA
ATOM     77  O   UNL A   1      45.459  24.160  34.038  1.00  0.00    -0.237 OA
ATOM     78  O   UNL A   1      44.451  22.989  35.956  1.00  0.00    -0.744 OA
ENDBRANCH  71  75
ENDBRANCH  54  68
BRANCH  55  79
ATOM     79  C   UNL A   1      42.952  24.913  26.152  1.00  0.00     0.023 A 
ATOM     80  C   UNL A   1      41.894  24.081  26.567  1.00  0.00     0.031 A 
ATOM     81  C   UNL A   1      43.931  24.347  25.321  1.00  0.00     0.131 A 
ATOM     82  C   UNL A   1      41.860  22.731  26.197  1.00  0.00     0.055 A 
ATOM     83  C   UNL A   1      43.886  23.001  24.937  1.00  0.00     0.041 A 
ATOM     84  F   UNL A   1      44.988  25.073  24.922  1.00  0.00    -0.206 F 
ATOM     85  C   UNL A   1      42.853  22.182  25.387  1.00  0.00     0.022 A 
BRANCH  82  86
ATOM     86  S   UNL A   1      40.560  21.643  26.844  1.00  0.00     0.124 S 
ATOM     87  O   UNL A   1      39.342  22.356  26.453  1.00  0.00    -0.237 OA
ATOM     88  O   UNL A   1      40.820  20.405  26.109  1.00  0.00    -0.237 OA
ATOM     89  O   UNL A   1      40.820  21.604  28.271  1.00  0.00    -0.744 OA
ENDBRANCH  82  86
ENDBRANCH  55  79
BRANCH  67  90
ATOM     90  C   UNL A   1      45.716  29.911  28.972  1.00  0.00     0.023 A 
ATOM     91  C   UNL A   1      47.089  30.202  29.005  1.00  0.00     0.031 A 
ATOM     92  C   UNL A   1      44.884  30.782  28.241  1.00  0.00     0.131 A 
ATOM     93  C   UNL A   1      47.585  31.349  28.375  1.00  0.00     0.055 A 
ATOM     94  C   UNL A   1      45.394  31.886  27.550  1.00  0.00     0.041 A 
ATOM     95  F   UNL A   1      43.553  30.650  28.248  1.00  0.00    -0.206 F 
ATOM     96  C   UNL A   1      46.749  32.186  27.631  1.00  0.00     0.022 A 
BRANCH  93  97
ATOM     97  S   UNL A   1      49.293  31.876  28.660  1.00  0.00     0.124 S 
ATOM     98  O   UNL A   1      49.643  31.148  29.875  1.00  0.00    -0.237 OA
ATOM     99  O   UNL A   1      49.963  31.423  27.442  1.00  0.00    -0.237 OA
ATOM    100  O   UNL A   1      49.196  33.326  28.806  1.00  0.00    -0.744 OA
ENDBRANCH  93  97
ENDBRANCH  67  90
ENDBRANCH  41  42
ENDBRANCH  33  36
ENDBRANCH  31  32
ENDBRANCH   1  31
TORSDOF 16
ENDMDL
