MODEL 1
REMARK VINA RESULT:     -11.9      0.000      0.000
REMARK SMILES CCN1C(=O)C[C@@H](C(=O)Nc2cccc(C(=O)NCCCCNC(=O)c3ccc(-c4c5nc(c(-c6cc(S(=O)(=O)[O-])ccc6F)c6ccc([nH]6)c(-c6cc(S(=O)(=O)[O-])ccc6F)c6nc(c(-c7cc(S(=O)(=O)[O-])ccc7F)c7ccc4[nH]7)C=C6)C=C5)cc3)c2)S/C1=[NH+]/c1ccccc1
REMARK SMILES IDX 20 1 19 2 18 3 16 4 17 5 15 7 11 8 12 9 89 10 13 11 14 12
REMARK SMILES IDX 10 13 8 14 9 15 7 17 3 18 4 19 91 20 5 21 6 22 90 23 92 24
REMARK SMILES IDX 2 26 1 27 93 28 94 29 98 30 95 31 97 32 96 33 21 34 22 35
REMARK SMILES IDX 23 36 24 37 25 39 26 40 27 41 88 42 28 43 87 44 29 45 30 46
REMARK SMILES IDX 31 47 81 48 32 49 86 50 80 51 82 52 33 53 85 54 79 55 78 56
REMARK SMILES IDX 34 58 66 59 46 60 65 61 47 62 50 63 64 64 83 65 48 66 49 67
REMARK SMILES IDX 63 69 84 70 51 71 35 72 36 73 44 74 37 75 43 76 45 77 42 78
REMARK SMILES IDX 38 79 39 80 40 81 41 82 67 83 68 84 76 85 69 86 75 87 77 88
REMARK SMILES IDX 74 89 70 90 71 91 72 92 73 93 52 94 53 95 61 96 54 97 60 98
REMARK SMILES IDX 62 99 59 100 55 101 56 102 57 103 58 104
REMARK H PARENT 18 6 10 16 92 25 23 38 82 57 50 68
REMARK Flexibility Score: inf
ROOT
ATOM      1  C   UNL A   1      40.847  20.992  27.558  1.00  0.00     0.023 C 
ENDROOT
BRANCH   1   2
ATOM      2  C   UNL A   1      39.973  21.563  26.453  1.00  0.00     0.116 C 
BRANCH   2   3
ATOM      3  N   UNL A   1      39.656  22.980  26.539  1.00  0.00    -0.352 N 
ATOM      4  C   UNL A   1      38.455  23.632  26.334  1.00  0.00     0.251 C 
ATOM      5  O   UNL A   1      38.386  24.846  26.513  1.00  0.00    -0.269 OA
ATOM      6  H   UNL A   1      40.412  23.563  26.778  1.00  0.00     0.163 HD
BRANCH   4   7
ATOM      7  C   UNL A   1      37.239  22.913  25.859  1.00  0.00     0.041 A 
ATOM      8  C   UNL A   1      34.842  22.519  25.941  1.00  0.00     0.041 A 
ATOM      9  C   UNL A   1      35.020  21.357  25.185  1.00  0.00     0.026 A 
ATOM     10  C   UNL A   1      35.951  23.306  26.226  1.00  0.00     0.040 A 
ATOM     11  C   UNL A   1      36.284  21.022  24.692  1.00  0.00     0.003 A 
ATOM     12  C   UNL A   1      37.396  21.795  25.035  1.00  0.00     0.014 A 
BRANCH   8  13
ATOM     13  N   UNL A   1      33.573  22.773  26.485  1.00  0.00    -0.325 N 
ATOM     14  C   UNL A   1      32.720  23.842  26.433  1.00  0.00     0.238 C 
ATOM     15  O   UNL A   1      31.892  23.923  27.350  1.00  0.00    -0.273 OA
ATOM     16  H   UNL A   1      33.223  22.022  27.018  1.00  0.00     0.169 HD
BRANCH  14  17
ATOM     17  C   UNL A   1      32.644  24.822  25.249  1.00  0.00     0.160 C 
ATOM     18  N   UNL A   1      31.762  27.585  24.704  1.00  0.00    -0.191 N 
ATOM     19  C   UNL A   1      33.097  27.238  24.646  1.00  0.00     0.311 C 
ATOM     20  C   UNL A   1      30.747  26.716  24.340  1.00  0.00     0.319 C 
ATOM     21  O   UNL A   1      33.960  27.926  24.104  1.00  0.00    -0.247 OA
ATOM     22  C   UNL A   1      33.497  26.046  25.449  1.00  0.00     0.153 C 
ATOM     23  S   UNL A   1      30.969  24.999  24.632  1.00  0.00    -0.024 SA
ATOM     24  N   UNL A   1      29.591  26.995  23.827  1.00  0.00    -0.235 N 
ATOM     25  H   UNL A   1      28.888  26.307  23.873  1.00  0.00     0.313 HD
BRANCH  18  26
ATOM     26  C   UNL A   1      31.463  28.917  25.239  1.00  0.00     0.243 C 
ATOM     27  C   UNL A   1      31.696  29.112  26.729  1.00  0.00     0.054 C 
ENDBRANCH  18  26
BRANCH  24  28
ATOM     28  C   UNL A   1      29.280  28.213  23.210  1.00  0.00     0.125 A 
ATOM     29  C   UNL A   1      28.015  28.788  23.366  1.00  0.00     0.051 A 
ATOM     30  C   UNL A   1      30.174  28.797  22.306  1.00  0.00     0.051 A 
ATOM     31  C   UNL A   1      27.662  29.942  22.660  1.00  0.00     0.004 A 
ATOM     32  C   UNL A   1      29.831  29.959  21.610  1.00  0.00     0.004 A 
ATOM     33  C   UNL A   1      28.574  30.530  21.787  1.00  0.00     0.000 A 
ENDBRANCH  24  28
ENDBRANCH  14  17
ENDBRANCH   8  13
ENDBRANCH   4   7
ENDBRANCH   2   3
ENDBRANCH   1   2
BRANCH   1  34
ATOM     34  C   UNL A   1      42.312  20.735  27.222  1.00  0.00     0.023 C 
BRANCH  34  35
ATOM     35  C   UNL A   1      42.926  21.559  26.093  1.00  0.00     0.116 C 
BRANCH  35  36
ATOM     36  N   UNL A   1      44.213  21.089  25.616  1.00  0.00    -0.352 N 
ATOM     37  C   UNL A   1      45.444  21.714  25.614  1.00  0.00     0.251 C 
ATOM     38  H   UNL A   1      44.208  20.183  25.232  1.00  0.00     0.163 HD
ATOM     39  O   UNL A   1      46.411  21.137  25.140  1.00  0.00    -0.269 OA
BRANCH  37  40
ATOM     40  C   UNL A   1      45.588  23.104  26.118  1.00  0.00     0.039 A 
ATOM     41  C   UNL A   1      45.451  24.155  25.205  1.00  0.00     0.014 A 
ATOM     42  C   UNL A   1      45.839  23.389  27.463  1.00  0.00     0.014 A 
ATOM     43  C   UNL A   1      45.459  25.478  25.655  1.00  0.00     0.010 A 
ATOM     44  C   UNL A   1      45.767  24.708  27.923  1.00  0.00     0.010 A 
ATOM     45  C   UNL A   1      45.557  25.767  27.027  1.00  0.00    -0.014 A 
BRANCH  45  46
ATOM     46  C   UNL A   1      45.402  27.168  27.518  1.00  0.00     0.031 A 
ATOM     47  C   UNL A   1      46.585  28.100  27.580  1.00  0.00     0.074 A 
ATOM     48  C   UNL A   1      44.191  27.597  27.930  1.00  0.00     0.049 A 
ATOM     49  N   UNL A   1      46.634  29.347  27.979  1.00  0.00    -0.248 NA
ATOM     50  C   UNL A   1      47.883  27.556  27.158  1.00  0.00     0.031 C 
ATOM     51  C   UNL A   1      42.973  26.783  27.963  1.00  0.00     0.029 A 
ATOM     52  N   UNL A   1      43.776  28.823  28.395  1.00  0.00    -0.354 N 
ATOM     53  C   UNL A   1      47.962  29.739  27.846  1.00  0.00     0.074 A 
ATOM     54  C   UNL A   1      48.696  28.575  27.398  1.00  0.00     0.031 C 
ATOM     55  C   UNL A   1      41.946  27.540  28.381  1.00  0.00     0.029 A 
ATOM     56  C   UNL A   1      42.432  28.881  28.690  1.00  0.00     0.049 A 
ATOM     57  H   UNL A   1      44.383  29.589  28.505  1.00  0.00     0.167 HD
ATOM     58  C   UNL A   1      48.514  30.963  28.047  1.00  0.00     0.034 A 
ATOM     59  C   UNL A   1      41.675  29.895  29.156  1.00  0.00     0.034 A 
ATOM     60  C   UNL A   1      47.777  32.121  28.494  1.00  0.00     0.049 A 
ATOM     61  C   UNL A   1      42.325  31.235  29.406  1.00  0.00     0.074 A 
ATOM     62  C   UNL A   1      48.242  33.408  28.715  1.00  0.00     0.029 A 
ATOM     63  N   UNL A   1      46.421  32.139  28.791  1.00  0.00    -0.354 N 
ATOM     64  N   UNL A   1      43.576  31.594  29.230  1.00  0.00    -0.248 NA
ATOM     65  C   UNL A   1      41.456  32.310  29.902  1.00  0.00     0.031 C 
ATOM     66  C   UNL A   1      47.184  34.185  29.196  1.00  0.00     0.029 A 
ATOM     67  C   UNL A   1      46.039  33.405  29.209  1.00  0.00     0.049 A 
ATOM     68  H   UNL A   1      45.818  31.364  28.716  1.00  0.00     0.167 HD
ATOM     69  C   UNL A   1      43.629  32.948  29.556  1.00  0.00     0.074 A 
ATOM     70  C   UNL A   1      42.283  33.343  29.911  1.00  0.00     0.031 C 
ATOM     71  C   UNL A   1      44.694  33.790  29.563  1.00  0.00     0.034 A 
BRANCH  58  72
ATOM     72  C   UNL A   1      49.994  31.107  27.786  1.00  0.00     0.023 A 
ATOM     73  C   UNL A   1      50.473  31.661  26.585  1.00  0.00     0.031 A 
ATOM     74  C   UNL A   1      50.937  30.694  28.742  1.00  0.00     0.131 A 
ATOM     75  C   UNL A   1      51.854  31.732  26.348  1.00  0.00     0.055 A 
ATOM     76  C   UNL A   1      52.310  30.838  28.531  1.00  0.00     0.041 A 
ATOM     77  F   UNL A   1      50.540  30.143  29.900  1.00  0.00    -0.206 F 
ATOM     78  C   UNL A   1      52.776  31.348  27.323  1.00  0.00     0.022 A 
BRANCH  75  79
ATOM     79  S   UNL A   1      52.427  32.228  24.700  1.00  0.00     0.124 S 
ATOM     80  O   UNL A   1      53.861  31.963  24.796  1.00  0.00    -0.237 OA
ATOM     81  O   UNL A   1      51.671  31.343  23.822  1.00  0.00    -0.237 OA
ATOM     82  O   UNL A   1      52.064  33.641  24.623  1.00  0.00    -0.744 OA
ENDBRANCH  75  79
ENDBRANCH  58  72
BRANCH  59  83
ATOM     83  C   UNL A   1      40.219  29.708  29.430  1.00  0.00     0.023 A 
ATOM     84  C   UNL A   1      39.728  29.694  30.746  1.00  0.00     0.031 A 
ATOM     85  C   UNL A   1      39.310  29.445  28.389  1.00  0.00     0.131 A 
ATOM     86  C   UNL A   1      38.391  29.347  30.994  1.00  0.00     0.055 A 
ATOM     87  C   UNL A   1      37.964  29.167  28.637  1.00  0.00     0.041 A 
ATOM     88  F   UNL A   1      39.722  29.446  27.111  1.00  0.00    -0.206 F 
ATOM     89  C   UNL A   1      37.502  29.096  29.947  1.00  0.00     0.022 A 
BRANCH  86  90
ATOM     90  S   UNL A   1      37.864  29.091  32.712  1.00  0.00     0.124 S 
ATOM     91  O   UNL A   1      38.931  29.756  33.451  1.00  0.00    -0.237 OA
ATOM     92  O   UNL A   1      36.564  29.751  32.730  1.00  0.00    -0.237 OA
ATOM     93  O   UNL A   1      37.826  27.637  32.842  1.00  0.00    -0.744 OA
ENDBRANCH  86  90
ENDBRANCH  59  83
BRANCH  71  94
ATOM     94  C   UNL A   1      44.421  35.232  29.919  1.00  0.00     0.023 A 
ATOM     95  C   UNL A   1      44.342  35.662  31.256  1.00  0.00     0.031 A 
ATOM     96  C   UNL A   1      44.195  36.181  28.907  1.00  0.00     0.131 A 
ATOM     97  C   UNL A   1      43.969  36.983  31.546  1.00  0.00     0.055 A 
ATOM     98  C   UNL A   1      43.890  37.511  29.200  1.00  0.00     0.041 A 
ATOM     99  F   UNL A   1      44.257  35.829  27.612  1.00  0.00    -0.206 F 
ATOM    100  C   UNL A   1      43.757  37.915  30.526  1.00  0.00     0.022 A 
BRANCH  97 101
ATOM    101  S   UNL A   1      43.648  37.438  33.273  1.00  0.00     0.124 S 
ATOM    102  O   UNL A   1      44.975  37.325  33.869  1.00  0.00    -0.237 OA
ATOM    103  O   UNL A   1      43.121  38.793  33.144  1.00  0.00    -0.237 OA
ATOM    104  O   UNL A   1      42.680  36.437  33.718  1.00  0.00    -0.744 OA
ENDBRANCH  97 101
ENDBRANCH  71  94
ENDBRANCH  45  46
ENDBRANCH  37  40
ENDBRANCH  35  36
ENDBRANCH  34  35
ENDBRANCH   1  34
TORSDOF 18
ENDMDL
MODEL 2
REMARK VINA RESULT:     -11.7      2.799      8.141
REMARK SMILES CCN1C(=O)C[C@@H](C(=O)Nc2cccc(C(=O)NCCCCNC(=O)c3ccc(-c4c5nc(c(-c6cc(S(=O)(=O)[O-])ccc6F)c6ccc([nH]6)c(-c6cc(S(=O)(=O)[O-])ccc6F)c6nc(c(-c7cc(S(=O)(=O)[O-])ccc7F)c7ccc4[nH]7)C=C6)C=C5)cc3)c2)S/C1=[NH+]/c1ccccc1
REMARK SMILES IDX 20 1 19 2 18 3 16 4 17 5 15 7 11 8 12 9 89 10 13 11 14 12
REMARK SMILES IDX 10 13 8 14 9 15 7 17 3 18 4 19 91 20 5 21 6 22 90 23 92 24
REMARK SMILES IDX 2 26 1 27 93 28 94 29 98 30 95 31 97 32 96 33 21 34 22 35
REMARK SMILES IDX 23 36 24 37 25 39 26 40 27 41 88 42 28 43 87 44 29 45 30 46
REMARK SMILES IDX 31 47 81 48 32 49 86 50 80 51 82 52 33 53 85 54 79 55 78 56
REMARK SMILES IDX 34 58 66 59 46 60 65 61 47 62 50 63 64 64 83 65 48 66 49 67
REMARK SMILES IDX 63 69 84 70 51 71 35 72 36 73 44 74 37 75 43 76 45 77 42 78
REMARK SMILES IDX 38 79 39 80 40 81 41 82 67 83 68 84 76 85 69 86 75 87 77 88
REMARK SMILES IDX 74 89 70 90 71 91 72 92 73 93 52 94 53 95 61 96 54 97 60 98
REMARK SMILES IDX 62 99 59 100 55 101 56 102 57 103 58 104
REMARK H PARENT 18 6 10 16 92 25 23 38 82 57 50 68
REMARK Flexibility Score: inf
ROOT
ATOM      1  C   UNL A   1      39.834  20.618  26.529  1.00  0.00     0.023 C 
ENDROOT
BRANCH   1   2
ATOM      2  C   UNL A   1      38.780  21.080  25.535  1.00  0.00     0.116 C 
BRANCH   2   3
ATOM      3  N   UNL A   1      38.528  22.511  25.470  1.00  0.00    -0.352 N 
ATOM      4  C   UNL A   1      37.348  23.210  25.637  1.00  0.00     0.251 C 
ATOM      5  O   UNL A   1      37.360  24.438  25.596  1.00  0.00    -0.269 OA
ATOM      6  H   UNL A   1      39.319  23.066  25.277  1.00  0.00     0.163 HD
BRANCH   4   7
ATOM      7  C   UNL A   1      36.042  22.517  25.825  1.00  0.00     0.041 A 
ATOM      8  C   UNL A   1      34.156  21.270  24.933  1.00  0.00     0.041 A 
ATOM      9  C   UNL A   1      33.463  21.489  26.126  1.00  0.00     0.026 A 
ATOM     10  C   UNL A   1      35.456  21.748  24.819  1.00  0.00     0.040 A 
ATOM     11  C   UNL A   1      34.086  22.138  27.197  1.00  0.00     0.003 A 
ATOM     12  C   UNL A   1      35.373  22.659  27.044  1.00  0.00     0.014 A 
BRANCH   8  13
ATOM     13  N   UNL A   1      33.466  20.690  23.857  1.00  0.00    -0.325 N 
ATOM     14  C   UNL A   1      32.420  21.100  23.075  1.00  0.00     0.238 C 
ATOM     15  O   UNL A   1      31.779  20.204  22.510  1.00  0.00    -0.273 OA
ATOM     16  H   UNL A   1      33.806  19.798  23.614  1.00  0.00     0.169 HD
BRANCH  14  17
ATOM     17  C   UNL A   1      32.114  22.574  22.754  1.00  0.00     0.160 C 
ATOM     18  N   UNL A   1      32.887  25.261  23.699  1.00  0.00    -0.191 N 
ATOM     19  C   UNL A   1      33.255  24.811  22.446  1.00  0.00     0.311 C 
ATOM     20  C   UNL A   1      31.688  24.908  24.297  1.00  0.00     0.319 C 
ATOM     21  O   UNL A   1      33.654  25.548  21.547  1.00  0.00    -0.247 OA
ATOM     22  C   UNL A   1      33.325  23.331  22.279  1.00  0.00     0.153 C 
ATOM     23  S   UNL A   1      31.029  23.313  23.976  1.00  0.00    -0.024 SA
ATOM     24  N   UNL A   1      30.967  25.596  25.124  1.00  0.00    -0.235 N 
ATOM     25  H   UNL A   1      30.295  25.114  25.660  1.00  0.00     0.313 HD
BRANCH  18  26
ATOM     26  C   UNL A   1      33.870  26.090  24.403  1.00  0.00     0.243 C 
ATOM     27  C   UNL A   1      34.313  25.594  25.771  1.00  0.00     0.054 C 
ENDBRANCH  18  26
BRANCH  24  28
ATOM     28  C   UNL A   1      31.081  26.980  25.302  1.00  0.00     0.125 A 
ATOM     29  C   UNL A   1      30.865  27.856  24.234  1.00  0.00     0.051 A 
ATOM     30  C   UNL A   1      31.562  27.500  26.508  1.00  0.00     0.051 A 
ATOM     31  C   UNL A   1      31.092  29.228  24.377  1.00  0.00     0.004 A 
ATOM     32  C   UNL A   1      31.776  28.873  26.661  1.00  0.00     0.004 A 
ATOM     33  C   UNL A   1      31.541  29.736  25.594  1.00  0.00     0.000 A 
ENDBRANCH  24  28
ENDBRANCH  14  17
ENDBRANCH   8  13
ENDBRANCH   4   7
ENDBRANCH   2   3
ENDBRANCH   1   2
BRANCH   1  34
ATOM     34  C   UNL A   1      40.856  19.599  26.035  1.00  0.00     0.023 C 
BRANCH  34  35
ATOM     35  C   UNL A   1      42.331  19.982  26.136  1.00  0.00     0.116 C 
BRANCH  35  36
ATOM     36  N   UNL A   1      43.199  19.352  25.159  1.00  0.00    -0.352 N 
ATOM     37  C   UNL A   1      44.355  19.818  24.565  1.00  0.00     0.251 C 
ATOM     38  H   UNL A   1      42.921  18.451  24.876  1.00  0.00     0.163 HD
ATOM     39  O   UNL A   1      44.931  19.121  23.741  1.00  0.00    -0.269 OA
BRANCH  37  40
ATOM     40  C   UNL A   1      44.864  21.181  24.864  1.00  0.00     0.039 A 
ATOM     41  C   UNL A   1      44.585  22.204  23.952  1.00  0.00     0.014 A 
ATOM     42  C   UNL A   1      45.592  21.470  26.021  1.00  0.00     0.014 A 
ATOM     43  C   UNL A   1      44.939  23.523  24.251  1.00  0.00     0.010 A 
ATOM     44  C   UNL A   1      45.875  22.798  26.356  1.00  0.00     0.010 A 
ATOM     45  C   UNL A   1      45.535  23.843  25.484  1.00  0.00    -0.014 A 
BRANCH  45  46
ATOM     46  C   UNL A   1      45.763  25.267  25.866  1.00  0.00     0.031 A 
ATOM     47  C   UNL A   1      44.631  26.120  26.378  1.00  0.00     0.074 A 
ATOM     48  C   UNL A   1      46.994  25.802  25.731  1.00  0.00     0.049 A 
ATOM     49  N   UNL A   1      44.647  27.375  26.756  1.00  0.00    -0.248 NA
ATOM     50  C   UNL A   1      43.307  25.489  26.459  1.00  0.00     0.031 C 
ATOM     51  C   UNL A   1      48.168  25.098  25.206  1.00  0.00     0.029 A 
ATOM     52  N   UNL A   1      47.473  27.056  26.028  1.00  0.00    -0.354 N 
ATOM     53  C   UNL A   1      43.342  27.679  27.128  1.00  0.00     0.074 A 
ATOM     54  C   UNL A   1      42.549  26.498  26.862  1.00  0.00     0.031 C 
ATOM     55  C   UNL A   1      49.233  25.914  25.258  1.00  0.00     0.029 A 
ATOM     56  C   UNL A   1      48.818  27.213  25.776  1.00  0.00     0.049 A 
ATOM     57  H   UNL A   1      46.907  27.775  26.389  1.00  0.00     0.167 HD
ATOM     58  C   UNL A   1      42.855  28.824  27.671  1.00  0.00     0.034 A 
ATOM     59  C   UNL A   1      49.627  28.280  25.941  1.00  0.00     0.034 A 
ATOM     60  C   UNL A   1      43.651  29.999  27.935  1.00  0.00     0.049 A 
ATOM     61  C   UNL A   1      49.048  29.553  26.513  1.00  0.00     0.074 A 
ATOM     62  C   UNL A   1      43.255  31.203  28.494  1.00  0.00     0.029 A 
ATOM     63  N   UNL A   1      45.006  30.124  27.657  1.00  0.00    -0.354 N 
ATOM     64  N   UNL A   1      47.818  29.802  26.900  1.00  0.00    -0.248 NA
ATOM     65  C   UNL A   1      49.972  30.681  26.685  1.00  0.00     0.031 C 
ATOM     66  C   UNL A   1      44.352  32.070  28.504  1.00  0.00     0.029 A 
ATOM     67  C   UNL A   1      45.454  31.386  28.017  1.00  0.00     0.049 A 
ATOM     68  H   UNL A   1      45.568  29.417  27.262  1.00  0.00     0.167 HD
ATOM     69  C   UNL A   1      47.836  31.103  27.397  1.00  0.00     0.074 A 
ATOM     70  C   UNL A   1      49.201  31.572  27.287  1.00  0.00     0.031 C 
ATOM     71  C   UNL A   1      46.817  31.846  27.900  1.00  0.00     0.034 A 
BRANCH  58  72
ATOM     72  C   UNL A   1      41.385  28.858  28.014  1.00  0.00     0.023 A 
ATOM     73  C   UNL A   1      40.936  28.640  29.329  1.00  0.00     0.031 A 
ATOM     74  C   UNL A   1      40.421  29.114  27.024  1.00  0.00     0.131 A 
ATOM     75  C   UNL A   1      39.561  28.624  29.607  1.00  0.00     0.055 A 
ATOM     76  C   UNL A   1      39.058  29.172  27.322  1.00  0.00     0.041 A 
ATOM     77  F   UNL A   1      40.788  29.313  25.748  1.00  0.00    -0.206 F 
ATOM     78  C   UNL A   1      38.620  28.914  28.618  1.00  0.00     0.022 A 
BRANCH  75  79
ATOM     79  S   UNL A   1      39.016  28.106  31.258  1.00  0.00     0.124 S 
ATOM     80  O   UNL A   1      38.526  26.755  30.994  1.00  0.00    -0.237 OA
ATOM     81  O   UNL A   1      40.242  28.200  32.041  1.00  0.00    -0.237 OA
ATOM     82  O   UNL A   1      37.982  29.081  31.598  1.00  0.00    -0.744 OA
ENDBRANCH  75  79
ENDBRANCH  58  72
BRANCH  59  83
ATOM     83  C   UNL A   1      51.071  28.219  25.565  1.00  0.00     0.023 A 
ATOM     84  C   UNL A   1      51.485  28.479  24.248  1.00  0.00     0.031 A 
ATOM     85  C   UNL A   1      52.047  27.805  26.488  1.00  0.00     0.131 A 
ATOM     86  C   UNL A   1      52.817  28.251  23.872  1.00  0.00     0.055 A 
ATOM     87  C   UNL A   1      53.386  27.645  26.126  1.00  0.00     0.041 A 
ATOM     88  F   UNL A   1      51.710  27.543  27.762  1.00  0.00    -0.206 F 
ATOM     89  C   UNL A   1      53.774  27.848  24.805  1.00  0.00     0.022 A 
BRANCH  86  90
ATOM     90  S   UNL A   1      53.253  28.353  22.113  1.00  0.00     0.124 S 
ATOM     91  O   UNL A   1      54.409  27.467  22.042  1.00  0.00    -0.237 OA
ATOM     92  O   UNL A   1      52.035  27.872  21.472  1.00  0.00    -0.237 OA
ATOM     93  O   UNL A   1      53.541  29.772  21.917  1.00  0.00    -0.744 OA
ENDBRANCH  86  90
ENDBRANCH  59  83
BRANCH  71  94
ATOM     94  C   UNL A   1      47.165  33.223  28.413  1.00  0.00     0.023 A 
ATOM     95  C   UNL A   1      47.299  34.323  27.548  1.00  0.00     0.031 A 
ATOM     96  C   UNL A   1      47.408  33.428  29.783  1.00  0.00     0.131 A 
ATOM     97  C   UNL A   1      47.740  35.558  28.048  1.00  0.00     0.055 A 
ATOM     98  C   UNL A   1      47.781  34.676  30.285  1.00  0.00     0.041 A 
ATOM     99  F   UNL A   1      47.296  32.415  30.658  1.00  0.00    -0.206 F 
ATOM    100  C   UNL A   1      47.967  35.746  29.414  1.00  0.00     0.022 A 
BRANCH  97 101
ATOM    101  S   UNL A   1      48.127  36.885  26.872  1.00  0.00     0.124 S 
ATOM    102  O   UNL A   1      46.922  36.925  26.050  1.00  0.00    -0.237 OA
ATOM    103  O   UNL A   1      48.334  38.029  27.753  1.00  0.00    -0.237 OA
ATOM    104  O   UNL A   1      49.327  36.402  26.192  1.00  0.00    -0.744 OA
ENDBRANCH  97 101
ENDBRANCH  71  94
ENDBRANCH  45  46
ENDBRANCH  37  40
ENDBRANCH  35  36
ENDBRANCH  34  35
ENDBRANCH   1  34
TORSDOF 18
ENDMDL
MODEL 3
REMARK VINA RESULT:     -11.7      3.724      6.147
REMARK SMILES CCN1C(=O)C[C@@H](C(=O)Nc2cccc(C(=O)NCCCCNC(=O)c3ccc(-c4c5nc(c(-c6cc(S(=O)(=O)[O-])ccc6F)c6ccc([nH]6)c(-c6cc(S(=O)(=O)[O-])ccc6F)c6nc(c(-c7cc(S(=O)(=O)[O-])ccc7F)c7ccc4[nH]7)C=C6)C=C5)cc3)c2)S/C1=[NH+]/c1ccccc1
REMARK SMILES IDX 20 1 19 2 18 3 16 4 17 5 15 7 11 8 12 9 89 10 13 11 14 12
REMARK SMILES IDX 10 13 8 14 9 15 7 17 3 18 4 19 91 20 5 21 6 22 90 23 92 24
REMARK SMILES IDX 2 26 1 27 93 28 94 29 98 30 95 31 97 32 96 33 21 34 22 35
REMARK SMILES IDX 23 36 24 37 25 39 26 40 27 41 88 42 28 43 87 44 29 45 30 46
REMARK SMILES IDX 31 47 81 48 32 49 86 50 80 51 82 52 33 53 85 54 79 55 78 56
REMARK SMILES IDX 34 58 66 59 46 60 65 61 47 62 50 63 64 64 83 65 48 66 49 67
REMARK SMILES IDX 63 69 84 70 51 71 35 72 36 73 44 74 37 75 43 76 45 77 42 78
REMARK SMILES IDX 38 79 39 80 40 81 41 82 67 83 68 84 76 85 69 86 75 87 77 88
REMARK SMILES IDX 74 89 70 90 71 91 72 92 73 93 52 94 53 95 61 96 54 97 60 98
REMARK SMILES IDX 62 99 59 100 55 101 56 102 57 103 58 104
REMARK H PARENT 18 6 10 16 92 25 23 38 82 57 50 68
REMARK Flexibility Score: inf
ROOT
ATOM      1  C   UNL A   1      39.672  25.208  26.427  1.00  0.00     0.023 C 
ENDROOT
BRANCH   1   2
ATOM      2  C   UNL A   1      38.688  24.177  26.958  1.00  0.00     0.116 C 
BRANCH   2   3
ATOM      3  N   UNL A   1      39.007  22.781  26.705  1.00  0.00    -0.352 N 
ATOM      4  C   UNL A   1      38.399  21.873  25.859  1.00  0.00     0.251 C 
ATOM      5  O   UNL A   1      38.863  20.741  25.750  1.00  0.00    -0.269 OA
ATOM      6  H   UNL A   1      39.772  22.429  27.215  1.00  0.00     0.163 HD
BRANCH   4   7
ATOM      7  C   UNL A   1      37.162  22.211  25.099  1.00  0.00     0.041 A 
ATOM      8  C   UNL A   1      34.880  21.707  24.431  1.00  0.00     0.041 A 
ATOM      9  C   UNL A   1      34.966  22.690  23.442  1.00  0.00     0.026 A 
ATOM     10  C   UNL A   1      35.965  21.515  25.278  1.00  0.00     0.040 A 
ATOM     11  C   UNL A   1      36.106  23.492  23.339  1.00  0.00     0.003 A 
ATOM     12  C   UNL A   1      37.208  23.248  24.162  1.00  0.00     0.014 A 
BRANCH   8  13
ATOM     13  N   UNL A   1      33.752  20.871  24.445  1.00  0.00    -0.325 N 
ATOM     14  C   UNL A   1      32.502  20.981  24.992  1.00  0.00     0.238 C 
ATOM     15  O   UNL A   1      31.900  19.917  25.192  1.00  0.00    -0.273 OA
ATOM     16  H   UNL A   1      33.890  20.026  23.958  1.00  0.00     0.169 HD
BRANCH  14  17
ATOM     17  C   UNL A   1      31.778  22.320  25.215  1.00  0.00     0.160 C 
ATOM     18  N   UNL A   1      32.128  25.175  24.552  1.00  0.00    -0.191 N 
ATOM     19  C   UNL A   1      31.102  24.433  23.998  1.00  0.00     0.311 C 
ATOM     20  C   UNL A   1      32.597  24.957  25.837  1.00  0.00     0.319 C 
ATOM     21  O   UNL A   1      30.121  24.929  23.448  1.00  0.00    -0.247 OA
ATOM     22  C   UNL A   1      31.325  22.960  23.931  1.00  0.00     0.153 C 
ATOM     23  S   UNL A   1      32.588  23.319  26.467  1.00  0.00    -0.024 SA
ATOM     24  N   UNL A   1      33.101  25.814  26.667  1.00  0.00    -0.235 N 
ATOM     25  H   UNL A   1      33.628  25.468  27.424  1.00  0.00     0.313 HD
BRANCH  18  26
ATOM     26  C   UNL A   1      32.748  26.175  23.677  1.00  0.00     0.243 C 
ATOM     27  C   UNL A   1      33.310  25.662  22.361  1.00  0.00     0.054 C 
ENDBRANCH  18  26
BRANCH  24  28
ATOM     28  C   UNL A   1      32.942  27.201  26.556  1.00  0.00     0.125 A 
ATOM     29  C   UNL A   1      34.024  28.017  26.210  1.00  0.00     0.051 A 
ATOM     30  C   UNL A   1      31.740  27.807  26.937  1.00  0.00     0.051 A 
ATOM     31  C   UNL A   1      33.898  29.409  26.212  1.00  0.00     0.004 A 
ATOM     32  C   UNL A   1      31.606  29.198  26.926  1.00  0.00     0.004 A 
ATOM     33  C   UNL A   1      32.686  29.999  26.564  1.00  0.00     0.000 A 
ENDBRANCH  24  28
ENDBRANCH  14  17
ENDBRANCH   8  13
ENDBRANCH   4   7
ENDBRANCH   2   3
ENDBRANCH   1   2
BRANCH   1  34
ATOM     34  C   UNL A   1      40.119  26.302  27.391  1.00  0.00     0.023 C 
BRANCH  34  35
ATOM     35  C   UNL A   1      40.911  25.868  28.623  1.00  0.00     0.116 C 
BRANCH  35  36
ATOM     36  N   UNL A   1      41.434  24.516  28.574  1.00  0.00    -0.352 N 
ATOM     37  C   UNL A   1      42.731  24.068  28.429  1.00  0.00     0.251 C 
ATOM     38  H   UNL A   1      40.757  23.806  28.659  1.00  0.00     0.163 HD
ATOM     39  O   UNL A   1      42.953  22.866  28.395  1.00  0.00    -0.269 OA
BRANCH  37  40
ATOM     40  C   UNL A   1      43.848  25.030  28.242  1.00  0.00     0.039 A 
ATOM     41  C   UNL A   1      44.281  25.293  26.939  1.00  0.00     0.014 A 
ATOM     42  C   UNL A   1      44.461  25.680  29.317  1.00  0.00     0.014 A 
ATOM     43  C   UNL A   1      45.245  26.279  26.709  1.00  0.00     0.010 A 
ATOM     44  C   UNL A   1      45.365  26.720  29.080  1.00  0.00     0.010 A 
ATOM     45  C   UNL A   1      45.754  27.045  27.772  1.00  0.00    -0.014 A 
BRANCH  45  46
ATOM     46  C   UNL A   1      46.658  28.202  27.505  1.00  0.00     0.031 A 
ATOM     47  C   UNL A   1      48.155  28.026  27.491  1.00  0.00     0.074 A 
ATOM     48  C   UNL A   1      46.128  29.425  27.294  1.00  0.00     0.049 A 
ATOM     49  N   UNL A   1      49.090  28.919  27.277  1.00  0.00    -0.248 NA
ATOM     50  C   UNL A   1      48.668  26.678  27.771  1.00  0.00     0.031 C 
ATOM     51  C   UNL A   1      44.697  29.741  27.324  1.00  0.00     0.029 A 
ATOM     52  N   UNL A   1      46.721  30.631  27.007  1.00  0.00    -0.354 N 
ATOM     53  C   UNL A   1      50.299  28.240  27.387  1.00  0.00     0.074 A 
ATOM     54  C   UNL A   1      49.978  26.878  27.757  1.00  0.00     0.031 C 
ATOM     55  C   UNL A   1      44.524  31.039  27.025  1.00  0.00     0.029 A 
ATOM     56  C   UNL A   1      45.827  31.663  26.825  1.00  0.00     0.049 A 
ATOM     57  H   UNL A   1      47.696  30.746  26.935  1.00  0.00     0.167 HD
ATOM     58  C   UNL A   1      51.558  28.699  27.169  1.00  0.00     0.034 A 
ATOM     59  C   UNL A   1      46.031  32.964  26.532  1.00  0.00     0.034 A 
ATOM     60  C   UNL A   1      51.872  30.059  26.800  1.00  0.00     0.049 A 
ATOM     61  C   UNL A   1      47.445  33.454  26.332  1.00  0.00     0.074 A 
ATOM     62  C   UNL A   1      53.113  30.619  26.544  1.00  0.00     0.029 A 
ATOM     63  N   UNL A   1      50.942  31.077  26.636  1.00  0.00    -0.354 N 
ATOM     64  N   UNL A   1      48.571  32.781  26.397  1.00  0.00    -0.248 NA
ATOM     65  C   UNL A   1      47.613  34.875  26.002  1.00  0.00     0.031 C 
ATOM     66  C   UNL A   1      52.939  31.981  26.281  1.00  0.00     0.029 A 
ATOM     67  C   UNL A   1      51.582  32.261  26.300  1.00  0.00     0.049 A 
ATOM     68  H   UNL A   1      49.968  30.972  26.742  1.00  0.00     0.167 HD
ATOM     69  C   UNL A   1      49.574  33.694  26.076  1.00  0.00     0.074 A 
ATOM     70  C   UNL A   1      48.917  34.951  25.791  1.00  0.00     0.031 C 
ATOM     71  C   UNL A   1      50.918  33.511  26.021  1.00  0.00     0.034 A 
BRANCH  58  72
ATOM     72  C   UNL A   1      52.692  27.715  27.328  1.00  0.00     0.023 A 
ATOM     73  C   UNL A   1      53.087  26.878  26.269  1.00  0.00     0.031 A 
ATOM     74  C   UNL A   1      53.390  27.612  28.543  1.00  0.00     0.131 A 
ATOM     75  C   UNL A   1      54.108  25.936  26.463  1.00  0.00     0.055 A 
ATOM     76  C   UNL A   1      54.455  26.724  28.707  1.00  0.00     0.041 A 
ATOM     77  F   UNL A   1      53.046  28.371  29.595  1.00  0.00    -0.206 F 
ATOM     78  C   UNL A   1      54.812  25.871  27.667  1.00  0.00     0.022 A 
BRANCH  75  79
ATOM     79  S   UNL A   1      54.426  24.719  25.156  1.00  0.00     0.124 S 
ATOM     80  O   UNL A   1      53.350  23.757  25.383  1.00  0.00    -0.237 OA
ATOM     81  O   UNL A   1      54.322  25.522  23.944  1.00  0.00    -0.237 OA
ATOM     82  O   UNL A   1      55.768  24.228  25.465  1.00  0.00    -0.744 OA
ENDBRANCH  75  79
ENDBRANCH  58  72
BRANCH  59  83
ATOM     83  C   UNL A   1      44.886  33.915  26.410  1.00  0.00     0.023 A 
ATOM     84  C   UNL A   1      44.486  34.707  27.499  1.00  0.00     0.031 A 
ATOM     85  C   UNL A   1      44.114  33.978  25.236  1.00  0.00     0.131 A 
ATOM     86  C   UNL A   1      43.308  35.465  27.422  1.00  0.00     0.055 A 
ATOM     87  C   UNL A   1      42.979  34.787  25.141  1.00  0.00     0.041 A 
ATOM     88  F   UNL A   1      44.448  33.244  24.163  1.00  0.00    -0.206 F 
ATOM     89  C   UNL A   1      42.558  35.520  26.245  1.00  0.00     0.022 A 
BRANCH  86  90
ATOM     90  S   UNL A   1      42.692  36.268  28.928  1.00  0.00     0.124 S 
ATOM     91  O   UNL A   1      43.844  37.068  29.330  1.00  0.00    -0.237 OA
ATOM     92  O   UNL A   1      41.540  37.009  28.426  1.00  0.00    -0.237 OA
ATOM     93  O   UNL A   1      42.375  35.145  29.806  1.00  0.00    -0.744 OA
ENDBRANCH  86  90
ENDBRANCH  59  83
BRANCH  71  94
ATOM     94  C   UNL A   1      51.751  34.694  25.587  1.00  0.00     0.023 A 
ATOM     95  C   UNL A   1      52.087  35.729  26.478  1.00  0.00     0.031 A 
ATOM     96  C   UNL A   1      52.178  34.808  24.252  1.00  0.00     0.131 A 
ATOM     97  C   UNL A   1      52.760  36.867  26.008  1.00  0.00     0.055 A 
ATOM     98  C   UNL A   1      52.905  35.912  23.804  1.00  0.00     0.041 A 
ATOM     99  F   UNL A   1      51.886  33.851  23.356  1.00  0.00    -0.206 F 
ATOM    100  C   UNL A   1      53.184  36.959  24.679  1.00  0.00     0.022 A 
BRANCH  97 101
ATOM    101  S   UNL A   1      52.968  38.279  27.128  1.00  0.00     0.124 S 
ATOM    102  O   UNL A   1      53.986  37.789  28.050  1.00  0.00    -0.237 OA
ATOM    103  O   UNL A   1      53.392  39.337  26.216  1.00  0.00    -0.237 OA
ATOM    104  O   UNL A   1      51.638  38.457  27.707  1.00  0.00    -0.744 OA
ENDBRANCH  97 101
ENDBRANCH  71  94
ENDBRANCH  45  46
ENDBRANCH  37  40
ENDBRANCH  35  36
ENDBRANCH  34  35
ENDBRANCH   1  34
TORSDOF 18
ENDMDL
