MODEL 1
REMARK VINA RESULT:     -11.2      0.000      0.000
REMARK SMILES CO[C@@H]1C[C@H](C(=O)NCCCCNC(=O)c2ccc(-c3c4nc(c(-c5cc(S(=O)(=O)[O-])ccc5F)c5ccc([nH]5)c(-c5cc(S(=O)(=O)[O-])ccc5F)c5nc(c(-c6cc(S(=O)(=O)[O-])ccc6F)c6ccc3[nH]6)C=C5)C=C4)cc2)N(C(=O)[C@H](CC(C)C)NC(N)=O)C1
REMARK SMILES IDX 10 1 9 2 8 3 6 4 7 5 5 7 3 8 4 9 91 10 79 11 2 12 1 13 80 14
REMARK SMILES IDX 81 15 82 16 87 17 88 18 89 20 90 21 83 24 84 25 85 26 86 27
REMARK SMILES IDX 11 28 12 29 13 30 14 31 15 33 16 34 17 35 78 36 18 37 77 38
REMARK SMILES IDX 19 39 20 40 21 41 71 42 22 43 76 44 70 45 72 46 23 47 75 48
REMARK SMILES IDX 69 49 68 50 24 52 56 53 36 54 55 55 37 56 40 57 54 58 73 59
REMARK SMILES IDX 38 60 39 61 53 63 74 64 41 65 25 66 26 67 34 68 27 69 33 70
REMARK SMILES IDX 35 71 32 72 28 73 29 74 30 75 31 76 57 77 58 78 66 79 59 80
REMARK SMILES IDX 65 81 67 82 64 83 60 84 61 85 62 86 63 87 42 88 43 89 51 90
REMARK SMILES IDX 44 91 50 92 52 93 49 94 45 95 46 96 47 97 48 98
REMARK H PARENT 8 6 87 19 89 22 89 23 13 32 72 51 40 62
REMARK Flexibility Score: inf
ROOT
ATOM      1  C   UNL A   1      32.134  29.792  27.171  1.00  0.00     0.023 C 
ENDROOT
BRANCH   1   2
ATOM      2  C   UNL A   1      33.433  29.167  26.658  1.00  0.00     0.116 C 
BRANCH   2   3
ATOM      3  N   UNL A   1      33.667  29.515  25.268  1.00  0.00    -0.354 N 
ATOM      4  C   UNL A   1      33.180  28.976  24.117  1.00  0.00     0.242 C 
ATOM      5  O   UNL A   1      33.730  29.314  23.057  1.00  0.00    -0.273 OA
ATOM      6  H   UNL A   1      34.283  30.271  25.135  1.00  0.00     0.163 HD
BRANCH   4   7
ATOM      7  C   UNL A   1      32.084  27.881  24.061  1.00  0.00     0.177 C 
ATOM      8  C   UNL A   1      30.102  27.928  22.606  1.00  0.00     0.139 C 
ATOM      9  C   UNL A   1      30.692  28.493  23.895  1.00  0.00     0.069 C 
ATOM     10  C   UNL A   1      31.056  26.826  22.154  1.00  0.00     0.152 C 
ATOM     11  N   UNL A   1      32.213  26.861  23.036  1.00  0.00    -0.326 N 
BRANCH   8  12
ATOM     12  O   UNL A   1      30.040  28.978  21.645  1.00  0.00    -0.380 OA
ATOM     13  C   UNL A   1      29.159  30.030  22.010  1.00  0.00     0.195 C 
ENDBRANCH   8  12
BRANCH  11  14
ATOM     14  C   UNL A   1      33.205  25.917  22.866  1.00  0.00     0.246 C 
ATOM     15  O   UNL A   1      33.695  25.792  21.734  1.00  0.00    -0.272 OA
BRANCH  14  16
ATOM     16  C   UNL A   1      33.524  24.833  23.945  1.00  0.00     0.173 C 
BRANCH  16  17
ATOM     17  N   UNL A   1      32.397  24.414  24.777  1.00  0.00    -0.327 N 
ATOM     18  C   UNL A   1      31.326  23.711  24.327  1.00  0.00     0.312 C 
ATOM     19  H   UNL A   1      32.416  24.660  25.731  1.00  0.00     0.166 HD
ATOM     20  N   UNL A   1      30.507  23.344  25.345  1.00  0.00    -0.352 N 
ATOM     21  O   UNL A   1      31.084  23.442  23.164  1.00  0.00    -0.249 OA
ATOM     22  H   UNL A   1      30.737  23.581  26.273  1.00  0.00     0.161 HD
ATOM     23  H   UNL A   1      29.682  22.839  25.157  1.00  0.00     0.161 HD
ENDBRANCH  16  17
BRANCH  16  24
ATOM     24  C   UNL A   1      34.204  23.554  23.378  1.00  0.00     0.038 C 
BRANCH  24  25
ATOM     25  C   UNL A   1      35.409  22.943  24.122  1.00  0.00    -0.015 C 
ATOM     26  C   UNL A   1      35.168  21.514  24.610  1.00  0.00     0.007 C 
ATOM     27  C   UNL A   1      36.635  22.933  23.197  1.00  0.00     0.007 C 
ENDBRANCH  24  25
ENDBRANCH  16  24
ENDBRANCH  14  16
ENDBRANCH  11  14
ENDBRANCH   4   7
ENDBRANCH   2   3
ENDBRANCH   1   2
BRANCH   1  28
ATOM     28  C   UNL A   1      31.961  31.276  26.863  1.00  0.00     0.023 C 
BRANCH  28  29
ATOM     29  C   UNL A   1      33.157  32.147  27.236  1.00  0.00     0.116 C 
BRANCH  29  30
ATOM     30  N   UNL A   1      32.803  33.509  27.622  1.00  0.00    -0.352 N 
ATOM     31  C   UNL A   1      33.378  34.302  28.588  1.00  0.00     0.251 C 
ATOM     32  H   UNL A   1      32.056  33.914  27.124  1.00  0.00     0.163 HD
ATOM     33  O   UNL A   1      32.907  35.406  28.844  1.00  0.00    -0.269 OA
BRANCH  31  34
ATOM     34  C   UNL A   1      34.531  33.777  29.347  1.00  0.00     0.039 A 
ATOM     35  C   UNL A   1      34.303  32.886  30.397  1.00  0.00     0.014 A 
ATOM     36  C   UNL A   1      35.834  34.099  28.959  1.00  0.00     0.014 A 
ATOM     37  C   UNL A   1      35.385  32.239  30.995  1.00  0.00     0.010 A 
ATOM     38  C   UNL A   1      36.902  33.395  29.500  1.00  0.00     0.010 A 
ATOM     39  C   UNL A   1      36.689  32.448  30.514  1.00  0.00    -0.014 A 
BRANCH  39  40
ATOM     40  C   UNL A   1      37.846  31.685  31.049  1.00  0.00     0.031 A 
ATOM     41  C   UNL A   1      38.393  32.018  32.409  1.00  0.00     0.074 A 
ATOM     42  C   UNL A   1      38.454  30.763  30.276  1.00  0.00     0.049 A 
ATOM     43  N   UNL A   1      39.465  31.563  33.005  1.00  0.00    -0.248 NA
ATOM     44  C   UNL A   1      37.654  33.024  33.186  1.00  0.00     0.031 C 
ATOM     45  C   UNL A   1      38.044  30.390  28.919  1.00  0.00     0.029 A 
ATOM     46  N   UNL A   1      39.554  29.977  30.513  1.00  0.00    -0.354 N 
ATOM     47  C   UNL A   1      39.540  32.241  34.216  1.00  0.00     0.074 A 
ATOM     48  C   UNL A   1      38.440  33.182  34.239  1.00  0.00     0.031 C 
ATOM     49  C   UNL A   1      38.867  29.435  28.456  1.00  0.00     0.029 A 
ATOM     50  C   UNL A   1      39.889  29.157  29.460  1.00  0.00     0.049 A 
ATOM     51  H   UNL A   1      40.058  29.998  31.359  1.00  0.00     0.167 HD
ATOM     52  C   UNL A   1      40.430  32.077  35.227  1.00  0.00     0.034 A 
ATOM     53  C   UNL A   1      40.911  28.289  29.317  1.00  0.00     0.034 A 
ATOM     54  C   UNL A   1      41.505  31.117  35.198  1.00  0.00     0.049 A 
ATOM     55  C   UNL A   1      41.885  28.122  30.456  1.00  0.00     0.074 A 
ATOM     56  C   UNL A   1      42.436  30.834  36.182  1.00  0.00     0.029 A 
ATOM     57  N   UNL A   1      41.794  30.281  34.127  1.00  0.00    -0.354 N 
ATOM     58  N   UNL A   1      41.918  28.744  31.613  1.00  0.00    -0.248 NA
ATOM     59  C   UNL A   1      42.952  27.130  30.275  1.00  0.00     0.031 C 
ATOM     60  C   UNL A   1      43.315  29.863  35.689  1.00  0.00     0.029 A 
ATOM     61  C   UNL A   1      42.895  29.494  34.421  1.00  0.00     0.049 A 
ATOM     62  H   UNL A   1      41.289  30.252  33.282  1.00  0.00     0.167 HD
ATOM     63  C   UNL A   1      42.989  28.190  32.309  1.00  0.00     0.074 A 
ATOM     64  C   UNL A   1      43.566  27.179  31.449  1.00  0.00     0.031 C 
ATOM     65  C   UNL A   1      43.453  28.489  33.549  1.00  0.00     0.034 A 
BRANCH  52  66
ATOM     66  C   UNL A   1      40.275  32.967  36.434  1.00  0.00     0.023 A 
ATOM     67  C   UNL A   1      39.463  32.597  37.520  1.00  0.00     0.031 A 
ATOM     68  C   UNL A   1      40.922  34.215  36.491  1.00  0.00     0.131 A 
ATOM     69  C   UNL A   1      39.257  33.493  38.580  1.00  0.00     0.055 A 
ATOM     70  C   UNL A   1      40.776  35.069  37.586  1.00  0.00     0.041 A 
ATOM     71  F   UNL A   1      41.695  34.630  35.476  1.00  0.00    -0.206 F 
ATOM     72  C   UNL A   1      39.928  34.717  38.632  1.00  0.00     0.022 A 
BRANCH  69  73
ATOM     73  S   UNL A   1      37.997  33.092  39.820  1.00  0.00     0.124 S 
ATOM     74  O   UNL A   1      36.809  32.920  38.988  1.00  0.00    -0.237 OA
ATOM     75  O   UNL A   1      38.529  31.878  40.431  1.00  0.00    -0.237 OA
ATOM     76  O   UNL A   1      37.980  34.269  40.685  1.00  0.00    -0.744 OA
ENDBRANCH  69  73
ENDBRANCH  52  66
BRANCH  53  77
ATOM     77  C   UNL A   1      41.080  27.510  28.056  1.00  0.00     0.023 A 
ATOM     78  C   UNL A   1      40.787  26.139  28.012  1.00  0.00     0.031 A 
ATOM     79  C   UNL A   1      41.593  28.112  26.894  1.00  0.00     0.131 A 
ATOM     80  C   UNL A   1      41.062  25.400  26.850  1.00  0.00     0.055 A 
ATOM     81  C   UNL A   1      41.814  27.385  25.722  1.00  0.00     0.041 A 
ATOM     82  F   UNL A   1      41.883  29.423  26.878  1.00  0.00    -0.206 F 
ATOM     83  C   UNL A   1      41.563  26.016  25.702  1.00  0.00     0.022 A 
BRANCH  80  84
ATOM     84  S   UNL A   1      40.845  23.599  26.896  1.00  0.00     0.124 S 
ATOM     85  O   UNL A   1      41.779  23.161  25.866  1.00  0.00    -0.237 OA
ATOM     86  O   UNL A   1      41.212  23.286  28.273  1.00  0.00    -0.237 OA
ATOM     87  O   UNL A   1      39.430  23.419  26.574  1.00  0.00    -0.744 OA
ENDBRANCH  80  84
ENDBRANCH  53  77
BRANCH  65  88
ATOM     88  C   UNL A   1      44.608  27.666  34.060  1.00  0.00     0.023 A 
ATOM     89  C   UNL A   1      44.410  26.428  34.694  1.00  0.00     0.031 A 
ATOM     90  C   UNL A   1      45.924  28.138  33.918  1.00  0.00     0.131 A 
ATOM     91  C   UNL A   1      45.510  25.726  35.210  1.00  0.00     0.055 A 
ATOM     92  C   UNL A   1      47.019  27.409  34.384  1.00  0.00     0.041 A 
ATOM     93  F   UNL A   1      46.168  29.315  33.319  1.00  0.00    -0.206 F 
ATOM     94  C   UNL A   1      46.814  26.202  35.046  1.00  0.00     0.022 A 
BRANCH  91  95
ATOM     95  S   UNL A   1      45.207  24.219  36.172  1.00  0.00     0.124 S 
ATOM     96  O   UNL A   1      44.023  23.672  35.518  1.00  0.00    -0.237 OA
ATOM     97  O   UNL A   1      46.446  23.471  35.980  1.00  0.00    -0.237 OA
ATOM     98  O   UNL A   1      44.991  24.717  37.530  1.00  0.00    -0.744 OA
ENDBRANCH  91  95
ENDBRANCH  65  88
ENDBRANCH  39  40
ENDBRANCH  31  34
ENDBRANCH  29  30
ENDBRANCH  28  29
ENDBRANCH   1  28
TORSDOF 20
ENDMDL
MODEL 2
REMARK VINA RESULT:     -11.1      6.094      9.723
REMARK SMILES CO[C@@H]1C[C@H](C(=O)NCCCCNC(=O)c2ccc(-c3c4nc(c(-c5cc(S(=O)(=O)[O-])ccc5F)c5ccc([nH]5)c(-c5cc(S(=O)(=O)[O-])ccc5F)c5nc(c(-c6cc(S(=O)(=O)[O-])ccc6F)c6ccc3[nH]6)C=C5)C=C4)cc2)N(C(=O)[C@H](CC(C)C)NC(N)=O)C1
REMARK SMILES IDX 10 1 9 2 8 3 6 4 7 5 5 7 3 8 4 9 91 10 79 11 2 12 1 13 80 14
REMARK SMILES IDX 81 15 82 16 87 17 88 18 89 20 90 21 83 24 84 25 85 26 86 27
REMARK SMILES IDX 11 28 12 29 13 30 14 31 15 33 16 34 17 35 78 36 18 37 77 38
REMARK SMILES IDX 19 39 20 40 21 41 71 42 22 43 76 44 70 45 72 46 23 47 75 48
REMARK SMILES IDX 69 49 68 50 24 52 56 53 36 54 55 55 37 56 40 57 54 58 73 59
REMARK SMILES IDX 38 60 39 61 53 63 74 64 41 65 25 66 26 67 34 68 27 69 33 70
REMARK SMILES IDX 35 71 32 72 28 73 29 74 30 75 31 76 57 77 58 78 66 79 59 80
REMARK SMILES IDX 65 81 67 82 64 83 60 84 61 85 62 86 63 87 42 88 43 89 51 90
REMARK SMILES IDX 44 91 50 92 52 93 49 94 45 95 46 96 47 97 48 98
REMARK H PARENT 8 6 87 19 89 22 89 23 13 32 72 51 40 62
REMARK Flexibility Score: inf
ROOT
ATOM      1  C   UNL A   1      37.411  22.208  24.651  1.00  0.00     0.023 C 
ENDROOT
BRANCH   1   2
ATOM      2  C   UNL A   1      36.905  23.279  25.619  1.00  0.00     0.116 C 
BRANCH   2   3
ATOM      3  N   UNL A   1      36.019  22.705  26.616  1.00  0.00    -0.354 N 
ATOM      4  C   UNL A   1      34.672  22.518  26.613  1.00  0.00     0.242 C 
ATOM      5  O   UNL A   1      34.140  22.221  27.695  1.00  0.00    -0.273 OA
ATOM      6  H   UNL A   1      36.472  22.399  27.435  1.00  0.00     0.163 HD
BRANCH   4   7
ATOM      7  C   UNL A   1      33.756  22.777  25.390  1.00  0.00     0.177 C 
ATOM      8  C   UNL A   1      32.263  21.118  24.356  1.00  0.00     0.139 C 
ATOM      9  C   UNL A   1      33.718  21.567  24.454  1.00  0.00     0.069 C 
ATOM     10  C   UNL A   1      31.441  22.201  25.048  1.00  0.00     0.152 C 
ATOM     11  N   UNL A   1      32.375  23.138  25.655  1.00  0.00    -0.326 N 
BRANCH   8  12
ATOM     12  O   UNL A   1      32.134  19.870  25.027  1.00  0.00    -0.380 OA
ATOM     13  C   UNL A   1      33.358  19.159  25.144  1.00  0.00     0.195 C 
ENDBRANCH   8  12
BRANCH  11  14
ATOM     14  C   UNL A   1      31.873  24.249  26.302  1.00  0.00     0.246 C 
ATOM     15  O   UNL A   1      31.459  24.105  27.461  1.00  0.00    -0.272 OA
BRANCH  14  16
ATOM     16  C   UNL A   1      31.552  25.581  25.552  1.00  0.00     0.173 C 
BRANCH  16  17
ATOM     17  N   UNL A   1      30.144  25.804  25.226  1.00  0.00    -0.327 N 
ATOM     18  C   UNL A   1      29.691  26.257  24.029  1.00  0.00     0.312 C 
ATOM     19  H   UNL A   1      29.478  25.611  25.925  1.00  0.00     0.166 HD
ATOM     20  N   UNL A   1      28.336  26.234  23.967  1.00  0.00    -0.352 N 
ATOM     21  O   UNL A   1      30.381  26.661  23.110  1.00  0.00    -0.249 OA
ATOM     22  H   UNL A   1      27.813  25.899  24.732  1.00  0.00     0.161 HD
ATOM     23  H   UNL A   1      27.874  26.550  23.157  1.00  0.00     0.161 HD
ENDBRANCH  16  17
BRANCH  16  24
ATOM     24  C   UNL A   1      32.087  26.856  26.266  1.00  0.00     0.038 C 
BRANCH  24  25
ATOM     25  C   UNL A   1      32.316  28.143  25.447  1.00  0.00    -0.015 C 
ATOM     26  C   UNL A   1      31.630  29.376  26.039  1.00  0.00     0.007 C 
ATOM     27  C   UNL A   1      33.820  28.432  25.350  1.00  0.00     0.007 C 
ENDBRANCH  24  25
ENDBRANCH  16  24
ENDBRANCH  14  16
ENDBRANCH  11  14
ENDBRANCH   4   7
ENDBRANCH   2   3
ENDBRANCH   1   2
BRANCH   1  28
ATOM     28  C   UNL A   1      37.942  20.937  25.308  1.00  0.00     0.023 C 
BRANCH  28  29
ATOM     29  C   UNL A   1      39.300  21.091  25.987  1.00  0.00     0.116 C 
BRANCH  29  30
ATOM     30  N   UNL A   1      40.124  19.888  25.948  1.00  0.00    -0.352 N 
ATOM     31  C   UNL A   1      41.488  19.778  26.098  1.00  0.00     0.251 C 
ATOM     32  H   UNL A   1      39.641  19.043  25.795  1.00  0.00     0.163 HD
ATOM     33  O   UNL A   1      42.041  18.691  25.959  1.00  0.00    -0.269 OA
BRANCH  31  34
ATOM     34  C   UNL A   1      42.274  20.997  26.373  1.00  0.00     0.039 A 
ATOM     35  C   UNL A   1      42.635  21.825  25.308  1.00  0.00     0.014 A 
ATOM     36  C   UNL A   1      42.572  21.362  27.688  1.00  0.00     0.014 A 
ATOM     37  C   UNL A   1      43.210  23.070  25.571  1.00  0.00     0.010 A 
ATOM     38  C   UNL A   1      43.069  22.632  27.950  1.00  0.00     0.010 A 
ATOM     39  C   UNL A   1      43.381  23.505  26.896  1.00  0.00    -0.014 A 
BRANCH  39  40
ATOM     40  C   UNL A   1      43.877  24.870  27.208  1.00  0.00     0.031 A 
ATOM     41  C   UNL A   1      42.932  25.896  27.768  1.00  0.00     0.074 A 
ATOM     42  C   UNL A   1      45.147  25.207  26.903  1.00  0.00     0.049 A 
ATOM     43  N   UNL A   1      43.128  27.170  27.991  1.00  0.00    -0.248 NA
ATOM     44  C   UNL A   1      41.573  25.432  28.085  1.00  0.00     0.031 C 
ATOM     45  C   UNL A   1      46.142  24.310  26.308  1.00  0.00     0.029 A 
ATOM     46  N   UNL A   1      45.817  26.397  27.039  1.00  0.00    -0.354 N 
ATOM     47  C   UNL A   1      41.914  27.664  28.455  1.00  0.00     0.074 A 
ATOM     48  C   UNL A   1      40.973  26.564  28.420  1.00  0.00     0.031 C 
ATOM     49  C   UNL A   1      47.298  24.976  26.153  1.00  0.00     0.029 A 
ATOM     50  C   UNL A   1      47.118  26.356  26.592  1.00  0.00     0.049 A 
ATOM     51  H   UNL A   1      45.404  27.206  27.420  1.00  0.00     0.167 HD
ATOM     52  C   UNL A   1      41.618  28.913  28.892  1.00  0.00     0.034 A 
ATOM     53  C   UNL A   1      48.054  27.324  26.534  1.00  0.00     0.034 A 
ATOM     54  C   UNL A   1      42.575  29.990  28.943  1.00  0.00     0.049 A 
ATOM     55  C   UNL A   1      47.702  28.704  27.029  1.00  0.00     0.074 A 
ATOM     56  C   UNL A   1      42.397  31.281  29.410  1.00  0.00     0.029 A 
ATOM     57  N   UNL A   1      43.892  29.902  28.512  1.00  0.00    -0.354 N 
ATOM     58  N   UNL A   1      46.558  29.145  27.502  1.00  0.00    -0.248 NA
ATOM     59  C   UNL A   1      48.767  29.714  26.993  1.00  0.00     0.031 C 
ATOM     60  C   UNL A   1      43.590  31.986  29.217  1.00  0.00     0.029 A 
ATOM     61  C   UNL A   1      44.533  31.118  28.689  1.00  0.00     0.049 A 
ATOM     62  H   UNL A   1      44.310  29.094  28.137  1.00  0.00     0.167 HD
ATOM     63  C   UNL A   1      46.780  30.474  27.852  1.00  0.00     0.074 A 
ATOM     64  C   UNL A   1      48.167  30.758  27.548  1.00  0.00     0.031 C 
ATOM     65  C   UNL A   1      45.917  31.378  28.380  1.00  0.00     0.034 A 
BRANCH  52  66
ATOM     66  C   UNL A   1      40.200  29.172  29.334  1.00  0.00     0.023 A 
ATOM     67  C   UNL A   1      39.828  29.106  30.688  1.00  0.00     0.031 A 
ATOM     68  C   UNL A   1      39.197  29.457  28.390  1.00  0.00     0.131 A 
ATOM     69  C   UNL A   1      38.482  29.247  31.054  1.00  0.00     0.055 A 
ATOM     70  C   UNL A   1      37.871  29.677  28.769  1.00  0.00     0.041 A 
ATOM     71  F   UNL A   1      39.488  29.514  27.080  1.00  0.00    -0.206 F 
ATOM     72  C   UNL A   1      37.504  29.558  30.106  1.00  0.00     0.022 A 
BRANCH  69  73
ATOM     73  S   UNL A   1      38.009  28.889  32.767  1.00  0.00     0.124 S 
ATOM     74  O   UNL A   1      38.045  27.429  32.783  1.00  0.00    -0.237 OA
ATOM     75  O   UNL A   1      39.053  29.562  33.532  1.00  0.00    -0.237 OA
ATOM     76  O   UNL A   1      36.675  29.474  32.884  1.00  0.00    -0.744 OA
ENDBRANCH  69  73
ENDBRANCH  52  66
BRANCH  53  77
ATOM     77  C   UNL A   1      49.412  27.041  25.986  1.00  0.00     0.023 A 
ATOM     78  C   UNL A   1      50.490  26.766  26.841  1.00  0.00     0.031 A 
ATOM     79  C   UNL A   1      49.665  27.100  24.604  1.00  0.00     0.131 A 
ATOM     80  C   UNL A   1      51.783  26.616  26.314  1.00  0.00     0.055 A 
ATOM     81  C   UNL A   1      50.943  26.896  24.079  1.00  0.00     0.041 A 
ATOM     82  F   UNL A   1      48.668  27.351  23.740  1.00  0.00    -0.206 F 
ATOM     83  C   UNL A   1      52.014  26.669  24.938  1.00  0.00     0.022 A 
BRANCH  80  84
ATOM     84  S   UNL A   1      53.175  26.449  27.465  1.00  0.00     0.124 S 
ATOM     85  O   UNL A   1      52.488  26.253  28.736  1.00  0.00    -0.237 OA
ATOM     86  O   UNL A   1      53.874  25.286  26.926  1.00  0.00    -0.237 OA
ATOM     87  O   UNL A   1      53.885  27.719  27.327  1.00  0.00    -0.744 OA
ENDBRANCH  80  84
ENDBRANCH  53  77
BRANCH  65  88
ATOM     88  C   UNL A   1      46.475  32.740  28.710  1.00  0.00     0.023 A 
ATOM     89  C   UNL A   1      46.330  33.830  27.836  1.00  0.00     0.031 A 
ATOM     90  C   UNL A   1      47.172  32.941  29.914  1.00  0.00     0.131 A 
ATOM     91  C   UNL A   1      46.919  35.063  28.156  1.00  0.00     0.055 A 
ATOM     92  C   UNL A   1      47.709  34.184  30.253  1.00  0.00     0.041 A 
ATOM     93  F   UNL A   1      47.339  31.932  30.784  1.00  0.00    -0.206 F 
ATOM     94  C   UNL A   1      47.595  35.250  29.365  1.00  0.00     0.022 A 
BRANCH  91  95
ATOM     95  S   UNL A   1      46.861  36.399  26.931  1.00  0.00     0.124 S 
ATOM     96  O   UNL A   1      47.413  37.524  27.680  1.00  0.00    -0.237 OA
ATOM     97  O   UNL A   1      47.699  35.875  25.857  1.00  0.00    -0.237 OA
ATOM     98  O   UNL A   1      45.439  36.507  26.609  1.00  0.00    -0.744 OA
ENDBRANCH  91  95
ENDBRANCH  65  88
ENDBRANCH  39  40
ENDBRANCH  31  34
ENDBRANCH  29  30
ENDBRANCH  28  29
ENDBRANCH   1  28
TORSDOF 20
ENDMDL
MODEL 3
REMARK VINA RESULT:     -11.1      5.110     10.548
REMARK SMILES CO[C@@H]1C[C@H](C(=O)NCCCCNC(=O)c2ccc(-c3c4nc(c(-c5cc(S(=O)(=O)[O-])ccc5F)c5ccc([nH]5)c(-c5cc(S(=O)(=O)[O-])ccc5F)c5nc(c(-c6cc(S(=O)(=O)[O-])ccc6F)c6ccc3[nH]6)C=C5)C=C4)cc2)N(C(=O)[C@H](CC(C)C)NC(N)=O)C1
REMARK SMILES IDX 10 1 9 2 8 3 6 4 7 5 5 7 3 8 4 9 91 10 79 11 2 12 1 13 80 14
REMARK SMILES IDX 81 15 82 16 87 17 88 18 89 20 90 21 83 24 84 25 85 26 86 27
REMARK SMILES IDX 11 28 12 29 13 30 14 31 15 33 16 34 17 35 78 36 18 37 77 38
REMARK SMILES IDX 19 39 20 40 21 41 71 42 22 43 76 44 70 45 72 46 23 47 75 48
REMARK SMILES IDX 69 49 68 50 24 52 56 53 36 54 55 55 37 56 40 57 54 58 73 59
REMARK SMILES IDX 38 60 39 61 53 63 74 64 41 65 25 66 26 67 34 68 27 69 33 70
REMARK SMILES IDX 35 71 32 72 28 73 29 74 30 75 31 76 57 77 58 78 66 79 59 80
REMARK SMILES IDX 65 81 67 82 64 83 60 84 61 85 62 86 63 87 42 88 43 89 51 90
REMARK SMILES IDX 44 91 50 92 52 93 49 94 45 95 46 96 47 97 48 98
REMARK H PARENT 8 6 87 19 89 22 89 23 13 32 72 51 40 62
REMARK Flexibility Score: inf
ROOT
ATOM      1  C   UNL A   1      36.279  23.044  23.494  1.00  0.00     0.023 C 
ENDROOT
BRANCH   1   2
ATOM      2  C   UNL A   1      35.022  23.915  23.424  1.00  0.00     0.116 C 
BRANCH   2   3
ATOM      3  N   UNL A   1      34.856  24.690  24.641  1.00  0.00    -0.354 N 
ATOM      4  C   UNL A   1      33.779  25.358  25.135  1.00  0.00     0.242 C 
ATOM      5  O   UNL A   1      33.981  26.135  26.082  1.00  0.00    -0.273 OA
ATOM      6  H   UNL A   1      35.662  24.740  25.206  1.00  0.00     0.163 HD
BRANCH   4   7
ATOM      7  C   UNL A   1      32.359  25.308  24.515  1.00  0.00     0.177 C 
ATOM      8  C   UNL A   1      30.350  24.432  25.630  1.00  0.00     0.139 C 
ATOM      9  C   UNL A   1      31.626  24.022  24.900  1.00  0.00     0.069 C 
ATOM     10  C   UNL A   1      30.238  25.945  25.465  1.00  0.00     0.152 C 
ATOM     11  N   UNL A   1      31.460  26.405  24.820  1.00  0.00    -0.326 N 
BRANCH   8  12
ATOM     12  O   UNL A   1      30.486  24.076  27.001  1.00  0.00    -0.380 OA
ATOM     13  C   UNL A   1      31.545  23.162  27.248  1.00  0.00     0.195 C 
ENDBRANCH   8  12
BRANCH  11  14
ATOM     14  C   UNL A   1      31.580  27.744  24.509  1.00  0.00     0.246 C 
ATOM     15  O   UNL A   1      31.407  28.567  25.419  1.00  0.00    -0.272 OA
BRANCH  14  16
ATOM     16  C   UNL A   1      31.642  28.259  23.035  1.00  0.00     0.173 C 
BRANCH  16  17
ATOM     17  N   UNL A   1      31.453  27.244  21.999  1.00  0.00    -0.327 N 
ATOM     18  C   UNL A   1      32.458  26.546  21.411  1.00  0.00     0.312 C 
ATOM     19  H   UNL A   1      30.532  27.054  21.708  1.00  0.00     0.166 HD
ATOM     20  N   UNL A   1      31.979  25.578  20.590  1.00  0.00    -0.352 N 
ATOM     21  O   UNL A   1      33.651  26.747  21.559  1.00  0.00    -0.249 OA
ATOM     22  H   UNL A   1      31.007  25.447  20.497  1.00  0.00     0.161 HD
ATOM     23  H   UNL A   1      32.603  25.005  20.088  1.00  0.00     0.161 HD
ENDBRANCH  16  17
BRANCH  16  24
ATOM     24  C   UNL A   1      30.672  29.438  22.734  1.00  0.00     0.038 C 
BRANCH  24  25
ATOM     25  C   UNL A   1      29.277  29.141  22.147  1.00  0.00    -0.015 C 
ATOM     26  C   UNL A   1      28.338  28.436  23.126  1.00  0.00     0.007 C 
ATOM     27  C   UNL A   1      28.612  30.452  21.706  1.00  0.00     0.007 C 
ENDBRANCH  24  25
ENDBRANCH  16  24
ENDBRANCH  14  16
ENDBRANCH  11  14
ENDBRANCH   4   7
ENDBRANCH   2   3
ENDBRANCH   1   2
BRANCH   1  28
ATOM     28  C   UNL A   1      36.148  21.782  24.340  1.00  0.00     0.023 C 
BRANCH  28  29
ATOM     29  C   UNL A   1      36.917  21.816  25.658  1.00  0.00     0.116 C 
BRANCH  29  30
ATOM     30  N   UNL A   1      38.016  20.859  25.729  1.00  0.00    -0.352 N 
ATOM     31  C   UNL A   1      39.306  21.067  26.161  1.00  0.00     0.251 C 
ATOM     32  H   UNL A   1      37.807  19.944  25.431  1.00  0.00     0.163 HD
ATOM     33  O   UNL A   1      40.138  20.168  26.084  1.00  0.00    -0.269 OA
BRANCH  31  34
ATOM     34  C   UNL A   1      39.682  22.404  26.664  1.00  0.00     0.039 A 
ATOM     35  C   UNL A   1      40.694  22.508  27.620  1.00  0.00     0.014 A 
ATOM     36  C   UNL A   1      39.096  23.550  26.122  1.00  0.00     0.014 A 
ATOM     37  C   UNL A   1      41.188  23.769  27.961  1.00  0.00     0.010 A 
ATOM     38  C   UNL A   1      39.643  24.796  26.403  1.00  0.00     0.010 A 
ATOM     39  C   UNL A   1      40.702  24.917  27.315  1.00  0.00    -0.014 A 
BRANCH  39  40
ATOM     40  C   UNL A   1      41.290  26.259  27.569  1.00  0.00     0.031 A 
ATOM     41  C   UNL A   1      42.681  26.565  27.087  1.00  0.00     0.074 A 
ATOM     42  C   UNL A   1      40.609  27.160  28.305  1.00  0.00     0.049 A 
ATOM     43  N   UNL A   1      43.421  27.620  27.310  1.00  0.00    -0.248 NA
ATOM     44  C   UNL A   1      43.339  25.529  26.277  1.00  0.00     0.031 C 
ATOM     45  C   UNL A   1      39.271  26.956  28.869  1.00  0.00     0.029 A 
ATOM     46  N   UNL A   1      40.950  28.424  28.718  1.00  0.00    -0.354 N 
ATOM     47  C   UNL A   1      44.638  27.367  26.687  1.00  0.00     0.074 A 
ATOM     48  C   UNL A   1      44.554  26.032  26.131  1.00  0.00     0.031 C 
ATOM     49  C   UNL A   1      38.900  28.063  29.533  1.00  0.00     0.029 A 
ATOM     50  C   UNL A   1      39.984  29.038  29.482  1.00  0.00     0.049 A 
ATOM     51  H   UNL A   1      41.807  28.851  28.488  1.00  0.00     0.167 HD
ATOM     52  C   UNL A   1      45.716  28.181  26.567  1.00  0.00     0.034 A 
ATOM     53  C   UNL A   1      39.981  30.244  30.083  1.00  0.00     0.034 A 
ATOM     54  C   UNL A   1      45.772  29.517  27.106  1.00  0.00     0.049 A 
ATOM     55  C   UNL A   1      41.190  31.133  29.933  1.00  0.00     0.074 A 
ATOM     56  C   UNL A   1      46.794  30.446  27.004  1.00  0.00     0.029 A 
ATOM     57  N   UNL A   1      44.763  30.117  27.847  1.00  0.00    -0.354 N 
ATOM     58  N   UNL A   1      42.319  30.893  29.305  1.00  0.00    -0.248 NA
ATOM     59  C   UNL A   1      41.122  32.458  30.562  1.00  0.00     0.031 C 
ATOM     60  C   UNL A   1      46.422  31.587  27.724  1.00  0.00     0.029 A 
ATOM     61  C   UNL A   1      45.143  31.396  28.221  1.00  0.00     0.049 A 
ATOM     62  H   UNL A   1      43.902  29.695  28.073  1.00  0.00     0.167 HD
ATOM     63  C   UNL A   1      43.078  32.052  29.435  1.00  0.00     0.074 A 
ATOM     64  C   UNL A   1      42.276  32.992  30.189  1.00  0.00     0.031 C 
ATOM     65  C   UNL A   1      44.326  32.318  28.972  1.00  0.00     0.034 A 
BRANCH  52  66
ATOM     66  C   UNL A   1      46.916  27.634  25.837  1.00  0.00     0.023 A 
ATOM     67  C   UNL A   1      47.185  27.981  24.501  1.00  0.00     0.031 A 
ATOM     68  C   UNL A   1      47.789  26.731  26.469  1.00  0.00     0.131 A 
ATOM     69  C   UNL A   1      48.249  27.374  23.818  1.00  0.00     0.055 A 
ATOM     70  C   UNL A   1      48.894  26.191  25.809  1.00  0.00     0.041 A 
ATOM     71  F   UNL A   1      47.573  26.348  27.738  1.00  0.00    -0.206 F 
ATOM     72  C   UNL A   1      49.121  26.500  24.471  1.00  0.00     0.022 A 
BRANCH  69  73
ATOM     73  S   UNL A   1      48.396  27.642  22.031  1.00  0.00     0.124 S 
ATOM     74  O   UNL A   1      49.516  28.577  21.966  1.00  0.00    -0.237 OA
ATOM     75  O   UNL A   1      48.657  26.297  21.529  1.00  0.00    -0.237 OA
ATOM     76  O   UNL A   1      47.099  28.205  21.661  1.00  0.00    -0.744 OA
ENDBRANCH  69  73
ENDBRANCH  52  66
BRANCH  53  77
ATOM     77  C   UNL A   1      38.807  30.694  30.886  1.00  0.00     0.023 A 
ATOM     78  C   UNL A   1      37.818  31.512  30.319  1.00  0.00     0.031 A 
ATOM     79  C   UNL A   1      38.688  30.361  32.247  1.00  0.00     0.131 A 
ATOM     80  C   UNL A   1      36.783  32.018  31.121  1.00  0.00     0.055 A 
ATOM     81  C   UNL A   1      37.626  30.823  33.028  1.00  0.00     0.041 A 
ATOM     82  F   UNL A   1      39.601  29.574  32.838  1.00  0.00    -0.206 F 
ATOM     83  C   UNL A   1      36.675  31.671  32.469  1.00  0.00     0.022 A 
BRANCH  80  84
ATOM     84  S   UNL A   1      35.633  33.220  30.397  1.00  0.00     0.124 S 
ATOM     85  O   UNL A   1      35.332  34.071  31.542  1.00  0.00    -0.237 OA
ATOM     86  O   UNL A   1      36.448  33.822  29.346  1.00  0.00    -0.237 OA
ATOM     87  O   UNL A   1      34.526  32.391  29.926  1.00  0.00    -0.744 OA
ENDBRANCH  80  84
ENDBRANCH  53  77
BRANCH  65  88
ATOM     88  C   UNL A   1      44.866  33.702  29.225  1.00  0.00     0.023 A 
ATOM     89  C   UNL A   1      44.557  34.782  28.382  1.00  0.00     0.031 A 
ATOM     90  C   UNL A   1      45.712  33.936  30.324  1.00  0.00     0.131 A 
ATOM     91  C   UNL A   1      45.132  36.040  28.621  1.00  0.00     0.055 A 
ATOM     92  C   UNL A   1      46.238  35.201  30.588  1.00  0.00     0.041 A 
ATOM     93  F   UNL A   1      46.039  32.938  31.160  1.00  0.00    -0.206 F 
ATOM     94  C   UNL A   1      45.959  36.259  29.726  1.00  0.00     0.022 A 
BRANCH  91  95
ATOM     95  S   UNL A   1      44.851  37.368  27.419  1.00  0.00     0.124 S 
ATOM     96  O   UNL A   1      43.547  37.011  26.869  1.00  0.00    -0.237 OA
ATOM     97  O   UNL A   1      44.884  38.562  28.259  1.00  0.00    -0.237 OA
ATOM     98  O   UNL A   1      45.974  37.235  26.492  1.00  0.00    -0.744 OA
ENDBRANCH  91  95
ENDBRANCH  65  88
ENDBRANCH  39  40
ENDBRANCH  31  34
ENDBRANCH  29  30
ENDBRANCH  28  29
ENDBRANCH   1  28
TORSDOF 20
ENDMDL
