MODEL 1
REMARK VINA RESULT:     -11.2      0.000      0.000
REMARK SMILES CC(C)(C)N(CC(=O)NCCCCNC(=O)c1ccc(-c2c3nc(c(-c4cc(S(=O)(=O)[O-])ccc4F)c4ccc([nH]4)c(-c4cc(S(=O)(=O)[O-])ccc4F)c4nc(c(-c5cc(S(=O)(=O)[O-])ccc5F)c5ccc2[nH]5)C=C4)C=C3)cc1)C(=O)NC[C@H]1CCOC1
REMARK SMILES IDX 11 1 10 2 9 3 7 4 8 5 6 7 5 8 2 9 1 10 3 11 4 12 80 13 81 14
REMARK SMILES IDX 82 15 83 17 84 18 85 19 88 20 86 21 87 22 12 23 13 24 14 25
REMARK SMILES IDX 15 26 16 28 17 29 18 30 79 31 19 32 78 33 20 34 21 35 22 36
REMARK SMILES IDX 72 37 23 38 77 39 71 40 73 41 24 42 76 43 70 44 69 45 25 47
REMARK SMILES IDX 57 48 37 49 56 50 38 51 41 52 55 53 74 54 39 55 40 56 54 58
REMARK SMILES IDX 75 59 42 60 26 61 27 62 35 63 28 64 34 65 36 66 33 67 29 68
REMARK SMILES IDX 30 69 31 70 32 71 58 72 59 73 67 74 60 75 66 76 68 77 65 78
REMARK SMILES IDX 61 79 62 80 63 81 64 82 43 83 44 84 52 85 45 86 51 87 53 88
REMARK SMILES IDX 50 89 46 90 47 91 48 92 49 93
REMARK H PARENT 9 6 82 16 14 27 73 46 41 57
REMARK Flexibility Score: inf
ROOT
ATOM      1  C   UNL A   1      31.480  30.469  25.739  1.00  0.00     0.023 C 
ENDROOT
BRANCH   1   2
ATOM      2  C   UNL A   1      32.806  29.728  25.859  1.00  0.00     0.116 C 
BRANCH   2   3
ATOM      3  N   UNL A   1      33.568  29.722  24.635  1.00  0.00    -0.355 N 
ATOM      4  C   UNL A   1      33.833  28.668  23.815  1.00  0.00     0.239 C 
ATOM      5  O   UNL A   1      34.186  28.925  22.658  1.00  0.00    -0.273 OA
ATOM      6  H   UNL A   1      33.943  30.589  24.357  1.00  0.00     0.163 HD
BRANCH   4   7
ATOM      7  C   UNL A   1      33.531  27.213  24.222  1.00  0.00     0.221 C 
BRANCH   7   8
ATOM      8  N   UNL A   1      32.325  26.557  23.692  1.00  0.00    -0.311 N 
BRANCH   8   9
ATOM      9  C   UNL A   1      31.417  25.783  24.649  1.00  0.00     0.037 C 
ATOM     10  C   UNL A   1      30.257  25.009  23.963  1.00  0.00     0.034 C 
ATOM     11  C   UNL A   1      30.728  26.704  25.688  1.00  0.00     0.034 C 
ATOM     12  C   UNL A   1      32.238  24.705  25.398  1.00  0.00     0.034 C 
ENDBRANCH   8   9
BRANCH   8  13
ATOM     13  C   UNL A   1      31.834  26.818  22.431  1.00  0.00     0.318 C 
ATOM     14  O   UNL A   1      31.957  26.022  21.494  1.00  0.00    -0.249 OA
ATOM     15  N   UNL A   1      31.172  27.928  22.073  1.00  0.00    -0.338 N 
ATOM     16  H   UNL A   1      31.079  27.956  21.094  1.00  0.00     0.165 HD
BRANCH  15  17
ATOM     17  C   UNL A   1      30.545  29.108  22.658  1.00  0.00     0.123 C 
BRANCH  17  18
ATOM     18  C   UNL A   1      29.032  29.095  22.452  1.00  0.00     0.036 C 
ATOM     19  C   UNL A   1      28.298  28.028  23.241  1.00  0.00     0.036 C 
ATOM     20  C   UNL A   1      28.352  30.366  22.944  1.00  0.00     0.165 C 
ATOM     21  C   UNL A   1      26.891  28.580  23.264  1.00  0.00     0.160 C 
ATOM     22  O   UNL A   1      27.028  30.003  23.369  1.00  0.00    -0.381 OA
ENDBRANCH  17  18
ENDBRANCH  15  17
ENDBRANCH   8  13
ENDBRANCH   7   8
ENDBRANCH   4   7
ENDBRANCH   2   3
ENDBRANCH   1   2
BRANCH   1  23
ATOM     23  C   UNL A   1      31.376  31.754  26.558  1.00  0.00     0.023 C 
BRANCH  23  24
ATOM     24  C   UNL A   1      32.702  32.352  27.017  1.00  0.00     0.116 C 
BRANCH  24  25
ATOM     25  N   UNL A   1      32.590  33.696  27.566  1.00  0.00    -0.352 N 
ATOM     26  C   UNL A   1      33.416  34.325  28.471  1.00  0.00     0.251 C 
ATOM     27  H   UNL A   1      31.823  34.225  27.249  1.00  0.00     0.163 HD
ATOM     28  O   UNL A   1      33.141  35.452  28.872  1.00  0.00    -0.269 OA
BRANCH  26  29
ATOM     29  C   UNL A   1      34.598  33.605  28.989  1.00  0.00     0.039 A 
ATOM     30  C   UNL A   1      35.866  34.145  28.761  1.00  0.00     0.014 A 
ATOM     31  C   UNL A   1      34.448  32.446  29.753  1.00  0.00     0.014 A 
ATOM     32  C   UNL A   1      36.979  33.570  29.378  1.00  0.00     0.010 A 
ATOM     33  C   UNL A   1      35.548  31.921  30.426  1.00  0.00     0.010 A 
ATOM     34  C   UNL A   1      36.822  32.484  30.255  1.00  0.00    -0.014 A 
BRANCH  34  35
ATOM     35  C   UNL A   1      37.973  31.922  31.008  1.00  0.00     0.031 A 
ATOM     36  C   UNL A   1      38.792  30.816  30.403  1.00  0.00     0.074 A 
ATOM     37  C   UNL A   1      38.231  32.354  32.259  1.00  0.00     0.049 A 
ATOM     38  N   UNL A   1      39.753  30.109  30.938  1.00  0.00    -0.248 NA
ATOM     39  C   UNL A   1      38.459  30.432  29.023  1.00  0.00     0.031 C 
ATOM     40  C   UNL A   1      37.483  33.397  32.968  1.00  0.00     0.029 A 
ATOM     41  N   UNL A   1      39.187  31.965  33.163  1.00  0.00    -0.354 N 
ATOM     42  C   UNL A   1      40.132  29.189  29.966  1.00  0.00     0.074 A 
ATOM     43  C   UNL A   1      39.253  29.388  28.834  1.00  0.00     0.031 C 
ATOM     44  C   UNL A   1      38.022  33.577  34.184  1.00  0.00     0.029 A 
ATOM     45  C   UNL A   1      39.123  32.636  34.364  1.00  0.00     0.049 A 
ATOM     46  H   UNL A   1      39.856  31.269  32.972  1.00  0.00     0.167 HD
ATOM     47  C   UNL A   1      41.137  28.279  30.004  1.00  0.00     0.034 A 
ATOM     48  C   UNL A   1      39.861  32.499  35.483  1.00  0.00     0.034 A 
ATOM     49  C   UNL A   1      42.018  28.104  31.132  1.00  0.00     0.049 A 
ATOM     50  C   UNL A   1      40.964  31.470  35.504  1.00  0.00     0.074 A 
ATOM     51  C   UNL A   1      43.086  27.233  31.267  1.00  0.00     0.029 A 
ATOM     52  N   UNL A   1      41.939  28.820  32.319  1.00  0.00    -0.354 N 
ATOM     53  N   UNL A   1      41.326  30.626  34.565  1.00  0.00    -0.248 NA
ATOM     54  C   UNL A   1      41.766  31.382  36.732  1.00  0.00     0.031 C 
ATOM     55  C   UNL A   1      43.621  27.389  32.552  1.00  0.00     0.029 A 
ATOM     56  C   UNL A   1      42.928  28.402  33.195  1.00  0.00     0.049 A 
ATOM     57  H   UNL A   1      41.275  29.522  32.512  1.00  0.00     0.167 HD
ATOM     58  C   UNL A   1      42.421  29.938  35.078  1.00  0.00     0.074 A 
ATOM     59  C   UNL A   1      42.667  30.472  36.400  1.00  0.00     0.031 C 
ATOM     60  C   UNL A   1      43.161  28.953  34.507  1.00  0.00     0.034 A 
BRANCH  47  61
ATOM     61  C   UNL A   1      41.320  27.400  28.792  1.00  0.00     0.023 A 
ATOM     62  C   UNL A   1      42.339  27.649  27.855  1.00  0.00     0.031 A 
ATOM     63  C   UNL A   1      40.456  26.318  28.555  1.00  0.00     0.131 A 
ATOM     64  C   UNL A   1      42.422  26.874  26.689  1.00  0.00     0.055 A 
ATOM     65  C   UNL A   1      40.594  25.500  27.431  1.00  0.00     0.041 A 
ATOM     66  F   UNL A   1      39.453  26.046  29.404  1.00  0.00    -0.206 F 
ATOM     67  C   UNL A   1      41.573  25.785  26.484  1.00  0.00     0.022 A 
BRANCH  64  68
ATOM     68  S   UNL A   1      43.574  27.389  25.388  1.00  0.00     0.124 S 
ATOM     69  O   UNL A   1      44.314  26.152  25.145  1.00  0.00    -0.237 OA
ATOM     70  O   UNL A   1      42.677  27.817  24.322  1.00  0.00    -0.237 OA
ATOM     71  O   UNL A   1      44.348  28.457  26.019  1.00  0.00    -0.744 OA
ENDBRANCH  64  68
ENDBRANCH  47  61
BRANCH  48  72
ATOM     72  C   UNL A   1      39.592  33.341  36.685  1.00  0.00     0.023 A 
ATOM     73  C   UNL A   1      38.903  32.815  37.790  1.00  0.00     0.031 A 
ATOM     74  C   UNL A   1      39.952  34.699  36.719  1.00  0.00     0.131 A 
ATOM     75  C   UNL A   1      38.540  33.654  38.854  1.00  0.00     0.055 A 
ATOM     76  C   UNL A   1      39.638  35.517  37.806  1.00  0.00     0.041 A 
ATOM     77  F   UNL A   1      40.616  35.252  35.692  1.00  0.00    -0.206 F 
ATOM     78  C   UNL A   1      38.911  35.000  38.875  1.00  0.00     0.022 A 
BRANCH  75  79
ATOM     79  S   UNL A   1      37.473  32.986  40.160  1.00  0.00     0.124 S 
ATOM     80  O   UNL A   1      36.238  32.724  39.431  1.00  0.00    -0.237 OA
ATOM     81  O   UNL A   1      38.225  31.811  40.591  1.00  0.00    -0.237 OA
ATOM     82  O   UNL A   1      37.406  34.073  41.134  1.00  0.00    -0.744 OA
ENDBRANCH  75  79
ENDBRANCH  48  72
BRANCH  60  83
ATOM     83  C   UNL A   1      44.341  28.443  35.295  1.00  0.00     0.023 A 
ATOM     84  C   UNL A   1      44.205  27.433  36.262  1.00  0.00     0.031 A 
ATOM     85  C   UNL A   1      45.618  28.992  35.082  1.00  0.00     0.131 A 
ATOM     86  C   UNL A   1      45.318  27.040  37.020  1.00  0.00     0.055 A 
ATOM     87  C   UNL A   1      46.731  28.559  35.802  1.00  0.00     0.041 A 
ATOM     88  F   UNL A   1      45.802  29.960  34.169  1.00  0.00    -0.206 F 
ATOM     89  C   UNL A   1      46.582  27.587  36.786  1.00  0.00     0.022 A 
BRANCH  86  90
ATOM     90  S   UNL A   1      45.074  25.861  38.378  1.00  0.00     0.124 S 
ATOM     91  O   UNL A   1      43.973  26.470  39.116  1.00  0.00    -0.237 OA
ATOM     92  O   UNL A   1      44.759  24.628  37.665  1.00  0.00    -0.237 OA
ATOM     93  O   UNL A   1      46.362  25.864  39.069  1.00  0.00    -0.744 OA
ENDBRANCH  86  90
ENDBRANCH  60  83
ENDBRANCH  34  35
ENDBRANCH  26  29
ENDBRANCH  24  25
ENDBRANCH  23  24
ENDBRANCH   1  23
TORSDOF 19
ENDMDL
MODEL 2
REMARK VINA RESULT:     -11.0      3.370      4.810
REMARK SMILES CC(C)(C)N(CC(=O)NCCCCNC(=O)c1ccc(-c2c3nc(c(-c4cc(S(=O)(=O)[O-])ccc4F)c4ccc([nH]4)c(-c4cc(S(=O)(=O)[O-])ccc4F)c4nc(c(-c5cc(S(=O)(=O)[O-])ccc5F)c5ccc2[nH]5)C=C4)C=C3)cc1)C(=O)NC[C@H]1CCOC1
REMARK SMILES IDX 11 1 10 2 9 3 7 4 8 5 6 7 5 8 2 9 1 10 3 11 4 12 80 13 81 14
REMARK SMILES IDX 82 15 83 17 84 18 85 19 88 20 86 21 87 22 12 23 13 24 14 25
REMARK SMILES IDX 15 26 16 28 17 29 18 30 79 31 19 32 78 33 20 34 21 35 22 36
REMARK SMILES IDX 72 37 23 38 77 39 71 40 73 41 24 42 76 43 70 44 69 45 25 47
REMARK SMILES IDX 57 48 37 49 56 50 38 51 41 52 55 53 74 54 39 55 40 56 54 58
REMARK SMILES IDX 75 59 42 60 26 61 27 62 35 63 28 64 34 65 36 66 33 67 29 68
REMARK SMILES IDX 30 69 31 70 32 71 58 72 59 73 67 74 60 75 66 76 68 77 65 78
REMARK SMILES IDX 61 79 62 80 63 81 64 82 43 83 44 84 52 85 45 86 51 87 53 88
REMARK SMILES IDX 50 89 46 90 47 91 48 92 49 93
REMARK H PARENT 9 6 82 16 14 27 73 46 41 57
REMARK Flexibility Score: inf
ROOT
ATOM      1  C   UNL A   1      32.328  27.551  26.826  1.00  0.00     0.023 C 
ENDROOT
BRANCH   1   2
ATOM      2  C   UNL A   1      31.949  26.301  26.039  1.00  0.00     0.116 C 
BRANCH   2   3
ATOM      3  N   UNL A   1      31.451  25.235  26.872  1.00  0.00    -0.355 N 
ATOM      4  C   UNL A   1      31.524  23.894  26.653  1.00  0.00     0.239 C 
ATOM      5  O   UNL A   1      31.365  23.151  27.629  1.00  0.00    -0.273 OA
ATOM      6  H   UNL A   1      31.001  25.511  27.703  1.00  0.00     0.163 HD
BRANCH   4   7
ATOM      7  C   UNL A   1      31.973  23.304  25.303  1.00  0.00     0.221 C 
BRANCH   7   8
ATOM      8  N   UNL A   1      33.304  22.685  25.198  1.00  0.00    -0.311 N 
BRANCH   8   9
ATOM      9  C   UNL A   1      34.460  23.499  24.616  1.00  0.00     0.037 C 
ATOM     10  C   UNL A   1      34.051  24.516  23.514  1.00  0.00     0.034 C 
ATOM     11  C   UNL A   1      35.544  22.607  23.958  1.00  0.00     0.034 C 
ATOM     12  C   UNL A   1      35.117  24.351  25.730  1.00  0.00     0.034 C 
ENDBRANCH   8   9
BRANCH   8  13
ATOM     13  C   UNL A   1      33.624  21.504  25.834  1.00  0.00     0.318 C 
ATOM     14  O   UNL A   1      34.124  21.475  26.963  1.00  0.00    -0.249 OA
ATOM     15  N   UNL A   1      33.429  20.277  25.330  1.00  0.00    -0.338 N 
ATOM     16  H   UNL A   1      33.891  19.612  25.890  1.00  0.00     0.165 HD
BRANCH  15  17
ATOM     17  C   UNL A   1      32.759  19.602  24.224  1.00  0.00     0.123 C 
BRANCH  17  18
ATOM     18  C   UNL A   1      33.037  18.101  24.236  1.00  0.00     0.036 C 
ATOM     19  C   UNL A   1      34.509  17.734  24.255  1.00  0.00     0.036 C 
ATOM     20  C   UNL A   1      32.531  17.410  25.494  1.00  0.00     0.165 C 
ATOM     21  C   UNL A   1      34.464  16.320  24.786  1.00  0.00     0.160 C 
ATOM     22  O   UNL A   1      33.402  16.294  25.748  1.00  0.00    -0.381 OA
ENDBRANCH  17  18
ENDBRANCH  15  17
ENDBRANCH   8  13
ENDBRANCH   7   8
ENDBRANCH   4   7
ENDBRANCH   2   3
ENDBRANCH   1   2
BRANCH   1  23
ATOM     23  C   UNL A   1      31.641  28.838  26.372  1.00  0.00     0.023 C 
BRANCH  23  24
ATOM     24  C   UNL A   1      32.572  29.946  25.889  1.00  0.00     0.116 C 
BRANCH  24  25
ATOM     25  N   UNL A   1      32.230  31.271  26.390  1.00  0.00    -0.352 N 
ATOM     26  C   UNL A   1      32.947  32.076  27.245  1.00  0.00     0.251 C 
ATOM     27  H   UNL A   1      31.373  31.638  26.074  1.00  0.00     0.163 HD
ATOM     28  O   UNL A   1      32.481  33.151  27.611  1.00  0.00    -0.269 OA
BRANCH  26  29
ATOM     29  C   UNL A   1      34.250  31.604  27.757  1.00  0.00     0.039 A 
ATOM     30  C   UNL A   1      35.331  32.488  27.759  1.00  0.00     0.014 A 
ATOM     31  C   UNL A   1      34.383  30.322  28.295  1.00  0.00     0.014 A 
ATOM     32  C   UNL A   1      36.523  32.116  28.384  1.00  0.00     0.010 A 
ATOM     33  C   UNL A   1      35.545  29.983  28.982  1.00  0.00     0.010 A 
ATOM     34  C   UNL A   1      36.622  30.880  29.043  1.00  0.00    -0.014 A 
BRANCH  34  35
ATOM     35  C   UNL A   1      37.840  30.505  29.808  1.00  0.00     0.031 A 
ATOM     36  C   UNL A   1      38.828  29.540  29.212  1.00  0.00     0.074 A 
ATOM     37  C   UNL A   1      38.015  30.970  31.061  1.00  0.00     0.049 A 
ATOM     38  N   UNL A   1      39.882  28.993  29.757  1.00  0.00    -0.248 NA
ATOM     39  C   UNL A   1      38.573  29.111  27.829  1.00  0.00     0.031 C 
ATOM     40  C   UNL A   1      37.105  31.882  31.762  1.00  0.00     0.029 A 
ATOM     41  N   UNL A   1      39.010  30.735  31.976  1.00  0.00    -0.354 N 
ATOM     42  C   UNL A   1      40.411  28.144  28.790  1.00  0.00     0.074 A 
ATOM     43  C   UNL A   1      39.522  28.205  27.649  1.00  0.00     0.031 C 
ATOM     44  C   UNL A   1      37.597  32.144  32.984  1.00  0.00     0.029 A 
ATOM     45  C   UNL A   1      38.830  31.386  33.175  1.00  0.00     0.049 A 
ATOM     46  H   UNL A   1      39.782  30.152  31.792  1.00  0.00     0.167 HD
ATOM     47  C   UNL A   1      41.545  27.403  28.839  1.00  0.00     0.034 A 
ATOM     48  C   UNL A   1      39.569  31.365  34.302  1.00  0.00     0.034 A 
ATOM     49  C   UNL A   1      42.431  27.367  29.975  1.00  0.00     0.049 A 
ATOM     50  C   UNL A   1      40.819  30.522  34.335  1.00  0.00     0.074 A 
ATOM     51  C   UNL A   1      43.621  26.674  30.121  1.00  0.00     0.029 A 
ATOM     52  N   UNL A   1      42.229  28.060  31.161  1.00  0.00    -0.354 N 
ATOM     53  N   UNL A   1      41.318  29.746  33.399  1.00  0.00    -0.248 NA
ATOM     54  C   UNL A   1      41.612  30.559  35.571  1.00  0.00     0.031 C 
ATOM     55  C   UNL A   1      44.112  26.910  31.411  1.00  0.00     0.029 A 
ATOM     56  C   UNL A   1      43.262  27.801  32.047  1.00  0.00     0.049 A 
ATOM     57  H   UNL A   1      41.462  28.649  31.347  1.00  0.00     0.167 HD
ATOM     58  C   UNL A   1      42.503  29.237  33.924  1.00  0.00     0.074 A 
ATOM     59  C   UNL A   1      42.649  29.801  35.248  1.00  0.00     0.031 C 
ATOM     60  C   UNL A   1      43.393  28.380  33.361  1.00  0.00     0.034 A 
BRANCH  47  61
ATOM     61  C   UNL A   1      41.875  26.565  27.629  1.00  0.00     0.023 A 
ATOM     62  C   UNL A   1      41.501  25.211  27.553  1.00  0.00     0.031 A 
ATOM     63  C   UNL A   1      42.591  27.112  26.551  1.00  0.00     0.131 A 
ATOM     64  C   UNL A   1      41.908  24.433  26.458  1.00  0.00     0.055 A 
ATOM     65  C   UNL A   1      42.923  26.353  25.427  1.00  0.00     0.041 A 
ATOM     66  F   UNL A   1      42.992  28.393  26.577  1.00  0.00    -0.206 F 
ATOM     67  C   UNL A   1      42.594  25.001  25.383  1.00  0.00     0.022 A 
BRANCH  64  68
ATOM     68  S   UNL A   1      41.636  22.642  26.522  1.00  0.00     0.124 S 
ATOM     69  O   UNL A   1      42.193  22.307  27.831  1.00  0.00    -0.237 OA
ATOM     70  O   UNL A   1      40.187  22.537  26.398  1.00  0.00    -0.237 OA
ATOM     71  O   UNL A   1      42.398  22.139  25.380  1.00  0.00    -0.744 OA
ENDBRANCH  64  68
ENDBRANCH  47  61
BRANCH  48  72
ATOM     72  C   UNL A   1      39.159  32.153  35.500  1.00  0.00     0.023 A 
ATOM     73  C   UNL A   1      39.572  33.486  35.658  1.00  0.00     0.031 A 
ATOM     74  C   UNL A   1      38.414  31.568  36.538  1.00  0.00     0.131 A 
ATOM     75  C   UNL A   1      39.292  34.171  36.851  1.00  0.00     0.055 A 
ATOM     76  C   UNL A   1      38.089  32.271  37.699  1.00  0.00     0.041 A 
ATOM     77  F   UNL A   1      37.989  30.298  36.437  1.00  0.00    -0.206 F 
ATOM     78  C   UNL A   1      38.544  33.576  37.869  1.00  0.00     0.022 A 
BRANCH  75  79
ATOM     79  S   UNL A   1      40.019  35.814  37.098  1.00  0.00     0.124 S 
ATOM     80  O   UNL A   1      41.432  35.492  37.263  1.00  0.00    -0.237 OA
ATOM     81  O   UNL A   1      39.656  36.494  35.859  1.00  0.00    -0.237 OA
ATOM     82  O   UNL A   1      39.346  36.306  38.297  1.00  0.00    -0.744 OA
ENDBRANCH  75  79
ENDBRANCH  48  72
BRANCH  60  83
ATOM     83  C   UNL A   1      44.630  28.061  34.161  1.00  0.00     0.023 A 
ATOM     84  C   UNL A   1      44.677  26.973  35.050  1.00  0.00     0.031 A 
ATOM     85  C   UNL A   1      45.773  28.870  34.041  1.00  0.00     0.131 A 
ATOM     86  C   UNL A   1      45.826  26.756  35.825  1.00  0.00     0.055 A 
ATOM     87  C   UNL A   1      46.932  28.618  34.776  1.00  0.00     0.041 A 
ATOM     88  F   UNL A   1      45.781  29.922  33.205  1.00  0.00    -0.206 F 
ATOM     89  C   UNL A   1      46.957  27.564  35.683  1.00  0.00     0.022 A 
BRANCH  86  90
ATOM     90  S   UNL A   1      45.791  25.453  37.086  1.00  0.00     0.124 S 
ATOM     91  O   UNL A   1      46.795  24.519  36.588  1.00  0.00    -0.237 OA
ATOM     92  O   UNL A   1      46.146  26.183  38.299  1.00  0.00    -0.237 OA
ATOM     93  O   UNL A   1      44.413  24.967  37.038  1.00  0.00    -0.744 OA
ENDBRANCH  86  90
ENDBRANCH  60  83
ENDBRANCH  34  35
ENDBRANCH  26  29
ENDBRANCH  24  25
ENDBRANCH  23  24
ENDBRANCH   1  23
TORSDOF 19
ENDMDL
MODEL 3
REMARK VINA RESULT:     -10.9      5.611     10.795
REMARK SMILES CC(C)(C)N(CC(=O)NCCCCNC(=O)c1ccc(-c2c3nc(c(-c4cc(S(=O)(=O)[O-])ccc4F)c4ccc([nH]4)c(-c4cc(S(=O)(=O)[O-])ccc4F)c4nc(c(-c5cc(S(=O)(=O)[O-])ccc5F)c5ccc2[nH]5)C=C4)C=C3)cc1)C(=O)NC[C@H]1CCOC1
REMARK SMILES IDX 11 1 10 2 9 3 7 4 8 5 6 7 5 8 2 9 1 10 3 11 4 12 80 13 81 14
REMARK SMILES IDX 82 15 83 17 84 18 85 19 88 20 86 21 87 22 12 23 13 24 14 25
REMARK SMILES IDX 15 26 16 28 17 29 18 30 79 31 19 32 78 33 20 34 21 35 22 36
REMARK SMILES IDX 72 37 23 38 77 39 71 40 73 41 24 42 76 43 70 44 69 45 25 47
REMARK SMILES IDX 57 48 37 49 56 50 38 51 41 52 55 53 74 54 39 55 40 56 54 58
REMARK SMILES IDX 75 59 42 60 26 61 27 62 35 63 28 64 34 65 36 66 33 67 29 68
REMARK SMILES IDX 30 69 31 70 32 71 58 72 59 73 67 74 60 75 66 76 68 77 65 78
REMARK SMILES IDX 61 79 62 80 63 81 64 82 43 83 44 84 52 85 45 86 51 87 53 88
REMARK SMILES IDX 50 89 46 90 47 91 48 92 49 93
REMARK H PARENT 9 6 82 16 14 27 73 46 41 57
REMARK Flexibility Score: inf
ROOT
ATOM      1  C   UNL A   1      34.320  20.758  25.265  1.00  0.00     0.023 C 
ENDROOT
BRANCH   1   2
ATOM      2  C   UNL A   1      32.864  20.787  25.717  1.00  0.00     0.116 C 
BRANCH   2   3
ATOM      3  N   UNL A   1      32.559  21.900  26.581  1.00  0.00    -0.355 N 
ATOM      4  C   UNL A   1      31.791  22.990  26.309  1.00  0.00     0.239 C 
ATOM      5  O   UNL A   1      31.366  23.638  27.272  1.00  0.00    -0.273 OA
ATOM      6  H   UNL A   1      32.957  21.867  27.482  1.00  0.00     0.163 HD
BRANCH   4   7
ATOM      7  C   UNL A   1      31.299  23.315  24.886  1.00  0.00     0.221 C 
BRANCH   7   8
ATOM      8  N   UNL A   1      31.956  24.393  24.129  1.00  0.00    -0.311 N 
BRANCH   8   9
ATOM      9  C   UNL A   1      32.945  24.029  23.021  1.00  0.00     0.037 C 
ATOM     10  C   UNL A   1      32.773  22.599  22.438  1.00  0.00     0.034 C 
ATOM     11  C   UNL A   1      34.420  24.097  23.494  1.00  0.00     0.034 C 
ATOM     12  C   UNL A   1      32.759  24.984  21.816  1.00  0.00     0.034 C 
ENDBRANCH   8   9
BRANCH   8  13
ATOM     13  C   UNL A   1      31.533  25.703  24.190  1.00  0.00     0.318 C 
ATOM     14  O   UNL A   1      30.446  26.071  23.731  1.00  0.00    -0.249 OA
ATOM     15  N   UNL A   1      32.219  26.712  24.746  1.00  0.00    -0.338 N 
ATOM     16  H   UNL A   1      31.793  27.569  24.513  1.00  0.00     0.165 HD
BRANCH  15  17
ATOM     17  C   UNL A   1      33.388  26.959  25.582  1.00  0.00     0.123 C 
BRANCH  17  18
ATOM     18  C   UNL A   1      33.108  28.032  26.631  1.00  0.00     0.036 C 
ATOM     19  C   UNL A   1      34.096  29.183  26.635  1.00  0.00     0.036 C 
ATOM     20  C   UNL A   1      31.789  28.759  26.404  1.00  0.00     0.165 C 
ATOM     21  C   UNL A   1      33.304  30.262  27.337  1.00  0.00     0.160 C 
ATOM     22  O   UNL A   1      31.947  30.095  26.909  1.00  0.00    -0.381 OA
ENDBRANCH  17  18
ENDBRANCH  15  17
ENDBRANCH   8  13
ENDBRANCH   7   8
ENDBRANCH   4   7
ENDBRANCH   2   3
ENDBRANCH   1   2
BRANCH   1  23
ATOM     23  C   UNL A   1      35.290  21.548  26.143  1.00  0.00     0.023 C 
BRANCH  23  24
ATOM     24  C   UNL A   1      36.613  21.927  25.485  1.00  0.00     0.116 C 
BRANCH  24  25
ATOM     25  N   UNL A   1      37.604  20.859  25.484  1.00  0.00    -0.352 N 
ATOM     26  C   UNL A   1      38.913  20.903  25.906  1.00  0.00     0.251 C 
ATOM     27  H   UNL A   1      37.296  19.991  25.135  1.00  0.00     0.163 HD
ATOM     28  O   UNL A   1      39.631  19.915  25.783  1.00  0.00    -0.269 OA
BRANCH  26  29
ATOM     29  C   UNL A   1      39.451  22.165  26.455  1.00  0.00     0.039 A 
ATOM     30  C   UNL A   1      40.537  22.107  27.332  1.00  0.00     0.014 A 
ATOM     31  C   UNL A   1      38.932  23.397  26.051  1.00  0.00     0.014 A 
ATOM     32  C   UNL A   1      41.160  23.290  27.733  1.00  0.00     0.010 A 
ATOM     33  C   UNL A   1      39.601  24.568  26.391  1.00  0.00     0.010 A 
ATOM     34  C   UNL A   1      40.729  24.527  27.226  1.00  0.00    -0.014 A 
BRANCH  34  35
ATOM     35  C   UNL A   1      41.441  25.790  27.551  1.00  0.00     0.031 A 
ATOM     36  C   UNL A   1      40.749  26.851  28.359  1.00  0.00     0.074 A 
ATOM     37  C   UNL A   1      42.676  26.009  27.055  1.00  0.00     0.049 A 
ATOM     38  N   UNL A   1      41.144  28.064  28.647  1.00  0.00    -0.248 NA
ATOM     39  C   UNL A   1      39.418  26.512  28.886  1.00  0.00     0.031 C 
ATOM     40  C   UNL A   1      43.437  25.069  26.225  1.00  0.00     0.029 A 
ATOM     41  N   UNL A   1      43.508  27.095  27.165  1.00  0.00    -0.354 N 
ATOM     42  C   UNL A   1      40.108  28.637  29.376  1.00  0.00     0.074 A 
ATOM     43  C   UNL A   1      39.043  27.659  29.430  1.00  0.00     0.031 C 
ATOM     44  C   UNL A   1      44.627  25.611  25.923  1.00  0.00     0.029 A 
ATOM     45  C   UNL A   1      44.702  26.952  26.495  1.00  0.00     0.049 A 
ATOM     46  H   UNL A   1      43.272  27.902  27.676  1.00  0.00     0.167 HD
ATOM     47  C   UNL A   1      40.059  29.857  29.966  1.00  0.00     0.034 A 
ATOM     48  C   UNL A   1      45.732  27.809  26.350  1.00  0.00     0.034 A 
ATOM     49  C   UNL A   1      41.136  30.814  29.920  1.00  0.00     0.049 A 
ATOM     50  C   UNL A   1      45.646  29.164  27.006  1.00  0.00     0.074 A 
ATOM     51  C   UNL A   1      41.204  32.067  30.506  1.00  0.00     0.029 A 
ATOM     52  N   UNL A   1      42.339  30.624  29.253  1.00  0.00    -0.354 N 
ATOM     53  N   UNL A   1      44.668  29.680  27.715  1.00  0.00    -0.248 NA
ATOM     54  C   UNL A   1      46.808  30.050  26.851  1.00  0.00     0.031 C 
ATOM     55  C   UNL A   1      42.427  32.651  30.154  1.00  0.00     0.029 A 
ATOM     56  C   UNL A   1      43.149  31.738  29.402  1.00  0.00     0.049 A 
ATOM     57  H   UNL A   1      42.581  29.814  28.746  1.00  0.00     0.167 HD
ATOM     58  C   UNL A   1      45.117  30.933  28.121  1.00  0.00     0.074 A 
ATOM     59  C   UNL A   1      46.454  31.090  27.590  1.00  0.00     0.031 C 
ATOM     60  C   UNL A   1      44.483  31.871  28.870  1.00  0.00     0.034 A 
BRANCH  47  61
ATOM     61  C   UNL A   1      38.792  30.219  30.699  1.00  0.00     0.023 A 
ATOM     62  C   UNL A   1      37.836  31.078  30.127  1.00  0.00     0.031 A 
ATOM     63  C   UNL A   1      38.544  29.724  31.991  1.00  0.00     0.131 A 
ATOM     64  C   UNL A   1      36.715  31.473  30.873  1.00  0.00     0.055 A 
ATOM     65  C   UNL A   1      37.386  30.058  32.696  1.00  0.00     0.041 A 
ATOM     66  F   UNL A   1      39.430  28.917  32.595  1.00  0.00    -0.206 F 
ATOM     67  C   UNL A   1      36.471  30.949  32.143  1.00  0.00     0.022 A 
BRANCH  64  68
ATOM     68  S   UNL A   1      35.650  32.779  30.206  1.00  0.00     0.124 S 
ATOM     69  O   UNL A   1      34.420  32.572  30.966  1.00  0.00    -0.237 OA
ATOM     70  O   UNL A   1      36.399  33.990  30.520  1.00  0.00    -0.237 OA
ATOM     71  O   UNL A   1      35.558  32.454  28.783  1.00  0.00    -0.744 OA
ENDBRANCH  64  68
ENDBRANCH  47  61
BRANCH  48  72
ATOM     72  C   UNL A   1      46.933  27.432  25.550  1.00  0.00     0.023 A 
ATOM     73  C   UNL A   1      47.078  27.868  24.223  1.00  0.00     0.031 A 
ATOM     74  C   UNL A   1      47.917  26.574  26.072  1.00  0.00     0.131 A 
ATOM     75  C   UNL A   1      48.144  27.396  23.443  1.00  0.00     0.055 A 
ATOM     76  C   UNL A   1      49.007  26.153  25.309  1.00  0.00     0.041 A 
ATOM     77  F   UNL A   1      47.832  26.132  27.337  1.00  0.00    -0.206 F 
ATOM     78  C   UNL A   1      49.116  26.549  23.979  1.00  0.00     0.022 A 
BRANCH  75  79
ATOM     79  S   UNL A   1      48.179  27.817  21.678  1.00  0.00     0.124 S 
ATOM     80  O   UNL A   1      49.310  28.735  21.613  1.00  0.00    -0.237 OA
ATOM     81  O   UNL A   1      48.378  26.509  21.061  1.00  0.00    -0.237 OA
ATOM     82  O   UNL A   1      46.869  28.420  21.447  1.00  0.00    -0.744 OA
ENDBRANCH  75  79
ENDBRANCH  48  72
BRANCH  60  83
ATOM     83  C   UNL A   1      45.262  33.118  29.204  1.00  0.00     0.023 A 
ATOM     84  C   UNL A   1      45.213  34.262  28.390  1.00  0.00     0.031 A 
ATOM     85  C   UNL A   1      46.077  33.151  30.349  1.00  0.00     0.131 A 
ATOM     86  C   UNL A   1      46.010  35.374  28.702  1.00  0.00     0.055 A 
ATOM     87  C   UNL A   1      46.826  34.279  30.683  1.00  0.00     0.041 A 
ATOM     88  F   UNL A   1      46.159  32.084  31.160  1.00  0.00    -0.206 F 
ATOM     89  C   UNL A   1      46.805  35.394  29.851  1.00  0.00     0.022 A 
BRANCH  86  90
ATOM     90  S   UNL A   1      46.057  36.764  27.538  1.00  0.00     0.124 S 
ATOM     91  O   UNL A   1      46.476  37.867  28.397  1.00  0.00    -0.237 OA
ATOM     92  O   UNL A   1      47.037  36.314  26.555  1.00  0.00    -0.237 OA
ATOM     93  O   UNL A   1      44.682  36.848  27.047  1.00  0.00    -0.744 OA
ENDBRANCH  86  90
ENDBRANCH  60  83
ENDBRANCH  34  35
ENDBRANCH  26  29
ENDBRANCH  24  25
ENDBRANCH  23  24
ENDBRANCH   1  23
TORSDOF 19
ENDMDL
