MODEL 1
REMARK VINA RESULT:     -12.4      0.000      0.000
REMARK SMILES Cc1ccc(C)n1-c1ccc(O)cc1C(=O)NCCCCNC(=O)c1ccc(-c2c3nc(c(-c4cc(S(=O)(=O)[O-])ccc4F)c4ccc([nH]4)c(-c4cc(S(=O)(=O)[O-])ccc4F)c4nc(c(-c5cc(S(=O)(=O)[O-])ccc5F)c5ccc2[nH]5)C=C4)C=C3)cc1
REMARK SMILES IDX 20 1 19 2 18 3 17 4 15 5 16 6 14 8 8 9 9 10 10 11 13 12
REMARK SMILES IDX 11 13 7 14 1 15 2 16 3 17 4 18 5 19 6 20 12 21 21 23 22 24
REMARK SMILES IDX 23 25 24 27 25 28 26 29 87 30 27 31 86 32 28 33 29 34 30 35
REMARK SMILES IDX 80 36 31 37 85 38 79 39 81 40 32 41 84 42 78 43 77 44 33 46
REMARK SMILES IDX 65 47 45 48 64 49 46 50 49 51 63 52 82 53 47 54 48 55 62 57
REMARK SMILES IDX 83 58 50 59 34 60 35 61 43 62 36 63 42 64 44 65 41 66 37 67
REMARK SMILES IDX 38 68 39 69 40 70 66 71 67 72 75 73 68 74 74 75 76 76 73 77
REMARK SMILES IDX 69 78 70 79 71 80 72 81 51 82 52 83 60 84 53 85 59 86 61 87
REMARK SMILES IDX 58 88 54 89 55 90 56 91 57 92
REMARK H PARENT 17 7 12 22 22 26 81 45 49 56
REMARK Flexibility Score: inf
ROOT
ATOM      1  C   UNL A   1      33.440  27.525  26.314  1.00  0.00     0.023 C 
ENDROOT
BRANCH   1   2
ATOM      2  C   UNL A   1      33.476  26.210  25.512  1.00  0.00     0.023 C 
BRANCH   2   3
ATOM      3  C   UNL A   1      34.215  24.995  26.057  1.00  0.00     0.116 C 
BRANCH   3   4
ATOM      4  N   UNL A   1      35.296  24.460  25.276  1.00  0.00    -0.352 N 
ATOM      5  C   UNL A   1      35.378  23.329  24.499  1.00  0.00     0.253 C 
ATOM      6  O   UNL A   1      36.384  23.254  23.785  1.00  0.00    -0.269 OA
ATOM      7  H   UNL A   1      36.121  24.998  25.301  1.00  0.00     0.163 HD
BRANCH   5   8
ATOM      8  C   UNL A   1      34.440  22.149  24.499  1.00  0.00     0.067 A 
ATOM      9  C   UNL A   1      33.049  22.061  24.313  1.00  0.00     0.058 A 
ATOM     10  C   UNL A   1      32.382  20.809  24.341  1.00  0.00     0.031 A 
ATOM     11  C   UNL A   1      33.078  19.626  24.552  1.00  0.00     0.048 A 
ATOM     12  C   UNL A   1      35.114  20.918  24.712  1.00  0.00     0.062 A 
ATOM     13  C   UNL A   1      34.446  19.691  24.734  1.00  0.00     0.116 A 
BRANCH   9  14
ATOM     14  N   UNL A   1      32.203  23.146  24.002  1.00  0.00    -0.318 N 
ATOM     15  C   UNL A   1      30.902  23.123  26.204  1.00  0.00     0.065 C 
ATOM     16  C   UNL A   1      31.138  23.574  24.799  1.00  0.00     0.020 A 
ATOM     17  C   UNL A   1      30.466  24.564  24.108  1.00  0.00     0.023 A 
ATOM     18  C   UNL A   1      31.106  24.732  22.863  1.00  0.00     0.023 A 
ATOM     19  C   UNL A   1      32.169  23.848  22.806  1.00  0.00     0.020 A 
ATOM     20  C   UNL A   1      33.145  23.667  21.694  1.00  0.00     0.065 C 
ENDBRANCH   9  14
BRANCH  13  21
ATOM     21  O   UNL A   1      35.183  18.561  24.932  1.00  0.00    -0.508 OA
ATOM     22  H   UNL A   1      34.980  17.987  25.644  1.00  0.00     0.293 HD
ENDBRANCH  13  21
ENDBRANCH   5   8
ENDBRANCH   3   4
ENDBRANCH   2   3
ENDBRANCH   1   2
BRANCH   1  23
ATOM     23  C   UNL A   1      34.737  28.302  26.577  1.00  0.00     0.116 C 
BRANCH  23  24
ATOM     24  N   UNL A   1      34.507  29.652  27.043  1.00  0.00    -0.352 N 
ATOM     25  C   UNL A   1      35.412  30.544  27.581  1.00  0.00     0.251 C 
ATOM     26  H   UNL A   1      33.581  29.978  26.968  1.00  0.00     0.163 HD
ATOM     27  O   UNL A   1      35.062  31.712  27.719  1.00  0.00    -0.269 OA
BRANCH  25  28
ATOM     28  C   UNL A   1      36.751  30.098  28.074  1.00  0.00     0.039 A 
ATOM     29  C   UNL A   1      37.777  30.005  27.146  1.00  0.00     0.014 A 
ATOM     30  C   UNL A   1      36.966  29.560  29.354  1.00  0.00     0.014 A 
ATOM     31  C   UNL A   1      38.996  29.390  27.505  1.00  0.00     0.010 A 
ATOM     32  C   UNL A   1      38.182  28.870  29.690  1.00  0.00     0.010 A 
ATOM     33  C   UNL A   1      39.219  28.724  28.756  1.00  0.00    -0.014 A 
BRANCH  33  34
ATOM     34  C   UNL A   1      40.247  27.560  28.717  1.00  0.00     0.031 A 
ATOM     35  C   UNL A   1      41.268  27.902  29.753  1.00  0.00     0.074 A 
ATOM     36  C   UNL A   1      40.516  26.402  28.020  1.00  0.00     0.049 A 
ATOM     37  N   UNL A   1      41.882  29.053  29.774  1.00  0.00    -0.248 NA
ATOM     38  C   UNL A   1      41.364  27.130  30.995  1.00  0.00     0.031 C 
ATOM     39  C   UNL A   1      39.799  25.840  26.873  1.00  0.00     0.029 A 
ATOM     40  N   UNL A   1      41.523  25.426  28.210  1.00  0.00    -0.354 N 
ATOM     41  C   UNL A   1      42.699  29.005  30.874  1.00  0.00     0.074 A 
ATOM     42  C   UNL A   1      42.156  27.940  31.700  1.00  0.00     0.031 C 
ATOM     43  C   UNL A   1      40.286  24.609  26.550  1.00  0.00     0.029 A 
ATOM     44  C   UNL A   1      41.407  24.252  27.415  1.00  0.00     0.049 A 
ATOM     45  H   UNL A   1      42.257  25.552  28.852  1.00  0.00     0.167 HD
ATOM     46  C   UNL A   1      44.007  29.359  30.728  1.00  0.00     0.034 A 
ATOM     47  C   UNL A   1      42.165  23.099  27.414  1.00  0.00     0.034 A 
ATOM     48  C   UNL A   1      44.895  28.238  30.891  1.00  0.00     0.049 A 
ATOM     49  C   UNL A   1      43.443  23.381  28.077  1.00  0.00     0.074 A 
ATOM     50  C   UNL A   1      45.039  27.244  31.837  1.00  0.00     0.029 A 
ATOM     51  N   UNL A   1      45.497  27.773  29.741  1.00  0.00    -0.354 N 
ATOM     52  N   UNL A   1      44.399  24.008  27.473  1.00  0.00    -0.248 NA
ATOM     53  C   UNL A   1      43.755  22.901  29.419  1.00  0.00     0.031 C 
ATOM     54  C   UNL A   1      45.315  26.059  31.101  1.00  0.00     0.029 A 
ATOM     55  C   UNL A   1      45.554  26.394  29.771  1.00  0.00     0.049 A 
ATOM     56  H   UNL A   1      45.834  28.338  29.009  1.00  0.00     0.167 HD
ATOM     57  C   UNL A   1      45.218  24.406  28.483  1.00  0.00     0.074 A 
ATOM     58  C   UNL A   1      44.941  23.495  29.575  1.00  0.00     0.031 C 
ATOM     59  C   UNL A   1      45.625  25.699  28.494  1.00  0.00     0.034 A 
BRANCH  46  60
ATOM     60  C   UNL A   1      44.264  30.499  29.782  1.00  0.00     0.023 A 
ATOM     61  C   UNL A   1      45.254  30.373  28.800  1.00  0.00     0.031 A 
ATOM     62  C   UNL A   1      43.602  31.739  29.897  1.00  0.00     0.131 A 
ATOM     63  C   UNL A   1      45.594  31.483  28.006  1.00  0.00     0.055 A 
ATOM     64  C   UNL A   1      43.977  32.852  29.148  1.00  0.00     0.041 A 
ATOM     65  F   UNL A   1      42.563  31.878  30.737  1.00  0.00    -0.206 F 
ATOM     66  C   UNL A   1      44.990  32.730  28.203  1.00  0.00     0.022 A 
BRANCH  63  67
ATOM     67  S   UNL A   1      46.815  31.264  26.683  1.00  0.00     0.124 S 
ATOM     68  O   UNL A   1      45.986  31.211  25.484  1.00  0.00    -0.237 OA
ATOM     69  O   UNL A   1      47.639  32.459  26.824  1.00  0.00    -0.237 OA
ATOM     70  O   UNL A   1      47.487  30.010  27.029  1.00  0.00    -0.744 OA
ENDBRANCH  63  67
ENDBRANCH  46  60
BRANCH  47  71
ATOM     71  C   UNL A   1      42.145  21.685  26.848  1.00  0.00     0.023 A 
ATOM     72  C   UNL A   1      43.135  21.269  25.890  1.00  0.00     0.031 A 
ATOM     73  C   UNL A   1      41.422  20.651  27.449  1.00  0.00     0.131 A 
ATOM     74  C   UNL A   1      43.419  19.909  25.636  1.00  0.00     0.055 A 
ATOM     75  C   UNL A   1      41.680  19.294  27.165  1.00  0.00     0.041 A 
ATOM     76  F   UNL A   1      40.522  20.917  28.407  1.00  0.00    -0.206 F 
ATOM     77  C   UNL A   1      42.691  18.917  26.279  1.00  0.00     0.022 A 
BRANCH  74  78
ATOM     78  S   UNL A   1      44.887  19.423  24.646  1.00  0.00     0.124 S 
ATOM     79  O   UNL A   1      45.828  20.503  24.909  1.00  0.00    -0.237 OA
ATOM     80  O   UNL A   1      45.227  18.113  25.194  1.00  0.00    -0.237 OA
ATOM     81  O   UNL A   1      44.370  19.381  23.277  1.00  0.00    -0.744 OA
ENDBRANCH  74  78
ENDBRANCH  47  71
BRANCH  59  82
ATOM     82  C   UNL A   1      45.869  26.384  27.137  1.00  0.00     0.023 A 
ATOM     83  C   UNL A   1      47.054  26.309  26.352  1.00  0.00     0.031 A 
ATOM     84  C   UNL A   1      44.856  27.214  26.627  1.00  0.00     0.131 A 
ATOM     85  C   UNL A   1      47.210  27.065  25.173  1.00  0.00     0.055 A 
ATOM     86  C   UNL A   1      44.985  27.918  25.425  1.00  0.00     0.041 A 
ATOM     87  F   UNL A   1      43.700  27.360  27.296  1.00  0.00    -0.206 F 
ATOM     88  C   UNL A   1      46.171  27.863  24.703  1.00  0.00     0.022 A 
BRANCH  85  89
ATOM     89  S   UNL A   1      48.813  27.089  24.297  1.00  0.00     0.124 S 
ATOM     90  O   UNL A   1      49.398  28.364  24.696  1.00  0.00    -0.237 OA
ATOM     91  O   UNL A   1      49.478  25.895  24.809  1.00  0.00    -0.237 OA
ATOM     92  O   UNL A   1      48.429  27.017  22.885  1.00  0.00    -0.744 OA
ENDBRANCH  85  89
ENDBRANCH  59  82
ENDBRANCH  33  34
ENDBRANCH  25  28
ENDBRANCH  23  24
ENDBRANCH   1  23
TORSDOF 16
ENDMDL
MODEL 2
REMARK VINA RESULT:     -12.2      5.069     10.214
REMARK SMILES Cc1ccc(C)n1-c1ccc(O)cc1C(=O)NCCCCNC(=O)c1ccc(-c2c3nc(c(-c4cc(S(=O)(=O)[O-])ccc4F)c4ccc([nH]4)c(-c4cc(S(=O)(=O)[O-])ccc4F)c4nc(c(-c5cc(S(=O)(=O)[O-])ccc5F)c5ccc2[nH]5)C=C4)C=C3)cc1
REMARK SMILES IDX 20 1 19 2 18 3 17 4 15 5 16 6 14 8 8 9 9 10 10 11 13 12
REMARK SMILES IDX 11 13 7 14 1 15 2 16 3 17 4 18 5 19 6 20 12 21 21 23 22 24
REMARK SMILES IDX 23 25 24 27 25 28 26 29 87 30 27 31 86 32 28 33 29 34 30 35
REMARK SMILES IDX 80 36 31 37 85 38 79 39 81 40 32 41 84 42 78 43 77 44 33 46
REMARK SMILES IDX 65 47 45 48 64 49 46 50 49 51 63 52 82 53 47 54 48 55 62 57
REMARK SMILES IDX 83 58 50 59 34 60 35 61 43 62 36 63 42 64 44 65 41 66 37 67
REMARK SMILES IDX 38 68 39 69 40 70 66 71 67 72 75 73 68 74 74 75 76 76 73 77
REMARK SMILES IDX 69 78 70 79 71 80 72 81 51 82 52 83 60 84 53 85 59 86 61 87
REMARK SMILES IDX 58 88 54 89 55 90 56 91 57 92
REMARK H PARENT 17 7 12 22 22 26 81 45 49 56
REMARK Flexibility Score: inf
ROOT
ATOM      1  C   UNL A   1      39.415  21.461  25.995  1.00  0.00     0.023 C 
ENDROOT
BRANCH   1   2
ATOM      2  C   UNL A   1      38.157  22.341  25.869  1.00  0.00     0.023 C 
BRANCH   2   3
ATOM      3  C   UNL A   1      36.809  21.715  25.536  1.00  0.00     0.116 C 
BRANCH   3   4
ATOM      4  N   UNL A   1      35.778  21.769  26.536  1.00  0.00    -0.352 N 
ATOM      5  C   UNL A   1      34.459  21.385  26.496  1.00  0.00     0.253 C 
ATOM      6  O   UNL A   1      33.884  21.369  27.590  1.00  0.00    -0.269 OA
ATOM      7  H   UNL A   1      36.067  22.146  27.399  1.00  0.00     0.163 HD
BRANCH   5   8
ATOM      8  C   UNL A   1      33.630  21.083  25.274  1.00  0.00     0.067 A 
ATOM      9  C   UNL A   1      33.000  21.925  24.341  1.00  0.00     0.058 A 
ATOM     10  C   UNL A   1      32.276  21.393  23.243  1.00  0.00     0.031 A 
ATOM     11  C   UNL A   1      32.164  20.023  23.049  1.00  0.00     0.048 A 
ATOM     12  C   UNL A   1      33.491  19.690  25.041  1.00  0.00     0.062 A 
ATOM     13  C   UNL A   1      32.779  19.178  23.954  1.00  0.00     0.116 A 
BRANCH   9  14
ATOM     14  N   UNL A   1      33.083  23.334  24.334  1.00  0.00    -0.318 N 
ATOM     15  C   UNL A   1      35.233  23.477  22.956  1.00  0.00     0.065 C 
ATOM     16  C   UNL A   1      34.154  24.061  23.810  1.00  0.00     0.020 A 
ATOM     17  C   UNL A   1      33.941  25.395  24.103  1.00  0.00     0.023 A 
ATOM     18  C   UNL A   1      32.741  25.489  24.837  1.00  0.00     0.023 A 
ATOM     19  C   UNL A   1      32.225  24.212  24.980  1.00  0.00     0.020 A 
ATOM     20  C   UNL A   1      30.966  23.810  25.669  1.00  0.00     0.065 C 
ENDBRANCH   9  14
BRANCH  13  21
ATOM     21  O   UNL A   1      32.714  17.824  23.807  1.00  0.00    -0.508 OA
ATOM     22  H   UNL A   1      32.061  17.443  23.254  1.00  0.00     0.293 HD
ENDBRANCH  13  21
ENDBRANCH   5   8
ENDBRANCH   3   4
ENDBRANCH   2   3
ENDBRANCH   1   2
BRANCH   1  23
ATOM     23  C   UNL A   1      40.655  21.990  26.730  1.00  0.00     0.116 C 
BRANCH  23  24
ATOM     24  N   UNL A   1      41.492  22.830  25.902  1.00  0.00    -0.352 N 
ATOM     25  C   UNL A   1      41.898  24.130  26.127  1.00  0.00     0.251 C 
ATOM     26  H   UNL A   1      41.814  22.422  25.066  1.00  0.00     0.163 HD
ATOM     27  O   UNL A   1      42.777  24.594  25.407  1.00  0.00    -0.269 OA
BRANCH  25  28
ATOM     28  C   UNL A   1      41.231  24.992  27.150  1.00  0.00     0.039 A 
ATOM     29  C   UNL A   1      40.013  25.561  26.813  1.00  0.00     0.014 A 
ATOM     30  C   UNL A   1      41.865  25.431  28.324  1.00  0.00     0.014 A 
ATOM     31  C   UNL A   1      39.443  26.547  27.646  1.00  0.00     0.010 A 
ATOM     32  C   UNL A   1      41.314  26.488  29.130  1.00  0.00     0.010 A 
ATOM     33  C   UNL A   1      40.105  27.110  28.787  1.00  0.00    -0.014 A 
BRANCH  33  34
ATOM     34  C   UNL A   1      39.708  28.573  29.132  1.00  0.00     0.031 A 
ATOM     35  C   UNL A   1      41.000  29.280  29.387  1.00  0.00     0.074 A 
ATOM     36  C   UNL A   1      38.590  29.357  29.315  1.00  0.00     0.049 A 
ATOM     37  N   UNL A   1      41.884  28.835  30.237  1.00  0.00    -0.248 NA
ATOM     38  C   UNL A   1      41.503  30.287  28.448  1.00  0.00     0.031 C 
ATOM     39  C   UNL A   1      37.181  28.960  29.265  1.00  0.00     0.029 A 
ATOM     40  N   UNL A   1      38.469  30.742  29.578  1.00  0.00    -0.354 N 
ATOM     41  C   UNL A   1      42.930  29.718  30.166  1.00  0.00     0.074 A 
ATOM     42  C   UNL A   1      42.751  30.411  28.902  1.00  0.00     0.031 C 
ATOM     43  C   UNL A   1      36.366  30.048  29.360  1.00  0.00     0.029 A 
ATOM     44  C   UNL A   1      37.149  31.269  29.534  1.00  0.00     0.049 A 
ATOM     45  H   UNL A   1      39.250  31.305  29.778  1.00  0.00     0.167 HD
ATOM     46  C   UNL A   1      43.434  30.222  31.328  1.00  0.00     0.034 A 
ATOM     47  C   UNL A   1      36.704  32.569  29.665  1.00  0.00     0.034 A 
ATOM     48  C   UNL A   1      43.171  31.630  31.468  1.00  0.00     0.049 A 
ATOM     49  C   UNL A   1      37.761  33.361  30.303  1.00  0.00     0.074 A 
ATOM     50  C   UNL A   1      43.336  32.734  30.656  1.00  0.00     0.029 A 
ATOM     51  N   UNL A   1      42.224  31.977  32.409  1.00  0.00    -0.354 N 
ATOM     52  N   UNL A   1      37.975  33.308  31.577  1.00  0.00    -0.248 NA
ATOM     53  C   UNL A   1      38.577  34.321  29.568  1.00  0.00     0.031 C 
ATOM     54  C   UNL A   1      42.175  33.529  30.858  1.00  0.00     0.029 A 
ATOM     55  C   UNL A   1      41.453  33.017  31.932  1.00  0.00     0.049 A 
ATOM     56  H   UNL A   1      42.116  31.547  33.288  1.00  0.00     0.167 HD
ATOM     57  C   UNL A   1      39.217  33.842  31.722  1.00  0.00     0.074 A 
ATOM     58  C   UNL A   1      39.411  34.671  30.550  1.00  0.00     0.031 C 
ATOM     59  C   UNL A   1      40.112  33.163  32.480  1.00  0.00     0.034 A 
BRANCH  46  60
ATOM     60  C   UNL A   1      43.478  29.261  32.482  1.00  0.00     0.023 A 
ATOM     61  C   UNL A   1      42.970  29.651  33.728  1.00  0.00     0.031 A 
ATOM     62  C   UNL A   1      44.095  27.997  32.388  1.00  0.00     0.131 A 
ATOM     63  C   UNL A   1      43.136  28.811  34.842  1.00  0.00     0.055 A 
ATOM     64  C   UNL A   1      44.307  27.190  33.504  1.00  0.00     0.041 A 
ATOM     65  F   UNL A   1      44.491  27.521  31.195  1.00  0.00    -0.206 F 
ATOM     66  C   UNL A   1      43.836  27.603  34.745  1.00  0.00     0.022 A 
BRANCH  63  67
ATOM     67  S   UNL A   1      42.388  29.303  36.420  1.00  0.00     0.124 S 
ATOM     68  O   UNL A   1      41.227  28.426  36.514  1.00  0.00    -0.237 OA
ATOM     69  O   UNL A   1      43.461  29.027  37.369  1.00  0.00    -0.237 OA
ATOM     70  O   UNL A   1      42.081  30.722  36.236  1.00  0.00    -0.744 OA
ENDBRANCH  63  67
ENDBRANCH  46  60
BRANCH  47  71
ATOM     71  C   UNL A   1      35.443  33.400  29.469  1.00  0.00     0.023 A 
ATOM     72  C   UNL A   1      34.759  33.965  30.602  1.00  0.00     0.031 A 
ATOM     73  C   UNL A   1      35.087  33.933  28.227  1.00  0.00     0.131 A 
ATOM     74  C   UNL A   1      33.853  35.042  30.481  1.00  0.00     0.055 A 
ATOM     75  C   UNL A   1      34.152  34.983  28.104  1.00  0.00     0.041 A 
ATOM     76  F   UNL A   1      35.709  33.531  27.110  1.00  0.00    -0.206 F 
ATOM     77  C   UNL A   1      33.552  35.556  29.226  1.00  0.00     0.022 A 
BRANCH  74  78
ATOM     78  S   UNL A   1      33.242  35.930  31.966  1.00  0.00     0.124 S 
ATOM     79  O   UNL A   1      34.449  36.098  32.764  1.00  0.00    -0.237 OA
ATOM     80  O   UNL A   1      32.660  37.144  31.401  1.00  0.00    -0.237 OA
ATOM     81  O   UNL A   1      32.258  35.003  32.530  1.00  0.00    -0.744 OA
ENDBRANCH  74  78
ENDBRANCH  47  71
BRANCH  59  82
ATOM     82  C   UNL A   1      39.578  32.393  33.702  1.00  0.00     0.023 A 
ATOM     83  C   UNL A   1      39.359  32.920  35.005  1.00  0.00     0.031 A 
ATOM     84  C   UNL A   1      39.325  31.019  33.554  1.00  0.00     0.131 A 
ATOM     85  C   UNL A   1      38.967  32.098  36.081  1.00  0.00     0.055 A 
ATOM     86  C   UNL A   1      38.877  30.212  34.605  1.00  0.00     0.041 A 
ATOM     87  F   UNL A   1      39.509  30.420  32.365  1.00  0.00    -0.206 F 
ATOM     88  C   UNL A   1      38.716  30.744  35.879  1.00  0.00     0.022 A 
BRANCH  85  89
ATOM     89  S   UNL A   1      38.881  32.773  37.775  1.00  0.00     0.124 S 
ATOM     90  O   UNL A   1      38.369  34.125  37.576  1.00  0.00    -0.237 OA
ATOM     91  O   UNL A   1      37.979  31.843  38.447  1.00  0.00    -0.237 OA
ATOM     92  O   UNL A   1      40.271  32.716  38.235  1.00  0.00    -0.744 OA
ENDBRANCH  85  89
ENDBRANCH  59  82
ENDBRANCH  33  34
ENDBRANCH  25  28
ENDBRANCH  23  24
ENDBRANCH   1  23
TORSDOF 16
ENDMDL
MODEL 3
REMARK VINA RESULT:     -12.2      5.174     10.404
REMARK SMILES Cc1ccc(C)n1-c1ccc(O)cc1C(=O)NCCCCNC(=O)c1ccc(-c2c3nc(c(-c4cc(S(=O)(=O)[O-])ccc4F)c4ccc([nH]4)c(-c4cc(S(=O)(=O)[O-])ccc4F)c4nc(c(-c5cc(S(=O)(=O)[O-])ccc5F)c5ccc2[nH]5)C=C4)C=C3)cc1
REMARK SMILES IDX 20 1 19 2 18 3 17 4 15 5 16 6 14 8 8 9 9 10 10 11 13 12
REMARK SMILES IDX 11 13 7 14 1 15 2 16 3 17 4 18 5 19 6 20 12 21 21 23 22 24
REMARK SMILES IDX 23 25 24 27 25 28 26 29 87 30 27 31 86 32 28 33 29 34 30 35
REMARK SMILES IDX 80 36 31 37 85 38 79 39 81 40 32 41 84 42 78 43 77 44 33 46
REMARK SMILES IDX 65 47 45 48 64 49 46 50 49 51 63 52 82 53 47 54 48 55 62 57
REMARK SMILES IDX 83 58 50 59 34 60 35 61 43 62 36 63 42 64 44 65 41 66 37 67
REMARK SMILES IDX 38 68 39 69 40 70 66 71 67 72 75 73 68 74 74 75 76 76 73 77
REMARK SMILES IDX 69 78 70 79 71 80 72 81 51 82 52 83 60 84 53 85 59 86 61 87
REMARK SMILES IDX 58 88 54 89 55 90 56 91 57 92
REMARK H PARENT 17 7 12 22 22 26 81 45 49 56
REMARK Flexibility Score: inf
ROOT
ATOM      1  C   UNL A   1      35.670  23.943  25.820  1.00  0.00     0.023 C 
ENDROOT
BRANCH   1   2
ATOM      2  C   UNL A   1      34.518  24.874  25.396  1.00  0.00     0.023 C 
BRANCH   2   3
ATOM      3  C   UNL A   1      33.550  24.451  24.298  1.00  0.00     0.116 C 
BRANCH   3   4
ATOM      4  N   UNL A   1      33.432  25.299  23.144  1.00  0.00    -0.352 N 
ATOM      5  C   UNL A   1      33.302  26.663  23.033  1.00  0.00     0.253 C 
ATOM      6  O   UNL A   1      33.431  27.111  21.888  1.00  0.00    -0.269 OA
ATOM      7  H   UNL A   1      33.446  24.819  22.284  1.00  0.00     0.163 HD
BRANCH   5   8
ATOM      8  C   UNL A   1      32.929  27.638  24.120  1.00  0.00     0.067 A 
ATOM      9  C   UNL A   1      31.679  28.058  24.609  1.00  0.00     0.058 A 
ATOM     10  C   UNL A   1      31.584  28.993  25.672  1.00  0.00     0.031 A 
ATOM     11  C   UNL A   1      32.719  29.527  26.268  1.00  0.00     0.048 A 
ATOM     12  C   UNL A   1      34.064  28.207  24.753  1.00  0.00     0.062 A 
ATOM     13  C   UNL A   1      33.957  29.124  25.802  1.00  0.00     0.116 A 
BRANCH   9  14
ATOM     14  N   UNL A   1      30.431  27.556  24.184  1.00  0.00    -0.318 N 
ATOM     15  C   UNL A   1      29.991  29.361  22.427  1.00  0.00     0.065 C 
ATOM     16  C   UNL A   1      29.588  28.197  23.274  1.00  0.00     0.020 A 
ATOM     17  C   UNL A   1      28.410  27.477  23.210  1.00  0.00     0.023 A 
ATOM     18  C   UNL A   1      28.518  26.395  24.108  1.00  0.00     0.023 A 
ATOM     19  C   UNL A   1      29.763  26.458  24.708  1.00  0.00     0.020 A 
ATOM     20  C   UNL A   1      30.338  25.524  25.718  1.00  0.00     0.065 C 
ENDBRANCH   9  14
BRANCH  13  21
ATOM     21  O   UNL A   1      35.107  29.605  26.357  1.00  0.00    -0.508 OA
ATOM     22  H   UNL A   1      35.751  29.011  26.689  1.00  0.00     0.293 HD
ENDBRANCH  13  21
ENDBRANCH   5   8
ENDBRANCH   3   4
ENDBRANCH   2   3
ENDBRANCH   1   2
BRANCH   1  23
ATOM     23  C   UNL A   1      37.128  24.387  25.636  1.00  0.00     0.116 C 
BRANCH  23  24
ATOM     24  N   UNL A   1      38.080  23.325  25.881  1.00  0.00    -0.352 N 
ATOM     25  C   UNL A   1      39.114  23.291  26.795  1.00  0.00     0.251 C 
ATOM     26  H   UNL A   1      37.979  22.522  25.322  1.00  0.00     0.163 HD
ATOM     27  O   UNL A   1      39.677  22.218  26.992  1.00  0.00    -0.269 OA
BRANCH  25  28
ATOM     28  C   UNL A   1      39.610  24.533  27.463  1.00  0.00     0.039 A 
ATOM     29  C   UNL A   1      39.025  24.890  28.668  1.00  0.00     0.014 A 
ATOM     30  C   UNL A   1      40.459  25.462  26.839  1.00  0.00     0.014 A 
ATOM     31  C   UNL A   1      39.296  26.154  29.234  1.00  0.00     0.010 A 
ATOM     32  C   UNL A   1      40.674  26.775  27.385  1.00  0.00     0.010 A 
ATOM     33  C   UNL A   1      40.059  27.177  28.579  1.00  0.00    -0.014 A 
BRANCH  33  34
ATOM     34  C   UNL A   1      39.680  28.635  28.958  1.00  0.00     0.031 A 
ATOM     35  C   UNL A   1      40.980  29.320  29.235  1.00  0.00     0.074 A 
ATOM     36  C   UNL A   1      38.572  29.429  29.157  1.00  0.00     0.049 A 
ATOM     37  N   UNL A   1      41.855  28.842  30.077  1.00  0.00    -0.248 NA
ATOM     38  C   UNL A   1      41.499  30.343  28.322  1.00  0.00     0.031 C 
ATOM     39  C   UNL A   1      37.157  29.051  29.093  1.00  0.00     0.029 A 
ATOM     40  N   UNL A   1      38.467  30.808  29.454  1.00  0.00    -0.354 N 
ATOM     41  C   UNL A   1      42.912  29.713  30.031  1.00  0.00     0.074 A 
ATOM     42  C   UNL A   1      42.747  30.439  28.783  1.00  0.00     0.031 C 
ATOM     43  C   UNL A   1      36.356  30.147  29.212  1.00  0.00     0.029 A 
ATOM     44  C   UNL A   1      37.154  31.353  29.418  1.00  0.00     0.049 A 
ATOM     45  H   UNL A   1      39.255  31.357  29.670  1.00  0.00     0.167 HD
ATOM     46  C   UNL A   1      43.419  30.183  31.206  1.00  0.00     0.034 A 
ATOM     47  C   UNL A   1      36.725  32.655  29.580  1.00  0.00     0.034 A 
ATOM     48  C   UNL A   1      43.173  31.590  31.380  1.00  0.00     0.049 A 
ATOM     49  C   UNL A   1      37.790  33.417  30.241  1.00  0.00     0.074 A 
ATOM     50  C   UNL A   1      43.356  32.711  30.596  1.00  0.00     0.029 A 
ATOM     51  N   UNL A   1      42.228  31.925  32.326  1.00  0.00    -0.354 N 
ATOM     52  N   UNL A   1      37.999  33.331  31.514  1.00  0.00    -0.248 NA
ATOM     53  C   UNL A   1      38.620  34.385  29.532  1.00  0.00     0.031 C 
ATOM     54  C   UNL A   1      42.204  33.515  30.813  1.00  0.00     0.029 A 
ATOM     55  C   UNL A   1      41.471  32.987  31.872  1.00  0.00     0.049 A 
ATOM     56  H   UNL A   1      42.111  31.476  33.194  1.00  0.00     0.167 HD
ATOM     57  C   UNL A   1      39.247  33.845  31.676  1.00  0.00     0.074 A 
ATOM     58  C   UNL A   1      39.455  34.700  30.525  1.00  0.00     0.031 C 
ATOM     59  C   UNL A   1      40.131  33.136  32.419  1.00  0.00     0.034 A 
BRANCH  46  60
ATOM     60  C   UNL A   1      43.447  29.193  32.337  1.00  0.00     0.023 A 
ATOM     61  C   UNL A   1      42.919  29.551  33.583  1.00  0.00     0.031 A 
ATOM     62  C   UNL A   1      44.067  27.932  32.220  1.00  0.00     0.131 A 
ATOM     63  C   UNL A   1      43.069  28.684  34.679  1.00  0.00     0.055 A 
ATOM     64  C   UNL A   1      44.263  27.098  33.319  1.00  0.00     0.041 A 
ATOM     65  F   UNL A   1      44.482  27.487  31.022  1.00  0.00    -0.206 F 
ATOM     66  C   UNL A   1      43.772  27.479  34.563  1.00  0.00     0.022 A 
BRANCH  63  67
ATOM     67  S   UNL A   1      42.296  29.135  36.257  1.00  0.00     0.124 S 
ATOM     68  O   UNL A   1      41.123  28.271  36.301  1.00  0.00    -0.237 OA
ATOM     69  O   UNL A   1      43.347  28.816  37.217  1.00  0.00    -0.237 OA
ATOM     70  O   UNL A   1      42.010  30.563  36.112  1.00  0.00    -0.744 OA
ENDBRANCH  63  67
ENDBRANCH  46  60
BRANCH  47  71
ATOM     71  C   UNL A   1      35.475  33.507  29.400  1.00  0.00     0.023 A 
ATOM     72  C   UNL A   1      34.733  33.963  30.546  1.00  0.00     0.031 A 
ATOM     73  C   UNL A   1      35.184  34.160  28.200  1.00  0.00     0.131 A 
ATOM     74  C   UNL A   1      33.834  35.050  30.483  1.00  0.00     0.055 A 
ATOM     75  C   UNL A   1      34.256  35.220  28.130  1.00  0.00     0.041 A 
ATOM     76  F   UNL A   1      35.864  33.865  27.082  1.00  0.00    -0.206 F 
ATOM     77  C   UNL A   1      33.598  35.684  29.270  1.00  0.00     0.022 A 
BRANCH  74  78
ATOM     78  S   UNL A   1      33.145  35.792  32.014  1.00  0.00     0.124 S 
ATOM     79  O   UNL A   1      32.037  36.595  31.515  1.00  0.00    -0.237 OA
ATOM     80  O   UNL A   1      32.795  34.620  32.812  1.00  0.00    -0.237 OA
ATOM     81  O   UNL A   1      34.269  36.564  32.548  1.00  0.00    -0.744 OA
ENDBRANCH  74  78
ENDBRANCH  47  71
BRANCH  59  82
ATOM     82  C   UNL A   1      39.583  32.343  33.621  1.00  0.00     0.023 A 
ATOM     83  C   UNL A   1      39.328  32.852  34.925  1.00  0.00     0.031 A 
ATOM     84  C   UNL A   1      39.353  30.968  33.450  1.00  0.00     0.131 A 
ATOM     85  C   UNL A   1      38.927  32.010  35.982  1.00  0.00     0.055 A 
ATOM     86  C   UNL A   1      38.895  30.141  34.482  1.00  0.00     0.041 A 
ATOM     87  F   UNL A   1      39.571  30.387  32.258  1.00  0.00    -0.206 F 
ATOM     88  C   UNL A   1      38.700  30.655  35.759  1.00  0.00     0.022 A 
BRANCH  85  89
ATOM     89  S   UNL A   1      38.794  32.663  37.682  1.00  0.00     0.124 S 
ATOM     90  O   UNL A   1      37.816  31.782  38.309  1.00  0.00    -0.237 OA
ATOM     91  O   UNL A   1      40.163  32.551  38.178  1.00  0.00    -0.237 OA
ATOM     92  O   UNL A   1      38.328  34.038  37.483  1.00  0.00    -0.744 OA
ENDBRANCH  85  89
ENDBRANCH  59  82
ENDBRANCH  33  34
ENDBRANCH  25  28
ENDBRANCH  23  24
ENDBRANCH   1  23
TORSDOF 16
ENDMDL
