MODEL 1
REMARK VINA RESULT:     -12.7      0.000      0.000
REMARK SMILES O=C(C[C@]1(C(=O)NC2CCCCC2)CC(c2ccc([N+](=O)[O-])cc2)=NO1)NCCCCNC(=O)c1ccc(-c2c3nc(c(-c4cc(S(=O)(=O)[O-])ccc4F)c4ccc([nH]4)c(-c4cc(S(=O)(=O)[O-])ccc4F)c4nc(c(-c5cc(S(=O)(=O)[O-])ccc5F)c5ccc2[nH]5)C=C4)C=C3)cc1
REMARK SMILES IDX 29 1 28 2 27 3 1 4 2 5 3 7 4 8 14 9 26 10 15 11 25 12 5 13
REMARK SMILES IDX 6 14 7 15 8 17 9 18 13 19 10 20 12 21 11 22 16 23 17 24
REMARK SMILES IDX 24 25 18 26 23 27 19 28 20 29 21 30 22 31 30 32 31 33 32 34
REMARK SMILES IDX 33 35 34 37 35 38 36 39 97 40 37 41 96 42 38 43 39 44 40 45
REMARK SMILES IDX 90 46 41 47 95 48 89 49 91 50 42 51 94 52 88 53 87 54 43 56
REMARK SMILES IDX 75 57 55 58 74 59 56 60 59 61 73 62 92 63 57 64 58 65 72 67
REMARK SMILES IDX 93 68 60 69 44 70 45 71 53 72 46 73 52 74 54 75 51 76 47 77
REMARK SMILES IDX 48 78 49 79 50 80 76 81 77 82 85 83 78 84 84 85 86 86 83 87
REMARK SMILES IDX 79 88 80 89 81 90 82 91 61 92 62 93 70 94 63 95 69 96 71 97
REMARK SMILES IDX 68 98 64 99 65 100 66 101 67 102
REMARK H PARENT 27 6 7 16 32 36 91 55 59 66
REMARK Flexibility Score: inf
ROOT
ATOM      1  C   UNL A   1      31.930  30.111  26.081  1.00  0.00     0.023 C 
ENDROOT
BRANCH   1   2
ATOM      2  C   UNL A   1      32.247  28.939  27.000  1.00  0.00     0.116 C 
BRANCH   2   3
ATOM      3  N   UNL A   1      31.926  27.650  26.416  1.00  0.00    -0.356 N 
ATOM      4  O   UNL A   1      33.943  27.416  25.342  1.00  0.00    -0.275 OA
ATOM      5  C   UNL A   1      32.861  26.949  25.687  1.00  0.00     0.224 C 
ATOM      6  H   UNL A   1      31.025  27.272  26.542  1.00  0.00     0.163 HD
BRANCH   5   7
ATOM      7  C   UNL A   1      32.510  25.506  25.436  1.00  0.00     0.162 C 
BRANCH   7   8
ATOM      8  C   UNL A   1      31.390  25.320  24.381  1.00  0.00     0.229 C 
ATOM      9  C   UNL A   1      31.283  26.403  23.315  1.00  0.00     0.123 C 
ATOM     10  O   UNL A   1      30.149  25.378  25.119  1.00  0.00    -0.378 OA
ATOM     11  C   UNL A   1      30.042  27.081  23.760  1.00  0.00     0.092 C 
ATOM     12  N   UNL A   1      29.456  26.567  24.790  1.00  0.00    -0.089 NA
BRANCH   8  13
ATOM     13  C   UNL A   1      31.503  23.915  23.727  1.00  0.00     0.268 C 
ATOM     14  O   UNL A   1      30.524  23.396  23.178  1.00  0.00    -0.270 OA
ATOM     15  N   UNL A   1      32.640  23.154  23.790  1.00  0.00    -0.350 N 
ATOM     16  H   UNL A   1      32.646  22.377  23.186  1.00  0.00     0.163 HD
BRANCH  15  17
ATOM     17  C   UNL A   1      33.845  23.303  24.601  1.00  0.00     0.082 C 
ATOM     18  C   UNL A   1      33.983  22.111  25.558  1.00  0.00     0.025 C 
ATOM     19  C   UNL A   1      35.114  23.455  23.760  1.00  0.00     0.025 C 
ATOM     20  C   UNL A   1      35.193  22.277  26.475  1.00  0.00     0.002 C 
ATOM     21  C   UNL A   1      36.329  23.651  24.672  1.00  0.00     0.002 C 
ATOM     22  C   UNL A   1      36.476  22.515  25.684  1.00  0.00     0.000 C 
ENDBRANCH  15  17
ENDBRANCH   8  13
BRANCH  11  23
ATOM     23  C   UNL A   1      29.502  28.231  23.017  1.00  0.00    -0.000 A 
ATOM     24  C   UNL A   1      30.379  29.118  22.387  1.00  0.00     0.017 A 
ATOM     25  C   UNL A   1      28.125  28.482  23.031  1.00  0.00     0.017 A 
ATOM     26  C   UNL A   1      29.877  30.270  21.777  1.00  0.00     0.086 A 
ATOM     27  C   UNL A   1      27.620  29.647  22.452  1.00  0.00     0.086 A 
ATOM     28  C   UNL A   1      28.501  30.542  21.831  1.00  0.00     0.269 A 
BRANCH  28  29
ATOM     29  N   UNL A   1      27.981  31.787  21.257  1.00  0.00     0.062 N 
ATOM     30  O   UNL A   1      27.522  31.742  20.107  1.00  0.00    -0.258 OA
ATOM     31  O   UNL A   1      28.040  32.810  21.953  1.00  0.00    -0.258 OA
ENDBRANCH  28  29
ENDBRANCH  11  23
ENDBRANCH   7   8
ENDBRANCH   5   7
ENDBRANCH   2   3
ENDBRANCH   1   2
BRANCH   1  32
ATOM     32  C   UNL A   1      31.689  31.443  26.796  1.00  0.00     0.023 C 
BRANCH  32  33
ATOM     33  C   UNL A   1      32.947  32.219  27.177  1.00  0.00     0.116 C 
BRANCH  33  34
ATOM     34  N   UNL A   1      32.672  33.609  27.503  1.00  0.00    -0.352 N 
ATOM     35  C   UNL A   1      33.217  34.401  28.487  1.00  0.00     0.251 C 
ATOM     36  H   UNL A   1      31.998  34.048  26.936  1.00  0.00     0.163 HD
ATOM     37  O   UNL A   1      32.721  35.503  28.718  1.00  0.00    -0.269 OA
BRANCH  35  38
ATOM     38  C   UNL A   1      34.371  33.923  29.283  1.00  0.00     0.039 A 
ATOM     39  C   UNL A   1      34.144  33.034  30.338  1.00  0.00     0.014 A 
ATOM     40  C   UNL A   1      35.671  34.346  28.997  1.00  0.00     0.014 A 
ATOM     41  C   UNL A   1      35.226  32.515  31.055  1.00  0.00     0.010 A 
ATOM     42  C   UNL A   1      36.753  33.767  29.660  1.00  0.00     0.010 A 
ATOM     43  C   UNL A   1      36.543  32.843  30.694  1.00  0.00    -0.014 A 
BRANCH  43  44
ATOM     44  C   UNL A   1      37.710  32.220  31.381  1.00  0.00     0.031 A 
ATOM     45  C   UNL A   1      38.460  31.088  30.730  1.00  0.00     0.074 A 
ATOM     46  C   UNL A   1      38.058  32.635  32.615  1.00  0.00     0.049 A 
ATOM     47  N   UNL A   1      39.450  30.373  31.199  1.00  0.00    -0.248 NA
ATOM     48  C   UNL A   1      38.015  30.689  29.387  1.00  0.00     0.031 C 
ATOM     49  C   UNL A   1      37.392  33.702  33.367  1.00  0.00     0.029 A 
ATOM     50  N   UNL A   1      39.054  32.210  33.461  1.00  0.00    -0.354 N 
ATOM     51  C   UNL A   1      39.741  29.433  30.215  1.00  0.00     0.074 A 
ATOM     52  C   UNL A   1      38.778  29.632  29.153  1.00  0.00     0.031 C 
ATOM     53  C   UNL A   1      38.016  33.868  34.544  1.00  0.00     0.029 A 
ATOM     54  C   UNL A   1      39.090  32.886  34.660  1.00  0.00     0.049 A 
ATOM     55  H   UNL A   1      39.682  31.489  33.231  1.00  0.00     0.167 HD
ATOM     56  C   UNL A   1      40.732  28.507  30.191  1.00  0.00     0.034 A 
ATOM     57  C   UNL A   1      39.886  32.726  35.736  1.00  0.00     0.034 A 
ATOM     58  C   UNL A   1      41.691  28.328  31.256  1.00  0.00     0.049 A 
ATOM     59  C   UNL A   1      40.952  31.658  35.704  1.00  0.00     0.074 A 
ATOM     60  C   UNL A   1      42.768  27.460  31.307  1.00  0.00     0.029 A 
ATOM     61  N   UNL A   1      41.685  29.019  32.461  1.00  0.00    -0.354 N 
ATOM     62  N   UNL A   1      41.245  30.812  34.743  1.00  0.00    -0.248 NA
ATOM     63  C   UNL A   1      41.799  31.532  36.897  1.00  0.00     0.031 C 
ATOM     64  C   UNL A   1      43.358  27.564  32.570  1.00  0.00     0.029 A 
ATOM     65  C   UNL A   1      42.711  28.565  33.277  1.00  0.00     0.049 A 
ATOM     66  H   UNL A   1      41.045  29.727  32.703  1.00  0.00     0.167 HD
ATOM     67  C   UNL A   1      42.335  30.078  35.206  1.00  0.00     0.074 A 
ATOM     68  C   UNL A   1      42.654  30.592  36.522  1.00  0.00     0.031 C 
ATOM     69  C   UNL A   1      43.016  29.075  34.594  1.00  0.00     0.034 A 
BRANCH  56  70
ATOM     70  C   UNL A   1      40.806  27.594  28.989  1.00  0.00     0.023 A 
ATOM     71  C   UNL A   1      41.757  27.783  27.971  1.00  0.00     0.031 A 
ATOM     72  C   UNL A   1      39.898  26.528  28.847  1.00  0.00     0.131 A 
ATOM     73  C   UNL A   1      41.728  26.975  26.824  1.00  0.00     0.055 A 
ATOM     74  C   UNL A   1      39.933  25.671  27.745  1.00  0.00     0.041 A 
ATOM     75  F   UNL A   1      38.951  26.309  29.772  1.00  0.00    -0.206 F 
ATOM     76  C   UNL A   1      40.840  25.902  26.717  1.00  0.00     0.022 A 
BRANCH  73  77
ATOM     77  S   UNL A   1      42.756  27.449  25.407  1.00  0.00     0.124 S 
ATOM     78  O   UNL A   1      44.036  27.728  26.054  1.00  0.00    -0.237 OA
ATOM     79  O   UNL A   1      42.709  26.256  24.571  1.00  0.00    -0.237 OA
ATOM     80  O   UNL A   1      42.072  28.622  24.865  1.00  0.00    -0.744 OA
ENDBRANCH  73  77
ENDBRANCH  56  70
BRANCH  57  81
ATOM     81  C   UNL A   1      39.708  33.583  36.945  1.00  0.00     0.023 A 
ATOM     82  C   UNL A   1      39.160  33.061  38.128  1.00  0.00     0.031 A 
ATOM     83  C   UNL A   1      40.037  34.952  36.920  1.00  0.00     0.131 A 
ATOM     84  C   UNL A   1      38.910  33.910  39.218  1.00  0.00     0.055 A 
ATOM     85  C   UNL A   1      39.843  35.777  38.029  1.00  0.00     0.041 A 
ATOM     86  F   UNL A   1      40.563  35.504  35.816  1.00  0.00    -0.206 F 
ATOM     87  C   UNL A   1      39.263  35.260  39.182  1.00  0.00     0.022 A 
BRANCH  84  88
ATOM     88  S   UNL A   1      38.023  33.240  40.652  1.00  0.00     0.124 S 
ATOM     89  O   UNL A   1      38.588  31.899  40.748  1.00  0.00    -0.237 OA
ATOM     90  O   UNL A   1      38.404  34.174  41.706  1.00  0.00    -0.237 OA
ATOM     91  O   UNL A   1      36.622  33.302  40.243  1.00  0.00    -0.744 OA
ENDBRANCH  84  88
ENDBRANCH  57  81
BRANCH  69  92
ATOM     92  C   UNL A   1      44.207  28.502  35.326  1.00  0.00     0.023 A 
ATOM     93  C   UNL A   1      44.072  27.481  36.283  1.00  0.00     0.031 A 
ATOM     94  C   UNL A   1      45.499  28.995  35.066  1.00  0.00     0.131 A 
ATOM     95  C   UNL A   1      45.199  27.028  36.987  1.00  0.00     0.055 A 
ATOM     96  C   UNL A   1      46.625  28.492  35.719  1.00  0.00     0.041 A 
ATOM     97  F   UNL A   1      45.689  29.973  34.167  1.00  0.00    -0.206 F 
ATOM     98  C   UNL A   1      46.477  27.513  36.696  1.00  0.00     0.022 A 
BRANCH  95  99
ATOM     99  S   UNL A   1      44.961  25.868  38.361  1.00  0.00     0.124 S 
ATOM    100  O   UNL A   1      44.375  24.716  37.685  1.00  0.00    -0.237 OA
ATOM    101  O   UNL A   1      46.321  25.691  38.860  1.00  0.00    -0.237 OA
ATOM    102  O   UNL A   1      44.059  26.585  39.262  1.00  0.00    -0.744 OA
ENDBRANCH  95  99
ENDBRANCH  69  92
ENDBRANCH  43  44
ENDBRANCH  35  38
ENDBRANCH  33  34
ENDBRANCH  32  33
ENDBRANCH   1  32
TORSDOF 19
ENDMDL
MODEL 2
REMARK VINA RESULT:     -12.5      5.590     11.723
REMARK SMILES O=C(C[C@]1(C(=O)NC2CCCCC2)CC(c2ccc([N+](=O)[O-])cc2)=NO1)NCCCCNC(=O)c1ccc(-c2c3nc(c(-c4cc(S(=O)(=O)[O-])ccc4F)c4ccc([nH]4)c(-c4cc(S(=O)(=O)[O-])ccc4F)c4nc(c(-c5cc(S(=O)(=O)[O-])ccc5F)c5ccc2[nH]5)C=C4)C=C3)cc1
REMARK SMILES IDX 29 1 28 2 27 3 1 4 2 5 3 7 4 8 14 9 26 10 15 11 25 12 5 13
REMARK SMILES IDX 6 14 7 15 8 17 9 18 13 19 10 20 12 21 11 22 16 23 17 24
REMARK SMILES IDX 24 25 18 26 23 27 19 28 20 29 21 30 22 31 30 32 31 33 32 34
REMARK SMILES IDX 33 35 34 37 35 38 36 39 97 40 37 41 96 42 38 43 39 44 40 45
REMARK SMILES IDX 90 46 41 47 95 48 89 49 91 50 42 51 94 52 88 53 87 54 43 56
REMARK SMILES IDX 75 57 55 58 74 59 56 60 59 61 73 62 92 63 57 64 58 65 72 67
REMARK SMILES IDX 93 68 60 69 44 70 45 71 53 72 46 73 52 74 54 75 51 76 47 77
REMARK SMILES IDX 48 78 49 79 50 80 76 81 77 82 85 83 78 84 84 85 86 86 83 87
REMARK SMILES IDX 79 88 80 89 81 90 82 91 61 92 62 93 70 94 63 95 69 96 71 97
REMARK SMILES IDX 68 98 64 99 65 100 66 101 67 102
REMARK H PARENT 27 6 7 16 32 36 91 55 59 66
REMARK Flexibility Score: inf
ROOT
ATOM      1  C   UNL A   1      38.149  23.226  26.112  1.00  0.00     0.023 C 
ENDROOT
BRANCH   1   2
ATOM      2  C   UNL A   1      36.971  23.017  25.170  1.00  0.00     0.116 C 
BRANCH   2   3
ATOM      3  N   UNL A   1      35.888  23.959  25.388  1.00  0.00    -0.356 N 
ATOM      4  O   UNL A   1      35.050  23.784  23.256  1.00  0.00    -0.275 OA
ATOM      5  C   UNL A   1      34.951  24.200  24.408  1.00  0.00     0.224 C 
ATOM      6  H   UNL A   1      35.824  24.432  26.248  1.00  0.00     0.163 HD
BRANCH   5   7
ATOM      7  C   UNL A   1      33.719  24.924  24.881  1.00  0.00     0.162 C 
BRANCH   7   8
ATOM      8  C   UNL A   1      32.567  23.972  25.295  1.00  0.00     0.229 C 
ATOM      9  C   UNL A   1      32.967  22.546  25.652  1.00  0.00     0.123 C 
ATOM     10  O   UNL A   1      31.721  23.858  24.130  1.00  0.00    -0.378 OA
ATOM     11  C   UNL A   1      32.446  21.828  24.465  1.00  0.00     0.092 C 
ATOM     12  N   UNL A   1      31.824  22.552  23.595  1.00  0.00    -0.089 NA
BRANCH   8  13
ATOM     13  C   UNL A   1      31.735  24.612  26.441  1.00  0.00     0.268 C 
ATOM     14  O   UNL A   1      31.345  23.926  27.394  1.00  0.00    -0.270 OA
ATOM     15  N   UNL A   1      31.327  25.919  26.425  1.00  0.00    -0.350 N 
ATOM     16  H   UNL A   1      30.972  26.248  27.282  1.00  0.00     0.163 HD
BRANCH  15  17
ATOM     17  C   UNL A   1      31.329  26.907  25.350  1.00  0.00     0.082 C 
ATOM     18  C   UNL A   1      30.033  26.797  24.534  1.00  0.00     0.025 C 
ATOM     19  C   UNL A   1      31.515  28.338  25.856  1.00  0.00     0.025 C 
ATOM     20  C   UNL A   1      30.042  27.765  23.353  1.00  0.00     0.002 C 
ATOM     21  C   UNL A   1      31.554  29.313  24.675  1.00  0.00     0.002 C 
ATOM     22  C   UNL A   1      30.307  29.200  23.798  1.00  0.00     0.000 C 
ENDBRANCH  15  17
ENDBRANCH   8  13
BRANCH  11  23
ATOM     23  C   UNL A   1      32.587  20.368  24.344  1.00  0.00    -0.000 A 
ATOM     24  C   UNL A   1      32.945  19.614  25.465  1.00  0.00     0.017 A 
ATOM     25  C   UNL A   1      32.461  19.759  23.089  1.00  0.00     0.017 A 
ATOM     26  C   UNL A   1      33.190  18.246  25.329  1.00  0.00     0.086 A 
ATOM     27  C   UNL A   1      32.735  18.400  22.941  1.00  0.00     0.086 A 
ATOM     28  C   UNL A   1      33.106  17.648  24.063  1.00  0.00     0.269 A 
BRANCH  28  29
ATOM     29  N   UNL A   1      33.435  16.227  23.904  1.00  0.00     0.062 N 
ATOM     30  O   UNL A   1      34.120  15.902  22.924  1.00  0.00    -0.258 OA
ATOM     31  O   UNL A   1      33.001  15.438  24.754  1.00  0.00    -0.258 OA
ENDBRANCH  28  29
ENDBRANCH  11  23
ENDBRANCH   7   8
ENDBRANCH   5   7
ENDBRANCH   2   3
ENDBRANCH   1   2
BRANCH   1  32
ATOM     32  C   UNL A   1      38.911  21.952  26.483  1.00  0.00     0.023 C 
BRANCH  32  33
ATOM     33  C   UNL A   1      39.078  20.936  25.357  1.00  0.00     0.116 C 
BRANCH  33  34
ATOM     34  N   UNL A   1      39.944  19.826  25.723  1.00  0.00    -0.352 N 
ATOM     35  C   UNL A   1      41.257  19.839  26.131  1.00  0.00     0.251 C 
ATOM     36  H   UNL A   1      39.528  18.936  25.673  1.00  0.00     0.163 HD
ATOM     37  O   UNL A   1      41.871  18.777  26.223  1.00  0.00    -0.269 OA
BRANCH  35  38
ATOM     38  C   UNL A   1      41.938  21.120  26.430  1.00  0.00     0.039 A 
ATOM     39  C   UNL A   1      42.264  21.975  25.373  1.00  0.00     0.014 A 
ATOM     40  C   UNL A   1      42.259  21.480  27.741  1.00  0.00     0.014 A 
ATOM     41  C   UNL A   1      42.842  23.220  25.640  1.00  0.00     0.010 A 
ATOM     42  C   UNL A   1      42.762  22.752  28.010  1.00  0.00     0.010 A 
ATOM     43  C   UNL A   1      43.056  23.639  26.963  1.00  0.00    -0.014 A 
BRANCH  43  44
ATOM     44  C   UNL A   1      43.576  25.001  27.269  1.00  0.00     0.031 A 
ATOM     45  C   UNL A   1      42.665  26.050  27.851  1.00  0.00     0.074 A 
ATOM     46  C   UNL A   1      44.852  25.313  26.967  1.00  0.00     0.049 A 
ATOM     47  N   UNL A   1      42.912  27.307  28.115  1.00  0.00    -0.248 NA
ATOM     48  C   UNL A   1      41.285  25.635  28.145  1.00  0.00     0.031 C 
ATOM     49  C   UNL A   1      45.827  24.396  26.371  1.00  0.00     0.029 A 
ATOM     50  N   UNL A   1      45.552  26.486  27.114  1.00  0.00    -0.354 N 
ATOM     51  C   UNL A   1      41.719  27.837  28.598  1.00  0.00     0.074 A 
ATOM     52  C   UNL A   1      40.735  26.778  28.525  1.00  0.00     0.031 C 
ATOM     53  C   UNL A   1      47.002  25.029  26.234  1.00  0.00     0.029 A 
ATOM     54  C   UNL A   1      46.855  26.413  26.678  1.00  0.00     0.049 A 
ATOM     55  H   UNL A   1      45.158  27.302  27.496  1.00  0.00     0.167 HD
ATOM     56  C   UNL A   1      41.474  29.083  29.074  1.00  0.00     0.034 A 
ATOM     57  C   UNL A   1      47.820  27.353  26.626  1.00  0.00     0.034 A 
ATOM     58  C   UNL A   1      42.470  30.126  29.147  1.00  0.00     0.049 A 
ATOM     59  C   UNL A   1      47.510  28.745  27.120  1.00  0.00     0.074 A 
ATOM     60  C   UNL A   1      42.342  31.403  29.666  1.00  0.00     0.029 A 
ATOM     61  N   UNL A   1      43.774  30.020  28.679  1.00  0.00    -0.354 N 
ATOM     62  N   UNL A   1      46.390  29.214  27.620  1.00  0.00    -0.248 NA
ATOM     63  C   UNL A   1      48.598  29.730  27.052  1.00  0.00     0.031 C 
ATOM     64  C   UNL A   1      43.535  32.094  29.435  1.00  0.00     0.029 A 
ATOM     65  C   UNL A   1      44.444  31.222  28.858  1.00  0.00     0.049 A 
ATOM     66  H   UNL A   1      44.165  29.210  28.278  1.00  0.00     0.167 HD
ATOM     67  C   UNL A   1      46.652  30.540  27.958  1.00  0.00     0.074 A 
ATOM     68  C   UNL A   1      48.039  30.788  27.619  1.00  0.00     0.031 C 
ATOM     69  C   UNL A   1      45.824  31.465  28.507  1.00  0.00     0.034 A 
BRANCH  56  70
ATOM     70  C   UNL A   1      40.064  29.395  29.522  1.00  0.00     0.023 A 
ATOM     71  C   UNL A   1      39.724  29.498  30.882  1.00  0.00     0.031 A 
ATOM     72  C   UNL A   1      39.039  29.572  28.575  1.00  0.00     0.131 A 
ATOM     73  C   UNL A   1      38.386  29.689  31.258  1.00  0.00     0.055 A 
ATOM     74  C   UNL A   1      37.724  29.853  28.954  1.00  0.00     0.041 A 
ATOM     75  F   UNL A   1      39.295  29.463  27.262  1.00  0.00    -0.206 F 
ATOM     76  C   UNL A   1      37.388  29.896  30.303  1.00  0.00     0.022 A 
BRANCH  73  77
ATOM     77  S   UNL A   1      37.944  29.500  33.008  1.00  0.00     0.124 S 
ATOM     78  O   UNL A   1      36.982  30.586  33.186  1.00  0.00    -0.237 OA
ATOM     79  O   UNL A   1      37.397  28.150  33.051  1.00  0.00    -0.237 OA
ATOM     80  O   UNL A   1      39.216  29.685  33.703  1.00  0.00    -0.744 OA
ENDBRANCH  73  77
ENDBRANCH  56  70
BRANCH  57  81
ATOM     81  C   UNL A   1      49.169  27.026  26.077  1.00  0.00     0.023 A 
ATOM     82  C   UNL A   1      49.533  27.408  24.776  1.00  0.00     0.031 A 
ATOM     83  C   UNL A   1      50.099  26.283  26.829  1.00  0.00     0.131 A 
ATOM     84  C   UNL A   1      50.768  27.003  24.246  1.00  0.00     0.055 A 
ATOM     85  C   UNL A   1      51.351  25.936  26.319  1.00  0.00     0.041 A 
ATOM     86  F   UNL A   1      49.804  25.891  28.079  1.00  0.00    -0.206 F 
ATOM     87  C   UNL A   1      51.687  26.284  25.015  1.00  0.00     0.022 A 
BRANCH  84  88
ATOM     88  S   UNL A   1      51.118  27.348  22.500  1.00  0.00     0.124 S 
ATOM     89  O   UNL A   1      49.977  26.722  21.842  1.00  0.00    -0.237 OA
ATOM     90  O   UNL A   1      51.151  28.806  22.480  1.00  0.00    -0.237 OA
ATOM     91  O   UNL A   1      52.406  26.694  22.277  1.00  0.00    -0.744 OA
ENDBRANCH  84  88
ENDBRANCH  57  81
BRANCH  69  92
ATOM     92  C   UNL A   1      46.414  32.820  28.821  1.00  0.00     0.023 A 
ATOM     93  C   UNL A   1      46.404  33.871  27.887  1.00  0.00     0.031 A 
ATOM     94  C   UNL A   1      47.005  33.059  30.075  1.00  0.00     0.131 A 
ATOM     95  C   UNL A   1      47.026  35.091  28.199  1.00  0.00     0.055 A 
ATOM     96  C   UNL A   1      47.560  34.296  30.405  1.00  0.00     0.041 A 
ATOM     97  F   UNL A   1      47.049  32.092  31.005  1.00  0.00    -0.206 F 
ATOM     98  C   UNL A   1      47.585  35.316  29.459  1.00  0.00     0.022 A 
BRANCH  95  99
ATOM     99  S   UNL A   1      47.184  36.346  26.899  1.00  0.00     0.124 S 
ATOM    100  O   UNL A   1      45.817  36.435  26.397  1.00  0.00    -0.237 OA
ATOM    101  O   UNL A   1      47.666  37.506  27.642  1.00  0.00    -0.237 OA
ATOM    102  O   UNL A   1      48.150  35.759  25.971  1.00  0.00    -0.744 OA
ENDBRANCH  95  99
ENDBRANCH  69  92
ENDBRANCH  43  44
ENDBRANCH  35  38
ENDBRANCH  33  34
ENDBRANCH  32  33
ENDBRANCH   1  32
TORSDOF 19
ENDMDL
MODEL 3
REMARK VINA RESULT:     -12.5      6.021     10.124
REMARK SMILES O=C(C[C@]1(C(=O)NC2CCCCC2)CC(c2ccc([N+](=O)[O-])cc2)=NO1)NCCCCNC(=O)c1ccc(-c2c3nc(c(-c4cc(S(=O)(=O)[O-])ccc4F)c4ccc([nH]4)c(-c4cc(S(=O)(=O)[O-])ccc4F)c4nc(c(-c5cc(S(=O)(=O)[O-])ccc5F)c5ccc2[nH]5)C=C4)C=C3)cc1
REMARK SMILES IDX 29 1 28 2 27 3 1 4 2 5 3 7 4 8 14 9 26 10 15 11 25 12 5 13
REMARK SMILES IDX 6 14 7 15 8 17 9 18 13 19 10 20 12 21 11 22 16 23 17 24
REMARK SMILES IDX 24 25 18 26 23 27 19 28 20 29 21 30 22 31 30 32 31 33 32 34
REMARK SMILES IDX 33 35 34 37 35 38 36 39 97 40 37 41 96 42 38 43 39 44 40 45
REMARK SMILES IDX 90 46 41 47 95 48 89 49 91 50 42 51 94 52 88 53 87 54 43 56
REMARK SMILES IDX 75 57 55 58 74 59 56 60 59 61 73 62 92 63 57 64 58 65 72 67
REMARK SMILES IDX 93 68 60 69 44 70 45 71 53 72 46 73 52 74 54 75 51 76 47 77
REMARK SMILES IDX 48 78 49 79 50 80 76 81 77 82 85 83 78 84 84 85 86 86 83 87
REMARK SMILES IDX 79 88 80 89 81 90 82 91 61 92 62 93 70 94 63 95 69 96 71 97
REMARK SMILES IDX 68 98 64 99 65 100 66 101 67 102
REMARK H PARENT 27 6 7 16 32 36 91 55 59 66
REMARK Flexibility Score: inf
ROOT
ATOM      1  C   UNL A   1      38.280  21.993  25.681  1.00  0.00     0.023 C 
ENDROOT
BRANCH   1   2
ATOM      2  C   UNL A   1      37.219  22.435  24.682  1.00  0.00     0.116 C 
BRANCH   2   3
ATOM      3  N   UNL A   1      36.214  23.307  25.260  1.00  0.00    -0.356 N 
ATOM      4  O   UNL A   1      35.141  23.710  23.270  1.00  0.00    -0.275 OA
ATOM      5  C   UNL A   1      35.189  23.813  24.493  1.00  0.00     0.224 C 
ATOM      6  H   UNL A   1      36.267  23.541  26.215  1.00  0.00     0.163 HD
BRANCH   5   7
ATOM      7  C   UNL A   1      34.051  24.411  25.278  1.00  0.00     0.162 C 
BRANCH   7   8
ATOM      8  C   UNL A   1      32.954  23.382  25.652  1.00  0.00     0.229 C 
ATOM      9  C   UNL A   1      33.441  22.006  26.088  1.00  0.00     0.123 C 
ATOM     10  O   UNL A   1      32.201  23.161  24.440  1.00  0.00    -0.378 OA
ATOM     11  C   UNL A   1      33.060  21.209  24.898  1.00  0.00     0.092 C 
ATOM     12  N   UNL A   1      32.444  21.851  23.962  1.00  0.00    -0.089 NA
BRANCH   8  13
ATOM     13  C   UNL A   1      31.998  23.988  26.716  1.00  0.00     0.268 C 
ATOM     14  O   UNL A   1      31.642  23.321  27.695  1.00  0.00    -0.270 OA
ATOM     15  N   UNL A   1      31.444  25.234  26.595  1.00  0.00    -0.350 N 
ATOM     16  H   UNL A   1      31.011  25.572  27.413  1.00  0.00     0.163 HD
BRANCH  15  17
ATOM     17  C   UNL A   1      31.386  26.148  25.458  1.00  0.00     0.082 C 
ATOM     18  C   UNL A   1      30.031  26.017  24.748  1.00  0.00     0.025 C 
ATOM     19  C   UNL A   1      31.638  27.605  25.850  1.00  0.00     0.025 C 
ATOM     20  C   UNL A   1      29.972  26.904  23.506  1.00  0.00     0.002 C 
ATOM     21  C   UNL A   1      31.609  28.497  24.605  1.00  0.00     0.002 C 
ATOM     22  C   UNL A   1      30.298  28.358  23.831  1.00  0.00     0.000 C 
ENDBRANCH  15  17
ENDBRANCH   8  13
BRANCH  11  23
ATOM     23  C   UNL A   1      33.326  19.762  24.842  1.00  0.00    -0.000 A 
ATOM     24  C   UNL A   1      32.309  18.862  25.171  1.00  0.00     0.017 A 
ATOM     25  C   UNL A   1      34.618  19.303  24.558  1.00  0.00     0.017 A 
ATOM     26  C   UNL A   1      32.588  17.494  25.229  1.00  0.00     0.086 A 
ATOM     27  C   UNL A   1      34.911  17.942  24.644  1.00  0.00     0.086 A 
ATOM     28  C   UNL A   1      33.894  17.041  24.987  1.00  0.00     0.269 A 
BRANCH  28  29
ATOM     29  N   UNL A   1      34.207  15.615  25.119  1.00  0.00     0.062 N 
ATOM     30  O   UNL A   1      33.259  14.817  25.131  1.00  0.00    -0.258 OA
ATOM     31  O   UNL A   1      35.399  15.294  25.220  1.00  0.00    -0.258 OA
ENDBRANCH  28  29
ENDBRANCH  11  23
ENDBRANCH   7   8
ENDBRANCH   5   7
ENDBRANCH   2   3
ENDBRANCH   1   2
BRANCH   1  32
ATOM     32  C   UNL A   1      38.989  20.683  25.332  1.00  0.00     0.023 C 
BRANCH  32  33
ATOM     33  C   UNL A   1      39.644  19.959  26.505  1.00  0.00     0.116 C 
BRANCH  33  34
ATOM     34  N   UNL A   1      40.971  19.456  26.185  1.00  0.00    -0.352 N 
ATOM     35  C   UNL A   1      42.161  20.135  26.070  1.00  0.00     0.251 C 
ATOM     36  H   UNL A   1      41.024  18.485  26.029  1.00  0.00     0.163 HD
ATOM     37  O   UNL A   1      43.145  19.556  25.614  1.00  0.00    -0.269 OA
BRANCH  35  38
ATOM     38  C   UNL A   1      42.253  21.560  26.465  1.00  0.00     0.039 A 
ATOM     39  C   UNL A   1      42.442  21.879  27.813  1.00  0.00     0.014 A 
ATOM     40  C   UNL A   1      42.150  22.581  25.516  1.00  0.00     0.014 A 
ATOM     41  C   UNL A   1      42.603  23.213  28.195  1.00  0.00     0.010 A 
ATOM     42  C   UNL A   1      42.389  23.903  25.888  1.00  0.00     0.010 A 
ATOM     43  C   UNL A   1      42.622  24.235  27.231  1.00  0.00    -0.014 A 
BRANCH  43  44
ATOM     44  C   UNL A   1      42.893  25.650  27.610  1.00  0.00     0.031 A 
ATOM     45  C   UNL A   1      44.289  26.209  27.514  1.00  0.00     0.074 A 
ATOM     46  C   UNL A   1      41.896  26.415  28.095  1.00  0.00     0.049 A 
ATOM     47  N   UNL A   1      44.735  27.387  27.864  1.00  0.00    -0.248 NA
ATOM     48  C   UNL A   1      45.323  25.310  26.981  1.00  0.00     0.031 C 
ATOM     49  C   UNL A   1      40.507  25.982  28.267  1.00  0.00     0.029 A 
ATOM     50  N   UNL A   1      41.892  27.715  28.539  1.00  0.00    -0.354 N 
ATOM     51  C   UNL A   1      46.102  27.371  27.605  1.00  0.00     0.074 A 
ATOM     52  C   UNL A   1      46.418  26.040  27.129  1.00  0.00     0.031 C 
ATOM     53  C   UNL A   1      39.782  27.005  28.746  1.00  0.00     0.029 A 
ATOM     54  C   UNL A   1      40.659  28.150  28.972  1.00  0.00     0.049 A 
ATOM     55  H   UNL A   1      42.695  28.283  28.547  1.00  0.00     0.167 HD
ATOM     56  C   UNL A   1      47.004  28.376  27.733  1.00  0.00     0.034 A 
ATOM     57  C   UNL A   1      40.279  29.330  29.502  1.00  0.00     0.034 A 
ATOM     58  C   UNL A   1      46.669  29.701  28.201  1.00  0.00     0.049 A 
ATOM     59  C   UNL A   1      41.310  30.418  29.677  1.00  0.00     0.074 A 
ATOM     60  C   UNL A   1      47.494  30.807  28.312  1.00  0.00     0.029 A 
ATOM     61  N   UNL A   1      45.415  30.098  28.647  1.00  0.00    -0.354 N 
ATOM     62  N   UNL A   1      42.588  30.400  29.379  1.00  0.00    -0.248 NA
ATOM     63  C   UNL A   1      40.843  31.688  30.249  1.00  0.00     0.031 C 
ATOM     64  C   UNL A   1      46.763  31.843  28.902  1.00  0.00     0.029 A 
ATOM     65  C   UNL A   1      45.456  31.418  29.074  1.00  0.00     0.049 A 
ATOM     66  H   UNL A   1      44.614  29.526  28.659  1.00  0.00     0.167 HD
ATOM     67  C   UNL A   1      43.069  31.670  29.696  1.00  0.00     0.074 A 
ATOM     68  C   UNL A   1      41.939  32.428  30.192  1.00  0.00     0.031 C 
ATOM     69  C   UNL A   1      44.327  32.165  29.579  1.00  0.00     0.034 A 
BRANCH  56  70
ATOM     70  C   UNL A   1      48.444  28.070  27.392  1.00  0.00     0.023 A 
ATOM     71  C   UNL A   1      48.929  28.157  26.075  1.00  0.00     0.031 A 
ATOM     72  C   UNL A   1      49.343  27.665  28.396  1.00  0.00     0.131 A 
ATOM     73  C   UNL A   1      50.246  27.768  25.786  1.00  0.00     0.055 A 
ATOM     74  C   UNL A   1      50.678  27.367  28.115  1.00  0.00     0.041 A 
ATOM     75  F   UNL A   1      48.935  27.540  29.668  1.00  0.00    -0.206 F 
ATOM     76  C   UNL A   1      51.133  27.401  26.801  1.00  0.00     0.022 A 
BRANCH  73  77
ATOM     77  S   UNL A   1      50.733  27.593  24.047  1.00  0.00     0.124 S 
ATOM     78  O   UNL A   1      51.877  26.690  24.152  1.00  0.00    -0.237 OA
ATOM     79  O   UNL A   1      49.532  27.034  23.438  1.00  0.00    -0.237 OA
ATOM     80  O   UNL A   1      51.062  28.959  23.645  1.00  0.00    -0.744 OA
ENDBRANCH  73  77
ENDBRANCH  56  70
BRANCH  57  81
ATOM     81  C   UNL A   1      38.864  29.552  29.922  1.00  0.00     0.023 A 
ATOM     82  C   UNL A   1      37.975  30.277  29.113  1.00  0.00     0.031 A 
ATOM     83  C   UNL A   1      38.393  29.084  31.163  1.00  0.00     0.131 A 
ATOM     84  C   UNL A   1      36.679  30.559  29.574  1.00  0.00     0.055 A 
ATOM     85  C   UNL A   1      37.084  29.315  31.590  1.00  0.00     0.041 A 
ATOM     86  F   UNL A   1      39.199  28.385  31.978  1.00  0.00    -0.206 F 
ATOM     87  C   UNL A   1      36.222  30.068  30.800  1.00  0.00     0.022 A 
BRANCH  84  88
ATOM     88  S   UNL A   1      35.629  31.661  28.589  1.00  0.00     0.124 S 
ATOM     89  O   UNL A   1      36.596  32.643  28.113  1.00  0.00    -0.237 OA
ATOM     90  O   UNL A   1      35.091  30.750  27.585  1.00  0.00    -0.237 OA
ATOM     91  O   UNL A   1      34.656  32.160  29.559  1.00  0.00    -0.744 OA
ENDBRANCH  84  88
ENDBRANCH  57  81
BRANCH  69  92
ATOM     92  C   UNL A   1      44.537  33.614  29.950  1.00  0.00     0.023 A 
ATOM     93  C   UNL A   1      44.366  34.653  29.019  1.00  0.00     0.031 A 
ATOM     94  C   UNL A   1      44.926  33.958  31.258  1.00  0.00     0.131 A 
ATOM     95  C   UNL A   1      44.639  35.979  29.392  1.00  0.00     0.055 A 
ATOM     96  C   UNL A   1      45.129  35.284  31.641  1.00  0.00     0.041 A 
ATOM     97  F   UNL A   1      45.110  33.009  32.188  1.00  0.00    -0.206 F 
ATOM     98  C   UNL A   1      45.000  36.303  30.702  1.00  0.00     0.022 A 
BRANCH  95  99
ATOM     99  S   UNL A   1      44.617  37.266  28.113  1.00  0.00     0.124 S 
ATOM    100  O   UNL A   1      44.139  38.425  28.860  1.00  0.00    -0.237 OA
ATOM    101  O   UNL A   1      46.014  37.311  27.692  1.00  0.00    -0.237 OA
ATOM    102  O   UNL A   1      43.685  36.742  27.116  1.00  0.00    -0.744 OA
ENDBRANCH  95  99
ENDBRANCH  69  92
ENDBRANCH  43  44
ENDBRANCH  35  38
ENDBRANCH  33  34
ENDBRANCH  32  33
ENDBRANCH   1  32
TORSDOF 19
ENDMDL
