MODEL 1
REMARK VINA RESULT:     -12.6      0.000      0.000
REMARK SMILES O=C(CC1(CC(=O)Nc2ccc3ccccc3n2)CCCCC1)NCCCCNC(=O)c1ccc(-c2c3nc(c(-c4cc(S(=O)(=O)[O-])ccc4F)c4ccc([nH]4)c(-c4cc(S(=O)(=O)[O-])ccc4F)c4nc(c(-c5cc(S(=O)(=O)[O-])ccc5F)c5ccc2[nH]5)C=C4)C=C3)cc1
REMARK SMILES IDX 26 1 25 2 24 3 1 4 2 5 3 7 4 8 19 9 23 10 20 11 22 12 21 13
REMARK SMILES IDX 5 14 6 15 7 16 8 17 9 19 10 20 18 21 11 22 17 23 12 24 16 25
REMARK SMILES IDX 13 26 15 27 14 28 27 29 28 30 29 31 30 32 31 34 32 35 33 36
REMARK SMILES IDX 94 37 34 38 93 39 35 40 36 41 37 42 87 43 38 44 92 45 86 46
REMARK SMILES IDX 88 47 39 48 91 49 85 50 84 51 40 53 72 54 52 55 71 56 53 57
REMARK SMILES IDX 56 58 70 59 89 60 54 61 55 62 69 64 90 65 57 66 41 67 42 68
REMARK SMILES IDX 50 69 43 70 49 71 51 72 48 73 44 74 45 75 46 76 47 77 73 78
REMARK SMILES IDX 74 79 82 80 75 81 81 82 83 83 80 84 76 85 77 86 78 87 79 88
REMARK SMILES IDX 58 89 59 90 67 91 60 92 66 93 68 94 65 95 61 96 62 97 63 98
REMARK SMILES IDX 64 99
REMARK H PARENT 24 6 8 18 29 33 88 52 56 63
REMARK Flexibility Score: inf
ROOT
ATOM      1  C   UNL A   1      31.717  30.484  26.279  1.00  0.00     0.023 C 
ENDROOT
BRANCH   1   2
ATOM      2  C   UNL A   1      32.590  29.728  27.277  1.00  0.00     0.116 C 
BRANCH   2   3
ATOM      3  N   UNL A   1      32.925  28.408  26.790  1.00  0.00    -0.356 N 
ATOM      4  O   UNL A   1      31.046  27.328  27.515  1.00  0.00    -0.275 OA
ATOM      5  C   UNL A   1      32.090  27.326  26.870  1.00  0.00     0.220 C 
ATOM      6  H   UNL A   1      33.809  28.280  26.375  1.00  0.00     0.163 HD
BRANCH   5   7
ATOM      7  C   UNL A   1      32.609  26.074  26.172  1.00  0.00     0.107 C 
BRANCH   7   8
ATOM      8  C   UNL A   1      31.891  25.602  24.865  1.00  0.00    -0.012 C 
ATOM      9  C   UNL A   1      31.361  26.817  24.028  1.00  0.00     0.008 C 
ATOM     10  C   UNL A   1      32.967  24.995  23.954  1.00  0.00     0.008 C 
ATOM     11  C   UNL A   1      30.928  26.515  22.585  1.00  0.00     0.001 C 
ATOM     12  C   UNL A   1      32.392  24.477  22.634  1.00  0.00     0.001 C 
ATOM     13  C   UNL A   1      31.888  25.635  21.802  1.00  0.00     0.000 C 
BRANCH   8  14
ATOM     14  C   UNL A   1      30.752  24.586  25.191  1.00  0.00     0.108 C 
BRANCH  14  15
ATOM     15  C   UNL A   1      30.740  23.704  26.461  1.00  0.00     0.226 C 
ATOM     16  O   UNL A   1      29.788  23.818  27.247  1.00  0.00    -0.275 OA
ATOM     17  N   UNL A   1      31.546  22.623  26.670  1.00  0.00    -0.311 N 
ATOM     18  H   UNL A   1      31.176  21.969  27.305  1.00  0.00     0.171 HD
BRANCH  17  19
ATOM     19  C   UNL A   1      32.789  22.268  26.157  1.00  0.00     0.133 A 
ATOM     20  C   UNL A   1      32.854  21.259  25.214  1.00  0.00     0.048 A 
ATOM     21  N   UNL A   1      33.897  22.843  26.646  1.00  0.00    -0.231 NA
ATOM     22  C   UNL A   1      34.070  21.031  24.572  1.00  0.00     0.014 A 
ATOM     23  C   UNL A   1      35.073  22.660  26.012  1.00  0.00     0.073 A 
ATOM     24  C   UNL A   1      35.187  21.808  24.902  1.00  0.00     0.000 A 
ATOM     25  C   UNL A   1      36.162  23.461  26.347  1.00  0.00     0.029 A 
ATOM     26  C   UNL A   1      36.353  21.835  24.113  1.00  0.00     0.010 A 
ATOM     27  C   UNL A   1      37.287  23.547  25.524  1.00  0.00     0.002 A 
ATOM     28  C   UNL A   1      37.376  22.741  24.396  1.00  0.00     0.001 A 
ENDBRANCH  17  19
ENDBRANCH  14  15
ENDBRANCH   8  14
ENDBRANCH   7   8
ENDBRANCH   5   7
ENDBRANCH   2   3
ENDBRANCH   1   2
BRANCH   1  29
ATOM     29  C   UNL A   1      31.633  32.000  26.508  1.00  0.00     0.023 C 
BRANCH  29  30
ATOM     30  C   UNL A   1      32.802  32.614  27.272  1.00  0.00     0.116 C 
BRANCH  30  31
ATOM     31  N   UNL A   1      32.553  33.997  27.642  1.00  0.00    -0.352 N 
ATOM     32  C   UNL A   1      33.119  34.749  28.641  1.00  0.00     0.251 C 
ATOM     33  H   UNL A   1      31.880  34.463  27.096  1.00  0.00     0.163 HD
ATOM     34  O   UNL A   1      32.624  35.843  28.926  1.00  0.00    -0.269 OA
BRANCH  32  35
ATOM     35  C   UNL A   1      34.291  34.249  29.393  1.00  0.00     0.039 A 
ATOM     36  C   UNL A   1      34.085  33.594  30.610  1.00  0.00     0.014 A 
ATOM     37  C   UNL A   1      35.593  34.435  28.915  1.00  0.00     0.014 A 
ATOM     38  C   UNL A   1      35.174  33.069  31.312  1.00  0.00     0.010 A 
ATOM     39  C   UNL A   1      36.670  33.848  29.580  1.00  0.00     0.010 A 
ATOM     40  C   UNL A   1      36.473  33.156  30.785  1.00  0.00    -0.014 A 
BRANCH  40  41
ATOM     41  C   UNL A   1      37.630  32.525  31.479  1.00  0.00     0.031 A 
ATOM     42  C   UNL A   1      38.356  31.365  30.848  1.00  0.00     0.074 A 
ATOM     43  C   UNL A   1      37.997  32.962  32.701  1.00  0.00     0.049 A 
ATOM     44  N   UNL A   1      39.334  30.640  31.328  1.00  0.00    -0.248 NA
ATOM     45  C   UNL A   1      37.903  30.952  29.512  1.00  0.00     0.031 C 
ATOM     46  C   UNL A   1      37.355  34.057  33.432  1.00  0.00     0.029 A 
ATOM     47  N   UNL A   1      38.991  32.538  33.550  1.00  0.00    -0.354 N 
ATOM     48  C   UNL A   1      39.609  29.682  30.359  1.00  0.00     0.074 A 
ATOM     49  C   UNL A   1      38.650  29.881  29.292  1.00  0.00     0.031 C 
ATOM     50  C   UNL A   1      37.985  34.232  34.605  1.00  0.00     0.029 A 
ATOM     51  C   UNL A   1      39.040  33.232  34.737  1.00  0.00     0.049 A 
ATOM     52  H   UNL A   1      39.610  31.806  33.328  1.00  0.00     0.167 HD
ATOM     53  C   UNL A   1      40.587  28.740  30.346  1.00  0.00     0.034 A 
ATOM     54  C   UNL A   1      39.829  33.072  35.819  1.00  0.00     0.034 A 
ATOM     55  C   UNL A   1      41.539  28.556  31.416  1.00  0.00     0.049 A 
ATOM     56  C   UNL A   1      40.878  31.988  35.802  1.00  0.00     0.074 A 
ATOM     57  C   UNL A   1      42.594  27.662  31.486  1.00  0.00     0.029 A 
ATOM     58  N   UNL A   1      41.551  29.272  32.607  1.00  0.00    -0.354 N 
ATOM     59  N   UNL A   1      41.153  31.118  34.856  1.00  0.00    -0.248 NA
ATOM     60  C   UNL A   1      41.732  31.872  36.991  1.00  0.00     0.031 C 
ATOM     61  C   UNL A   1      43.190  27.781  32.745  1.00  0.00     0.029 A 
ATOM     62  C   UNL A   1      42.570  28.813  33.429  1.00  0.00     0.049 A 
ATOM     63  H   UNL A   1      40.926  29.999  32.835  1.00  0.00     0.167 HD
ATOM     64  C   UNL A   1      42.233  30.375  35.327  1.00  0.00     0.074 A 
ATOM     65  C   UNL A   1      42.568  30.911  36.630  1.00  0.00     0.031 C 
ATOM     66  C   UNL A   1      42.891  29.347  34.733  1.00  0.00     0.034 A 
BRANCH  53  67
ATOM     67  C   UNL A   1      40.655  27.822  29.148  1.00  0.00     0.023 A 
ATOM     68  C   UNL A   1      41.594  28.017  28.119  1.00  0.00     0.031 A 
ATOM     69  C   UNL A   1      39.761  26.743  29.023  1.00  0.00     0.131 A 
ATOM     70  C   UNL A   1      41.568  27.199  26.981  1.00  0.00     0.055 A 
ATOM     71  C   UNL A   1      39.797  25.878  27.927  1.00  0.00     0.041 A 
ATOM     72  F   UNL A   1      38.827  26.517  29.960  1.00  0.00    -0.206 F 
ATOM     73  C   UNL A   1      40.694  26.113  26.889  1.00  0.00     0.022 A 
BRANCH  70  74
ATOM     74  S   UNL A   1      42.588  27.667  25.556  1.00  0.00     0.124 S 
ATOM     75  O   UNL A   1      43.880  27.921  26.190  1.00  0.00    -0.237 OA
ATOM     76  O   UNL A   1      42.512  26.481  24.711  1.00  0.00    -0.237 OA
ATOM     77  O   UNL A   1      41.917  28.853  25.029  1.00  0.00    -0.744 OA
ENDBRANCH  70  74
ENDBRANCH  53  67
BRANCH  54  78
ATOM     78  C   UNL A   1      39.651  33.939  37.021  1.00  0.00     0.023 A 
ATOM     79  C   UNL A   1      39.035  33.450  38.184  1.00  0.00     0.031 A 
ATOM     80  C   UNL A   1      40.045  35.290  37.004  1.00  0.00     0.131 A 
ATOM     81  C   UNL A   1      38.783  34.317  39.260  1.00  0.00     0.055 A 
ATOM     82  C   UNL A   1      39.850  36.131  38.100  1.00  0.00     0.041 A 
ATOM     83  F   UNL A   1      40.638  35.810  35.917  1.00  0.00    -0.206 F 
ATOM     84  C   UNL A   1      39.201  35.648  39.232  1.00  0.00     0.022 A 
BRANCH  81  85
ATOM     85  S   UNL A   1      37.805  33.702  40.659  1.00  0.00     0.124 S 
ATOM     86  O   UNL A   1      37.434  34.944  41.328  1.00  0.00    -0.237 OA
ATOM     87  O   UNL A   1      36.725  32.989  39.983  1.00  0.00    -0.237 OA
ATOM     88  O   UNL A   1      38.749  32.857  41.387  1.00  0.00    -0.744 OA
ENDBRANCH  81  85
ENDBRANCH  54  78
BRANCH  66  89
ATOM     89  C   UNL A   1      44.076  28.767  35.471  1.00  0.00     0.023 A 
ATOM     90  C   UNL A   1      43.938  27.703  36.379  1.00  0.00     0.031 A 
ATOM     91  C   UNL A   1      45.362  29.298  35.267  1.00  0.00     0.131 A 
ATOM     92  C   UNL A   1      45.056  27.243  37.092  1.00  0.00     0.055 A 
ATOM     93  C   UNL A   1      46.481  28.791  35.929  1.00  0.00     0.041 A 
ATOM     94  F   UNL A   1      45.554  30.318  34.416  1.00  0.00    -0.206 F 
ATOM     95  C   UNL A   1      46.330  27.767  36.858  1.00  0.00     0.022 A 
BRANCH  92  96
ATOM     96  S   UNL A   1      44.808  26.017  38.406  1.00  0.00     0.124 S 
ATOM     97  O   UNL A   1      43.802  26.666  39.241  1.00  0.00    -0.237 OA
ATOM     98  O   UNL A   1      44.357  24.846  37.660  1.00  0.00    -0.237 OA
ATOM     99  O   UNL A   1      46.131  25.892  39.013  1.00  0.00    -0.744 OA
ENDBRANCH  92  96
ENDBRANCH  66  89
ENDBRANCH  40  41
ENDBRANCH  32  35
ENDBRANCH  30  31
ENDBRANCH  29  30
ENDBRANCH   1  29
TORSDOF 18
ENDMDL
MODEL 2
REMARK VINA RESULT:     -12.4      1.669      2.352
REMARK SMILES O=C(CC1(CC(=O)Nc2ccc3ccccc3n2)CCCCC1)NCCCCNC(=O)c1ccc(-c2c3nc(c(-c4cc(S(=O)(=O)[O-])ccc4F)c4ccc([nH]4)c(-c4cc(S(=O)(=O)[O-])ccc4F)c4nc(c(-c5cc(S(=O)(=O)[O-])ccc5F)c5ccc2[nH]5)C=C4)C=C3)cc1
REMARK SMILES IDX 26 1 25 2 24 3 1 4 2 5 3 7 4 8 19 9 23 10 20 11 22 12 21 13
REMARK SMILES IDX 5 14 6 15 7 16 8 17 9 19 10 20 18 21 11 22 17 23 12 24 16 25
REMARK SMILES IDX 13 26 15 27 14 28 27 29 28 30 29 31 30 32 31 34 32 35 33 36
REMARK SMILES IDX 94 37 34 38 93 39 35 40 36 41 37 42 87 43 38 44 92 45 86 46
REMARK SMILES IDX 88 47 39 48 91 49 85 50 84 51 40 53 72 54 52 55 71 56 53 57
REMARK SMILES IDX 56 58 70 59 89 60 54 61 55 62 69 64 90 65 57 66 41 67 42 68
REMARK SMILES IDX 50 69 43 70 49 71 51 72 48 73 44 74 45 75 46 76 47 77 73 78
REMARK SMILES IDX 74 79 82 80 75 81 81 82 83 83 80 84 76 85 77 86 78 87 79 88
REMARK SMILES IDX 58 89 59 90 67 91 60 92 66 93 68 94 65 95 61 96 62 97 63 98
REMARK SMILES IDX 64 99
REMARK H PARENT 24 6 8 18 29 33 88 52 56 63
REMARK Flexibility Score: inf
ROOT
ATOM      1  C   UNL A   1      31.221  30.945  25.855  1.00  0.00     0.023 C 
ENDROOT
BRANCH   1   2
ATOM      2  C   UNL A   1      32.431  30.055  26.126  1.00  0.00     0.116 C 
BRANCH   2   3
ATOM      3  N   UNL A   1      32.031  28.700  26.432  1.00  0.00    -0.356 N 
ATOM      4  O   UNL A   1      31.457  28.063  24.314  1.00  0.00    -0.275 OA
ATOM      5  C   UNL A   1      31.655  27.779  25.492  1.00  0.00     0.220 C 
ATOM      6  H   UNL A   1      32.028  28.422  27.377  1.00  0.00     0.163 HD
BRANCH   5   7
ATOM      7  C   UNL A   1      31.402  26.380  26.041  1.00  0.00     0.107 C 
BRANCH   7   8
ATOM      8  C   UNL A   1      32.370  25.229  25.611  1.00  0.00    -0.012 C 
ATOM      9  C   UNL A   1      32.018  24.682  24.185  1.00  0.00     0.008 C 
ATOM     10  C   UNL A   1      33.756  25.859  25.409  1.00  0.00     0.008 C 
ATOM     11  C   UNL A   1      33.073  23.786  23.517  1.00  0.00     0.001 C 
ATOM     12  C   UNL A   1      34.811  24.830  24.996  1.00  0.00     0.001 C 
ATOM     13  C   UNL A   1      34.499  24.299  23.615  1.00  0.00     0.000 C 
BRANCH   8  14
ATOM     14  C   UNL A   1      32.390  24.090  26.678  1.00  0.00     0.108 C 
BRANCH  14  15
ATOM     15  C   UNL A   1      31.268  23.034  26.814  1.00  0.00     0.226 C 
ATOM     16  O   UNL A   1      30.220  23.361  27.389  1.00  0.00    -0.275 OA
ATOM     17  N   UNL A   1      31.219  21.855  26.131  1.00  0.00    -0.311 N 
ATOM     18  H   UNL A   1      30.310  21.492  26.029  1.00  0.00     0.171 HD
BRANCH  17  19
ATOM     19  C   UNL A   1      32.207  21.066  25.550  1.00  0.00     0.133 A 
ATOM     20  C   UNL A   1      33.505  21.184  26.011  1.00  0.00     0.048 A 
ATOM     21  N   UNL A   1      31.901  20.281  24.508  1.00  0.00    -0.231 NA
ATOM     22  C   UNL A   1      34.454  20.268  25.557  1.00  0.00     0.014 A 
ATOM     23  C   UNL A   1      32.796  19.365  24.084  1.00  0.00     0.073 A 
ATOM     24  C   UNL A   1      34.078  19.273  24.647  1.00  0.00     0.000 A 
ATOM     25  C   UNL A   1      32.390  18.374  23.193  1.00  0.00     0.029 A 
ATOM     26  C   UNL A   1      34.890  18.156  24.366  1.00  0.00     0.010 A 
ATOM     27  C   UNL A   1      33.159  17.229  22.973  1.00  0.00     0.002 A 
ATOM     28  C   UNL A   1      34.407  17.114  23.573  1.00  0.00     0.001 A 
ENDBRANCH  17  19
ENDBRANCH  14  15
ENDBRANCH   8  14
ENDBRANCH   7   8
ENDBRANCH   5   7
ENDBRANCH   2   3
ENDBRANCH   1   2
BRANCH   1  29
ATOM     29  C   UNL A   1      31.223  32.288  26.599  1.00  0.00     0.023 C 
BRANCH  29  30
ATOM     30  C   UNL A   1      32.542  32.667  27.267  1.00  0.00     0.116 C 
BRANCH  30  31
ATOM     31  N   UNL A   1      32.572  34.060  27.676  1.00  0.00    -0.352 N 
ATOM     32  C   UNL A   1      33.351  34.675  28.624  1.00  0.00     0.251 C 
ATOM     33  H   UNL A   1      31.943  34.651  27.203  1.00  0.00     0.163 HD
ATOM     34  O   UNL A   1      33.083  35.829  28.970  1.00  0.00    -0.269 OA
BRANCH  32  35
ATOM     35  C   UNL A   1      34.484  33.960  29.253  1.00  0.00     0.039 A 
ATOM     36  C   UNL A   1      35.789  34.340  28.927  1.00  0.00     0.014 A 
ATOM     37  C   UNL A   1      34.270  32.907  30.149  1.00  0.00     0.014 A 
ATOM     38  C   UNL A   1      36.873  33.713  29.548  1.00  0.00     0.010 A 
ATOM     39  C   UNL A   1      35.350  32.332  30.820  1.00  0.00     0.010 A 
ATOM     40  C   UNL A   1      36.664  32.730  30.529  1.00  0.00    -0.014 A 
BRANCH  40  41
ATOM     41  C   UNL A   1      37.808  32.117  31.261  1.00  0.00     0.031 A 
ATOM     42  C   UNL A   1      38.615  31.014  30.627  1.00  0.00     0.074 A 
ATOM     43  C   UNL A   1      38.089  32.518  32.518  1.00  0.00     0.049 A 
ATOM     44  N   UNL A   1      39.594  30.309  31.133  1.00  0.00    -0.248 NA
ATOM     45  C   UNL A   1      38.252  30.639  29.253  1.00  0.00     0.031 C 
ATOM     46  C   UNL A   1      37.363  33.555  33.254  1.00  0.00     0.029 A 
ATOM     47  N   UNL A   1      39.052  32.099  33.404  1.00  0.00    -0.354 N 
ATOM     48  C   UNL A   1      39.962  29.404  30.144  1.00  0.00     0.074 A 
ATOM     49  C   UNL A   1      39.054  29.608  29.034  1.00  0.00     0.031 C 
ATOM     50  C   UNL A   1      37.920  33.707  34.466  1.00  0.00     0.029 A 
ATOM     51  C   UNL A   1      39.007  32.745  34.618  1.00  0.00     0.049 A 
ATOM     52  H   UNL A   1      39.712  31.402  33.189  1.00  0.00     0.167 HD
ATOM     53  C   UNL A   1      40.977  28.503  30.149  1.00  0.00     0.034 A 
ATOM     54  C   UNL A   1      39.743  32.572  35.736  1.00  0.00     0.034 A 
ATOM     55  C   UNL A   1      41.877  28.313  31.262  1.00  0.00     0.049 A 
ATOM     56  C   UNL A   1      40.836  31.532  35.735  1.00  0.00     0.074 A 
ATOM     57  C   UNL A   1      42.962  27.458  31.357  1.00  0.00     0.029 A 
ATOM     58  N   UNL A   1      41.794  28.978  32.479  1.00  0.00    -0.354 N 
ATOM     59  N   UNL A   1      41.197  30.713  34.773  1.00  0.00    -0.248 NA
ATOM     60  C   UNL A   1      41.627  31.401  36.964  1.00  0.00     0.031 C 
ATOM     61  C   UNL A   1      43.484  27.550  32.650  1.00  0.00     0.029 A 
ATOM     62  C   UNL A   1      42.785  28.527  33.339  1.00  0.00     0.049 A 
ATOM     63  H   UNL A   1      41.128  29.670  32.700  1.00  0.00     0.167 HD
ATOM     64  C   UNL A   1      42.280  29.995  35.274  1.00  0.00     0.074 A 
ATOM     65  C   UNL A   1      42.522  30.490  36.614  1.00  0.00     0.031 C 
ATOM     66  C   UNL A   1      43.012  29.019  34.678  1.00  0.00     0.034 A 
BRANCH  53  67
ATOM     67  C   UNL A   1      41.149  27.637  28.922  1.00  0.00     0.023 A 
ATOM     68  C   UNL A   1      42.178  27.870  27.992  1.00  0.00     0.031 A 
ATOM     69  C   UNL A   1      40.265  26.573  28.669  1.00  0.00     0.131 A 
ATOM     70  C   UNL A   1      42.250  27.104  26.819  1.00  0.00     0.055 A 
ATOM     71  C   UNL A   1      40.396  25.758  27.543  1.00  0.00     0.041 A 
ATOM     72  F   UNL A   1      39.249  26.314  29.507  1.00  0.00    -0.206 F 
ATOM     73  C   UNL A   1      41.383  26.030  26.601  1.00  0.00     0.022 A 
BRANCH  70  74
ATOM     74  S   UNL A   1      43.396  27.625  25.515  1.00  0.00     0.124 S 
ATOM     75  O   UNL A   1      44.271  26.460  25.408  1.00  0.00    -0.237 OA
ATOM     76  O   UNL A   1      42.504  27.861  24.386  1.00  0.00    -0.237 OA
ATOM     77  O   UNL A   1      44.028  28.820  26.071  1.00  0.00    -0.744 OA
ENDBRANCH  70  74
ENDBRANCH  53  67
BRANCH  54  78
ATOM     78  C   UNL A   1      39.463  33.381  36.958  1.00  0.00     0.023 A 
ATOM     79  C   UNL A   1      40.144  34.584  37.205  1.00  0.00     0.031 A 
ATOM     80  C   UNL A   1      38.548  32.932  37.929  1.00  0.00     0.131 A 
ATOM     81  C   UNL A   1      39.941  35.269  38.414  1.00  0.00     0.055 A 
ATOM     82  C   UNL A   1      38.302  33.650  39.100  1.00  0.00     0.041 A 
ATOM     83  F   UNL A   1      37.870  31.789  37.746  1.00  0.00    -0.206 F 
ATOM     84  C   UNL A   1      39.013  34.819  39.355  1.00  0.00     0.022 A 
BRANCH  81  85
ATOM     85  S   UNL A   1      40.986  36.704  38.785  1.00  0.00     0.124 S 
ATOM     86  O   UNL A   1      39.996  37.769  38.899  1.00  0.00    -0.237 OA
ATOM     87  O   UNL A   1      41.634  36.294  40.027  1.00  0.00    -0.237 OA
ATOM     88  O   UNL A   1      41.868  36.791  37.623  1.00  0.00    -0.744 OA
ENDBRANCH  81  85
ENDBRANCH  54  78
BRANCH  66  89
ATOM     89  C   UNL A   1      44.178  28.457  35.459  1.00  0.00     0.023 A 
ATOM     90  C   UNL A   1      44.009  27.457  36.431  1.00  0.00     0.031 A 
ATOM     91  C   UNL A   1      45.479  28.940  35.228  1.00  0.00     0.131 A 
ATOM     92  C   UNL A   1      45.111  27.014  37.178  1.00  0.00     0.055 A 
ATOM     93  C   UNL A   1      46.582  28.447  35.927  1.00  0.00     0.041 A 
ATOM     94  F   UNL A   1      45.701  29.898  34.314  1.00  0.00    -0.206 F 
ATOM     95  C   UNL A   1      46.400  27.489  36.918  1.00  0.00     0.022 A 
BRANCH  92  96
ATOM     96  S   UNL A   1      44.826  25.882  38.567  1.00  0.00     0.124 S 
ATOM     97  O   UNL A   1      46.032  26.072  39.366  1.00  0.00    -0.237 OA
ATOM     98  O   UNL A   1      43.590  26.401  39.145  1.00  0.00    -0.237 OA
ATOM     99  O   UNL A   1      44.707  24.574  37.925  1.00  0.00    -0.744 OA
ENDBRANCH  92  96
ENDBRANCH  66  89
ENDBRANCH  40  41
ENDBRANCH  32  35
ENDBRANCH  30  31
ENDBRANCH  29  30
ENDBRANCH   1  29
TORSDOF 18
ENDMDL
MODEL 3
REMARK VINA RESULT:     -12.3      5.759     11.700
REMARK SMILES O=C(CC1(CC(=O)Nc2ccc3ccccc3n2)CCCCC1)NCCCCNC(=O)c1ccc(-c2c3nc(c(-c4cc(S(=O)(=O)[O-])ccc4F)c4ccc([nH]4)c(-c4cc(S(=O)(=O)[O-])ccc4F)c4nc(c(-c5cc(S(=O)(=O)[O-])ccc5F)c5ccc2[nH]5)C=C4)C=C3)cc1
REMARK SMILES IDX 26 1 25 2 24 3 1 4 2 5 3 7 4 8 19 9 23 10 20 11 22 12 21 13
REMARK SMILES IDX 5 14 6 15 7 16 8 17 9 19 10 20 18 21 11 22 17 23 12 24 16 25
REMARK SMILES IDX 13 26 15 27 14 28 27 29 28 30 29 31 30 32 31 34 32 35 33 36
REMARK SMILES IDX 94 37 34 38 93 39 35 40 36 41 37 42 87 43 38 44 92 45 86 46
REMARK SMILES IDX 88 47 39 48 91 49 85 50 84 51 40 53 72 54 52 55 71 56 53 57
REMARK SMILES IDX 56 58 70 59 89 60 54 61 55 62 69 64 90 65 57 66 41 67 42 68
REMARK SMILES IDX 50 69 43 70 49 71 51 72 48 73 44 74 45 75 46 76 47 77 73 78
REMARK SMILES IDX 74 79 82 80 75 81 81 82 83 83 80 84 76 85 77 86 78 87 79 88
REMARK SMILES IDX 58 89 59 90 67 91 60 92 66 93 68 94 65 95 61 96 62 97 63 98
REMARK SMILES IDX 64 99
REMARK H PARENT 24 6 8 18 29 33 88 52 56 63
REMARK Flexibility Score: inf
ROOT
ATOM      1  C   UNL A   1      37.066  20.798  25.000  1.00  0.00     0.023 C 
ENDROOT
BRANCH   1   2
ATOM      2  C   UNL A   1      37.438  22.242  25.327  1.00  0.00     0.116 C 
BRANCH   2   3
ATOM      3  N   UNL A   1      36.397  23.160  24.922  1.00  0.00    -0.356 N 
ATOM      4  O   UNL A   1      36.635  22.917  22.662  1.00  0.00    -0.275 OA
ATOM      5  C   UNL A   1      36.016  23.364  23.623  1.00  0.00     0.220 C 
ATOM      6  H   UNL A   1      35.933  23.670  25.624  1.00  0.00     0.163 HD
BRANCH   5   7
ATOM      7  C   UNL A   1      34.809  24.280  23.453  1.00  0.00     0.107 C 
BRANCH   7   8
ATOM      8  C   UNL A   1      33.382  23.645  23.526  1.00  0.00    -0.012 C 
ATOM      9  C   UNL A   1      33.449  22.105  23.808  1.00  0.00     0.008 C 
ATOM     10  C   UNL A   1      32.706  24.201  24.788  1.00  0.00     0.008 C 
ATOM     11  C   UNL A   1      32.132  21.428  24.220  1.00  0.00     0.001 C 
ATOM     12  C   UNL A   1      31.284  23.666  24.973  1.00  0.00     0.001 C 
ATOM     13  C   UNL A   1      31.325  22.183  25.263  1.00  0.00     0.000 C 
BRANCH   8  14
ATOM     14  C   UNL A   1      32.566  23.959  22.233  1.00  0.00     0.108 C 
BRANCH  14  15
ATOM     15  C   UNL A   1      32.829  25.196  21.342  1.00  0.00     0.226 C 
ATOM     16  O   UNL A   1      33.188  25.011  20.170  1.00  0.00    -0.275 OA
ATOM     17  N   UNL A   1      32.453  26.472  21.646  1.00  0.00    -0.311 N 
ATOM     18  H   UNL A   1      32.342  27.051  20.858  1.00  0.00     0.171 HD
BRANCH  17  19
ATOM     19  C   UNL A   1      32.196  27.111  22.854  1.00  0.00     0.133 A 
ATOM     20  C   UNL A   1      30.889  27.186  23.298  1.00  0.00     0.048 A 
ATOM     21  N   UNL A   1      33.197  27.712  23.512  1.00  0.00    -0.231 NA
ATOM     22  C   UNL A   1      30.656  27.663  24.588  1.00  0.00     0.014 A 
ATOM     23  C   UNL A   1      32.995  28.143  24.774  1.00  0.00     0.073 A 
ATOM     24  C   UNL A   1      31.734  28.062  25.387  1.00  0.00     0.000 A 
ATOM     25  C   UNL A   1      34.088  28.516  25.553  1.00  0.00     0.029 A 
ATOM     26  C   UNL A   1      31.612  28.280  26.773  1.00  0.00     0.010 A 
ATOM     27  C   UNL A   1      33.984  28.656  26.939  1.00  0.00     0.002 A 
ATOM     28  C   UNL A   1      32.745  28.523  27.551  1.00  0.00     0.001 A 
ENDBRANCH  17  19
ENDBRANCH  14  15
ENDBRANCH   8  14
ENDBRANCH   7   8
ENDBRANCH   5   7
ENDBRANCH   2   3
ENDBRANCH   1   2
BRANCH   1  29
ATOM     29  C   UNL A   1      38.227  19.797  25.065  1.00  0.00     0.023 C 
BRANCH  29  30
ATOM     30  C   UNL A   1      39.377  20.184  25.991  1.00  0.00     0.116 C 
BRANCH  30  31
ATOM     31  N   UNL A   1      40.403  19.158  26.054  1.00  0.00    -0.352 N 
ATOM     32  C   UNL A   1      41.765  19.291  26.157  1.00  0.00     0.251 C 
ATOM     33  H   UNL A   1      40.073  18.231  26.019  1.00  0.00     0.163 HD
ATOM     34  O   UNL A   1      42.482  18.300  25.988  1.00  0.00    -0.269 OA
BRANCH  32  35
ATOM     35  C   UNL A   1      42.378  20.608  26.437  1.00  0.00     0.039 A 
ATOM     36  C   UNL A   1      42.823  21.388  25.366  1.00  0.00     0.014 A 
ATOM     37  C   UNL A   1      42.532  21.072  27.747  1.00  0.00     0.014 A 
ATOM     38  C   UNL A   1      43.358  22.658  25.604  1.00  0.00     0.010 A 
ATOM     39  C   UNL A   1      43.000  22.367  27.977  1.00  0.00     0.010 A 
ATOM     40  C   UNL A   1      43.416  23.176  26.908  1.00  0.00    -0.014 A 
BRANCH  40  41
ATOM     41  C   UNL A   1      43.902  24.560  27.166  1.00  0.00     0.031 A 
ATOM     42  C   UNL A   1      42.956  25.619  27.668  1.00  0.00     0.074 A 
ATOM     43  C   UNL A   1      45.187  24.878  26.902  1.00  0.00     0.049 A 
ATOM     44  N   UNL A   1      43.174  26.892  27.880  1.00  0.00    -0.248 NA
ATOM     45  C   UNL A   1      41.575  25.193  27.940  1.00  0.00     0.031 C 
ATOM     46  C   UNL A   1      46.195  23.950  26.385  1.00  0.00     0.029 A 
ATOM     47  N   UNL A   1      45.864  26.067  27.022  1.00  0.00    -0.354 N 
ATOM     48  C   UNL A   1      41.960  27.420  28.304  1.00  0.00     0.074 A 
ATOM     49  C   UNL A   1      40.995  26.341  28.255  1.00  0.00     0.031 C 
ATOM     50  C   UNL A   1      47.364  24.598  26.255  1.00  0.00     0.029 A 
ATOM     51  C   UNL A   1      47.181  25.998  26.627  1.00  0.00     0.049 A 
ATOM     52  H   UNL A   1      45.446  26.891  27.360  1.00  0.00     0.167 HD
ATOM     53  C   UNL A   1      41.680  28.682  28.720  1.00  0.00     0.034 A 
ATOM     54  C   UNL A   1      48.130  26.953  26.553  1.00  0.00     0.034 A 
ATOM     55  C   UNL A   1      42.653  29.747  28.767  1.00  0.00     0.049 A 
ATOM     56  C   UNL A   1      47.783  28.359  26.976  1.00  0.00     0.074 A 
ATOM     57  C   UNL A   1      42.485  31.048  29.210  1.00  0.00     0.029 A 
ATOM     58  N   UNL A   1      43.974  29.641  28.349  1.00  0.00    -0.354 N 
ATOM     59  N   UNL A   1      46.639  28.832  27.416  1.00  0.00    -0.248 NA
ATOM     60  C   UNL A   1      48.857  29.358  26.904  1.00  0.00     0.031 C 
ATOM     61  C   UNL A   1      43.676  31.746  28.988  1.00  0.00     0.029 A 
ATOM     62  C   UNL A   1      44.619  30.861  28.491  1.00  0.00     0.049 A 
ATOM     63  H   UNL A   1      44.392  28.819  28.003  1.00  0.00     0.167 HD
ATOM     64  C   UNL A   1      46.869  30.174  27.704  1.00  0.00     0.074 A 
ATOM     65  C   UNL A   1      48.262  30.430  27.405  1.00  0.00     0.031 C 
ATOM     66  C   UNL A   1      46.007  31.110  28.180  1.00  0.00     0.034 A 
BRANCH  53  67
ATOM     67  C   UNL A   1      40.256  28.981  29.131  1.00  0.00     0.023 A 
ATOM     68  C   UNL A   1      39.862  28.981  30.482  1.00  0.00     0.031 A 
ATOM     69  C   UNL A   1      39.275  29.255  28.162  1.00  0.00     0.131 A 
ATOM     70  C   UNL A   1      38.514  29.173  30.819  1.00  0.00     0.055 A 
ATOM     71  C   UNL A   1      37.952  29.533  28.510  1.00  0.00     0.041 A 
ATOM     72  F   UNL A   1      39.584  29.248  26.855  1.00  0.00    -0.206 F 
ATOM     73  C   UNL A   1      37.560  29.478  29.844  1.00  0.00     0.022 A 
BRANCH  70  74
ATOM     74  S   UNL A   1      37.999  28.871  32.531  1.00  0.00     0.124 S 
ATOM     75  O   UNL A   1      38.960  29.682  33.275  1.00  0.00    -0.237 OA
ATOM     76  O   UNL A   1      36.621  29.348  32.535  1.00  0.00    -0.237 OA
ATOM     77  O   UNL A   1      38.161  27.427  32.688  1.00  0.00    -0.744 OA
ENDBRANCH  70  74
ENDBRANCH  53  67
BRANCH  54  78
ATOM     78  C   UNL A   1      49.493  26.628  26.039  1.00  0.00     0.023 A 
ATOM     79  C   UNL A   1      49.948  27.138  24.812  1.00  0.00     0.031 A 
ATOM     80  C   UNL A   1      50.342  25.754  26.743  1.00  0.00     0.131 A 
ATOM     81  C   UNL A   1      51.190  26.730  24.302  1.00  0.00     0.055 A 
ATOM     82  C   UNL A   1      51.604  25.402  26.262  1.00  0.00     0.041 A 
ATOM     83  F   UNL A   1      49.958  25.237  27.921  1.00  0.00    -0.206 F 
ATOM     84  C   UNL A   1      52.028  25.879  25.025  1.00  0.00     0.022 A 
BRANCH  81  85
ATOM     85  S   UNL A   1      51.652  27.246  22.626  1.00  0.00     0.124 S 
ATOM     86  O   UNL A   1      50.603  26.624  21.825  1.00  0.00    -0.237 OA
ATOM     87  O   UNL A   1      51.601  28.702  22.732  1.00  0.00    -0.237 OA
ATOM     88  O   UNL A   1      52.989  26.682  22.453  1.00  0.00    -0.744 OA
ENDBRANCH  81  85
ENDBRANCH  54  78
BRANCH  66  89
ATOM     89  C   UNL A   1      46.566  32.488  28.451  1.00  0.00     0.023 A 
ATOM     90  C   UNL A   1      46.765  33.426  27.424  1.00  0.00     0.031 A 
ATOM     91  C   UNL A   1      46.913  32.862  29.762  1.00  0.00     0.131 A 
ATOM     92  C   UNL A   1      47.350  34.668  27.714  1.00  0.00     0.055 A 
ATOM     93  C   UNL A   1      47.430  34.124  30.055  1.00  0.00     0.041 A 
ATOM     94  F   UNL A   1      46.749  32.007  30.784  1.00  0.00    -0.206 F 
ATOM     95  C   UNL A   1      47.665  35.031  29.026  1.00  0.00     0.022 A 
BRANCH  92  96
ATOM     96  S   UNL A   1      47.787  35.768  26.340  1.00  0.00     0.124 S 
ATOM     97  O   UNL A   1      46.799  36.834  26.477  1.00  0.00    -0.237 OA
ATOM     98  O   UNL A   1      49.165  36.132  26.657  1.00  0.00    -0.237 OA
ATOM     99  O   UNL A   1      47.627  34.923  25.159  1.00  0.00    -0.744 OA
ENDBRANCH  92  96
ENDBRANCH  66  89
ENDBRANCH  40  41
ENDBRANCH  32  35
ENDBRANCH  30  31
ENDBRANCH  29  30
ENDBRANCH   1  29
TORSDOF 18
ENDMDL
