MODEL 1
REMARK VINA RESULT:     -13.6      0.000      0.000
REMARK SMILES NC(=O)c1cc(NC(=O)/C=C\C(=O)NCCCCNC(=O)c2ccc(-c3c4nc(c(-c5cc(S(=O)(=O)[O-])ccc5F)c5ccc([nH]5)c(-c5cc(S(=O)(=O)[O-])ccc5F)c5nc(c(-c6cc(S(=O)(=O)[O-])ccc6F)c6ccc3[nH]6)C=C5)C=C4)cc2)ccc1N1CCOCC1
REMARK SMILES IDX 16 1 15 2 14 3 12 4 13 5 11 7 10 8 8 9 7 10 9 12 6 13 4 14
REMARK SMILES IDX 5 15 87 16 86 17 85 18 2 19 1 20 3 23 88 24 89 25 93 26
REMARK SMILES IDX 90 27 92 28 91 29 17 30 18 31 19 32 20 33 21 35 22 36 23 37
REMARK SMILES IDX 84 38 24 39 83 40 25 41 26 42 27 43 77 44 28 45 82 46 76 47
REMARK SMILES IDX 78 48 29 49 81 50 75 51 74 52 30 54 62 55 42 56 61 57 43 58
REMARK SMILES IDX 46 59 60 60 79 61 44 62 45 63 59 65 80 66 47 67 31 68 32 69
REMARK SMILES IDX 40 70 33 71 39 72 41 73 38 74 34 75 35 76 36 77 37 78 63 79
REMARK SMILES IDX 64 80 72 81 65 82 71 83 73 84 70 85 66 86 67 87 68 88 69 89
REMARK SMILES IDX 48 90 49 91 57 92 50 93 56 94 58 95 55 96 51 97 52 98 53 99
REMARK SMILES IDX 54 100
REMARK H PARENT 14 6 7 11 1 21 1 22 19 34 78 53 46 64
REMARK Flexibility Score: inf
ROOT
ATOM      1  C   UNL A   1      37.260  21.358  24.847  1.00  0.00     0.023 C 
ENDROOT
BRANCH   1   2
ATOM      2  C   UNL A   1      36.063  21.514  25.833  1.00  0.00     0.116 C 
BRANCH   2   3
ATOM      3  N   UNL A   1      34.615  20.651  25.614  1.00  0.00    -0.353 N 
ATOM      4  C   UNL A   1      32.726  20.836  25.074  1.00  0.00     0.244 C 
ATOM      5  O   UNL A   1      31.780  20.000  25.081  1.00  0.00    -0.270 OA
ATOM      6  H   UNL A   1      34.780  19.708  25.841  1.00  0.00     0.163 HD
BRANCH   4   7
ATOM      7  C   UNL A   1      31.930  22.168  24.293  1.00  0.00     0.077 C 
ATOM      8  C   UNL A   1      31.060  23.158  24.596  1.00  0.00     0.077 C 
BRANCH   8   9
ATOM      9  C   UNL A   1      30.359  23.351  25.894  1.00  0.00     0.248 C 
ATOM     10  N   UNL A   1      30.199  24.650  26.249  1.00  0.00    -0.322 N 
ATOM     11  H   UNL A   1      30.089  24.905  27.193  1.00  0.00     0.170 HD
ATOM     12  O   UNL A   1      30.088  22.407  26.623  1.00  0.00    -0.270 OA
BRANCH  10  13
ATOM     13  C   UNL A   1      30.192  25.605  25.250  1.00  0.00     0.042 A 
ATOM     14  C   UNL A   1      31.411  28.347  24.221  1.00  0.00     0.064 A 
ATOM     15  C   UNL A   1      31.648  26.757  25.089  1.00  0.00     0.042 A 
ATOM     16  C   UNL A   1      29.812  28.770  23.445  1.00  0.00     0.050 A 
ATOM     17  C   UNL A   1      28.424  27.563  23.544  1.00  0.00     0.029 A 
ATOM     18  C   UNL A   1      28.602  26.013  24.468  1.00  0.00     0.028 A 
BRANCH  14  19
ATOM     19  C   UNL A   1      32.233  29.401  24.849  1.00  0.00     0.250 C 
ATOM     20  N   UNL A   1      33.315  29.757  24.095  1.00  0.00    -0.366 N 
ATOM     21  H   UNL A   1      33.933  30.452  24.418  1.00  0.00     0.159 HD
ATOM     22  H   UNL A   1      33.478  29.318  23.229  1.00  0.00     0.159 HD
ATOM     23  O   UNL A   1      31.885  30.002  25.851  1.00  0.00    -0.269 OA
ENDBRANCH  14  19
BRANCH  16  24
ATOM     24  N   UNL A   1      29.514  30.059  22.982  1.00  0.00    -0.366 N 
ATOM     25  C   UNL A   1      29.132  31.225  23.805  1.00  0.00     0.145 C 
ATOM     26  C   UNL A   1      29.494  30.360  21.536  1.00  0.00     0.145 C 
ATOM     27  C   UNL A   1      27.804  31.843  23.293  1.00  0.00     0.181 C 
ATOM     28  C   UNL A   1      28.140  30.969  21.137  1.00  0.00     0.181 C 
ATOM     29  O   UNL A   1      27.856  32.156  21.891  1.00  0.00    -0.378 OA
ENDBRANCH  16  24
ENDBRANCH  10  13
ENDBRANCH   8   9
ENDBRANCH   4   7
ENDBRANCH   2   3
ENDBRANCH   1   2
BRANCH   1  30
ATOM     30  C   UNL A   1      38.202  20.182  25.095  1.00  0.00     0.023 C 
BRANCH  30  31
ATOM     31  C   UNL A   1      39.407  20.617  25.894  1.00  0.00     0.116 C 
BRANCH  31  32
ATOM     32  N   UNL A   1      40.325  19.502  26.110  1.00  0.00    -0.352 N 
ATOM     33  C   UNL A   1      41.683  19.572  26.302  1.00  0.00     0.251 C 
ATOM     34  H   UNL A   1      39.927  18.601  26.117  1.00  0.00     0.163 HD
ATOM     35  O   UNL A   1      42.386  18.572  26.245  1.00  0.00    -0.269 OA
BRANCH  33  36
ATOM     36  C   UNL A   1      42.251  20.909  26.534  1.00  0.00     0.039 A 
ATOM     37  C   UNL A   1      42.493  21.745  25.446  1.00  0.00     0.014 A 
ATOM     38  C   UNL A   1      42.369  21.367  27.849  1.00  0.00     0.014 A 
ATOM     39  C   UNL A   1      42.796  23.082  25.686  1.00  0.00     0.010 A 
ATOM     40  C   UNL A   1      42.551  22.719  28.077  1.00  0.00     0.010 A 
ATOM     41  C   UNL A   1      42.780  23.584  26.998  1.00  0.00    -0.014 A 
BRANCH  41  42
ATOM     42  C   UNL A   1      43.034  25.013  27.284  1.00  0.00     0.031 A 
ATOM     43  C   UNL A   1      44.422  25.553  27.088  1.00  0.00     0.074 A 
ATOM     44  C   UNL A   1      42.044  25.785  27.772  1.00  0.00     0.049 A 
ATOM     45  N   UNL A   1      44.898  26.729  27.393  1.00  0.00    -0.248 NA
ATOM     46  C   UNL A   1      45.416  24.635  26.503  1.00  0.00     0.031 C 
ATOM     47  C   UNL A   1      40.671  25.342  28.026  1.00  0.00     0.029 A 
ATOM     48  N   UNL A   1      42.041  27.102  28.151  1.00  0.00    -0.354 N 
ATOM     49  C   UNL A   1      46.240  26.694  27.031  1.00  0.00     0.074 A 
ATOM     50  C   UNL A   1      46.523  25.354  26.570  1.00  0.00     0.031 C 
ATOM     51  C   UNL A   1      39.955  26.377  28.494  1.00  0.00     0.029 A 
ATOM     52  C   UNL A   1      40.830  27.535  28.637  1.00  0.00     0.049 A 
ATOM     53  H   UNL A   1      42.833  27.684  28.082  1.00  0.00     0.167 HD
ATOM     54  C   UNL A   1      47.141  27.703  27.045  1.00  0.00     0.034 A 
ATOM     55  C   UNL A   1      40.479  28.725  29.165  1.00  0.00     0.034 A 
ATOM     56  C   UNL A   1      46.832  29.032  27.502  1.00  0.00     0.049 A 
ATOM     57  C   UNL A   1      41.529  29.807  29.249  1.00  0.00     0.074 A 
ATOM     58  C   UNL A   1      47.658  30.138  27.542  1.00  0.00     0.029 A 
ATOM     59  N   UNL A   1      45.600  29.431  28.001  1.00  0.00    -0.354 N 
ATOM     60  N   UNL A   1      42.783  29.772  28.857  1.00  0.00    -0.248 NA
ATOM     61  C   UNL A   1      41.123  31.088  29.841  1.00  0.00     0.031 C 
ATOM     62  C   UNL A   1      46.949  31.187  28.135  1.00  0.00     0.029 A 
ATOM     63  C   UNL A   1      45.655  30.759  28.387  1.00  0.00     0.049 A 
ATOM     64  H   UNL A   1      44.804  28.855  28.070  1.00  0.00     0.167 HD
ATOM     65  C   UNL A   1      43.301  31.035  29.129  1.00  0.00     0.074 A 
ATOM     66  C   UNL A   1      42.220  31.815  29.693  1.00  0.00     0.031 C 
ATOM     67  C   UNL A   1      44.557  31.511  28.941  1.00  0.00     0.034 A 
BRANCH  54  68
ATOM     68  C   UNL A   1      48.532  27.404  26.554  1.00  0.00     0.023 A 
ATOM     69  C   UNL A   1      49.571  27.098  27.449  1.00  0.00     0.031 A 
ATOM     70  C   UNL A   1      48.825  27.417  25.180  1.00  0.00     0.131 A 
ATOM     71  C   UNL A   1      50.866  26.870  26.965  1.00  0.00     0.055 A 
ATOM     72  C   UNL A   1      50.098  27.107  24.699  1.00  0.00     0.041 A 
ATOM     73  F   UNL A   1      47.878  27.732  24.282  1.00  0.00    -0.206 F 
ATOM     74  C   UNL A   1      51.131  26.840  25.594  1.00  0.00     0.022 A 
BRANCH  71  75
ATOM     75  S   UNL A   1      52.222  26.734  28.161  1.00  0.00     0.124 S 
ATOM     76  O   UNL A   1      52.475  28.138  28.478  1.00  0.00    -0.237 OA
ATOM     77  O   UNL A   1      51.626  25.936  29.225  1.00  0.00    -0.237 OA
ATOM     78  O   UNL A   1      53.282  26.074  27.402  1.00  0.00    -0.744 OA
ENDBRANCH  71  75
ENDBRANCH  54  68
BRANCH  55  79
ATOM     79  C   UNL A   1      39.103  28.955  29.699  1.00  0.00     0.023 A 
ATOM     80  C   UNL A   1      38.138  29.630  28.937  1.00  0.00     0.031 A 
ATOM     81  C   UNL A   1      38.761  28.590  31.015  1.00  0.00     0.131 A 
ATOM     82  C   UNL A   1      36.917  29.999  29.522  1.00  0.00     0.055 A 
ATOM     83  C   UNL A   1      37.511  28.884  31.564  1.00  0.00     0.041 A 
ATOM     84  F   UNL A   1      39.643  27.944  31.795  1.00  0.00    -0.206 F 
ATOM     85  C   UNL A   1      36.589  29.614  30.823  1.00  0.00     0.022 A 
BRANCH  82  86
ATOM     86  S   UNL A   1      35.834  31.132  28.610  1.00  0.00     0.124 S 
ATOM     87  O   UNL A   1      35.256  30.241  27.609  1.00  0.00    -0.237 OA
ATOM     88  O   UNL A   1      34.930  31.595  29.656  1.00  0.00    -0.237 OA
ATOM     89  O   UNL A   1      36.757  32.139  28.091  1.00  0.00    -0.744 OA
ENDBRANCH  82  86
ENDBRANCH  55  79
BRANCH  67  90
ATOM     90  C   UNL A   1      44.814  32.948  29.313  1.00  0.00     0.023 A 
ATOM     91  C   UNL A   1      44.626  33.989  28.391  1.00  0.00     0.031 A 
ATOM     92  C   UNL A   1      45.224  33.280  30.617  1.00  0.00     0.131 A 
ATOM     93  C   UNL A   1      44.889  35.312  28.770  1.00  0.00     0.055 A 
ATOM     94  C   UNL A   1      45.417  34.604  31.009  1.00  0.00     0.041 A 
ATOM     95  F   UNL A   1      45.421  32.322  31.537  1.00  0.00    -0.206 F 
ATOM     96  C   UNL A   1      45.259  35.628  30.081  1.00  0.00     0.022 A 
BRANCH  93  97
ATOM     97  S   UNL A   1      44.815  36.608  27.506  1.00  0.00     0.124 S 
ATOM     98  O   UNL A   1      43.441  36.488  27.030  1.00  0.00    -0.237 OA
ATOM     99  O   UNL A   1      45.122  37.812  28.272  1.00  0.00    -0.237 OA
ATOM    100  O   UNL A   1      45.842  36.208  26.544  1.00  0.00    -0.744 OA
ENDBRANCH  93  97
ENDBRANCH  67  90
ENDBRANCH  41  42
ENDBRANCH  33  36
ENDBRANCH  31  32
ENDBRANCH  30  31
ENDBRANCH   1  30
TORSDOF 18
ENDMDL
MODEL 2
REMARK VINA RESULT:     -13.2      1.881      2.171
REMARK SMILES NC(=O)c1cc(NC(=O)/C=C\C(=O)NCCCCNC(=O)c2ccc(-c3c4nc(c(-c5cc(S(=O)(=O)[O-])ccc5F)c5ccc([nH]5)c(-c5cc(S(=O)(=O)[O-])ccc5F)c5nc(c(-c6cc(S(=O)(=O)[O-])ccc6F)c6ccc3[nH]6)C=C5)C=C4)cc2)ccc1N1CCOCC1
REMARK SMILES IDX 16 1 15 2 14 3 12 4 13 5 11 7 10 8 8 9 7 10 9 12 6 13 4 14
REMARK SMILES IDX 5 15 87 16 86 17 85 18 2 19 1 20 3 23 88 24 89 25 93 26
REMARK SMILES IDX 90 27 92 28 91 29 17 30 18 31 19 32 20 33 21 35 22 36 23 37
REMARK SMILES IDX 84 38 24 39 83 40 25 41 26 42 27 43 77 44 28 45 82 46 76 47
REMARK SMILES IDX 78 48 29 49 81 50 75 51 74 52 30 54 62 55 42 56 61 57 43 58
REMARK SMILES IDX 46 59 60 60 79 61 44 62 45 63 59 65 80 66 47 67 31 68 32 69
REMARK SMILES IDX 40 70 33 71 39 72 41 73 38 74 34 75 35 76 36 77 37 78 63 79
REMARK SMILES IDX 64 80 72 81 65 82 71 83 73 84 70 85 66 86 67 87 68 88 69 89
REMARK SMILES IDX 48 90 49 91 57 92 50 93 56 94 58 95 55 96 51 97 52 98 53 99
REMARK SMILES IDX 54 100
REMARK H PARENT 14 6 7 11 1 21 1 22 19 34 78 53 46 64
REMARK Flexibility Score: inf
ROOT
ATOM      1  C   UNL A   1      37.496  21.880  25.425  1.00  0.00     0.023 C 
ENDROOT
BRANCH   1   2
ATOM      2  C   UNL A   1      36.296  21.842  24.430  1.00  0.00     0.116 C 
BRANCH   2   3
ATOM      3  N   UNL A   1      34.874  20.981  24.788  1.00  0.00    -0.353 N 
ATOM      4  C   UNL A   1      32.905  21.107  24.801  1.00  0.00     0.244 C 
ATOM      5  O   UNL A   1      32.029  20.300  25.222  1.00  0.00    -0.270 OA
ATOM      6  H   UNL A   1      35.129  20.086  25.109  1.00  0.00     0.163 HD
BRANCH   4   7
ATOM      7  C   UNL A   1      31.875  22.304  24.079  1.00  0.00     0.077 C 
ATOM      8  C   UNL A   1      30.969  23.234  24.457  1.00  0.00     0.077 C 
BRANCH   8   9
ATOM      9  C   UNL A   1      30.458  23.461  25.836  1.00  0.00     0.248 C 
ATOM     10  N   UNL A   1      30.470  24.759  26.225  1.00  0.00    -0.322 N 
ATOM     11  H   UNL A   1      30.505  25.001  27.178  1.00  0.00     0.170 HD
ATOM     12  O   UNL A   1      30.190  22.529  26.582  1.00  0.00    -0.270 OA
BRANCH  10  13
ATOM     13  C   UNL A   1      30.431  25.735  25.247  1.00  0.00     0.042 A 
ATOM     14  C   UNL A   1      31.477  28.586  24.329  1.00  0.00     0.064 A 
ATOM     15  C   UNL A   1      31.799  26.998  25.172  1.00  0.00     0.042 A 
ATOM     16  C   UNL A   1      29.883  28.905  23.495  1.00  0.00     0.050 A 
ATOM     17  C   UNL A   1      28.589  27.595  23.509  1.00  0.00     0.029 A 
ATOM     18  C   UNL A   1      28.847  26.040  24.406  1.00  0.00     0.028 A 
BRANCH  14  19
ATOM     19  C   UNL A   1      32.189  29.683  25.013  1.00  0.00     0.250 C 
ATOM     20  N   UNL A   1      33.496  29.795  24.630  1.00  0.00    -0.366 N 
ATOM     21  H   UNL A   1      34.065  30.495  25.024  1.00  0.00     0.159 HD
ATOM     22  H   UNL A   1      33.868  29.176  23.961  1.00  0.00     0.159 HD
ATOM     23  O   UNL A   1      31.622  30.503  25.716  1.00  0.00    -0.269 OA
ENDBRANCH  14  19
BRANCH  16  24
ATOM     24  N   UNL A   1      29.506  30.179  23.046  1.00  0.00    -0.366 N 
ATOM     25  C   UNL A   1      28.985  31.286  23.874  1.00  0.00     0.145 C 
ATOM     26  C   UNL A   1      29.541  30.519  21.610  1.00  0.00     0.145 C 
ATOM     27  C   UNL A   1      27.642  31.810  23.303  1.00  0.00     0.181 C 
ATOM     28  C   UNL A   1      28.165  31.028  21.148  1.00  0.00     0.181 C 
ATOM     29  O   UNL A   1      27.744  32.166  21.914  1.00  0.00    -0.378 OA
ENDBRANCH  16  24
ENDBRANCH  10  13
ENDBRANCH   8   9
ENDBRANCH   4   7
ENDBRANCH   2   3
ENDBRANCH   1   2
BRANCH   1  30
ATOM     30  C   UNL A   1      38.496  20.731  25.334  1.00  0.00     0.023 C 
BRANCH  30  31
ATOM     31  C   UNL A   1      39.571  20.868  26.386  1.00  0.00     0.116 C 
BRANCH  31  32
ATOM     32  N   UNL A   1      40.582  19.823  26.243  1.00  0.00    -0.352 N 
ATOM     33  C   UNL A   1      41.941  19.993  26.152  1.00  0.00     0.251 C 
ATOM     34  H   UNL A   1      40.253  18.896  26.208  1.00  0.00     0.163 HD
ATOM     35  O   UNL A   1      42.675  19.077  25.808  1.00  0.00    -0.269 OA
BRANCH  33  36
ATOM     36  C   UNL A   1      42.461  21.338  26.444  1.00  0.00     0.039 A 
ATOM     37  C   UNL A   1      42.592  22.260  25.408  1.00  0.00     0.014 A 
ATOM     38  C   UNL A   1      42.645  21.709  27.780  1.00  0.00     0.014 A 
ATOM     39  C   UNL A   1      42.848  23.590  25.725  1.00  0.00     0.010 A 
ATOM     40  C   UNL A   1      42.780  23.049  28.094  1.00  0.00     0.010 A 
ATOM     41  C   UNL A   1      42.897  23.998  27.069  1.00  0.00    -0.014 A 
BRANCH  41  42
ATOM     42  C   UNL A   1      43.103  25.414  27.441  1.00  0.00     0.031 A 
ATOM     43  C   UNL A   1      44.495  25.979  27.393  1.00  0.00     0.074 A 
ATOM     44  C   UNL A   1      42.064  26.151  27.877  1.00  0.00     0.049 A 
ATOM     45  N   UNL A   1      44.924  27.144  27.792  1.00  0.00    -0.248 NA
ATOM     46  C   UNL A   1      45.549  25.100  26.854  1.00  0.00     0.031 C 
ATOM     47  C   UNL A   1      40.680  25.681  27.990  1.00  0.00     0.029 A 
ATOM     48  N   UNL A   1      42.007  27.448  28.315  1.00  0.00    -0.354 N 
ATOM     49  C   UNL A   1      46.293  27.141  27.547  1.00  0.00     0.074 A 
ATOM     50  C   UNL A   1      46.636  25.828  27.051  1.00  0.00     0.031 C 
ATOM     51  C   UNL A   1      39.911  26.684  28.441  1.00  0.00     0.029 A 
ATOM     52  C   UNL A   1      40.752  27.844  28.714  1.00  0.00     0.049 A 
ATOM     53  H   UNL A   1      42.794  28.041  28.342  1.00  0.00     0.167 HD
ATOM     54  C   UNL A   1      47.174  28.158  27.686  1.00  0.00     0.034 A 
ATOM     55  C   UNL A   1      40.339  29.003  29.264  1.00  0.00     0.034 A 
ATOM     56  C   UNL A   1      46.806  29.460  28.176  1.00  0.00     0.049 A 
ATOM     57  C   UNL A   1      41.361  30.092  29.489  1.00  0.00     0.074 A 
ATOM     58  C   UNL A   1      47.609  30.573  28.339  1.00  0.00     0.029 A 
ATOM     59  N   UNL A   1      45.530  29.821  28.583  1.00  0.00    -0.354 N 
ATOM     60  N   UNL A   1      42.645  30.090  29.206  1.00  0.00    -0.248 NA
ATOM     61  C   UNL A   1      40.885  31.339  30.103  1.00  0.00     0.031 C 
ATOM     62  C   UNL A   1      46.836  31.584  28.916  1.00  0.00     0.029 A 
ATOM     63  C   UNL A   1      45.531  31.130  29.034  1.00  0.00     0.049 A 
ATOM     64  H   UNL A   1      44.740  29.234  28.557  1.00  0.00     0.167 HD
ATOM     65  C   UNL A   1      43.117  31.344  29.581  1.00  0.00     0.074 A 
ATOM     66  C   UNL A   1      41.980  32.084  30.084  1.00  0.00     0.031 C 
ATOM     67  C   UNL A   1      44.378  31.842  29.525  1.00  0.00     0.034 A 
BRANCH  54  68
ATOM     68  C   UNL A   1      48.607  27.899  27.304  1.00  0.00     0.023 A 
ATOM     69  C   UNL A   1      49.079  28.183  26.012  1.00  0.00     0.031 A 
ATOM     70  C   UNL A   1      49.513  27.371  28.238  1.00  0.00     0.131 A 
ATOM     71  C   UNL A   1      50.405  27.887  25.671  1.00  0.00     0.055 A 
ATOM     72  C   UNL A   1      50.855  27.156  27.917  1.00  0.00     0.041 A 
ATOM     73  F   UNL A   1      49.110  27.053  29.478  1.00  0.00    -0.206 F 
ATOM     74  C   UNL A   1      51.306  27.406  26.624  1.00  0.00     0.022 A 
BRANCH  71  75
ATOM     75  S   UNL A   1      50.901  28.027  23.933  1.00  0.00     0.124 S 
ATOM     76  O   UNL A   1      49.617  27.888  23.249  1.00  0.00    -0.237 OA
ATOM     77  O   UNL A   1      51.511  29.350  23.884  1.00  0.00    -0.237 OA
ATOM     78  O   UNL A   1      51.821  26.907  23.749  1.00  0.00    -0.744 OA
ENDBRANCH  71  75
ENDBRANCH  54  68
BRANCH  55  79
ATOM     79  C   UNL A   1      38.919  29.192  29.686  1.00  0.00     0.023 A 
ATOM     80  C   UNL A   1      37.997  29.836  28.847  1.00  0.00     0.031 A 
ATOM     81  C   UNL A   1      38.485  28.820  30.973  1.00  0.00     0.131 A 
ATOM     82  C   UNL A   1      36.723  30.169  29.332  1.00  0.00     0.055 A 
ATOM     83  C   UNL A   1      37.187  29.077  31.419  1.00  0.00     0.041 A 
ATOM     84  F   UNL A   1      39.321  28.203  31.823  1.00  0.00    -0.206 F 
ATOM     85  C   UNL A   1      36.304  29.777  30.605  1.00  0.00     0.022 A 
BRANCH  82  86
ATOM     86  S   UNL A   1      35.681  31.266  28.331  1.00  0.00     0.124 S 
ATOM     87  O   UNL A   1      36.646  32.272  27.901  1.00  0.00    -0.237 OA
ATOM     88  O   UNL A   1      35.194  30.360  27.297  1.00  0.00    -0.237 OA
ATOM     89  O   UNL A   1      34.672  31.733  29.279  1.00  0.00    -0.744 OA
ENDBRANCH  82  86
ENDBRANCH  55  79
BRANCH  67  90
ATOM     90  C   UNL A   1      44.580  33.263  29.984  1.00  0.00     0.023 A 
ATOM     91  C   UNL A   1      44.955  33.560  31.304  1.00  0.00     0.031 A 
ATOM     92  C   UNL A   1      44.422  34.330  29.081  1.00  0.00     0.131 A 
ATOM     93  C   UNL A   1      45.119  34.895  31.697  1.00  0.00     0.055 A 
ATOM     94  C   UNL A   1      44.654  35.651  29.460  1.00  0.00     0.041 A 
ATOM     95  F   UNL A   1      44.061  34.100  27.808  1.00  0.00    -0.206 F 
ATOM     96  C   UNL A   1      44.995  35.941  30.778  1.00  0.00     0.022 A 
BRANCH  93  97
ATOM     97  S   UNL A   1      45.421  35.252  33.448  1.00  0.00     0.124 S 
ATOM     98  O   UNL A   1      46.088  36.548  33.382  1.00  0.00    -0.237 OA
ATOM     99  O   UNL A   1      44.071  35.257  34.004  1.00  0.00    -0.237 OA
ATOM    100  O   UNL A   1      46.266  34.141  33.884  1.00  0.00    -0.744 OA
ENDBRANCH  93  97
ENDBRANCH  67  90
ENDBRANCH  41  42
ENDBRANCH  33  36
ENDBRANCH  31  32
ENDBRANCH  30  31
ENDBRANCH   1  30
TORSDOF 18
ENDMDL
MODEL 3
REMARK VINA RESULT:     -13.2      1.585      7.564
REMARK SMILES NC(=O)c1cc(NC(=O)/C=C\C(=O)NCCCCNC(=O)c2ccc(-c3c4nc(c(-c5cc(S(=O)(=O)[O-])ccc5F)c5ccc([nH]5)c(-c5cc(S(=O)(=O)[O-])ccc5F)c5nc(c(-c6cc(S(=O)(=O)[O-])ccc6F)c6ccc3[nH]6)C=C5)C=C4)cc2)ccc1N1CCOCC1
REMARK SMILES IDX 16 1 15 2 14 3 12 4 13 5 11 7 10 8 8 9 7 10 9 12 6 13 4 14
REMARK SMILES IDX 5 15 87 16 86 17 85 18 2 19 1 20 3 23 88 24 89 25 93 26
REMARK SMILES IDX 90 27 92 28 91 29 17 30 18 31 19 32 20 33 21 35 22 36 23 37
REMARK SMILES IDX 84 38 24 39 83 40 25 41 26 42 27 43 77 44 28 45 82 46 76 47
REMARK SMILES IDX 78 48 29 49 81 50 75 51 74 52 30 54 62 55 42 56 61 57 43 58
REMARK SMILES IDX 46 59 60 60 79 61 44 62 45 63 59 65 80 66 47 67 31 68 32 69
REMARK SMILES IDX 40 70 33 71 39 72 41 73 38 74 34 75 35 76 36 77 37 78 63 79
REMARK SMILES IDX 64 80 72 81 65 82 71 83 73 84 70 85 66 86 67 87 68 88 69 89
REMARK SMILES IDX 48 90 49 91 57 92 50 93 56 94 58 95 55 96 51 97 52 98 53 99
REMARK SMILES IDX 54 100
REMARK H PARENT 14 6 7 11 1 21 1 22 19 34 78 53 46 64
REMARK Flexibility Score: inf
ROOT
ATOM      1  C   UNL A   1      37.628  22.300  25.354  1.00  0.00     0.023 C 
ENDROOT
BRANCH   1   2
ATOM      2  C   UNL A   1      36.413  22.403  24.382  1.00  0.00     0.116 C 
BRANCH   2   3
ATOM      3  N   UNL A   1      35.118  21.304  24.462  1.00  0.00    -0.353 N 
ATOM      4  C   UNL A   1      33.162  21.142  24.264  1.00  0.00     0.244 C 
ATOM      5  O   UNL A   1      32.389  20.166  24.476  1.00  0.00    -0.270 OA
ATOM      6  H   UNL A   1      35.479  20.418  24.695  1.00  0.00     0.163 HD
BRANCH   4   7
ATOM      7  C   UNL A   1      32.028  22.269  23.584  1.00  0.00     0.077 C 
ATOM      8  C   UNL A   1      31.057  23.114  23.995  1.00  0.00     0.077 C 
BRANCH   8   9
ATOM      9  C   UNL A   1      30.551  23.269  25.386  1.00  0.00     0.248 C 
ATOM     10  N   UNL A   1      30.482  24.554  25.811  1.00  0.00    -0.322 N 
ATOM     11  H   UNL A   1      30.514  24.772  26.771  1.00  0.00     0.170 HD
ATOM     12  O   UNL A   1      30.356  22.301  26.109  1.00  0.00    -0.270 OA
BRANCH  10  13
ATOM     13  C   UNL A   1      30.365  25.552  24.862  1.00  0.00     0.042 A 
ATOM     14  C   UNL A   1      31.522  28.296  23.768  1.00  0.00     0.064 A 
ATOM     15  C   UNL A   1      31.823  26.663  24.530  1.00  0.00     0.042 A 
ATOM     16  C   UNL A   1      29.843  28.802  23.255  1.00  0.00     0.050 A 
ATOM     17  C   UNL A   1      28.440  27.637  23.512  1.00  0.00     0.029 A 
ATOM     18  C   UNL A   1      28.693  26.043  24.340  1.00  0.00     0.028 A 
BRANCH  14  19
ATOM     19  C   UNL A   1      32.466  29.295  24.307  1.00  0.00     0.250 C 
ATOM     20  N   UNL A   1      33.507  29.559  23.462  1.00  0.00    -0.366 N 
ATOM     21  H   UNL A   1      34.197  30.211  23.722  1.00  0.00     0.159 HD
ATOM     22  H   UNL A   1      33.567  29.097  22.595  1.00  0.00     0.159 HD
ATOM     23  O   UNL A   1      32.244  29.935  25.322  1.00  0.00    -0.269 OA
ENDBRANCH  14  19
BRANCH  16  24
ATOM     24  N   UNL A   1      29.529  30.120  22.890  1.00  0.00    -0.366 N 
ATOM     25  C   UNL A   1      29.203  31.233  23.805  1.00  0.00     0.145 C 
ATOM     26  C   UNL A   1      29.429  30.510  21.470  1.00  0.00     0.145 C 
ATOM     27  C   UNL A   1      27.854  31.887  23.409  1.00  0.00     0.181 C 
ATOM     28  C   UNL A   1      28.059  31.148  21.187  1.00  0.00     0.181 C 
ATOM     29  O   UNL A   1      27.828  32.286  22.029  1.00  0.00    -0.378 OA
ENDBRANCH  16  24
ENDBRANCH  10  13
ENDBRANCH   8   9
ENDBRANCH   4   7
ENDBRANCH   2   3
ENDBRANCH   1   2
BRANCH   1  30
ATOM     30  C   UNL A   1      38.347  20.955  25.410  1.00  0.00     0.023 C 
BRANCH  30  31
ATOM     31  C   UNL A   1      39.595  21.046  26.256  1.00  0.00     0.116 C 
BRANCH  31  32
ATOM     32  N   UNL A   1      40.350  19.796  26.215  1.00  0.00    -0.352 N 
ATOM     33  C   UNL A   1      41.715  19.653  26.223  1.00  0.00     0.251 C 
ATOM     34  H   UNL A   1      39.822  18.966  26.176  1.00  0.00     0.163 HD
ATOM     35  O   UNL A   1      42.244  18.582  25.957  1.00  0.00    -0.269 OA
BRANCH  33  36
ATOM     36  C   UNL A   1      42.505  20.857  26.522  1.00  0.00     0.039 A 
ATOM     37  C   UNL A   1      42.969  21.647  25.473  1.00  0.00     0.014 A 
ATOM     38  C   UNL A   1      42.620  21.268  27.854  1.00  0.00     0.014 A 
ATOM     39  C   UNL A   1      43.499  22.900  25.764  1.00  0.00     0.010 A 
ATOM     40  C   UNL A   1      43.036  22.559  28.126  1.00  0.00     0.010 A 
ATOM     41  C   UNL A   1      43.491  23.380  27.085  1.00  0.00    -0.014 A 
BRANCH  41  42
ATOM     42  C   UNL A   1      43.987  24.732  27.421  1.00  0.00     0.031 A 
ATOM     43  C   UNL A   1      43.000  25.775  27.859  1.00  0.00     0.074 A 
ATOM     44  C   UNL A   1      45.293  25.024  27.268  1.00  0.00     0.049 A 
ATOM     45  N   UNL A   1      43.190  27.048  28.079  1.00  0.00    -0.248 NA
ATOM     46  C   UNL A   1      41.605  25.335  28.040  1.00  0.00     0.031 C 
ATOM     47  C   UNL A   1      46.324  24.085  26.817  1.00  0.00     0.029 A 
ATOM     48  N   UNL A   1      45.977  26.194  27.465  1.00  0.00    -0.354 N 
ATOM     49  C   UNL A   1      41.945  27.556  28.430  1.00  0.00     0.074 A 
ATOM     50  C   UNL A   1      40.991  26.476  28.306  1.00  0.00     0.031 C 
ATOM     51  C   UNL A   1      47.511  24.712  26.797  1.00  0.00     0.029 A 
ATOM     52  C   UNL A   1      47.318  26.110  27.168  1.00  0.00     0.049 A 
ATOM     53  H   UNL A   1      45.548  27.020  27.789  1.00  0.00     0.167 HD
ATOM     54  C   UNL A   1      41.635  28.801  28.858  1.00  0.00     0.034 A 
ATOM     55  C   UNL A   1      48.271  27.062  27.168  1.00  0.00     0.034 A 
ATOM     56  C   UNL A   1      42.604  29.857  28.981  1.00  0.00     0.049 A 
ATOM     57  C   UNL A   1      47.879  28.466  27.566  1.00  0.00     0.074 A 
ATOM     58  C   UNL A   1      42.409  31.152  29.423  1.00  0.00     0.029 A 
ATOM     59  N   UNL A   1      43.948  29.740  28.658  1.00  0.00    -0.354 N 
ATOM     60  N   UNL A   1      46.704  28.919  27.943  1.00  0.00    -0.248 NA
ATOM     61  C   UNL A   1      48.936  29.486  27.543  1.00  0.00     0.031 C 
ATOM     62  C   UNL A   1      43.619  31.839  29.296  1.00  0.00     0.029 A 
ATOM     63  C   UNL A   1      44.588  30.952  28.855  1.00  0.00     0.049 A 
ATOM     64  H   UNL A   1      44.383  28.918  28.336  1.00  0.00     0.167 HD
ATOM     65  C   UNL A   1      46.892  30.268  28.229  1.00  0.00     0.074 A 
ATOM     66  C   UNL A   1      48.295  30.548  28.008  1.00  0.00     0.031 C 
ATOM     67  C   UNL A   1      45.990  31.198  28.631  1.00  0.00     0.034 A 
BRANCH  54  68
ATOM     68  C   UNL A   1      40.200  29.079  29.220  1.00  0.00     0.023 A 
ATOM     69  C   UNL A   1      39.777  29.096  30.560  1.00  0.00     0.031 A 
ATOM     70  C   UNL A   1      39.246  29.338  28.222  1.00  0.00     0.131 A 
ATOM     71  C   UNL A   1      38.427  29.311  30.864  1.00  0.00     0.055 A 
ATOM     72  C   UNL A   1      37.919  29.634  28.537  1.00  0.00     0.041 A 
ATOM     73  F   UNL A   1      39.588  29.305  26.925  1.00  0.00    -0.206 F 
ATOM     74  C   UNL A   1      37.500  29.613  29.864  1.00  0.00     0.022 A 
BRANCH  71  75
ATOM     75  S   UNL A   1      37.879  29.070  32.576  1.00  0.00     0.124 S 
ATOM     76  O   UNL A   1      36.512  29.585  32.521  1.00  0.00    -0.237 OA
ATOM     77  O   UNL A   1      38.013  27.630  32.751  1.00  0.00    -0.237 OA
ATOM     78  O   UNL A   1      38.812  29.885  33.351  1.00  0.00    -0.744 OA
ENDBRANCH  71  75
ENDBRANCH  54  68
BRANCH  55  79
ATOM     79  C   UNL A   1      49.668  26.754  26.739  1.00  0.00     0.023 A 
ATOM     80  C   UNL A   1      50.726  26.779  27.659  1.00  0.00     0.031 A 
ATOM     81  C   UNL A   1      49.982  26.525  25.386  1.00  0.00     0.131 A 
ATOM     82  C   UNL A   1      52.051  26.670  27.207  1.00  0.00     0.055 A 
ATOM     83  C   UNL A   1      51.295  26.331  24.953  1.00  0.00     0.041 A 
ATOM     84  F   UNL A   1      49.013  26.491  24.457  1.00  0.00    -0.206 F 
ATOM     85  C   UNL A   1      52.342  26.427  25.863  1.00  0.00     0.022 A 
BRANCH  82  86
ATOM     86  S   UNL A   1      53.391  27.017  28.378  1.00  0.00     0.124 S 
ATOM     87  O   UNL A   1      54.565  26.651  27.595  1.00  0.00    -0.237 OA
ATOM     88  O   UNL A   1      53.208  28.441  28.634  1.00  0.00    -0.237 OA
ATOM     89  O   UNL A   1      53.092  26.136  29.506  1.00  0.00    -0.744 OA
ENDBRANCH  82  86
ENDBRANCH  55  79
BRANCH  67  90
ATOM     90  C   UNL A   1      46.504  32.590  28.891  1.00  0.00     0.023 A 
ATOM     91  C   UNL A   1      46.404  33.601  27.922  1.00  0.00     0.031 A 
ATOM     92  C   UNL A   1      47.074  32.915  30.135  1.00  0.00     0.131 A 
ATOM     93  C   UNL A   1      46.906  34.880  28.196  1.00  0.00     0.055 A 
ATOM     94  C   UNL A   1      47.509  34.207  30.427  1.00  0.00     0.041 A 
ATOM     95  F   UNL A   1      47.196  31.984  31.095  1.00  0.00    -0.206 F 
ATOM     96  C   UNL A   1      47.436  35.196  29.451  1.00  0.00     0.022 A 
BRANCH  93  97
ATOM     97  S   UNL A   1      46.930  36.107  26.862  1.00  0.00     0.124 S 
ATOM     98  O   UNL A   1      47.599  37.235  27.501  1.00  0.00    -0.237 OA
ATOM     99  O   UNL A   1      47.689  35.422  25.820  1.00  0.00    -0.237 OA
ATOM    100  O   UNL A   1      45.514  36.314  26.562  1.00  0.00    -0.744 OA
ENDBRANCH  93  97
ENDBRANCH  67  90
ENDBRANCH  41  42
ENDBRANCH  33  36
ENDBRANCH  31  32
ENDBRANCH  30  31
ENDBRANCH   1  30
TORSDOF 18
ENDMDL
