MODEL 1
REMARK VINA RESULT:     -11.0      0.000      0.000
REMARK SMILES CC(C)n1ccc(C#CC(=O)NCCCCNC(=O)c2ccc(-c3c4nc(c(-c5cc(S(=O)(=O)[O-])ccc5F)c5ccc([nH]5)c(-c5cc(S(=O)(=O)[O-])ccc5F)c5nc(c(-c6cc(S(=O)(=O)[O-])ccc6F)c6ccc3[nH]6)C=C5)C=C4)cc2)n1
REMARK SMILES IDX 15 1 14 2 13 3 12 4 10 5 11 6 9 8 8 9 7 10 4 11 5 12 83 13
REMARK SMILES IDX 6 14 2 15 1 16 3 17 16 18 17 19 18 20 19 22 20 23 21 24
REMARK SMILES IDX 82 25 22 26 81 27 23 28 24 29 25 30 75 31 26 32 80 33 74 34
REMARK SMILES IDX 76 35 27 36 79 37 73 38 72 39 28 41 60 42 40 43 59 44 41 45
REMARK SMILES IDX 44 46 58 47 77 48 42 49 43 50 57 52 78 53 45 54 29 55 30 56
REMARK SMILES IDX 38 57 31 58 37 59 39 60 36 61 32 62 33 63 34 64 35 65 61 66
REMARK SMILES IDX 62 67 70 68 63 69 69 70 71 71 68 72 64 73 65 74 66 75 67 76
REMARK SMILES IDX 46 77 47 78 55 79 48 80 54 81 56 82 53 83 49 84 50 85 51 86
REMARK SMILES IDX 52 87
REMARK H PARENT 12 7 17 21 76 40 44 51
REMARK Flexibility Score: inf
ROOT
ATOM      1  C   UNL A   1      35.939  30.926  32.252  1.00  0.00     0.023 C 
ENDROOT
BRANCH   1   2
ATOM      2  C   UNL A   1      37.380  30.901  32.785  1.00  0.00     0.023 C 
BRANCH   2   3
ATOM      3  C   UNL A   1      37.924  32.231  33.321  1.00  0.00     0.117 C 
BRANCH   3   4
ATOM      4  N   UNL A   1      37.603  32.431  34.722  1.00  0.00    -0.345 N 
ATOM      5  C   UNL A   1      36.692  33.307  35.248  1.00  0.00     0.296 C 
ATOM      6  O   UNL A   1      36.535  33.409  36.458  1.00  0.00    -0.260 OA
ATOM      7  H   UNL A   1      38.096  31.874  35.367  1.00  0.00     0.164 HD
BRANCH   5   8
ATOM      8  C   UNL A   1      35.914  34.141  34.358  1.00  0.00     0.002 C 
ATOM      9  C   UNL A   1      35.277  34.836  33.633  1.00  0.00    -0.034 C 
BRANCH   9  10
ATOM     10  C   UNL A   1      34.499  35.658  32.762  1.00  0.00     0.135 A 
ATOM     11  N   UNL A   1      33.490  36.224  31.001  1.00  0.00    -0.269 N 
ATOM     12  C   UNL A   1      33.265  37.249  31.884  1.00  0.00     0.110 A 
ATOM     13  N   UNL A   1      34.280  35.257  31.508  1.00  0.00    -0.164 NA
ATOM     14  C   UNL A   1      33.913  36.900  33.046  1.00  0.00     0.059 A 
BRANCH  11  15
ATOM     15  C   UNL A   1      32.966  36.148  29.639  1.00  0.00     0.101 C 
ATOM     16  C   UNL A   1      33.621  37.201  28.747  1.00  0.00     0.033 C 
ATOM     17  C   UNL A   1      33.077  34.757  29.007  1.00  0.00     0.033 C 
ENDBRANCH  11  15
ENDBRANCH   9  10
ENDBRANCH   5   8
ENDBRANCH   3   4
ENDBRANCH   2   3
ENDBRANCH   1   2
BRANCH   1  18
ATOM     18  C   UNL A   1      35.626  32.095  31.329  1.00  0.00     0.116 C 
BRANCH  18  19
ATOM     19  N   UNL A   1      35.046  31.694  30.041  1.00  0.00    -0.352 N 
ATOM     20  C   UNL A   1      35.723  31.331  28.879  1.00  0.00     0.251 C 
ATOM     21  H   UNL A   1      34.063  31.680  29.994  1.00  0.00     0.163 HD
ATOM     22  O   UNL A   1      35.178  31.433  27.785  1.00  0.00    -0.269 OA
BRANCH  20  23
ATOM     23  C   UNL A   1      37.093  30.786  29.001  1.00  0.00     0.039 A 
ATOM     24  C   UNL A   1      38.219  31.542  29.345  1.00  0.00     0.014 A 
ATOM     25  C   UNL A   1      37.218  29.420  28.800  1.00  0.00     0.014 A 
ATOM     26  C   UNL A   1      39.452  30.885  29.476  1.00  0.00     0.010 A 
ATOM     27  C   UNL A   1      38.317  28.772  29.276  1.00  0.00     0.010 A 
ATOM     28  C   UNL A   1      39.492  29.480  29.417  1.00  0.00    -0.014 A 
BRANCH  28  29
ATOM     29  C   UNL A   1      40.662  28.659  29.738  1.00  0.00     0.031 A 
ATOM     30  C   UNL A   1      40.804  28.530  31.210  1.00  0.00     0.074 A 
ATOM     31  C   UNL A   1      41.331  27.906  28.820  1.00  0.00     0.049 A 
ATOM     32  N   UNL A   1      41.604  29.204  31.966  1.00  0.00    -0.248 NA
ATOM     33  C   UNL A   1      39.753  27.819  31.970  1.00  0.00     0.031 C 
ATOM     34  C   UNL A   1      41.080  27.788  27.375  1.00  0.00     0.029 A 
ATOM     35  N   UNL A   1      42.367  27.022  28.987  1.00  0.00    -0.354 N 
ATOM     36  C   UNL A   1      41.393  28.707  33.247  1.00  0.00     0.074 A 
ATOM     37  C   UNL A   1      40.076  28.142  33.225  1.00  0.00     0.031 C 
ATOM     38  C   UNL A   1      41.788  26.755  26.851  1.00  0.00     0.029 A 
ATOM     39  C   UNL A   1      42.664  26.207  27.874  1.00  0.00     0.049 A 
ATOM     40  H   UNL A   1      42.872  26.961  29.829  1.00  0.00     0.167 HD
ATOM     41  C   UNL A   1      42.459  28.462  34.060  1.00  0.00     0.034 A 
ATOM     42  C   UNL A   1      43.588  25.191  27.784  1.00  0.00     0.034 A 
ATOM     43  C   UNL A   1      43.644  29.103  33.523  1.00  0.00     0.049 A 
ATOM     44  C   UNL A   1      44.559  25.437  28.879  1.00  0.00     0.074 A 
ATOM     45  C   UNL A   1      44.009  30.401  33.228  1.00  0.00     0.029 A 
ATOM     46  N   UNL A   1      44.487  28.295  32.792  1.00  0.00    -0.354 N 
ATOM     47  N   UNL A   1      45.337  26.484  28.905  1.00  0.00    -0.248 NA
ATOM     48  C   UNL A   1      44.265  24.848  30.175  1.00  0.00     0.031 C 
ATOM     49  C   UNL A   1      44.741  30.310  32.005  1.00  0.00     0.029 A 
ATOM     50  C   UNL A   1      44.910  28.963  31.673  1.00  0.00     0.049 A 
ATOM     51  H   UNL A   1      44.746  27.377  33.037  1.00  0.00     0.167 HD
ATOM     52  C   UNL A   1      45.243  26.962  30.204  1.00  0.00     0.074 A 
ATOM     53  C   UNL A   1      44.633  25.865  30.961  1.00  0.00     0.031 C 
ATOM     54  C   UNL A   1      45.370  28.300  30.463  1.00  0.00     0.034 A 
BRANCH  41  55
ATOM     55  C   UNL A   1      42.568  27.288  35.022  1.00  0.00     0.023 A 
ATOM     56  C   UNL A   1      43.400  26.223  34.621  1.00  0.00     0.031 A 
ATOM     57  C   UNL A   1      41.718  27.013  36.119  1.00  0.00     0.131 A 
ATOM     58  C   UNL A   1      43.286  24.950  35.205  1.00  0.00     0.055 A 
ATOM     59  C   UNL A   1      41.650  25.760  36.735  1.00  0.00     0.041 A 
ATOM     60  F   UNL A   1      40.847  27.896  36.614  1.00  0.00    -0.206 F 
ATOM     61  C   UNL A   1      42.412  24.709  36.260  1.00  0.00     0.022 A 
BRANCH  58  62
ATOM     62  S   UNL A   1      44.178  23.572  34.444  1.00  0.00     0.124 S 
ATOM     63  O   UNL A   1      43.165  23.030  33.546  1.00  0.00    -0.237 OA
ATOM     64  O   UNL A   1      45.302  24.256  33.813  1.00  0.00    -0.237 OA
ATOM     65  O   UNL A   1      44.524  22.725  35.583  1.00  0.00    -0.744 OA
ENDBRANCH  58  62
ENDBRANCH  41  55
BRANCH  42  66
ATOM     66  C   UNL A   1      43.460  23.836  27.119  1.00  0.00     0.023 A 
ATOM     67  C   UNL A   1      42.374  22.924  27.285  1.00  0.00     0.031 A 
ATOM     68  C   UNL A   1      44.341  23.547  26.053  1.00  0.00     0.131 A 
ATOM     69  C   UNL A   1      42.225  21.798  26.417  1.00  0.00     0.055 A 
ATOM     70  C   UNL A   1      44.178  22.453  25.196  1.00  0.00     0.041 A 
ATOM     71  F   UNL A   1      45.350  24.379  25.753  1.00  0.00    -0.206 F 
ATOM     72  C   UNL A   1      43.120  21.577  25.369  1.00  0.00     0.022 A 
BRANCH  69  73
ATOM     73  S   UNL A   1      40.847  20.591  26.586  1.00  0.00     0.124 S 
ATOM     74  O   UNL A   1      40.845  20.306  28.015  1.00  0.00    -0.237 OA
ATOM     75  O   UNL A   1      39.705  21.336  26.070  1.00  0.00    -0.237 OA
ATOM     76  O   UNL A   1      41.267  19.467  25.746  1.00  0.00    -0.744 OA
ENDBRANCH  69  73
ENDBRANCH  42  66
BRANCH  54  77
ATOM     77  C   UNL A   1      45.933  29.188  29.361  1.00  0.00     0.023 A 
ATOM     78  C   UNL A   1      45.217  30.156  28.614  1.00  0.00     0.031 A 
ATOM     79  C   UNL A   1      47.316  29.087  29.134  1.00  0.00     0.131 A 
ATOM     80  C   UNL A   1      45.896  30.963  27.672  1.00  0.00     0.055 A 
ATOM     81  C   UNL A   1      47.986  29.906  28.228  1.00  0.00     0.041 A 
ATOM     82  F   UNL A   1      48.053  28.200  29.821  1.00  0.00    -0.206 F 
ATOM     83  C   UNL A   1      47.277  30.843  27.489  1.00  0.00     0.022 A 
BRANCH  80  84
ATOM     84  S   UNL A   1      44.998  32.162  26.627  1.00  0.00     0.124 S 
ATOM     85  O   UNL A   1      46.012  32.617  25.684  1.00  0.00    -0.237 OA
ATOM     86  O   UNL A   1      43.920  31.351  26.065  1.00  0.00    -0.237 OA
ATOM     87  O   UNL A   1      44.553  33.181  27.581  1.00  0.00    -0.744 OA
ENDBRANCH  80  84
ENDBRANCH  54  77
ENDBRANCH  28  29
ENDBRANCH  20  23
ENDBRANCH  18  19
ENDBRANCH   1  18
TORSDOF 16
ENDMDL
MODEL 2
REMARK VINA RESULT:     -10.8      4.705     10.669
REMARK SMILES CC(C)n1ccc(C#CC(=O)NCCCCNC(=O)c2ccc(-c3c4nc(c(-c5cc(S(=O)(=O)[O-])ccc5F)c5ccc([nH]5)c(-c5cc(S(=O)(=O)[O-])ccc5F)c5nc(c(-c6cc(S(=O)(=O)[O-])ccc6F)c6ccc3[nH]6)C=C5)C=C4)cc2)n1
REMARK SMILES IDX 15 1 14 2 13 3 12 4 10 5 11 6 9 8 8 9 7 10 4 11 5 12 83 13
REMARK SMILES IDX 6 14 2 15 1 16 3 17 16 18 17 19 18 20 19 22 20 23 21 24
REMARK SMILES IDX 82 25 22 26 81 27 23 28 24 29 25 30 75 31 26 32 80 33 74 34
REMARK SMILES IDX 76 35 27 36 79 37 73 38 72 39 28 41 60 42 40 43 59 44 41 45
REMARK SMILES IDX 44 46 58 47 77 48 42 49 43 50 57 52 78 53 45 54 29 55 30 56
REMARK SMILES IDX 38 57 31 58 37 59 39 60 36 61 32 62 33 63 34 64 35 65 61 66
REMARK SMILES IDX 62 67 70 68 63 69 69 70 71 71 68 72 64 73 65 74 66 75 67 76
REMARK SMILES IDX 46 77 47 78 55 79 48 80 54 81 56 82 53 83 49 84 50 85 51 86
REMARK SMILES IDX 52 87
REMARK H PARENT 12 7 17 21 76 40 44 51
REMARK Flexibility Score: inf
ROOT
ATOM      1  C   UNL A   1      39.397  20.946  25.444  1.00  0.00     0.023 C 
ENDROOT
BRANCH   1   2
ATOM      2  C   UNL A   1      39.129  22.302  26.114  1.00  0.00     0.023 C 
BRANCH   2   3
ATOM      3  C   UNL A   1      37.672  22.782  26.106  1.00  0.00     0.117 C 
BRANCH   3   4
ATOM      4  N   UNL A   1      37.302  23.392  24.842  1.00  0.00    -0.345 N 
ATOM      5  C   UNL A   1      36.345  22.963  23.961  1.00  0.00     0.296 C 
ATOM      6  O   UNL A   1      36.147  23.547  22.905  1.00  0.00    -0.260 OA
ATOM      7  H   UNL A   1      37.793  24.206  24.590  1.00  0.00     0.164 HD
BRANCH   5   8
ATOM      8  C   UNL A   1      35.567  21.786  24.279  1.00  0.00     0.002 C 
ATOM      9  C   UNL A   1      34.917  20.825  24.542  1.00  0.00    -0.034 C 
BRANCH   9  10
ATOM     10  C   UNL A   1      34.151  19.664  24.867  1.00  0.00     0.135 A 
ATOM     11  N   UNL A   1      33.662  17.617  24.973  1.00  0.00    -0.269 N 
ATOM     12  C   UNL A   1      32.644  18.260  25.630  1.00  0.00     0.110 A 
ATOM     13  N   UNL A   1      34.576  18.466  24.462  1.00  0.00    -0.164 NA
ATOM     14  C   UNL A   1      32.943  19.602  25.578  1.00  0.00     0.059 A 
BRANCH  11  15
ATOM     15  C   UNL A   1      33.782  16.171  24.805  1.00  0.00     0.101 C 
ATOM     16  C   UNL A   1      35.158  15.685  25.258  1.00  0.00     0.033 C 
ATOM     17  C   UNL A   1      32.672  15.371  25.492  1.00  0.00     0.033 C 
ENDBRANCH  11  15
ENDBRANCH   9  10
ENDBRANCH   5   8
ENDBRANCH   3   4
ENDBRANCH   2   3
ENDBRANCH   1   2
BRANCH   1  18
ATOM     18  C   UNL A   1      39.842  19.845  26.398  1.00  0.00     0.116 C 
BRANCH  18  19
ATOM     19  N   UNL A   1      41.111  19.211  26.021  1.00  0.00    -0.352 N 
ATOM     20  C   UNL A   1      42.317  19.837  25.713  1.00  0.00     0.251 C 
ATOM     21  H   UNL A   1      41.109  18.228  25.981  1.00  0.00     0.163 HD
ATOM     22  O   UNL A   1      43.153  19.269  25.020  1.00  0.00    -0.269 OA
BRANCH  20  23
ATOM     23  C   UNL A   1      42.577  21.182  26.273  1.00  0.00     0.039 A 
ATOM     24  C   UNL A   1      42.831  22.324  25.506  1.00  0.00     0.014 A 
ATOM     25  C   UNL A   1      42.507  21.284  27.654  1.00  0.00     0.014 A 
ATOM     26  C   UNL A   1      43.010  23.548  26.167  1.00  0.00     0.010 A 
ATOM     27  C   UNL A   1      42.327  22.506  28.227  1.00  0.00     0.010 A 
ATOM     28  C   UNL A   1      42.772  23.624  27.552  1.00  0.00    -0.014 A 
BRANCH  28  29
ATOM     29  C   UNL A   1      42.720  24.864  28.329  1.00  0.00     0.031 A 
ATOM     30  C   UNL A   1      41.384  25.495  28.190  1.00  0.00     0.074 A 
ATOM     31  C   UNL A   1      43.657  25.215  29.255  1.00  0.00     0.049 A 
ATOM     32  N   UNL A   1      41.076  26.476  27.409  1.00  0.00    -0.248 NA
ATOM     33  C   UNL A   1      40.199  24.788  28.723  1.00  0.00     0.031 C 
ATOM     34  C   UNL A   1      44.887  24.500  29.629  1.00  0.00     0.029 A 
ATOM     35  N   UNL A   1      43.691  26.280  30.119  1.00  0.00    -0.354 N 
ATOM     36  C   UNL A   1      39.732  26.725  27.657  1.00  0.00     0.074 A 
ATOM     37  C   UNL A   1      39.207  25.500  28.184  1.00  0.00     0.031 C 
ATOM     38  C   UNL A   1      45.422  25.030  30.759  1.00  0.00     0.029 A 
ATOM     39  C   UNL A   1      44.672  26.219  31.132  1.00  0.00     0.049 A 
ATOM     40  H   UNL A   1      43.071  27.040  30.037  1.00  0.00     0.167 HD
ATOM     41  C   UNL A   1      39.293  28.010  27.776  1.00  0.00     0.034 A 
ATOM     42  C   UNL A   1      44.882  27.097  32.170  1.00  0.00     0.034 A 
ATOM     43  C   UNL A   1      40.304  28.921  27.275  1.00  0.00     0.049 A 
ATOM     44  C   UNL A   1      44.241  28.368  31.752  1.00  0.00     0.074 A 
ATOM     45  C   UNL A   1      40.934  29.117  26.063  1.00  0.00     0.029 A 
ATOM     46  N   UNL A   1      41.116  29.501  28.224  1.00  0.00    -0.354 N 
ATOM     47  N   UNL A   1      44.668  29.069  30.738  1.00  0.00    -0.248 NA
ATOM     48  C   UNL A   1      42.837  28.548  32.086  1.00  0.00     0.031 C 
ATOM     49  C   UNL A   1      42.294  29.400  26.394  1.00  0.00     0.029 A 
ATOM     50  C   UNL A   1      42.414  29.500  27.783  1.00  0.00     0.049 A 
ATOM     51  H   UNL A   1      40.811  29.863  29.088  1.00  0.00     0.167 HD
ATOM     52  C   UNL A   1      43.522  29.398  30.027  1.00  0.00     0.074 A 
ATOM     53  C   UNL A   1      42.418  29.119  30.951  1.00  0.00     0.031 C 
ATOM     54  C   UNL A   1      43.568  29.553  28.668  1.00  0.00     0.034 A 
BRANCH  41  55
ATOM     55  C   UNL A   1      38.229  28.480  28.756  1.00  0.00     0.023 A 
ATOM     56  C   UNL A   1      37.279  29.397  28.262  1.00  0.00     0.031 A 
ATOM     57  C   UNL A   1      38.253  28.332  30.163  1.00  0.00     0.131 A 
ATOM     58  C   UNL A   1      36.509  30.187  29.132  1.00  0.00     0.055 A 
ATOM     59  C   UNL A   1      37.442  29.080  31.023  1.00  0.00     0.041 A 
ATOM     60  F   UNL A   1      39.105  27.528  30.805  1.00  0.00    -0.206 F 
ATOM     61  C   UNL A   1      36.586  30.038  30.512  1.00  0.00     0.022 A 
BRANCH  58  62
ATOM     62  S   UNL A   1      35.530  31.536  28.426  1.00  0.00     0.124 S 
ATOM     63  O   UNL A   1      36.573  32.460  27.998  1.00  0.00    -0.237 OA
ATOM     64  O   UNL A   1      34.797  30.851  27.367  1.00  0.00    -0.237 OA
ATOM     65  O   UNL A   1      34.718  31.988  29.554  1.00  0.00    -0.744 OA
ENDBRANCH  58  62
ENDBRANCH  41  55
BRANCH  42  66
ATOM     66  C   UNL A   1      45.208  26.806  33.620  1.00  0.00     0.023 A 
ATOM     67  C   UNL A   1      44.293  26.888  34.714  1.00  0.00     0.031 A 
ATOM     68  C   UNL A   1      46.429  26.153  33.896  1.00  0.00     0.131 A 
ATOM     69  C   UNL A   1      44.631  26.343  35.992  1.00  0.00     0.055 A 
ATOM     70  C   UNL A   1      46.745  25.605  35.144  1.00  0.00     0.041 A 
ATOM     71  F   UNL A   1      47.330  25.945  32.923  1.00  0.00    -0.206 F 
ATOM     72  C   UNL A   1      45.848  25.692  36.195  1.00  0.00     0.022 A 
BRANCH  69  73
ATOM     73  S   UNL A   1      43.492  26.422  37.435  1.00  0.00     0.124 S 
ATOM     74  O   UNL A   1      42.322  27.092  36.882  1.00  0.00    -0.237 OA
ATOM     75  O   UNL A   1      43.331  25.019  37.792  1.00  0.00    -0.237 OA
ATOM     76  O   UNL A   1      44.235  27.216  38.417  1.00  0.00    -0.744 OA
ENDBRANCH  69  73
ENDBRANCH  42  66
BRANCH  54  77
ATOM     77  C   UNL A   1      44.936  29.680  28.011  1.00  0.00     0.023 A 
ATOM     78  C   UNL A   1      45.704  28.625  27.458  1.00  0.00     0.031 A 
ATOM     79  C   UNL A   1      45.433  30.987  27.872  1.00  0.00     0.131 A 
ATOM     80  C   UNL A   1      46.927  28.910  26.810  1.00  0.00     0.055 A 
ATOM     81  C   UNL A   1      46.623  31.265  27.205  1.00  0.00     0.041 A 
ATOM     82  F   UNL A   1      44.745  32.031  28.361  1.00  0.00    -0.206 F 
ATOM     83  C   UNL A   1      47.379  30.227  26.677  1.00  0.00     0.022 A 
BRANCH  80  84
ATOM     84  S   UNL A   1      47.989  27.574  26.159  1.00  0.00     0.124 S 
ATOM     85  O   UNL A   1      47.253  26.362  26.492  1.00  0.00    -0.237 OA
ATOM     86  O   UNL A   1      48.076  27.899  24.738  1.00  0.00    -0.237 OA
ATOM     87  O   UNL A   1      49.244  27.746  26.896  1.00  0.00    -0.744 OA
ENDBRANCH  80  84
ENDBRANCH  54  77
ENDBRANCH  28  29
ENDBRANCH  20  23
ENDBRANCH  18  19
ENDBRANCH   1  18
TORSDOF 16
ENDMDL
MODEL 3
REMARK VINA RESULT:     -10.8      4.567     11.249
REMARK SMILES CC(C)n1ccc(C#CC(=O)NCCCCNC(=O)c2ccc(-c3c4nc(c(-c5cc(S(=O)(=O)[O-])ccc5F)c5ccc([nH]5)c(-c5cc(S(=O)(=O)[O-])ccc5F)c5nc(c(-c6cc(S(=O)(=O)[O-])ccc6F)c6ccc3[nH]6)C=C5)C=C4)cc2)n1
REMARK SMILES IDX 15 1 14 2 13 3 12 4 10 5 11 6 9 8 8 9 7 10 4 11 5 12 83 13
REMARK SMILES IDX 6 14 2 15 1 16 3 17 16 18 17 19 18 20 19 22 20 23 21 24
REMARK SMILES IDX 82 25 22 26 81 27 23 28 24 29 25 30 75 31 26 32 80 33 74 34
REMARK SMILES IDX 76 35 27 36 79 37 73 38 72 39 28 41 60 42 40 43 59 44 41 45
REMARK SMILES IDX 44 46 58 47 77 48 42 49 43 50 57 52 78 53 45 54 29 55 30 56
REMARK SMILES IDX 38 57 31 58 37 59 39 60 36 61 32 62 33 63 34 64 35 65 61 66
REMARK SMILES IDX 62 67 70 68 63 69 69 70 71 71 68 72 64 73 65 74 66 75 67 76
REMARK SMILES IDX 46 77 47 78 55 79 48 80 54 81 56 82 53 83 49 84 50 85 51 86
REMARK SMILES IDX 52 87
REMARK H PARENT 12 7 17 21 76 40 44 51
REMARK Flexibility Score: inf
ROOT
ATOM      1  C   UNL A   1      41.974  19.205  25.915  1.00  0.00     0.023 C 
ENDROOT
BRANCH   1   2
ATOM      2  C   UNL A   1      41.505  20.583  26.405  1.00  0.00     0.023 C 
BRANCH   2   3
ATOM      3  C   UNL A   1      40.012  20.888  26.232  1.00  0.00     0.117 C 
BRANCH   3   4
ATOM      4  N   UNL A   1      39.731  22.311  26.288  1.00  0.00    -0.345 N 
ATOM      5  C   UNL A   1      38.544  22.935  26.014  1.00  0.00     0.296 C 
ATOM      6  O   UNL A   1      38.441  24.154  26.064  1.00  0.00    -0.260 OA
ATOM      7  H   UNL A   1      40.479  22.893  26.554  1.00  0.00     0.164 HD
BRANCH   5   8
ATOM      8  C   UNL A   1      37.395  22.140  25.641  1.00  0.00     0.002 C 
ATOM      9  C   UNL A   1      36.443  21.496  25.335  1.00  0.00    -0.034 C 
BRANCH   9  10
ATOM     10  C   UNL A   1      35.305  20.709  24.978  1.00  0.00     0.135 A 
ATOM     11  N   UNL A   1      34.178  18.968  24.608  1.00  0.00    -0.269 N 
ATOM     12  C   UNL A   1      33.303  20.006  24.413  1.00  0.00     0.110 A 
ATOM     13  N   UNL A   1      35.423  19.381  24.915  1.00  0.00    -0.164 NA
ATOM     14  C   UNL A   1      34.016  21.157  24.654  1.00  0.00     0.059 A 
BRANCH  11  15
ATOM     15  C   UNL A   1      33.849  17.549  24.492  1.00  0.00     0.101 C 
ATOM     16  C   UNL A   1      32.486  17.255  25.118  1.00  0.00     0.033 C 
ATOM     17  C   UNL A   1      33.914  17.012  23.059  1.00  0.00     0.033 C 
ENDBRANCH  11  15
ENDBRANCH   9  10
ENDBRANCH   5   8
ENDBRANCH   3   4
ENDBRANCH   2   3
ENDBRANCH   1   2
BRANCH   1  18
ATOM     18  C   UNL A   1      43.441  18.902  26.184  1.00  0.00     0.116 C 
BRANCH  18  19
ATOM     19  N   UNL A   1      44.273  18.875  24.975  1.00  0.00    -0.352 N 
ATOM     20  C   UNL A   1      44.564  19.933  24.118  1.00  0.00     0.251 C 
ATOM     21  H   UNL A   1      44.672  18.005  24.743  1.00  0.00     0.163 HD
ATOM     22  O   UNL A   1      44.890  19.721  22.956  1.00  0.00    -0.269 OA
BRANCH  20  23
ATOM     23  C   UNL A   1      44.507  21.312  24.654  1.00  0.00     0.039 A 
ATOM     24  C   UNL A   1      43.640  22.307  24.190  1.00  0.00     0.014 A 
ATOM     25  C   UNL A   1      45.351  21.579  25.720  1.00  0.00     0.014 A 
ATOM     26  C   UNL A   1      43.656  23.558  24.826  1.00  0.00     0.010 A 
ATOM     27  C   UNL A   1      45.094  22.646  26.527  1.00  0.00     0.010 A 
ATOM     28  C   UNL A   1      44.414  23.724  25.998  1.00  0.00    -0.014 A 
BRANCH  28  29
ATOM     29  C   UNL A   1      44.364  24.898  26.872  1.00  0.00     0.031 A 
ATOM     30  C   UNL A   1      45.522  25.786  26.597  1.00  0.00     0.074 A 
ATOM     31  C   UNL A   1      43.272  25.246  27.608  1.00  0.00     0.049 A 
ATOM     32  N   UNL A   1      46.615  25.855  27.282  1.00  0.00    -0.248 NA
ATOM     33  C   UNL A   1      45.628  26.434  25.273  1.00  0.00     0.031 C 
ATOM     34  C   UNL A   1      41.986  24.541  27.728  1.00  0.00     0.029 A 
ATOM     35  N   UNL A   1      43.044  26.354  28.385  1.00  0.00    -0.354 N 
ATOM     36  C   UNL A   1      47.369  26.841  26.655  1.00  0.00     0.074 A 
ATOM     37  C   UNL A   1      46.879  26.899  25.310  1.00  0.00     0.031 C 
ATOM     38  C   UNL A   1      41.067  25.326  28.347  1.00  0.00     0.029 A 
ATOM     39  C   UNL A   1      41.711  26.545  28.808  1.00  0.00     0.049 A 
ATOM     40  H   UNL A   1      43.765  26.977  28.631  1.00  0.00     0.167 HD
ATOM     41  C   UNL A   1      48.032  27.764  27.407  1.00  0.00     0.034 A 
ATOM     42  C   UNL A   1      41.185  27.598  29.521  1.00  0.00     0.034 A 
ATOM     43  C   UNL A   1      48.087  27.325  28.788  1.00  0.00     0.049 A 
ATOM     44  C   UNL A   1      42.340  28.236  30.200  1.00  0.00     0.074 A 
ATOM     45  C   UNL A   1      48.607  26.230  29.449  1.00  0.00     0.029 A 
ATOM     46  N   UNL A   1      47.139  27.863  29.630  1.00  0.00    -0.354 N 
ATOM     47  N   UNL A   1      43.036  27.630  31.122  1.00  0.00    -0.248 NA
ATOM     48  C   UNL A   1      43.046  29.279  29.473  1.00  0.00     0.031 C 
ATOM     49  C   UNL A   1      47.638  25.906  30.446  1.00  0.00     0.029 A 
ATOM     50  C   UNL A   1      46.639  26.882  30.446  1.00  0.00     0.049 A 
ATOM     51  H   UNL A   1      46.863  28.808  29.643  1.00  0.00     0.167 HD
ATOM     52  C   UNL A   1      44.359  27.867  30.780  1.00  0.00     0.074 A 
ATOM     53  C   UNL A   1      44.302  28.958  29.802  1.00  0.00     0.031 C 
ATOM     54  C   UNL A   1      45.329  26.948  31.078  1.00  0.00     0.034 A 
BRANCH  41  55
ATOM     55  C   UNL A   1      48.186  29.233  27.043  1.00  0.00     0.023 A 
ATOM     56  C   UNL A   1      49.477  29.783  27.180  1.00  0.00     0.031 A 
ATOM     57  C   UNL A   1      47.144  30.173  26.866  1.00  0.00     0.131 A 
ATOM     58  C   UNL A   1      49.672  31.172  27.257  1.00  0.00     0.055 A 
ATOM     59  C   UNL A   1      47.352  31.556  26.885  1.00  0.00     0.041 A 
ATOM     60  F   UNL A   1      45.858  29.832  26.746  1.00  0.00    -0.206 F 
ATOM     61  C   UNL A   1      48.616  32.066  27.114  1.00  0.00     0.022 A 
BRANCH  58  62
ATOM     62  S   UNL A   1      51.311  31.785  27.721  1.00  0.00     0.124 S 
ATOM     63  O   UNL A   1      51.133  32.043  29.145  1.00  0.00    -0.237 OA
ATOM     64  O   UNL A   1      52.163  30.653  27.370  1.00  0.00    -0.237 OA
ATOM     65  O   UNL A   1      51.476  32.972  26.885  1.00  0.00    -0.744 OA
ENDBRANCH  58  62
ENDBRANCH  41  55
BRANCH  42  66
ATOM     66  C   UNL A   1      39.872  28.326  29.326  1.00  0.00     0.023 A 
ATOM     67  C   UNL A   1      39.049  28.857  30.365  1.00  0.00     0.031 A 
ATOM     68  C   UNL A   1      39.549  28.750  28.018  1.00  0.00     0.131 A 
ATOM     69  C   UNL A   1      37.973  29.749  30.062  1.00  0.00     0.055 A 
ATOM     70  C   UNL A   1      38.506  29.637  27.731  1.00  0.00     0.041 A 
ATOM     71  F   UNL A   1      40.304  28.380  26.972  1.00  0.00    -0.206 F 
ATOM     72  C   UNL A   1      37.717  30.144  28.749  1.00  0.00     0.022 A 
BRANCH  69  73
ATOM     73  S   UNL A   1      36.881  30.461  31.361  1.00  0.00     0.124 S 
ATOM     74  O   UNL A   1      35.773  31.003  30.585  1.00  0.00    -0.237 OA
ATOM     75  O   UNL A   1      36.586  29.306  32.199  1.00  0.00    -0.237 OA
ATOM     76  O   UNL A   1      37.722  31.476  32.001  1.00  0.00    -0.744 OA
ENDBRANCH  69  73
ENDBRANCH  42  66
BRANCH  54  77
ATOM     77  C   UNL A   1      44.982  25.839  32.063  1.00  0.00     0.023 A 
ATOM     78  C   UNL A   1      44.885  25.967  33.471  1.00  0.00     0.031 A 
ATOM     79  C   UNL A   1      44.646  24.597  31.499  1.00  0.00     0.131 A 
ATOM     80  C   UNL A   1      44.476  24.861  34.251  1.00  0.00     0.055 A 
ATOM     81  C   UNL A   1      44.214  23.520  32.269  1.00  0.00     0.041 A 
ATOM     82  F   UNL A   1      44.704  24.417  30.170  1.00  0.00    -0.206 F 
ATOM     83  C   UNL A   1      44.133  23.646  33.649  1.00  0.00     0.022 A 
BRANCH  80  84
ATOM     84  S   UNL A   1      44.420  24.956  36.074  1.00  0.00     0.124 S 
ATOM     85  O   UNL A   1      44.931  23.659  36.498  1.00  0.00    -0.237 OA
ATOM     86  O   UNL A   1      45.275  26.105  36.361  1.00  0.00    -0.237 OA
ATOM     87  O   UNL A   1      43.000  25.173  36.361  1.00  0.00    -0.744 OA
ENDBRANCH  80  84
ENDBRANCH  54  77
ENDBRANCH  28  29
ENDBRANCH  20  23
ENDBRANCH  18  19
ENDBRANCH   1  18
TORSDOF 16
ENDMDL
