MODEL 1
REMARK VINA RESULT:     -12.2      0.000      0.000
REMARK SMILES O=C(CCn1c(SCc2ccccn2)nc2ccccc2c1=O)NCCCCNC(=O)c1ccc(-c2c3nc(c(-c4cc(S(=O)(=O)[O-])ccc4F)c4ccc([nH]4)c(-c4cc(S(=O)(=O)[O-])ccc4F)c4nc(c(-c5cc(S(=O)(=O)[O-])ccc5F)c5ccc2[nH]5)C=C4)C=C3)cc1
REMARK SMILES IDX 25 1 24 2 1 3 2 4 3 6 4 7 5 8 6 9 22 10 15 11 21 12 23 13
REMARK SMILES IDX 16 14 20 15 17 16 19 17 18 18 7 19 8 20 9 21 10 22 14 23
REMARK SMILES IDX 11 24 13 25 12 26 26 27 27 28 28 29 29 30 30 31 31 33 32 34
REMARK SMILES IDX 33 35 94 36 34 37 93 38 35 39 36 40 37 41 87 42 38 43 92 44
REMARK SMILES IDX 86 45 88 46 39 47 91 48 85 49 84 50 40 52 72 53 52 54 71 55
REMARK SMILES IDX 53 56 56 57 70 58 89 59 54 60 55 61 69 63 90 64 57 65 41 66
REMARK SMILES IDX 42 67 50 68 43 69 49 70 51 71 48 72 44 73 45 74 46 75 47 76
REMARK SMILES IDX 73 77 74 78 82 79 75 80 81 81 83 82 80 83 76 84 77 85 78 86
REMARK SMILES IDX 79 87 58 88 59 89 67 90 60 91 66 92 68 93 65 94 61 95 62 96
REMARK SMILES IDX 63 97 64 98
REMARK H PARENT 24 5 29 32 88 51 56 62
REMARK Flexibility Score: inf
ROOT
ATOM      1  C   UNL A   1      31.628  26.277  26.483  1.00  0.00     0.116 C 
ENDROOT
BRANCH   1   2
ATOM      2  N   UNL A   1      32.164  24.982  26.857  1.00  0.00    -0.356 N 
ATOM      3  O   UNL A   1      30.132  24.044  26.999  1.00  0.00    -0.275 OA
ATOM      4  C   UNL A   1      31.337  23.892  26.857  1.00  0.00     0.221 C 
ATOM      5  H   UNL A   1      33.112  24.888  27.108  1.00  0.00     0.163 HD
BRANCH   4   6
ATOM      6  C   UNL A   1      31.977  22.557  26.510  1.00  0.00     0.122 C 
BRANCH   6   7
ATOM      7  C   UNL A   1      33.323  22.499  25.788  1.00  0.00     0.138 C 
BRANCH   7   8
ATOM      8  N   UNL A   1      33.377  21.529  24.730  1.00  0.00    -0.287 N 
ATOM      9  C   UNL A   1      32.529  21.517  23.640  1.00  0.00     0.171 A 
ATOM     10  C   UNL A   1      34.397  20.603  24.804  1.00  0.00     0.262 A 
ATOM     11  N   UNL A   1      32.240  20.398  23.034  1.00  0.00    -0.224 NA
ATOM     12  C   UNL A   1      34.065  19.294  24.258  1.00  0.00     0.066 A 
ATOM     13  O   UNL A   1      35.487  20.799  25.336  1.00  0.00    -0.269 OA
ATOM     14  C   UNL A   1      32.900  19.217  23.490  1.00  0.00     0.079 A 
ATOM     15  C   UNL A   1      34.830  18.181  24.628  1.00  0.00     0.016 A 
ATOM     16  C   UNL A   1      32.495  17.936  23.107  1.00  0.00     0.029 A 
ATOM     17  C   UNL A   1      34.412  16.920  24.237  1.00  0.00     0.001 A 
ATOM     18  C   UNL A   1      33.246  16.801  23.479  1.00  0.00     0.002 A 
BRANCH   9  19
ATOM     19  S   UNL A   1      32.236  23.063  22.831  1.00  0.00    -0.081 SA
BRANCH  19  20
ATOM     20  C   UNL A   1      30.653  23.857  23.238  1.00  0.00     0.134 C 
BRANCH  20  21
ATOM     21  C   UNL A   1      30.561  25.386  23.318  1.00  0.00     0.051 A 
ATOM     22  C   UNL A   1      31.628  26.177  22.874  1.00  0.00     0.025 A 
ATOM     23  N   UNL A   1      29.434  25.967  23.801  1.00  0.00    -0.260 NA
ATOM     24  C   UNL A   1      31.455  27.555  22.715  1.00  0.00     0.003 A 
ATOM     25  C   UNL A   1      29.300  27.312  23.669  1.00  0.00     0.111 A 
ATOM     26  C   UNL A   1      30.253  28.134  23.094  1.00  0.00     0.020 A 
ENDBRANCH  20  21
ENDBRANCH  19  20
ENDBRANCH   9  19
ENDBRANCH   7   8
ENDBRANCH   6   7
ENDBRANCH   4   6
ENDBRANCH   1   2
BRANCH   1  27
ATOM     27  C   UNL A   1      32.582  27.478  26.515  1.00  0.00     0.023 C 
BRANCH  27  28
ATOM     28  C   UNL A   1      31.932  28.848  26.679  1.00  0.00     0.023 C 
BRANCH  28  29
ATOM     29  C   UNL A   1      32.655  29.979  25.969  1.00  0.00     0.116 C 
BRANCH  29  30
ATOM     30  N   UNL A   1      32.297  31.304  26.466  1.00  0.00    -0.352 N 
ATOM     31  C   UNL A   1      33.056  32.140  27.250  1.00  0.00     0.251 C 
ATOM     32  H   UNL A   1      31.407  31.638  26.210  1.00  0.00     0.163 HD
ATOM     33  O   UNL A   1      32.613  33.215  27.640  1.00  0.00    -0.269 OA
BRANCH  31  34
ATOM     34  C   UNL A   1      34.396  31.675  27.652  1.00  0.00     0.039 A 
ATOM     35  C   UNL A   1      34.605  30.322  27.908  1.00  0.00     0.014 A 
ATOM     36  C   UNL A   1      35.395  32.613  27.917  1.00  0.00     0.014 A 
ATOM     37  C   UNL A   1      35.738  29.936  28.608  1.00  0.00     0.010 A 
ATOM     38  C   UNL A   1      36.576  32.199  28.543  1.00  0.00     0.010 A 
ATOM     39  C   UNL A   1      36.732  30.867  28.959  1.00  0.00    -0.014 A 
BRANCH  39  40
ATOM     40  C   UNL A   1      37.896  30.435  29.789  1.00  0.00     0.031 A 
ATOM     41  C   UNL A   1      38.932  29.480  29.243  1.00  0.00     0.074 A 
ATOM     42  C   UNL A   1      38.062  30.951  31.025  1.00  0.00     0.049 A 
ATOM     43  N   UNL A   1      39.968  28.957  29.850  1.00  0.00    -0.248 NA
ATOM     44  C   UNL A   1      38.792  29.052  27.841  1.00  0.00     0.031 C 
ATOM     45  C   UNL A   1      37.150  31.899  31.664  1.00  0.00     0.029 A 
ATOM     46  N   UNL A   1      39.057  30.771  31.956  1.00  0.00    -0.354 N 
ATOM     47  C   UNL A   1      40.577  28.115  28.924  1.00  0.00     0.074 A 
ATOM     48  C   UNL A   1      39.783  28.179  27.717  1.00  0.00     0.031 C 
ATOM     49  C   UNL A   1      37.653  32.263  32.850  1.00  0.00     0.029 A 
ATOM     50  C   UNL A   1      38.863  31.490  33.113  1.00  0.00     0.049 A 
ATOM     51  H   UNL A   1      39.833  30.184  31.808  1.00  0.00     0.167 HD
ATOM     52  C   UNL A   1      41.700  27.369  29.063  1.00  0.00     0.034 A 
ATOM     53  C   UNL A   1      39.545  31.503  34.278  1.00  0.00     0.034 A 
ATOM     54  C   UNL A   1      42.515  27.351  30.253  1.00  0.00     0.049 A 
ATOM     55  C   UNL A   1      40.775  30.646  34.415  1.00  0.00     0.074 A 
ATOM     56  C   UNL A   1      43.684  26.641  30.472  1.00  0.00     0.029 A 
ATOM     57  N   UNL A   1      42.273  28.080  31.406  1.00  0.00    -0.354 N 
ATOM     58  N   UNL A   1      41.334  29.862  33.524  1.00  0.00    -0.248 NA
ATOM     59  C   UNL A   1      41.471  30.670  35.710  1.00  0.00     0.031 C 
ATOM     60  C   UNL A   1      44.112  26.890  31.774  1.00  0.00     0.029 A 
ATOM     61  C   UNL A   1      43.258  27.819  32.345  1.00  0.00     0.049 A 
ATOM     62  H   UNL A   1      41.514  28.693  31.539  1.00  0.00     0.167 HD
ATOM     63  C   UNL A   1      42.452  29.311  34.146  1.00  0.00     0.074 A 
ATOM     64  C   UNL A   1      42.511  29.881  35.474  1.00  0.00     0.031 C 
ATOM     65  C   UNL A   1      43.336  28.405  33.661  1.00  0.00     0.034 A 
BRANCH  52  66
ATOM     66  C   UNL A   1      42.164  26.511  27.911  1.00  0.00     0.023 A 
ATOM     67  C   UNL A   1      41.838  25.140  27.885  1.00  0.00     0.031 A 
ATOM     68  C   UNL A   1      43.075  26.994  26.956  1.00  0.00     0.131 A 
ATOM     69  C   UNL A   1      42.465  24.291  26.965  1.00  0.00     0.055 A 
ATOM     70  C   UNL A   1      43.662  26.151  26.011  1.00  0.00     0.041 A 
ATOM     71  F   UNL A   1      43.418  28.292  26.940  1.00  0.00    -0.206 F 
ATOM     72  C   UNL A   1      43.371  24.789  26.024  1.00  0.00     0.022 A 
BRANCH  69  73
ATOM     73  S   UNL A   1      42.197  22.496  27.011  1.00  0.00     0.124 S 
ATOM     74  O   UNL A   1      43.485  21.987  26.547  1.00  0.00    -0.237 OA
ATOM     75  O   UNL A   1      41.908  22.267  28.424  1.00  0.00    -0.237 OA
ATOM     76  O   UNL A   1      41.081  22.285  26.095  1.00  0.00    -0.744 OA
ENDBRANCH  69  73
ENDBRANCH  52  66
BRANCH  53  77
ATOM     77  C   UNL A   1      39.054  32.364  35.395  1.00  0.00     0.023 A 
ATOM     78  C   UNL A   1      39.504  33.692  35.525  1.00  0.00     0.031 A 
ATOM     79  C   UNL A   1      38.224  31.849  36.403  1.00  0.00     0.131 A 
ATOM     80  C   UNL A   1      39.199  34.424  36.677  1.00  0.00     0.055 A 
ATOM     81  C   UNL A   1      37.846  32.616  37.508  1.00  0.00     0.041 A 
ATOM     82  F   UNL A   1      37.779  30.585  36.334  1.00  0.00    -0.206 F 
ATOM     83  C   UNL A   1      38.353  33.903  37.660  1.00  0.00     0.022 A 
BRANCH  80  84
ATOM     84  S   UNL A   1      40.030  36.002  37.016  1.00  0.00     0.124 S 
ATOM     85  O   UNL A   1      39.275  36.504  38.159  1.00  0.00    -0.237 OA
ATOM     86  O   UNL A   1      41.395  35.565  37.302  1.00  0.00    -0.237 OA
ATOM     87  O   UNL A   1      39.871  36.748  35.772  1.00  0.00    -0.744 OA
ENDBRANCH  80  84
ENDBRANCH  53  77
BRANCH  65  88
ATOM     88  C   UNL A   1      44.475  27.954  34.543  1.00  0.00     0.023 A 
ATOM     89  C   UNL A   1      44.241  27.022  35.573  1.00  0.00     0.031 A 
ATOM     90  C   UNL A   1      45.740  28.561  34.473  1.00  0.00     0.131 A 
ATOM     91  C   UNL A   1      45.239  26.762  36.520  1.00  0.00     0.055 A 
ATOM     92  C   UNL A   1      46.750  28.260  35.388  1.00  0.00     0.041 A 
ATOM     93  F   UNL A   1      46.011  29.465  33.517  1.00  0.00    -0.206 F 
ATOM     94  C   UNL A   1      46.495  27.368  36.428  1.00  0.00     0.022 A 
BRANCH  91  95
ATOM     95  S   UNL A   1      44.915  25.703  37.958  1.00  0.00     0.124 S 
ATOM     96  O   UNL A   1      43.712  26.316  38.518  1.00  0.00    -0.237 OA
ATOM     97  O   UNL A   1      44.717  24.396  37.338  1.00  0.00    -0.237 OA
ATOM     98  O   UNL A   1      46.117  25.838  38.774  1.00  0.00    -0.744 OA
ENDBRANCH  91  95
ENDBRANCH  65  88
ENDBRANCH  39  40
ENDBRANCH  31  34
ENDBRANCH  29  30
ENDBRANCH  28  29
ENDBRANCH  27  28
ENDBRANCH   1  27
TORSDOF 19
ENDMDL
MODEL 2
REMARK VINA RESULT:     -12.0      2.630      8.670
REMARK SMILES O=C(CCn1c(SCc2ccccn2)nc2ccccc2c1=O)NCCCCNC(=O)c1ccc(-c2c3nc(c(-c4cc(S(=O)(=O)[O-])ccc4F)c4ccc([nH]4)c(-c4cc(S(=O)(=O)[O-])ccc4F)c4nc(c(-c5cc(S(=O)(=O)[O-])ccc5F)c5ccc2[nH]5)C=C4)C=C3)cc1
REMARK SMILES IDX 25 1 24 2 1 3 2 4 3 6 4 7 5 8 6 9 22 10 15 11 21 12 23 13
REMARK SMILES IDX 16 14 20 15 17 16 19 17 18 18 7 19 8 20 9 21 10 22 14 23
REMARK SMILES IDX 11 24 13 25 12 26 26 27 27 28 28 29 29 30 30 31 31 33 32 34
REMARK SMILES IDX 33 35 94 36 34 37 93 38 35 39 36 40 37 41 87 42 38 43 92 44
REMARK SMILES IDX 86 45 88 46 39 47 91 48 85 49 84 50 40 52 72 53 52 54 71 55
REMARK SMILES IDX 53 56 56 57 70 58 89 59 54 60 55 61 69 63 90 64 57 65 41 66
REMARK SMILES IDX 42 67 50 68 43 69 49 70 51 71 48 72 44 73 45 74 46 75 47 76
REMARK SMILES IDX 73 77 74 78 82 79 75 80 81 81 83 82 80 83 76 84 77 85 78 86
REMARK SMILES IDX 79 87 58 88 59 89 67 90 60 91 66 92 68 93 65 94 61 95 62 96
REMARK SMILES IDX 63 97 64 98
REMARK H PARENT 24 5 29 32 88 51 56 62
REMARK Flexibility Score: inf
ROOT
ATOM      1  C   UNL A   1      31.953  29.825  26.965  1.00  0.00     0.116 C 
ENDROOT
BRANCH   1   2
ATOM      2  N   UNL A   1      32.483  28.593  26.414  1.00  0.00    -0.356 N 
ATOM      3  O   UNL A   1      30.955  27.324  27.454  1.00  0.00    -0.275 OA
ATOM      4  C   UNL A   1      31.760  27.439  26.541  1.00  0.00     0.221 C 
ATOM      5  H   UNL A   1      33.354  28.587  25.954  1.00  0.00     0.163 HD
BRANCH   4   6
ATOM      6  C   UNL A   1      31.899  26.425  25.416  1.00  0.00     0.122 C 
BRANCH   6   7
ATOM      7  C   UNL A   1      30.667  25.908  24.671  1.00  0.00     0.138 C 
BRANCH   7   8
ATOM      8  N   UNL A   1      30.251  26.743  23.580  1.00  0.00    -0.287 N 
ATOM      9  C   UNL A   1      31.050  27.075  22.503  1.00  0.00     0.171 A 
ATOM     10  C   UNL A   1      28.939  27.172  23.606  1.00  0.00     0.262 A 
ATOM     11  N   UNL A   1      30.872  28.198  21.864  1.00  0.00    -0.224 NA
ATOM     12  C   UNL A   1      28.722  28.487  23.021  1.00  0.00     0.066 A 
ATOM     13  O   UNL A   1      28.011  26.559  24.128  1.00  0.00    -0.269 OA
ATOM     14  C   UNL A   1      29.774  29.015  22.268  1.00  0.00     0.079 A 
ATOM     15  C   UNL A   1      27.558  29.198  23.341  1.00  0.00     0.016 A 
ATOM     16  C   UNL A   1      29.630  30.339  21.848  1.00  0.00     0.029 A 
ATOM     17  C   UNL A   1      27.434  30.508  22.912  1.00  0.00     0.001 A 
ATOM     18  C   UNL A   1      28.470  31.076  22.168  1.00  0.00     0.002 A 
BRANCH   9  19
ATOM     19  S   UNL A   1      31.973  25.764  21.752  1.00  0.00    -0.081 SA
BRANCH  19  20
ATOM     20  C   UNL A   1      33.605  25.453  22.488  1.00  0.00     0.134 C 
BRANCH  20  21
ATOM     21  C   UNL A   1      33.827  24.213  23.362  1.00  0.00     0.051 A 
ATOM     22  C   UNL A   1      33.016  23.083  23.197  1.00  0.00     0.025 A 
ATOM     23  N   UNL A   1      34.826  24.209  24.281  1.00  0.00    -0.260 NA
ATOM     24  C   UNL A   1      33.368  21.877  23.809  1.00  0.00     0.003 A 
ATOM     25  C   UNL A   1      35.130  23.034  24.892  1.00  0.00     0.111 A 
ATOM     26  C   UNL A   1      34.467  21.843  24.655  1.00  0.00     0.020 A 
ENDBRANCH  20  21
ENDBRANCH  19  20
ENDBRANCH   9  19
ENDBRANCH   7   8
ENDBRANCH   6   7
ENDBRANCH   4   6
ENDBRANCH   1   2
BRANCH   1  27
ATOM     27  C   UNL A   1      31.251  30.792  26.002  1.00  0.00     0.023 C 
BRANCH  27  28
ATOM     28  C   UNL A   1      31.171  32.248  26.451  1.00  0.00     0.023 C 
BRANCH  28  29
ATOM     29  C   UNL A   1      32.515  32.893  26.739  1.00  0.00     0.116 C 
BRANCH  29  30
ATOM     30  N   UNL A   1      32.427  34.054  27.620  1.00  0.00    -0.352 N 
ATOM     31  C   UNL A   1      33.312  34.431  28.603  1.00  0.00     0.251 C 
ATOM     32  H   UNL A   1      31.643  34.636  27.495  1.00  0.00     0.163 HD
ATOM     33  O   UNL A   1      33.092  35.410  29.308  1.00  0.00    -0.269 OA
BRANCH  31  34
ATOM     34  C   UNL A   1      34.500  33.584  28.818  1.00  0.00     0.039 A 
ATOM     35  C   UNL A   1      34.340  32.283  29.288  1.00  0.00     0.014 A 
ATOM     36  C   UNL A   1      35.771  34.146  28.693  1.00  0.00     0.014 A 
ATOM     37  C   UNL A   1      35.437  31.617  29.814  1.00  0.00     0.010 A 
ATOM     38  C   UNL A   1      36.885  33.430  29.144  1.00  0.00     0.010 A 
ATOM     39  C   UNL A   1      36.723  32.185  29.774  1.00  0.00    -0.014 A 
BRANCH  39  40
ATOM     40  C   UNL A   1      37.867  31.482  30.428  1.00  0.00     0.031 A 
ATOM     41  C   UNL A   1      38.211  31.730  31.878  1.00  0.00     0.074 A 
ATOM     42  C   UNL A   1      38.569  30.563  29.733  1.00  0.00     0.049 A 
ATOM     43  N   UNL A   1      39.206  31.249  32.581  1.00  0.00    -0.248 NA
ATOM     44  C   UNL A   1      37.331  32.632  32.642  1.00  0.00     0.031 C 
ATOM     45  C   UNL A   1      38.329  30.210  28.333  1.00  0.00     0.029 A 
ATOM     46  N   UNL A   1      39.610  29.745  30.105  1.00  0.00    -0.354 N 
ATOM     47  C   UNL A   1      39.097  31.815  33.847  1.00  0.00     0.074 A 
ATOM     48  C   UNL A   1      37.950  32.694  33.814  1.00  0.00     0.031 C 
ATOM     49  C   UNL A   1      39.150  29.213  27.982  1.00  0.00     0.029 A 
ATOM     50  C   UNL A   1      40.058  28.930  29.090  1.00  0.00     0.049 A 
ATOM     51  H   UNL A   1      39.997  29.744  31.009  1.00  0.00     0.167 HD
ATOM     52  C   UNL A   1      39.873  31.611  34.939  1.00  0.00     0.034 A 
ATOM     53  C   UNL A   1      41.105  28.081  29.028  1.00  0.00     0.034 A 
ATOM     54  C   UNL A   1      40.986  30.694  34.979  1.00  0.00     0.049 A 
ATOM     55  C   UNL A   1      41.967  27.891  30.247  1.00  0.00     0.074 A 
ATOM     56  C   UNL A   1      41.814  30.408  36.052  1.00  0.00     0.029 A 
ATOM     57  N   UNL A   1      41.415  29.902  33.926  1.00  0.00    -0.354 N 
ATOM     58  N   UNL A   1      41.842  28.434  31.435  1.00  0.00    -0.248 NA
ATOM     59  C   UNL A   1      43.112  26.977  30.126  1.00  0.00     0.031 C 
ATOM     60  C   UNL A   1      42.779  29.494  35.631  1.00  0.00     0.029 A 
ATOM     61  C   UNL A   1      42.508  29.145  34.319  1.00  0.00     0.049 A 
ATOM     62  H   UNL A   1      41.004  29.879  33.031  1.00  0.00     0.167 HD
ATOM     63  C   UNL A   1      42.882  27.918  32.203  1.00  0.00     0.074 A 
ATOM     64  C   UNL A   1      43.603  26.992  31.358  1.00  0.00     0.031 C 
ATOM     65  C   UNL A   1      43.213  28.201  33.487  1.00  0.00     0.034 A 
BRANCH  52  66
ATOM     66  C   UNL A   1      39.567  32.360  36.214  1.00  0.00     0.023 A 
ATOM     67  C   UNL A   1      38.645  31.825  37.135  1.00  0.00     0.031 A 
ATOM     68  C   UNL A   1      40.030  33.671  36.424  1.00  0.00     0.131 A 
ATOM     69  C   UNL A   1      38.170  32.617  38.187  1.00  0.00     0.055 A 
ATOM     70  C   UNL A   1      39.589  34.440  37.501  1.00  0.00     0.041 A 
ATOM     71  F   UNL A   1      40.909  34.226  35.574  1.00  0.00    -0.206 F 
ATOM     72  C   UNL A   1      38.640  33.920  38.379  1.00  0.00     0.022 A 
BRANCH  69  73
ATOM     73  S   UNL A   1      36.860  32.020  39.293  1.00  0.00     0.124 S 
ATOM     74  O   UNL A   1      35.716  32.820  38.863  1.00  0.00    -0.237 OA
ATOM     75  O   UNL A   1      36.795  30.603  38.951  1.00  0.00    -0.237 OA
ATOM     76  O   UNL A   1      37.363  32.326  40.628  1.00  0.00    -0.744 OA
ENDBRANCH  69  73
ENDBRANCH  52  66
BRANCH  53  77
ATOM     77  C   UNL A   1      41.377  27.359  27.748  1.00  0.00     0.023 A 
ATOM     78  C   UNL A   1      41.160  25.971  27.650  1.00  0.00     0.031 A 
ATOM     79  C   UNL A   1      41.956  28.013  26.650  1.00  0.00     0.131 A 
ATOM     80  C   UNL A   1      41.601  25.272  26.522  1.00  0.00     0.055 A 
ATOM     81  C   UNL A   1      42.312  27.325  25.488  1.00  0.00     0.041 A 
ATOM     82  F   UNL A   1      42.197  29.333  26.698  1.00  0.00    -0.206 F 
ATOM     83  C   UNL A   1      42.156  25.943  25.429  1.00  0.00     0.022 A 
BRANCH  80  84
ATOM     84  S   UNL A   1      41.631  23.457  26.514  1.00  0.00     0.124 S 
ATOM     85  O   UNL A   1      40.225  23.131  26.300  1.00  0.00    -0.237 OA
ATOM     86  O   UNL A   1      42.523  23.178  25.391  1.00  0.00    -0.237 OA
ATOM     87  O   UNL A   1      42.169  23.117  27.827  1.00  0.00    -0.744 OA
ENDBRANCH  80  84
ENDBRANCH  53  77
BRANCH  65  88
ATOM     88  C   UNL A   1      44.404  27.506  34.103  1.00  0.00     0.023 A 
ATOM     89  C   UNL A   1      45.694  28.053  33.950  1.00  0.00     0.031 A 
ATOM     90  C   UNL A   1      44.288  26.235  34.691  1.00  0.00     0.131 A 
ATOM     91  C   UNL A   1      46.817  27.309  34.334  1.00  0.00     0.055 A 
ATOM     92  C   UNL A   1      45.406  25.520  35.120  1.00  0.00     0.041 A 
ATOM     93  F   UNL A   1      43.082  25.665  34.848  1.00  0.00    -0.206 F 
ATOM     94  C   UNL A   1      46.680  26.050  34.927  1.00  0.00     0.022 A 
BRANCH  91  95
ATOM     95  S   UNL A   1      48.496  27.905  33.992  1.00  0.00     0.124 S 
ATOM     96  O   UNL A   1      49.279  26.675  34.096  1.00  0.00    -0.237 OA
ATOM     97  O   UNL A   1      48.361  28.445  32.642  1.00  0.00    -0.237 OA
ATOM     98  O   UNL A   1      48.743  28.888  35.042  1.00  0.00    -0.744 OA
ENDBRANCH  91  95
ENDBRANCH  65  88
ENDBRANCH  39  40
ENDBRANCH  31  34
ENDBRANCH  29  30
ENDBRANCH  28  29
ENDBRANCH  27  28
ENDBRANCH   1  27
TORSDOF 19
ENDMDL
MODEL 3
REMARK VINA RESULT:     -11.8      4.868      7.963
REMARK SMILES O=C(CCn1c(SCc2ccccn2)nc2ccccc2c1=O)NCCCCNC(=O)c1ccc(-c2c3nc(c(-c4cc(S(=O)(=O)[O-])ccc4F)c4ccc([nH]4)c(-c4cc(S(=O)(=O)[O-])ccc4F)c4nc(c(-c5cc(S(=O)(=O)[O-])ccc5F)c5ccc2[nH]5)C=C4)C=C3)cc1
REMARK SMILES IDX 25 1 24 2 1 3 2 4 3 6 4 7 5 8 6 9 22 10 15 11 21 12 23 13
REMARK SMILES IDX 16 14 20 15 17 16 19 17 18 18 7 19 8 20 9 21 10 22 14 23
REMARK SMILES IDX 11 24 13 25 12 26 26 27 27 28 28 29 29 30 30 31 31 33 32 34
REMARK SMILES IDX 33 35 94 36 34 37 93 38 35 39 36 40 37 41 87 42 38 43 92 44
REMARK SMILES IDX 86 45 88 46 39 47 91 48 85 49 84 50 40 52 72 53 52 54 71 55
REMARK SMILES IDX 53 56 56 57 70 58 89 59 54 60 55 61 69 63 90 64 57 65 41 66
REMARK SMILES IDX 42 67 50 68 43 69 49 70 51 71 48 72 44 73 45 74 46 75 47 76
REMARK SMILES IDX 73 77 74 78 82 79 75 80 81 81 83 82 80 83 76 84 77 85 78 86
REMARK SMILES IDX 79 87 58 88 59 89 67 90 60 91 66 92 68 93 65 94 61 95 62 96
REMARK SMILES IDX 63 97 64 98
REMARK H PARENT 24 5 29 32 88 51 56 62
REMARK Flexibility Score: inf
ROOT
ATOM      1  C   UNL A   1      34.434  23.397  26.204  1.00  0.00     0.116 C 
ENDROOT
BRANCH   1   2
ATOM      2  N   UNL A   1      33.254  23.367  25.360  1.00  0.00    -0.356 N 
ATOM      3  O   UNL A   1      31.853  23.538  27.103  1.00  0.00    -0.275 OA
ATOM      4  C   UNL A   1      32.038  23.681  25.902  1.00  0.00     0.221 C 
ATOM      5  H   UNL A   1      33.328  23.122  24.409  1.00  0.00     0.163 HD
BRANCH   4   6
ATOM      6  C   UNL A   1      31.037  24.352  24.975  1.00  0.00     0.122 C 
BRANCH   6   7
ATOM      7  C   UNL A   1      30.254  25.584  25.429  1.00  0.00     0.138 C 
BRANCH   7   8
ATOM      8  N   UNL A   1      30.980  26.816  25.303  1.00  0.00    -0.287 N 
ATOM      9  C   UNL A   1      31.353  27.382  24.099  1.00  0.00     0.171 A 
ATOM     10  C   UNL A   1      31.249  27.488  26.478  1.00  0.00     0.262 A 
ATOM     11  N   UNL A   1      32.414  28.136  24.018  1.00  0.00    -0.224 NA
ATOM     12  C   UNL A   1      32.499  28.234  26.474  1.00  0.00     0.066 A 
ATOM     13  O   UNL A   1      30.556  27.436  27.491  1.00  0.00    -0.269 OA
ATOM     14  C   UNL A   1      33.113  28.415  25.232  1.00  0.00     0.079 A 
ATOM     15  C   UNL A   1      33.081  28.608  27.692  1.00  0.00     0.016 A 
ATOM     16  C   UNL A   1      34.389  28.983  25.248  1.00  0.00     0.029 A 
ATOM     17  C   UNL A   1      34.345  29.172  27.687  1.00  0.00     0.001 A 
ATOM     18  C   UNL A   1      34.997  29.357  26.465  1.00  0.00     0.002 A 
BRANCH   9  19
ATOM     19  S   UNL A   1      30.127  27.439  22.824  1.00  0.00    -0.081 SA
BRANCH  19  20
ATOM     20  C   UNL A   1      28.611  28.343  23.253  1.00  0.00     0.134 C 
BRANCH  20  21
ATOM     21  C   UNL A   1      28.372  29.750  22.692  1.00  0.00     0.051 A 
ATOM     22  C   UNL A   1      28.387  30.859  23.548  1.00  0.00     0.025 A 
ATOM     23  N   UNL A   1      28.168  29.917  21.360  1.00  0.00    -0.260 NA
ATOM     24  C   UNL A   1      28.418  32.151  23.014  1.00  0.00     0.003 A 
ATOM     25  C   UNL A   1      28.166  31.182  20.867  1.00  0.00     0.111 A 
ATOM     26  C   UNL A   1      28.334  32.317  21.640  1.00  0.00     0.020 A 
ENDBRANCH  20  21
ENDBRANCH  19  20
ENDBRANCH   9  19
ENDBRANCH   7   8
ENDBRANCH   6   7
ENDBRANCH   4   6
ENDBRANCH   1   2
BRANCH   1  27
ATOM     27  C   UNL A   1      35.149  22.067  26.476  1.00  0.00     0.023 C 
BRANCH  27  28
ATOM     28  C   UNL A   1      35.784  21.385  25.268  1.00  0.00     0.023 C 
BRANCH  28  29
ATOM     29  C   UNL A   1      37.228  21.775  25.011  1.00  0.00     0.116 C 
BRANCH  29  30
ATOM     30  N   UNL A   1      38.176  20.691  25.248  1.00  0.00    -0.352 N 
ATOM     31  C   UNL A   1      39.329  20.731  25.997  1.00  0.00     0.251 C 
ATOM     32  H   UNL A   1      37.966  19.828  24.822  1.00  0.00     0.163 HD
ATOM     33  O   UNL A   1      40.065  19.754  26.076  1.00  0.00    -0.269 OA
BRANCH  31  34
ATOM     34  C   UNL A   1      39.676  22.006  26.652  1.00  0.00     0.039 A 
ATOM     35  C   UNL A   1      39.050  23.181  26.244  1.00  0.00     0.014 A 
ATOM     36  C   UNL A   1      40.732  22.040  27.563  1.00  0.00     0.014 A 
ATOM     37  C   UNL A   1      39.608  24.400  26.598  1.00  0.00     0.010 A 
ATOM     38  C   UNL A   1      41.232  23.276  27.987  1.00  0.00     0.010 A 
ATOM     39  C   UNL A   1      40.722  24.471  27.455  1.00  0.00    -0.014 A 
BRANCH  39  40
ATOM     40  C   UNL A   1      41.352  25.794  27.746  1.00  0.00     0.031 A 
ATOM     41  C   UNL A   1      42.723  26.140  27.213  1.00  0.00     0.074 A 
ATOM     42  C   UNL A   1      40.664  26.720  28.445  1.00  0.00     0.049 A 
ATOM     43  N   UNL A   1      43.438  27.216  27.423  1.00  0.00    -0.248 NA
ATOM     44  C   UNL A   1      43.380  25.157  26.335  1.00  0.00     0.031 C 
ATOM     45  C   UNL A   1      39.324  26.525  28.999  1.00  0.00     0.029 A 
ATOM     46  N   UNL A   1      40.980  28.011  28.795  1.00  0.00    -0.354 N 
ATOM     47  C   UNL A   1      44.636  27.026  26.740  1.00  0.00     0.074 A 
ATOM     48  C   UNL A   1      44.562  25.720  26.125  1.00  0.00     0.031 C 
ATOM     49  C   UNL A   1      38.909  27.666  29.562  1.00  0.00     0.029 A 
ATOM     50  C   UNL A   1      39.993  28.642  29.518  1.00  0.00     0.049 A 
ATOM     51  H   UNL A   1      41.831  28.442  28.551  1.00  0.00     0.167 HD
ATOM     52  C   UNL A   1      45.692  27.867  26.627  1.00  0.00     0.034 A 
ATOM     53  C   UNL A   1      39.966  29.849  30.121  1.00  0.00     0.034 A 
ATOM     54  C   UNL A   1      45.737  29.190  27.201  1.00  0.00     0.049 A 
ATOM     55  C   UNL A   1      41.163  30.755  30.001  1.00  0.00     0.074 A 
ATOM     56  C   UNL A   1      46.760  30.120  27.116  1.00  0.00     0.029 A 
ATOM     57  N   UNL A   1      44.724  29.782  27.939  1.00  0.00    -0.354 N 
ATOM     58  N   UNL A   1      42.282  30.555  29.347  1.00  0.00    -0.248 NA
ATOM     59  C   UNL A   1      41.101  32.048  30.697  1.00  0.00     0.031 C 
ATOM     60  C   UNL A   1      46.394  31.245  27.852  1.00  0.00     0.029 A 
ATOM     61  C   UNL A   1      45.109  31.054  28.332  1.00  0.00     0.049 A 
ATOM     62  H   UNL A   1      43.860  29.362  28.152  1.00  0.00     0.167 HD
ATOM     63  C   UNL A   1      43.049  31.701  29.542  1.00  0.00     0.074 A 
ATOM     64  C   UNL A   1      42.252  32.604  30.342  1.00  0.00     0.031 C 
ATOM     65  C   UNL A   1      44.306  31.968  29.107  1.00  0.00     0.034 A 
BRANCH  52  66
ATOM     66  C   UNL A   1      46.904  27.430  25.839  1.00  0.00     0.023 A 
ATOM     67  C   UNL A   1      47.074  27.876  24.513  1.00  0.00     0.031 A 
ATOM     68  C   UNL A   1      47.773  26.436  26.321  1.00  0.00     0.131 A 
ATOM     69  C   UNL A   1      48.048  27.287  23.698  1.00  0.00     0.055 A 
ATOM     70  C   UNL A   1      48.773  25.885  25.519  1.00  0.00     0.041 A 
ATOM     71  F   UNL A   1      47.650  25.977  27.577  1.00  0.00    -0.206 F 
ATOM     72  C   UNL A   1      48.903  26.298  24.195  1.00  0.00     0.022 A 
BRANCH  69  73
ATOM     73  S   UNL A   1      48.187  27.718  21.940  1.00  0.00     0.124 S 
ATOM     74  O   UNL A   1      46.907  28.376  21.690  1.00  0.00    -0.237 OA
ATOM     75  O   UNL A   1      49.352  28.597  21.933  1.00  0.00    -0.237 OA
ATOM     76  O   UNL A   1      48.362  26.431  21.277  1.00  0.00    -0.744 OA
ENDBRANCH  69  73
ENDBRANCH  52  66
BRANCH  53  77
ATOM     77  C   UNL A   1      38.751  30.246  30.893  1.00  0.00     0.023 A 
ATOM     78  C   UNL A   1      37.734  31.007  30.285  1.00  0.00     0.031 A 
ATOM     79  C   UNL A   1      38.635  29.971  32.265  1.00  0.00     0.131 A 
ATOM     80  C   UNL A   1      36.700  31.541  31.061  1.00  0.00     0.055 A 
ATOM     81  C   UNL A   1      37.552  30.430  33.018  1.00  0.00     0.041 A 
ATOM     82  F   UNL A   1      39.583  29.262  32.896  1.00  0.00    -0.206 F 
ATOM     83  C   UNL A   1      36.589  31.239  32.421  1.00  0.00     0.022 A 
BRANCH  80  84
ATOM     84  S   UNL A   1      35.573  32.784  30.368  1.00  0.00     0.124 S 
ATOM     85  O   UNL A   1      35.577  32.441  28.950  1.00  0.00    -0.237 OA
ATOM     86  O   UNL A   1      34.333  32.496  31.085  1.00  0.00    -0.237 OA
ATOM     87  O   UNL A   1      36.205  34.052  30.716  1.00  0.00    -0.744 OA
ENDBRANCH  80  84
ENDBRANCH  53  77
BRANCH  65  88
ATOM     88  C   UNL A   1      44.932  33.296  29.459  1.00  0.00     0.023 A 
ATOM     89  C   UNL A   1      44.715  34.417  28.633  1.00  0.00     0.031 A 
ATOM     90  C   UNL A   1      45.865  33.412  30.503  1.00  0.00     0.131 A 
ATOM     91  C   UNL A   1      45.457  35.588  28.836  1.00  0.00     0.055 A 
ATOM     92  C   UNL A   1      46.564  34.598  30.734  1.00  0.00     0.041 A 
ATOM     93  F   UNL A   1      46.117  32.369  31.311  1.00  0.00    -0.206 F 
ATOM     94  C   UNL A   1      46.374  35.687  29.887  1.00  0.00     0.022 A 
BRANCH  91  95
ATOM     95  S   UNL A   1      45.332  36.987  27.688  1.00  0.00     0.124 S 
ATOM     96  O   UNL A   1      44.095  36.681  26.972  1.00  0.00    -0.237 OA
ATOM     97  O   UNL A   1      45.259  38.126  28.599  1.00  0.00    -0.237 OA
ATOM     98  O   UNL A   1      46.549  36.898  26.889  1.00  0.00    -0.744 OA
ENDBRANCH  91  95
ENDBRANCH  65  88
ENDBRANCH  39  40
ENDBRANCH  31  34
ENDBRANCH  29  30
ENDBRANCH  28  29
ENDBRANCH  27  28
ENDBRANCH   1  27
TORSDOF 19
ENDMDL
