MODEL 1
REMARK VINA RESULT:     -12.4      0.000      0.000
REMARK SMILES O=C(NCCCCNC(=O)[C@@H]1[C@H](C(=O)Nc2ccccc2OC(F)F)[C@@H]2C=C[C@H]1C2)c1ccc(-c2c3nc(c(-c4cc(S(=O)(=O)[O-])ccc4F)c4ccc([nH]4)c(-c4cc(S(=O)(=O)[O-])ccc4F)c4nc(c(-c5cc(S(=O)(=O)[O-])ccc5F)c5ccc2[nH]5)C=C4)C=C3)cc1
REMARK SMILES IDX 6 1 5 2 4 3 3 4 1 5 2 6 31 8 32 9 93 10 33 11 92 12 34 13
REMARK SMILES IDX 35 14 36 15 86 16 37 17 91 18 85 19 87 20 38 21 90 22 84 23
REMARK SMILES IDX 83 24 39 26 71 27 51 28 70 29 52 30 55 31 69 32 88 33 53 34
REMARK SMILES IDX 54 35 68 37 89 38 56 39 40 40 41 41 49 42 42 43 48 44 50 45
REMARK SMILES IDX 47 46 43 47 44 48 45 49 46 50 72 51 73 52 81 53 74 54 80 55
REMARK SMILES IDX 82 56 79 57 75 58 76 59 77 60 78 61 57 62 58 63 66 64 59 65
REMARK SMILES IDX 65 66 67 67 64 68 60 69 61 70 62 71 63 72 7 73 8 74 9 75
REMARK SMILES IDX 10 77 11 78 12 79 29 80 26 81 28 82 30 83 27 84 13 85 14 86
REMARK SMILES IDX 15 87 16 89 17 90 21 91 18 92 20 93 19 94 22 95 23 96 24 97
REMARK SMILES IDX 25 98
REMARK H PARENT 3 7 87 25 55 36 8 76 15 88
REMARK Flexibility Score: inf
ROOT
ATOM      1  C   UNL A   1      31.956  30.127  26.561  1.00  0.00     0.023 C 
ENDROOT
BRANCH   1   2
ATOM      2  C   UNL A   1      31.744  31.618  26.821  1.00  0.00     0.023 C 
BRANCH   2   3
ATOM      3  C   UNL A   1      32.968  32.431  27.201  1.00  0.00     0.116 C 
BRANCH   3   4
ATOM      4  N   UNL A   1      32.643  33.793  27.579  1.00  0.00    -0.352 N 
ATOM      5  O   UNL A   1      32.650  35.636  28.873  1.00  0.00    -0.269 OA
ATOM      6  C   UNL A   1      33.182  34.560  28.582  1.00  0.00     0.251 C 
ATOM      7  H   UNL A   1      31.942  34.227  27.042  1.00  0.00     0.163 HD
BRANCH   6   8
ATOM      8  C   UNL A   1      34.388  34.107  29.314  1.00  0.00     0.039 A 
ATOM      9  C   UNL A   1      34.274  33.272  30.428  1.00  0.00     0.014 A 
ATOM     10  C   UNL A   1      35.654  34.478  28.849  1.00  0.00     0.014 A 
ATOM     11  C   UNL A   1      35.409  32.895  31.138  1.00  0.00     0.010 A 
ATOM     12  C   UNL A   1      36.800  34.018  29.507  1.00  0.00     0.010 A 
ATOM     13  C   UNL A   1      36.686  33.219  30.655  1.00  0.00    -0.014 A 
BRANCH  13  14
ATOM     14  C   UNL A   1      37.875  32.575  31.268  1.00  0.00     0.031 A 
ATOM     15  C   UNL A   1      38.563  31.410  30.617  1.00  0.00     0.074 A 
ATOM     16  C   UNL A   1      38.314  33.062  32.449  1.00  0.00     0.049 A 
ATOM     17  N   UNL A   1      39.576  30.708  31.055  1.00  0.00    -0.248 NA
ATOM     18  C   UNL A   1      38.049  30.971  29.312  1.00  0.00     0.031 C 
ATOM     19  C   UNL A   1      37.708  34.191  33.167  1.00  0.00     0.029 A 
ATOM     20  N   UNL A   1      39.357  32.687  33.256  1.00  0.00    -0.354 N 
ATOM     21  C   UNL A   1      39.808  29.728  30.097  1.00  0.00     0.074 A 
ATOM     22  C   UNL A   1      38.822  29.922  29.054  1.00  0.00     0.031 C 
ATOM     23  C   UNL A   1      38.404  34.431  34.285  1.00  0.00     0.029 A 
ATOM     24  C   UNL A   1      39.443  33.420  34.419  1.00  0.00     0.049 A 
ATOM     25  H   UNL A   1      39.984  31.963  33.026  1.00  0.00     0.167 HD
ATOM     26  C   UNL A   1      40.753  28.757  30.103  1.00  0.00     0.034 A 
ATOM     27  C   UNL A   1      40.231  33.265  35.500  1.00  0.00     0.034 A 
ATOM     28  C   UNL A   1      41.728  28.595  31.156  1.00  0.00     0.049 A 
ATOM     29  C   UNL A   1      41.229  32.138  35.498  1.00  0.00     0.074 A 
ATOM     30  C   UNL A   1      42.779  27.696  31.224  1.00  0.00     0.029 A 
ATOM     31  N   UNL A   1      41.759  29.327  32.337  1.00  0.00    -0.354 N 
ATOM     32  N   UNL A   1      41.475  31.261  34.552  1.00  0.00    -0.248 NA
ATOM     33  C   UNL A   1      42.049  31.975  36.703  1.00  0.00     0.031 C 
ATOM     34  C   UNL A   1      43.383  27.820  32.478  1.00  0.00     0.029 A 
ATOM     35  C   UNL A   1      42.769  28.857  33.163  1.00  0.00     0.049 A 
ATOM     36  H   UNL A   1      41.151  30.070  32.556  1.00  0.00     0.167 HD
ATOM     37  C   UNL A   1      42.488  30.448  35.048  1.00  0.00     0.074 A 
ATOM     38  C   UNL A   1      42.829  30.961  36.359  1.00  0.00     0.031 C 
ATOM     39  C   UNL A   1      43.080  29.371  34.474  1.00  0.00     0.034 A 
BRANCH  26  40
ATOM     40  C   UNL A   1      40.756  27.752  28.976  1.00  0.00     0.023 A 
ATOM     41  C   UNL A   1      41.661  27.828  27.903  1.00  0.00     0.031 A 
ATOM     42  C   UNL A   1      39.861  26.666  29.008  1.00  0.00     0.131 A 
ATOM     43  C   UNL A   1      41.625  26.855  26.890  1.00  0.00     0.055 A 
ATOM     44  C   UNL A   1      39.874  25.669  28.032  1.00  0.00     0.041 A 
ATOM     45  F   UNL A   1      38.961  26.553  29.998  1.00  0.00    -0.206 F 
ATOM     46  C   UNL A   1      40.756  25.764  26.960  1.00  0.00     0.022 A 
BRANCH  43  47
ATOM     47  S   UNL A   1      42.670  27.084  25.424  1.00  0.00     0.124 S 
ATOM     48  O   UNL A   1      42.343  25.897  24.639  1.00  0.00    -0.237 OA
ATOM     49  O   UNL A   1      42.190  28.354  24.890  1.00  0.00    -0.237 OA
ATOM     50  O   UNL A   1      44.025  27.111  25.969  1.00  0.00    -0.744 OA
ENDBRANCH  43  47
ENDBRANCH  26  40
BRANCH  27  51
ATOM     51  C   UNL A   1      40.054  34.137  36.698  1.00  0.00     0.023 A 
ATOM     52  C   UNL A   1      39.494  33.639  37.882  1.00  0.00     0.031 A 
ATOM     53  C   UNL A   1      40.387  35.505  36.654  1.00  0.00     0.131 A 
ATOM     54  C   UNL A   1      39.227  34.509  38.951  1.00  0.00     0.055 A 
ATOM     55  C   UNL A   1      40.189  36.351  37.746  1.00  0.00     0.041 A 
ATOM     56  F   UNL A   1      40.921  36.040  35.545  1.00  0.00    -0.206 F 
ATOM     57  C   UNL A   1      39.588  35.858  38.897  1.00  0.00     0.022 A 
BRANCH  54  58
ATOM     58  S   UNL A   1      38.280  33.880  40.362  1.00  0.00     0.124 S 
ATOM     59  O   UNL A   1      37.209  33.145  39.696  1.00  0.00    -0.237 OA
ATOM     60  O   UNL A   1      39.275  33.072  41.059  1.00  0.00    -0.237 OA
ATOM     61  O   UNL A   1      37.863  35.094  41.060  1.00  0.00    -0.744 OA
ENDBRANCH  54  58
ENDBRANCH  27  51
BRANCH  39  62
ATOM     62  C   UNL A   1      44.172  28.696  35.264  1.00  0.00     0.023 A 
ATOM     63  C   UNL A   1      43.898  27.616  36.121  1.00  0.00     0.031 A 
ATOM     64  C   UNL A   1      45.501  29.141  35.161  1.00  0.00     0.131 A 
ATOM     65  C   UNL A   1      44.931  27.046  36.877  1.00  0.00     0.055 A 
ATOM     66  C   UNL A   1      46.537  28.527  35.868  1.00  0.00     0.041 A 
ATOM     67  F   UNL A   1      45.817  30.173  34.363  1.00  0.00    -0.206 F 
ATOM     68  C   UNL A   1      46.251  27.480  36.740  1.00  0.00     0.022 A 
BRANCH  65  69
ATOM     69  S   UNL A   1      44.514  25.777  38.103  1.00  0.00     0.124 S 
ATOM     70  O   UNL A   1      43.614  24.911  37.348  1.00  0.00    -0.237 OA
ATOM     71  O   UNL A   1      45.819  25.212  38.427  1.00  0.00    -0.237 OA
ATOM     72  O   UNL A   1      43.884  26.537  39.182  1.00  0.00    -0.744 OA
ENDBRANCH  65  69
ENDBRANCH  39  62
ENDBRANCH  13  14
ENDBRANCH   6   8
ENDBRANCH   3   4
ENDBRANCH   2   3
ENDBRANCH   1   2
BRANCH   1  73
ATOM     73  C   UNL A   1      33.334  29.695  26.067  1.00  0.00     0.116 C 
BRANCH  73  74
ATOM     74  N   UNL A   1      33.422  29.395  24.647  1.00  0.00    -0.356 N 
ATOM     75  C   UNL A   1      32.818  28.396  23.928  1.00  0.00     0.224 C 
ATOM     76  H   UNL A   1      34.000  29.998  24.126  1.00  0.00     0.163 HD
ATOM     77  O   UNL A   1      32.600  28.612  22.733  1.00  0.00    -0.275 OA
BRANCH  75  78
ATOM     78  C   UNL A   1      32.306  27.152  24.618  1.00  0.00     0.098 C 
ATOM     79  C   UNL A   1      32.631  25.674  24.261  1.00  0.00     0.099 C 
ATOM     80  C   UNL A   1      30.765  27.109  24.841  1.00  0.00     0.025 C 
ATOM     81  C   UNL A   1      31.283  24.944  24.598  1.00  0.00     0.025 C 
ATOM     82  C   UNL A   1      30.002  26.579  23.648  1.00  0.00    -0.027 C 
ATOM     83  C   UNL A   1      30.692  25.836  25.702  1.00  0.00     0.017 C 
ATOM     84  C   UNL A   1      30.265  25.269  23.544  1.00  0.00    -0.027 C 
BRANCH  79  85
ATOM     85  C   UNL A   1      33.344  25.034  23.050  1.00  0.00     0.229 C 
ATOM     86  O   UNL A   1      33.527  25.776  22.067  1.00  0.00    -0.274 OA
ATOM     87  N   UNL A   1      34.034  23.860  22.999  1.00  0.00    -0.323 N 
ATOM     88  H   UNL A   1      34.727  23.857  22.299  1.00  0.00     0.170 HD
BRANCH  87  89
ATOM     89  C   UNL A   1      33.984  22.657  23.714  1.00  0.00     0.084 A 
ATOM     90  C   UNL A   1      32.898  21.805  23.488  1.00  0.00     0.030 A 
ATOM     91  C   UNL A   1      34.901  22.292  24.693  1.00  0.00     0.149 A 
ATOM     92  C   UNL A   1      32.868  20.527  24.061  1.00  0.00     0.002 A 
ATOM     93  C   UNL A   1      34.927  20.994  25.208  1.00  0.00     0.049 A 
ATOM     94  C   UNL A   1      33.915  20.100  24.875  1.00  0.00     0.004 A 
BRANCH  91  95
ATOM     95  O   UNL A   1      35.734  23.181  25.293  1.00  0.00    -0.433 OA
BRANCH  95  96
ATOM     96  C   UNL A   1      37.090  23.074  24.872  1.00  0.00     0.542 C 
ATOM     97  F   UNL A   1      37.159  23.292  23.540  1.00  0.00    -0.167 F 
ATOM     98  F   UNL A   1      37.880  23.984  25.486  1.00  0.00    -0.167 F 
ENDBRANCH  95  96
ENDBRANCH  91  95
ENDBRANCH  87  89
ENDBRANCH  79  85
ENDBRANCH  75  78
ENDBRANCH  73  74
ENDBRANCH   1  73
TORSDOF 18
ENDMDL
MODEL 2
REMARK VINA RESULT:     -12.2      5.501     11.313
REMARK SMILES O=C(NCCCCNC(=O)[C@@H]1[C@H](C(=O)Nc2ccccc2OC(F)F)[C@@H]2C=C[C@H]1C2)c1ccc(-c2c3nc(c(-c4cc(S(=O)(=O)[O-])ccc4F)c4ccc([nH]4)c(-c4cc(S(=O)(=O)[O-])ccc4F)c4nc(c(-c5cc(S(=O)(=O)[O-])ccc5F)c5ccc2[nH]5)C=C4)C=C3)cc1
REMARK SMILES IDX 6 1 5 2 4 3 3 4 1 5 2 6 31 8 32 9 93 10 33 11 92 12 34 13
REMARK SMILES IDX 35 14 36 15 86 16 37 17 91 18 85 19 87 20 38 21 90 22 84 23
REMARK SMILES IDX 83 24 39 26 71 27 51 28 70 29 52 30 55 31 69 32 88 33 53 34
REMARK SMILES IDX 54 35 68 37 89 38 56 39 40 40 41 41 49 42 42 43 48 44 50 45
REMARK SMILES IDX 47 46 43 47 44 48 45 49 46 50 72 51 73 52 81 53 74 54 80 55
REMARK SMILES IDX 82 56 79 57 75 58 76 59 77 60 78 61 57 62 58 63 66 64 59 65
REMARK SMILES IDX 65 66 67 67 64 68 60 69 61 70 62 71 63 72 7 73 8 74 9 75
REMARK SMILES IDX 10 77 11 78 12 79 29 80 26 81 28 82 30 83 27 84 13 85 14 86
REMARK SMILES IDX 15 87 16 89 17 90 21 91 18 92 20 93 19 94 22 95 23 96 24 97
REMARK SMILES IDX 25 98
REMARK H PARENT 3 7 87 25 55 36 8 76 15 88
REMARK Flexibility Score: inf
ROOT
ATOM      1  C   UNL A   1      36.883  21.402  24.725  1.00  0.00     0.023 C 
ENDROOT
BRANCH   1   2
ATOM      2  C   UNL A   1      37.872  20.277  25.024  1.00  0.00     0.023 C 
BRANCH   2   3
ATOM      3  C   UNL A   1      39.069  20.624  25.889  1.00  0.00     0.116 C 
BRANCH   3   4
ATOM      4  N   UNL A   1      40.047  19.555  25.952  1.00  0.00    -0.352 N 
ATOM      5  O   UNL A   1      42.100  18.630  25.958  1.00  0.00    -0.269 OA
ATOM      6  C   UNL A   1      41.408  19.641  26.113  1.00  0.00     0.251 C 
ATOM      7  H   UNL A   1      39.685  18.643  25.870  1.00  0.00     0.163 HD
BRANCH   6   8
ATOM      8  C   UNL A   1      42.046  20.930  26.467  1.00  0.00     0.039 A 
ATOM      9  C   UNL A   1      42.316  21.885  25.484  1.00  0.00     0.014 A 
ATOM     10  C   UNL A   1      42.330  21.211  27.807  1.00  0.00     0.014 A 
ATOM     11  C   UNL A   1      42.962  23.070  25.820  1.00  0.00     0.010 A 
ATOM     12  C   UNL A   1      42.891  22.445  28.157  1.00  0.00     0.010 A 
ATOM     13  C   UNL A   1      43.208  23.386  27.166  1.00  0.00    -0.014 A 
BRANCH  13  14
ATOM     14  C   UNL A   1      43.639  24.763  27.517  1.00  0.00     0.031 A 
ATOM     15  C   UNL A   1      42.668  25.781  28.042  1.00  0.00     0.074 A 
ATOM     16  C   UNL A   1      44.939  25.080  27.334  1.00  0.00     0.049 A 
ATOM     17  N   UNL A   1      42.880  27.036  28.341  1.00  0.00    -0.248 NA
ATOM     18  C   UNL A   1      41.282  25.341  28.253  1.00  0.00     0.031 C 
ATOM     19  C   UNL A   1      45.962  24.160  26.822  1.00  0.00     0.029 A 
ATOM     20  N   UNL A   1      45.629  26.244  27.550  1.00  0.00    -0.354 N 
ATOM     21  C   UNL A   1      41.654  27.547  28.751  1.00  0.00     0.074 A 
ATOM     22  C   UNL A   1      40.698  26.463  28.655  1.00  0.00     0.031 C 
ATOM     23  C   UNL A   1      47.146  24.784  26.792  1.00  0.00     0.029 A 
ATOM     24  C   UNL A   1      46.955  26.173  27.187  1.00  0.00     0.049 A 
ATOM     25  H   UNL A   1      45.216  27.054  27.929  1.00  0.00     0.167 HD
ATOM     26  C   UNL A   1      41.365  28.806  29.160  1.00  0.00     0.034 A 
ATOM     27  C   UNL A   1      47.903  27.127  27.123  1.00  0.00     0.034 A 
ATOM     28  C   UNL A   1      42.345  29.863  29.252  1.00  0.00     0.049 A 
ATOM     29  C   UNL A   1      47.530  28.528  27.527  1.00  0.00     0.074 A 
ATOM     30  C   UNL A   1      42.175  31.152  29.728  1.00  0.00     0.029 A 
ATOM     31  N   UNL A   1      43.667  29.767  28.836  1.00  0.00    -0.354 N 
ATOM     32  N   UNL A   1      46.380  28.976  27.973  1.00  0.00    -0.248 NA
ATOM     33  C   UNL A   1      48.576  29.552  27.414  1.00  0.00     0.031 C 
ATOM     34  C   UNL A   1      43.363  31.858  29.514  1.00  0.00     0.029 A 
ATOM     35  C   UNL A   1      44.304  30.988  28.986  1.00  0.00     0.049 A 
ATOM     36  H   UNL A   1      44.089  28.949  28.485  1.00  0.00     0.167 HD
ATOM     37  C   UNL A   1      46.568  30.333  28.205  1.00  0.00     0.074 A 
ATOM     38  C   UNL A   1      47.950  30.623  27.881  1.00  0.00     0.031 C 
ATOM     39  C   UNL A   1      45.678  31.260  28.641  1.00  0.00     0.034 A 
BRANCH  26  40
ATOM     40  C   UNL A   1      39.929  29.143  29.485  1.00  0.00     0.023 A 
ATOM     41  C   UNL A   1      39.473  29.302  30.804  1.00  0.00     0.031 A 
ATOM     42  C   UNL A   1      39.009  29.356  28.440  1.00  0.00     0.131 A 
ATOM     43  C   UNL A   1      38.128  29.630  31.044  1.00  0.00     0.055 A 
ATOM     44  C   UNL A   1      37.691  29.744  28.683  1.00  0.00     0.041 A 
ATOM     45  F   UNL A   1      39.383  29.199  27.160  1.00  0.00    -0.206 F 
ATOM     46  C   UNL A   1      37.241  29.875  29.993  1.00  0.00     0.022 A 
BRANCH  43  47
ATOM     47  S   UNL A   1      37.525  29.638  32.755  1.00  0.00     0.124 S 
ATOM     48  O   UNL A   1      36.256  30.348  32.618  1.00  0.00    -0.237 OA
ATOM     49  O   UNL A   1      37.431  28.216  33.064  1.00  0.00    -0.237 OA
ATOM     50  O   UNL A   1      38.564  30.366  33.482  1.00  0.00    -0.744 OA
ENDBRANCH  43  47
ENDBRANCH  26  40
BRANCH  27  51
ATOM     51  C   UNL A   1      49.259  26.814  26.584  1.00  0.00     0.023 A 
ATOM     52  C   UNL A   1      49.674  27.300  25.336  1.00  0.00     0.031 A 
ATOM     53  C   UNL A   1      50.140  25.968  27.285  1.00  0.00     0.131 A 
ATOM     54  C   UNL A   1      50.905  26.890  24.801  1.00  0.00     0.055 A 
ATOM     55  C   UNL A   1      51.395  25.623  26.781  1.00  0.00     0.041 A 
ATOM     56  F   UNL A   1      49.795  25.467  28.482  1.00  0.00    -0.206 F 
ATOM     57  C   UNL A   1      51.776  26.071  25.523  1.00  0.00     0.022 A 
BRANCH  54  58
ATOM     58  S   UNL A   1      51.294  27.339  23.087  1.00  0.00     0.124 S 
ATOM     59  O   UNL A   1      52.572  26.662  22.888  1.00  0.00    -0.237 OA
ATOM     60  O   UNL A   1      50.155  26.784  22.364  1.00  0.00    -0.237 OA
ATOM     61  O   UNL A   1      51.359  28.797  23.124  1.00  0.00    -0.744 OA
ENDBRANCH  54  58
ENDBRANCH  27  51
BRANCH  39  62
ATOM     62  C   UNL A   1      46.192  32.667  28.808  1.00  0.00     0.023 A 
ATOM     63  C   UNL A   1      46.004  33.641  27.812  1.00  0.00     0.031 A 
ATOM     64  C   UNL A   1      46.880  33.037  29.977  1.00  0.00     0.131 A 
ATOM     65  C   UNL A   1      46.538  34.925  27.983  1.00  0.00     0.055 A 
ATOM     66  C   UNL A   1      47.354  34.335  30.169  1.00  0.00     0.041 A 
ATOM     67  F   UNL A   1      47.093  32.143  30.956  1.00  0.00    -0.206 F 
ATOM     68  C   UNL A   1      47.193  35.285  29.163  1.00  0.00     0.022 A 
BRANCH  65  69
ATOM     69  S   UNL A   1      46.434  36.101  26.607  1.00  0.00     0.124 S 
ATOM     70  O   UNL A   1      47.314  37.173  27.058  1.00  0.00    -0.237 OA
ATOM     71  O   UNL A   1      46.918  35.310  25.480  1.00  0.00    -0.237 OA
ATOM     72  O   UNL A   1      45.013  36.444  26.555  1.00  0.00    -0.744 OA
ENDBRANCH  65  69
ENDBRANCH  39  62
ENDBRANCH  13  14
ENDBRANCH   6   8
ENDBRANCH   3   4
ENDBRANCH   2   3
ENDBRANCH   1   2
BRANCH   1  73
ATOM     73  C   UNL A   1      36.905  22.614  25.652  1.00  0.00     0.116 C 
BRANCH  73  74
ATOM     74  N   UNL A   1      35.884  22.626  26.688  1.00  0.00    -0.356 N 
ATOM     75  C   UNL A   1      34.523  22.736  26.568  1.00  0.00     0.224 C 
ATOM     76  H   UNL A   1      36.220  22.541  27.609  1.00  0.00     0.163 HD
ATOM     77  O   UNL A   1      33.834  22.221  27.453  1.00  0.00    -0.275 OA
BRANCH  75  78
ATOM     78  C   UNL A   1      33.904  23.329  25.323  1.00  0.00     0.098 C 
ATOM     79  C   UNL A   1      32.733  24.349  25.245  1.00  0.00     0.099 C 
ATOM     80  C   UNL A   1      33.519  22.296  24.222  1.00  0.00     0.025 C 
ATOM     81  C   UNL A   1      31.992  23.908  23.933  1.00  0.00     0.025 C 
ATOM     82  C   UNL A   1      32.152  21.684  24.428  1.00  0.00    -0.027 C 
ATOM     83  C   UNL A   1      33.127  23.281  23.108  1.00  0.00     0.017 C 
ATOM     84  C   UNL A   1      31.238  22.636  24.192  1.00  0.00    -0.027 C 
BRANCH  79  85
ATOM     85  C   UNL A   1      31.749  24.879  26.311  1.00  0.00     0.229 C 
ATOM     86  O   UNL A   1      31.489  24.104  27.250  1.00  0.00    -0.274 OA
ATOM     87  N   UNL A   1      31.332  26.160  26.512  1.00  0.00    -0.323 N 
ATOM     88  H   UNL A   1      31.070  26.332  27.446  1.00  0.00     0.170 HD
BRANCH  87  89
ATOM     89  C   UNL A   1      31.189  27.289  25.695  1.00  0.00     0.084 A 
ATOM     90  C   UNL A   1      30.476  27.149  24.500  1.00  0.00     0.030 A 
ATOM     91  C   UNL A   1      31.780  28.520  25.956  1.00  0.00     0.149 A 
ATOM     92  C   UNL A   1      30.175  28.271  23.718  1.00  0.00     0.002 A 
ATOM     93  C   UNL A   1      31.424  29.659  25.231  1.00  0.00     0.049 A 
ATOM     94  C   UNL A   1      30.600  29.536  24.117  1.00  0.00     0.004 A 
BRANCH  91  95
ATOM     95  O   UNL A   1      32.811  28.675  26.827  1.00  0.00    -0.433 OA
BRANCH  95  96
ATOM     96  C   UNL A   1      34.091  28.425  26.255  1.00  0.00     0.542 C 
ATOM     97  F   UNL A   1      35.020  29.157  26.910  1.00  0.00    -0.167 F 
ATOM     98  F   UNL A   1      34.439  27.123  26.355  1.00  0.00    -0.167 F 
ENDBRANCH  95  96
ENDBRANCH  91  95
ENDBRANCH  87  89
ENDBRANCH  79  85
ENDBRANCH  75  78
ENDBRANCH  73  74
ENDBRANCH   1  73
TORSDOF 18
ENDMDL
MODEL 3
REMARK VINA RESULT:     -12.2      1.493      1.750
REMARK SMILES O=C(NCCCCNC(=O)[C@@H]1[C@H](C(=O)Nc2ccccc2OC(F)F)[C@@H]2C=C[C@H]1C2)c1ccc(-c2c3nc(c(-c4cc(S(=O)(=O)[O-])ccc4F)c4ccc([nH]4)c(-c4cc(S(=O)(=O)[O-])ccc4F)c4nc(c(-c5cc(S(=O)(=O)[O-])ccc5F)c5ccc2[nH]5)C=C4)C=C3)cc1
REMARK SMILES IDX 6 1 5 2 4 3 3 4 1 5 2 6 31 8 32 9 93 10 33 11 92 12 34 13
REMARK SMILES IDX 35 14 36 15 86 16 37 17 91 18 85 19 87 20 38 21 90 22 84 23
REMARK SMILES IDX 83 24 39 26 71 27 51 28 70 29 52 30 55 31 69 32 88 33 53 34
REMARK SMILES IDX 54 35 68 37 89 38 56 39 40 40 41 41 49 42 42 43 48 44 50 45
REMARK SMILES IDX 47 46 43 47 44 48 45 49 46 50 72 51 73 52 81 53 74 54 80 55
REMARK SMILES IDX 82 56 79 57 75 58 76 59 77 60 78 61 57 62 58 63 66 64 59 65
REMARK SMILES IDX 65 66 67 67 64 68 60 69 61 70 62 71 63 72 7 73 8 74 9 75
REMARK SMILES IDX 10 77 11 78 12 79 29 80 26 81 28 82 30 83 27 84 13 85 14 86
REMARK SMILES IDX 15 87 16 89 17 90 21 91 18 92 20 93 19 94 22 95 23 96 24 97
REMARK SMILES IDX 25 98
REMARK H PARENT 3 7 87 25 55 36 8 76 15 88
REMARK Flexibility Score: inf
ROOT
ATOM      1  C   UNL A   1      31.779  30.407  26.343  1.00  0.00     0.023 C 
ENDROOT
BRANCH   1   2
ATOM      2  C   UNL A   1      31.619  31.882  26.711  1.00  0.00     0.023 C 
BRANCH   2   3
ATOM      3  C   UNL A   1      32.801  32.556  27.382  1.00  0.00     0.116 C 
BRANCH   3   4
ATOM      4  N   UNL A   1      32.551  33.950  27.695  1.00  0.00    -0.352 N 
ATOM      5  O   UNL A   1      32.673  35.853  28.892  1.00  0.00    -0.269 OA
ATOM      6  C   UNL A   1      33.147  34.740  28.647  1.00  0.00     0.251 C 
ATOM      7  H   UNL A   1      31.860  34.390  27.149  1.00  0.00     0.163 HD
BRANCH   6   8
ATOM      8  C   UNL A   1      34.345  34.265  29.378  1.00  0.00     0.039 A 
ATOM      9  C   UNL A   1      34.214  33.486  30.530  1.00  0.00     0.014 A 
ATOM     10  C   UNL A   1      35.617  34.559  28.877  1.00  0.00     0.014 A 
ATOM     11  C   UNL A   1      35.345  33.090  31.237  1.00  0.00     0.010 A 
ATOM     12  C   UNL A   1      36.754  34.077  29.536  1.00  0.00     0.010 A 
ATOM     13  C   UNL A   1      36.626  33.335  30.720  1.00  0.00    -0.014 A 
BRANCH  13  14
ATOM     14  C   UNL A   1      37.796  32.666  31.342  1.00  0.00     0.031 A 
ATOM     15  C   UNL A   1      38.506  31.529  30.663  1.00  0.00     0.074 A 
ATOM     16  C   UNL A   1      38.198  33.102  32.555  1.00  0.00     0.049 A 
ATOM     17  N   UNL A   1      39.506  30.810  31.102  1.00  0.00    -0.248 NA
ATOM     18  C   UNL A   1      38.032  31.146  29.326  1.00  0.00     0.031 C 
ATOM     19  C   UNL A   1      37.568  34.199  33.301  1.00  0.00     0.029 A 
ATOM     20  N   UNL A   1      39.216  32.694  33.377  1.00  0.00    -0.354 N 
ATOM     21  C   UNL A   1      39.769  29.871  30.111  1.00  0.00     0.074 A 
ATOM     22  C   UNL A   1      38.815  30.109  29.048  1.00  0.00     0.031 C 
ATOM     23  C   UNL A   1      38.229  34.392  34.450  1.00  0.00     0.029 A 
ATOM     24  C   UNL A   1      39.265  33.376  34.572  1.00  0.00     0.049 A 
ATOM     25  H   UNL A   1      39.851  31.980  33.136  1.00  0.00     0.167 HD
ATOM     26  C   UNL A   1      40.715  28.901  30.105  1.00  0.00     0.034 A 
ATOM     27  C   UNL A   1      40.019  33.176  35.669  1.00  0.00     0.034 A 
ATOM     28  C   UNL A   1      41.657  28.695  31.180  1.00  0.00     0.049 A 
ATOM     29  C   UNL A   1      41.019  32.050  35.650  1.00  0.00     0.074 A 
ATOM     30  C   UNL A   1      42.706  27.794  31.242  1.00  0.00     0.029 A 
ATOM     31  N   UNL A   1      41.650  29.376  32.391  1.00  0.00    -0.354 N 
ATOM     32  N   UNL A   1      41.295  31.214  34.677  1.00  0.00    -0.248 NA
ATOM     33  C   UNL A   1      41.802  31.837  36.873  1.00  0.00     0.031 C 
ATOM     34  C   UNL A   1      43.271  27.865  32.518  1.00  0.00     0.029 A 
ATOM     35  C   UNL A   1      42.635  28.872  33.227  1.00  0.00     0.049 A 
ATOM     36  H   UNL A   1      41.035  30.109  32.622  1.00  0.00     0.167 HD
ATOM     37  C   UNL A   1      42.293  30.381  35.169  1.00  0.00     0.074 A 
ATOM     38  C   UNL A   1      42.593  30.838  36.510  1.00  0.00     0.031 C 
ATOM     39  C   UNL A   1      42.905  29.329  34.568  1.00  0.00     0.034 A 
BRANCH  26  40
ATOM     40  C   UNL A   1      40.754  27.945  28.937  1.00  0.00     0.023 A 
ATOM     41  C   UNL A   1      41.694  28.064  27.899  1.00  0.00     0.031 A 
ATOM     42  C   UNL A   1      39.857  26.860  28.893  1.00  0.00     0.131 A 
ATOM     43  C   UNL A   1      41.691  27.135  26.845  1.00  0.00     0.055 A 
ATOM     44  C   UNL A   1      39.901  25.906  27.877  1.00  0.00     0.041 A 
ATOM     45  F   UNL A   1      38.925  26.708  29.848  1.00  0.00    -0.206 F 
ATOM     46  C   UNL A   1      40.818  26.044  26.840  1.00  0.00     0.022 A 
BRANCH  43  47
ATOM     47  S   UNL A   1      42.783  27.424  25.426  1.00  0.00     0.124 S 
ATOM     48  O   UNL A   1      42.079  28.492  24.721  1.00  0.00    -0.237 OA
ATOM     49  O   UNL A   1      44.038  27.801  26.065  1.00  0.00    -0.237 OA
ATOM     50  O   UNL A   1      42.799  26.136  24.736  1.00  0.00    -0.744 OA
ENDBRANCH  43  47
ENDBRANCH  26  40
BRANCH  27  51
ATOM     51  C   UNL A   1      39.804  33.996  36.898  1.00  0.00     0.023 A 
ATOM     52  C   UNL A   1      40.674  35.043  37.234  1.00  0.00     0.031 A 
ATOM     53  C   UNL A   1      38.756  33.701  37.791  1.00  0.00     0.131 A 
ATOM     54  C   UNL A   1      40.518  35.717  38.455  1.00  0.00     0.055 A 
ATOM     55  C   UNL A   1      38.561  34.423  38.969  1.00  0.00     0.041 A 
ATOM     56  F   UNL A   1      37.895  32.705  37.526  1.00  0.00    -0.206 F 
ATOM     57  C   UNL A   1      39.457  35.426  39.316  1.00  0.00     0.022 A 
BRANCH  54  58
ATOM     58  S   UNL A   1      41.803  36.889  38.965  1.00  0.00     0.124 S 
ATOM     59  O   UNL A   1      42.671  36.905  37.791  1.00  0.00    -0.237 OA
ATOM     60  O   UNL A   1      41.029  38.102  39.205  1.00  0.00    -0.237 OA
ATOM     61  O   UNL A   1      42.377  36.269  40.156  1.00  0.00    -0.744 OA
ENDBRANCH  54  58
ENDBRANCH  27  51
BRANCH  39  62
ATOM     62  C   UNL A   1      43.973  28.622  35.362  1.00  0.00     0.023 A 
ATOM     63  C   UNL A   1      43.661  27.563  36.232  1.00  0.00     0.031 A 
ATOM     64  C   UNL A   1      45.318  29.014  35.250  1.00  0.00     0.131 A 
ATOM     65  C   UNL A   1      44.674  26.961  36.990  1.00  0.00     0.055 A 
ATOM     66  C   UNL A   1      46.332  28.369  35.960  1.00  0.00     0.041 A 
ATOM     67  F   UNL A   1      45.670  30.025  34.440  1.00  0.00    -0.206 F 
ATOM     68  C   UNL A   1      46.010  27.344  36.845  1.00  0.00     0.022 A 
BRANCH  65  69
ATOM     69  S   UNL A   1      44.213  25.723  38.232  1.00  0.00     0.124 S 
ATOM     70  O   UNL A   1      42.936  25.241  37.718  1.00  0.00    -0.237 OA
ATOM     71  O   UNL A   1      45.325  24.781  38.164  1.00  0.00    -0.237 OA
ATOM     72  O   UNL A   1      44.131  26.495  39.472  1.00  0.00    -0.744 OA
ENDBRANCH  65  69
ENDBRANCH  39  62
ENDBRANCH  13  14
ENDBRANCH   6   8
ENDBRANCH   3   4
ENDBRANCH   2   3
ENDBRANCH   1   2
BRANCH   1  73
ATOM     73  C   UNL A   1      33.191  29.829  26.380  1.00  0.00     0.116 C 
BRANCH  73  74
ATOM     74  N   UNL A   1      33.795  29.573  25.082  1.00  0.00    -0.356 N 
ATOM     75  C   UNL A   1      33.383  28.733  24.080  1.00  0.00     0.224 C 
ATOM     76  H   UNL A   1      34.620  30.077  24.897  1.00  0.00     0.163 HD
ATOM     77  O   UNL A   1      33.701  29.032  22.926  1.00  0.00    -0.275 OA
BRANCH  75  78
ATOM     78  C   UNL A   1      32.449  27.582  24.374  1.00  0.00     0.098 C 
ATOM     79  C   UNL A   1      32.563  26.119  23.861  1.00  0.00     0.099 C 
ATOM     80  C   UNL A   1      30.936  27.890  24.164  1.00  0.00     0.025 C 
ATOM     81  C   UNL A   1      31.059  25.706  23.689  1.00  0.00     0.025 C 
ATOM     82  C   UNL A   1      30.479  27.699  22.736  1.00  0.00    -0.027 C 
ATOM     83  C   UNL A   1      30.353  26.585  24.734  1.00  0.00     0.017 C 
ATOM     84  C   UNL A   1      30.493  26.384  22.475  1.00  0.00    -0.027 C 
BRANCH  79  85
ATOM     85  C   UNL A   1      33.466  25.464  22.792  1.00  0.00     0.229 C 
ATOM     86  O   UNL A   1      34.038  26.244  22.007  1.00  0.00    -0.274 OA
ATOM     87  N   UNL A   1      33.932  24.185  22.749  1.00  0.00    -0.323 N 
ATOM     88  H   UNL A   1      34.782  24.108  22.256  1.00  0.00     0.170 HD
BRANCH  87  89
ATOM     89  C   UNL A   1      33.481  22.955  23.243  1.00  0.00     0.084 A 
ATOM     90  C   UNL A   1      32.485  22.285  22.525  1.00  0.00     0.030 A 
ATOM     91  C   UNL A   1      33.901  22.397  24.446  1.00  0.00     0.149 A 
ATOM     92  C   UNL A   1      32.100  20.988  22.888  1.00  0.00     0.002 A 
ATOM     93  C   UNL A   1      33.586  21.076  24.775  1.00  0.00     0.049 A 
ATOM     94  C   UNL A   1      32.696  20.361  23.981  1.00  0.00     0.004 A 
BRANCH  91  95
ATOM     95  O   UNL A   1      34.523  23.114  25.417  1.00  0.00    -0.433 OA
BRANCH  95  96
ATOM     96  C   UNL A   1      33.636  23.649  26.394  1.00  0.00     0.542 C 
ATOM     97  F   UNL A   1      33.829  24.985  26.483  1.00  0.00    -0.167 F 
ATOM     98  F   UNL A   1      32.342  23.435  26.068  1.00  0.00    -0.167 F 
ENDBRANCH  95  96
ENDBRANCH  91  95
ENDBRANCH  87  89
ENDBRANCH  79  85
ENDBRANCH  75  78
ENDBRANCH  73  74
ENDBRANCH   1  73
TORSDOF 18
ENDMDL
