MODEL 1
REMARK VINA RESULT:     -10.9      0.000      0.000
REMARK SMILES C#CCN(CC(=O)NCCCCNC(=O)c1ccc(-c2c3nc(c(-c4cc(S(=O)(=O)[O-])ccc4F)c4ccc([nH]4)c(-c4cc(S(=O)(=O)[O-])ccc4F)c4nc(c(-c5cc(S(=O)(=O)[O-])ccc5F)c5ccc2[nH]5)C=C4)C=C3)cc1)C(=O)N1CCC(OCC)CC1
REMARK SMILES IDX 10 1 9 2 8 3 6 4 7 5 5 7 4 8 3 9 2 10 1 11 79 12 80 13 81 14
REMARK SMILES IDX 82 15 89 16 83 17 88 18 84 19 85 20 86 21 87 22 11 23 12 24
REMARK SMILES IDX 13 25 14 26 15 28 16 29 17 30 78 31 18 32 77 33 19 34 20 35
REMARK SMILES IDX 21 36 71 37 22 38 76 39 70 40 72 41 23 42 75 43 69 44 68 45
REMARK SMILES IDX 24 47 56 48 36 49 55 50 37 51 40 52 54 53 73 54 38 55 39 56
REMARK SMILES IDX 53 58 74 59 41 60 25 61 26 62 34 63 27 64 33 65 35 66 32 67
REMARK SMILES IDX 28 68 29 69 30 70 31 71 57 72 58 73 66 74 59 75 65 76 67 77
REMARK SMILES IDX 64 78 60 79 61 80 62 81 63 82 42 83 43 84 51 85 44 86 50 87
REMARK SMILES IDX 52 88 49 89 45 90 46 91 47 92 48 93
REMARK H PARENT 8 6 13 27 72 46 40 57
REMARK Flexibility Score: inf
ROOT
ATOM      1  C   UNL A   1      31.299  29.235  24.028  1.00  0.00     0.023 C 
ENDROOT
BRANCH   1   2
ATOM      2  C   UNL A   1      31.088  28.235  22.891  1.00  0.00     0.116 C 
BRANCH   2   3
ATOM      3  N   UNL A   1      32.305  27.762  22.272  1.00  0.00    -0.355 N 
ATOM      4  C   UNL A   1      32.802  26.500  22.139  1.00  0.00     0.239 C 
ATOM      5  O   UNL A   1      33.649  26.329  21.253  1.00  0.00    -0.273 OA
ATOM      6  H   UNL A   1      32.868  28.468  21.880  1.00  0.00     0.163 HD
BRANCH   4   7
ATOM      7  C   UNL A   1      32.307  25.286  22.955  1.00  0.00     0.222 C 
BRANCH   7   8
ATOM      8  N   UNL A   1      33.126  24.797  24.064  1.00  0.00    -0.304 N 
BRANCH   8   9
ATOM      9  C   UNL A   1      33.005  25.524  25.329  1.00  0.00     0.211 C 
BRANCH   9  10
ATOM     10  C   UNL A   1      31.562  25.782  25.732  1.00  0.00    -0.085 C 
ATOM     11  C   UNL A   1      30.324  26.003  26.077  1.00  0.00     0.006 C 
ENDBRANCH   9  10
ENDBRANCH   8   9
BRANCH   8  12
ATOM     12  C   UNL A   1      33.876  23.627  24.080  1.00  0.00     0.321 C 
ATOM     13  O   UNL A   1      34.795  23.452  23.274  1.00  0.00    -0.248 OA
ATOM     14  N   UNL A   1      33.668  22.703  25.087  1.00  0.00    -0.324 N 
ATOM     15  C   UNL A   1      34.833  21.963  25.569  1.00  0.00     0.124 C 
ATOM     16  C   UNL A   1      32.389  22.079  25.409  1.00  0.00     0.124 C 
ATOM     17  C   UNL A   1      34.859  20.548  25.004  1.00  0.00     0.053 C 
ATOM     18  C   UNL A   1      32.321  20.616  24.982  1.00  0.00     0.053 C 
ATOM     19  C   UNL A   1      33.565  19.820  25.372  1.00  0.00     0.121 C 
BRANCH  19  20
ATOM     20  O   UNL A   1      33.479  18.462  24.931  1.00  0.00    -0.378 OA
BRANCH  20  21
ATOM     21  C   UNL A   1      32.988  18.171  23.625  1.00  0.00     0.157 C 
ATOM     22  C   UNL A   1      33.648  16.982  22.950  1.00  0.00     0.035 C 
ENDBRANCH  20  21
ENDBRANCH  19  20
ENDBRANCH   8  12
ENDBRANCH   7   8
ENDBRANCH   4   7
ENDBRANCH   2   3
ENDBRANCH   1   2
BRANCH   1  23
ATOM     23  C   UNL A   1      32.668  29.219  24.703  1.00  0.00     0.023 C 
BRANCH  23  24
ATOM     24  C   UNL A   1      32.679  29.503  26.199  1.00  0.00     0.116 C 
BRANCH  24  25
ATOM     25  N   UNL A   1      32.389  30.887  26.540  1.00  0.00    -0.352 N 
ATOM     26  C   UNL A   1      33.155  31.777  27.258  1.00  0.00     0.251 C 
ATOM     27  H   UNL A   1      31.528  31.234  26.213  1.00  0.00     0.163 HD
ATOM     28  O   UNL A   1      32.719  32.896  27.501  1.00  0.00    -0.269 OA
BRANCH  26  29
ATOM     29  C   UNL A   1      34.475  31.353  27.778  1.00  0.00     0.039 A 
ATOM     30  C   UNL A   1      35.458  32.326  27.982  1.00  0.00     0.014 A 
ATOM     31  C   UNL A   1      34.734  30.018  28.100  1.00  0.00     0.014 A 
ATOM     32  C   UNL A   1      36.668  31.973  28.583  1.00  0.00     0.010 A 
ATOM     33  C   UNL A   1      35.909  29.681  28.764  1.00  0.00     0.010 A 
ATOM     34  C   UNL A   1      36.887  30.656  29.019  1.00  0.00    -0.014 A 
BRANCH  34  35
ATOM     35  C   UNL A   1      38.124  30.279  29.749  1.00  0.00     0.031 A 
ATOM     36  C   UNL A   1      39.077  29.280  29.152  1.00  0.00     0.074 A 
ATOM     37  C   UNL A   1      38.350  30.776  30.981  1.00  0.00     0.049 A 
ATOM     38  N   UNL A   1      40.157  28.753  29.668  1.00  0.00    -0.248 NA
ATOM     39  C   UNL A   1      38.750  28.786  27.806  1.00  0.00     0.031 C 
ATOM     40  C   UNL A   1      37.475  31.718  31.686  1.00  0.00     0.029 A 
ATOM     41  N   UNL A   1      39.375  30.552  31.866  1.00  0.00    -0.354 N 
ATOM     42  C   UNL A   1      40.631  27.854  28.719  1.00  0.00     0.074 A 
ATOM     43  C   UNL A   1      39.684  27.866  27.623  1.00  0.00     0.031 C 
ATOM     44  C   UNL A   1      38.011  32.003  32.884  1.00  0.00     0.029 A 
ATOM     45  C   UNL A   1      39.240  31.236  33.052  1.00  0.00     0.049 A 
ATOM     46  H   UNL A   1      40.134  29.958  31.670  1.00  0.00     0.167 HD
ATOM     47  C   UNL A   1      41.762  27.105  28.749  1.00  0.00     0.034 A 
ATOM     48  C   UNL A   1      40.013  31.235  34.157  1.00  0.00     0.034 A 
ATOM     49  C   UNL A   1      42.702  27.116  29.844  1.00  0.00     0.049 A 
ATOM     50  C   UNL A   1      41.258  30.386  34.174  1.00  0.00     0.074 A 
ATOM     51  C   UNL A   1      43.907  26.444  29.954  1.00  0.00     0.029 A 
ATOM     52  N   UNL A   1      42.539  27.830  31.026  1.00  0.00    -0.354 N 
ATOM     53  N   UNL A   1      41.721  29.579  33.247  1.00  0.00    -0.248 NA
ATOM     54  C   UNL A   1      42.090  30.456  35.382  1.00  0.00     0.031 C 
ATOM     55  C   UNL A   1      44.440  26.701  31.222  1.00  0.00     0.029 A 
ATOM     56  C   UNL A   1      43.607  27.591  31.878  1.00  0.00     0.049 A 
ATOM     57  H   UNL A   1      41.777  28.420  31.227  1.00  0.00     0.167 HD
ATOM     58  C   UNL A   1      42.914  29.068  33.750  1.00  0.00     0.074 A 
ATOM     59  C   UNL A   1      43.104  29.669  35.054  1.00  0.00     0.031 C 
ATOM     60  C   UNL A   1      43.777  28.187  33.183  1.00  0.00     0.034 A 
BRANCH  47  61
ATOM     61  C   UNL A   1      42.022  26.197  27.570  1.00  0.00     0.023 A 
ATOM     62  C   UNL A   1      41.566  24.867  27.548  1.00  0.00     0.031 A 
ATOM     63  C   UNL A   1      42.766  26.655  26.467  1.00  0.00     0.131 A 
ATOM     64  C   UNL A   1      41.930  24.019  26.492  1.00  0.00     0.055 A 
ATOM     65  C   UNL A   1      43.052  25.828  25.378  1.00  0.00     0.041 A 
ATOM     66  F   UNL A   1      43.244  27.908  26.438  1.00  0.00    -0.206 F 
ATOM     67  C   UNL A   1      42.648  24.496  25.394  1.00  0.00     0.022 A 
BRANCH  64  68
ATOM     68  S   UNL A   1      41.585  22.245  26.650  1.00  0.00     0.124 S 
ATOM     69  O   UNL A   1      42.362  21.693  25.542  1.00  0.00    -0.237 OA
ATOM     70  O   UNL A   1      42.079  21.945  27.989  1.00  0.00    -0.237 OA
ATOM     71  O   UNL A   1      40.135  22.161  26.486  1.00  0.00    -0.744 OA
ENDBRANCH  64  68
ENDBRANCH  47  61
BRANCH  48  72
ATOM     72  C   UNL A   1      39.635  32.056  35.342  1.00  0.00     0.023 A 
ATOM     73  C   UNL A   1      38.822  31.529  36.356  1.00  0.00     0.031 A 
ATOM     74  C   UNL A   1      40.054  33.394  35.458  1.00  0.00     0.131 A 
ATOM     75  C   UNL A   1      38.416  32.346  37.423  1.00  0.00     0.055 A 
ATOM     76  C   UNL A   1      39.687  34.188  36.546  1.00  0.00     0.041 A 
ATOM     77  F   UNL A   1      40.840  33.943  34.519  1.00  0.00    -0.206 F 
ATOM     78  C   UNL A   1      38.853  33.668  37.530  1.00  0.00     0.022 A 
BRANCH  75  79
ATOM     79  S   UNL A   1      37.243  31.675  38.634  1.00  0.00     0.124 S 
ATOM     80  O   UNL A   1      36.120  32.595  38.502  1.00  0.00    -0.237 OA
ATOM     81  O   UNL A   1      37.029  30.323  38.128  1.00  0.00    -0.237 OA
ATOM     82  O   UNL A   1      37.975  31.757  39.896  1.00  0.00    -0.744 OA
ENDBRANCH  75  79
ENDBRANCH  48  72
BRANCH  60  83
ATOM     83  C   UNL A   1      45.028  27.859  33.961  1.00  0.00     0.023 A 
ATOM     84  C   UNL A   1      45.087  26.766  34.842  1.00  0.00     0.031 A 
ATOM     85  C   UNL A   1      46.173  28.664  33.824  1.00  0.00     0.131 A 
ATOM     86  C   UNL A   1      46.250  26.539  35.594  1.00  0.00     0.055 A 
ATOM     87  C   UNL A   1      47.346  28.399  34.532  1.00  0.00     0.041 A 
ATOM     88  F   UNL A   1      46.171  29.722  32.998  1.00  0.00    -0.206 F 
ATOM     89  C   UNL A   1      47.384  27.338  35.433  1.00  0.00     0.022 A 
BRANCH  86  90
ATOM     90  S   UNL A   1      46.232  25.233  36.853  1.00  0.00     0.124 S 
ATOM     91  O   UNL A   1      47.174  24.266  36.301  1.00  0.00    -0.237 OA
ATOM     92  O   UNL A   1      46.674  25.945  38.048  1.00  0.00    -0.237 OA
ATOM     93  O   UNL A   1      44.837  24.796  36.875  1.00  0.00    -0.744 OA
ENDBRANCH  86  90
ENDBRANCH  60  83
ENDBRANCH  34  35
ENDBRANCH  26  29
ENDBRANCH  24  25
ENDBRANCH  23  24
ENDBRANCH   1  23
TORSDOF 20
ENDMDL
MODEL 2
REMARK VINA RESULT:     -10.6      4.685      7.699
REMARK SMILES C#CCN(CC(=O)NCCCCNC(=O)c1ccc(-c2c3nc(c(-c4cc(S(=O)(=O)[O-])ccc4F)c4ccc([nH]4)c(-c4cc(S(=O)(=O)[O-])ccc4F)c4nc(c(-c5cc(S(=O)(=O)[O-])ccc5F)c5ccc2[nH]5)C=C4)C=C3)cc1)C(=O)N1CCC(OCC)CC1
REMARK SMILES IDX 10 1 9 2 8 3 6 4 7 5 5 7 4 8 3 9 2 10 1 11 79 12 80 13 81 14
REMARK SMILES IDX 82 15 89 16 83 17 88 18 84 19 85 20 86 21 87 22 11 23 12 24
REMARK SMILES IDX 13 25 14 26 15 28 16 29 17 30 78 31 18 32 77 33 19 34 20 35
REMARK SMILES IDX 21 36 71 37 22 38 76 39 70 40 72 41 23 42 75 43 69 44 68 45
REMARK SMILES IDX 24 47 56 48 36 49 55 50 37 51 40 52 54 53 73 54 38 55 39 56
REMARK SMILES IDX 53 58 74 59 41 60 25 61 26 62 34 63 27 64 33 65 35 66 32 67
REMARK SMILES IDX 28 68 29 69 30 70 31 71 57 72 58 73 66 74 59 75 65 76 67 77
REMARK SMILES IDX 64 78 60 79 61 80 62 81 63 82 42 83 43 84 51 85 44 86 50 87
REMARK SMILES IDX 52 88 49 89 45 90 46 91 47 92 48 93
REMARK H PARENT 8 6 13 27 72 46 40 57
REMARK Flexibility Score: inf
ROOT
ATOM      1  C   UNL A   1      34.017  21.366  26.302  1.00  0.00     0.023 C 
ENDROOT
BRANCH   1   2
ATOM      2  C   UNL A   1      32.564  21.463  25.841  1.00  0.00     0.116 C 
BRANCH   2   3
ATOM      3  N   UNL A   1      31.700  22.213  26.725  1.00  0.00    -0.355 N 
ATOM      4  C   UNL A   1      30.767  23.168  26.455  1.00  0.00     0.239 C 
ATOM      5  O   UNL A   1      29.914  23.371  27.328  1.00  0.00    -0.273 OA
ATOM      6  H   UNL A   1      31.801  21.997  27.680  1.00  0.00     0.163 HD
BRANCH   4   7
ATOM      7  C   UNL A   1      30.667  23.924  25.112  1.00  0.00     0.222 C 
BRANCH   7   8
ATOM      8  N   UNL A   1      31.625  24.995  24.831  1.00  0.00    -0.304 N 
BRANCH   8   9
ATOM      9  C   UNL A   1      32.804  24.620  24.048  1.00  0.00     0.211 C 
BRANCH   9  10
ATOM     10  C   UNL A   1      34.105  24.783  24.818  1.00  0.00    -0.085 C 
ATOM     11  C   UNL A   1      35.221  24.922  25.479  1.00  0.00     0.006 C 
ENDBRANCH   9  10
ENDBRANCH   8   9
BRANCH   8  12
ATOM     12  C   UNL A   1      31.446  26.348  25.091  1.00  0.00     0.321 C 
ATOM     13  O   UNL A   1      31.429  26.774  26.249  1.00  0.00    -0.248 OA
ATOM     14  N   UNL A   1      31.407  27.242  24.036  1.00  0.00    -0.324 N 
ATOM     15  C   UNL A   1      31.985  28.566  24.258  1.00  0.00     0.124 C 
ATOM     16  C   UNL A   1      30.489  27.172  22.904  1.00  0.00     0.124 C 
ATOM     17  C   UNL A   1      30.898  29.609  24.486  1.00  0.00     0.053 C 
ATOM     18  C   UNL A   1      29.400  28.240  22.960  1.00  0.00     0.053 C 
ATOM     19  C   UNL A   1      29.941  29.629  23.293  1.00  0.00     0.121 C 
BRANCH  19  20
ATOM     20  O   UNL A   1      28.891  30.597  23.366  1.00  0.00    -0.378 OA
BRANCH  20  21
ATOM     21  C   UNL A   1      27.846  30.584  22.398  1.00  0.00     0.157 C 
ATOM     22  C   UNL A   1      28.160  31.331  21.115  1.00  0.00     0.035 C 
ENDBRANCH  20  21
ENDBRANCH  19  20
ENDBRANCH   8  12
ENDBRANCH   7   8
ENDBRANCH   4   7
ENDBRANCH   2   3
ENDBRANCH   1   2
BRANCH   1  23
ATOM     23  C   UNL A   1      35.062  21.126  25.215  1.00  0.00     0.023 C 
BRANCH  23  24
ATOM     24  C   UNL A   1      36.447  21.698  25.481  1.00  0.00     0.116 C 
BRANCH  24  25
ATOM     25  N   UNL A   1      37.508  20.703  25.478  1.00  0.00    -0.352 N 
ATOM     26  C   UNL A   1      38.823  20.842  25.862  1.00  0.00     0.251 C 
ATOM     27  H   UNL A   1      37.251  19.808  25.158  1.00  0.00     0.163 HD
ATOM     28  O   UNL A   1      39.596  19.901  25.733  1.00  0.00    -0.269 OA
BRANCH  26  29
ATOM     29  C   UNL A   1      39.302  22.147  26.374  1.00  0.00     0.039 A 
ATOM     30  C   UNL A   1      40.410  22.165  27.225  1.00  0.00     0.014 A 
ATOM     31  C   UNL A   1      38.692  23.344  25.991  1.00  0.00     0.014 A 
ATOM     32  C   UNL A   1      40.955  23.387  27.626  1.00  0.00     0.010 A 
ATOM     33  C   UNL A   1      39.279  24.560  26.331  1.00  0.00     0.010 A 
ATOM     34  C   UNL A   1      40.421  24.595  27.147  1.00  0.00    -0.014 A 
BRANCH  34  35
ATOM     35  C   UNL A   1      41.044  25.902  27.479  1.00  0.00     0.031 A 
ATOM     36  C   UNL A   1      42.473  26.174  27.096  1.00  0.00     0.074 A 
ATOM     37  C   UNL A   1      40.350  26.810  28.192  1.00  0.00     0.049 A 
ATOM     38  N   UNL A   1      43.223  27.209  27.375  1.00  0.00    -0.248 NA
ATOM     39  C   UNL A   1      43.155  25.125  26.323  1.00  0.00     0.031 C 
ATOM     40  C   UNL A   1      38.971  26.642  28.661  1.00  0.00     0.029 A 
ATOM     41  N   UNL A   1      40.709  28.050  28.659  1.00  0.00    -0.354 N 
ATOM     42  C   UNL A   1      44.471  26.930  26.826  1.00  0.00     0.074 A 
ATOM     43  C   UNL A   1      44.388  25.603  26.253  1.00  0.00     0.031 C 
ATOM     44  C   UNL A   1      38.598  27.744  29.331  1.00  0.00     0.029 A 
ATOM     45  C   UNL A   1      39.718  28.678  29.378  1.00  0.00     0.049 A 
ATOM     46  H   UNL A   1      41.592  28.452  28.494  1.00  0.00     0.167 HD
ATOM     47  C   UNL A   1      45.575  27.718  26.786  1.00  0.00     0.034 A 
ATOM     48  C   UNL A   1      39.717  29.866  30.014  1.00  0.00     0.034 A 
ATOM     49  C   UNL A   1      45.635  29.044  27.350  1.00  0.00     0.049 A 
ATOM     50  C   UNL A   1      40.958  30.719  29.967  1.00  0.00     0.074 A 
ATOM     51  C   UNL A   1      46.680  29.951  27.315  1.00  0.00     0.029 A 
ATOM     52  N   UNL A   1      44.608  29.653  28.062  1.00  0.00    -0.354 N 
ATOM     53  N   UNL A   1      42.115  30.464  29.400  1.00  0.00    -0.248 NA
ATOM     54  C   UNL A   1      40.889  32.025  30.637  1.00  0.00     0.031 C 
ATOM     55  C   UNL A   1      46.310  31.079  28.056  1.00  0.00     0.029 A 
ATOM     56  C   UNL A   1      45.006  30.910  28.494  1.00  0.00     0.049 A 
ATOM     57  H   UNL A   1      43.726  29.251  28.234  1.00  0.00     0.167 HD
ATOM     58  C   UNL A   1      42.902  31.591  29.621  1.00  0.00     0.074 A 
ATOM     59  C   UNL A   1      42.083  32.530  30.360  1.00  0.00     0.031 C 
ATOM     60  C   UNL A   1      44.183  31.831  29.242  1.00  0.00     0.034 A 
BRANCH  47  61
ATOM     61  C   UNL A   1      46.808  27.146  26.128  1.00  0.00     0.023 A 
ATOM     62  C   UNL A   1      47.802  26.484  26.871  1.00  0.00     0.031 A 
ATOM     63  C   UNL A   1      47.014  27.295  24.744  1.00  0.00     0.131 A 
ATOM     64  C   UNL A   1      48.988  26.073  26.246  1.00  0.00     0.055 A 
ATOM     65  C   UNL A   1      48.160  26.807  24.113  1.00  0.00     0.041 A 
ATOM     66  F   UNL A   1      46.111  27.934  23.984  1.00  0.00    -0.206 F 
ATOM     67  C   UNL A   1      49.165  26.207  24.867  1.00  0.00     0.022 A 
BRANCH  64  68
ATOM     68  S   UNL A   1      50.361  25.504  27.286  1.00  0.00     0.124 S 
ATOM     69  O   UNL A   1      49.884  24.190  27.712  1.00  0.00    -0.237 OA
ATOM     70  O   UNL A   1      51.485  25.505  26.355  1.00  0.00    -0.237 OA
ATOM     71  O   UNL A   1      50.428  26.508  28.347  1.00  0.00    -0.744 OA
ENDBRANCH  64  68
ENDBRANCH  47  61
BRANCH  48  72
ATOM     72  C   UNL A   1      38.507  30.322  30.758  1.00  0.00     0.023 A 
ATOM     73  C   UNL A   1      37.504  31.065  30.118  1.00  0.00     0.031 A 
ATOM     74  C   UNL A   1      38.357  30.049  32.129  1.00  0.00     0.131 A 
ATOM     75  C   UNL A   1      36.413  31.548  30.857  1.00  0.00     0.055 A 
ATOM     76  C   UNL A   1      37.245  30.491  32.849  1.00  0.00     0.041 A 
ATOM     77  F   UNL A   1      39.284  29.335  32.786  1.00  0.00    -0.206 F 
ATOM     78  C   UNL A   1      36.272  31.256  32.216  1.00  0.00     0.022 A 
BRANCH  75  79
ATOM     79  S   UNL A   1      35.216  32.632  30.030  1.00  0.00     0.124 S 
ATOM     80  O   UNL A   1      36.064  33.732  29.590  1.00  0.00    -0.237 OA
ATOM     81  O   UNL A   1      34.697  31.761  28.981  1.00  0.00    -0.237 OA
ATOM     82  O   UNL A   1      34.265  32.959  31.091  1.00  0.00    -0.744 OA
ENDBRANCH  75  79
ENDBRANCH  48  72
BRANCH  60  83
ATOM     83  C   UNL A   1      44.756  33.184  29.587  1.00  0.00     0.023 A 
ATOM     84  C   UNL A   1      45.423  33.418  30.802  1.00  0.00     0.031 A 
ATOM     85  C   UNL A   1      44.619  34.256  28.688  1.00  0.00     0.131 A 
ATOM     86  C   UNL A   1      45.881  34.708  31.108  1.00  0.00     0.055 A 
ATOM     87  C   UNL A   1      45.127  35.524  28.974  1.00  0.00     0.041 A 
ATOM     88  F   UNL A   1      43.989  34.089  27.515  1.00  0.00    -0.206 F 
ATOM     89  C   UNL A   1      45.751  35.758  30.196  1.00  0.00     0.022 A 
BRANCH  86  90
ATOM     90  S   UNL A   1      46.574  35.019  32.756  1.00  0.00     0.124 S 
ATOM     91  O   UNL A   1      47.518  36.099  32.490  1.00  0.00    -0.237 OA
ATOM     92  O   UNL A   1      45.390  35.382  33.529  1.00  0.00    -0.237 OA
ATOM     93  O   UNL A   1      47.181  33.740  33.120  1.00  0.00    -0.744 OA
ENDBRANCH  86  90
ENDBRANCH  60  83
ENDBRANCH  34  35
ENDBRANCH  26  29
ENDBRANCH  24  25
ENDBRANCH  23  24
ENDBRANCH   1  23
TORSDOF 20
ENDMDL
MODEL 3
REMARK VINA RESULT:     -10.6      4.998      7.958
REMARK SMILES C#CCN(CC(=O)NCCCCNC(=O)c1ccc(-c2c3nc(c(-c4cc(S(=O)(=O)[O-])ccc4F)c4ccc([nH]4)c(-c4cc(S(=O)(=O)[O-])ccc4F)c4nc(c(-c5cc(S(=O)(=O)[O-])ccc5F)c5ccc2[nH]5)C=C4)C=C3)cc1)C(=O)N1CCC(OCC)CC1
REMARK SMILES IDX 10 1 9 2 8 3 6 4 7 5 5 7 4 8 3 9 2 10 1 11 79 12 80 13 81 14
REMARK SMILES IDX 82 15 89 16 83 17 88 18 84 19 85 20 86 21 87 22 11 23 12 24
REMARK SMILES IDX 13 25 14 26 15 28 16 29 17 30 78 31 18 32 77 33 19 34 20 35
REMARK SMILES IDX 21 36 71 37 22 38 76 39 70 40 72 41 23 42 75 43 69 44 68 45
REMARK SMILES IDX 24 47 56 48 36 49 55 50 37 51 40 52 54 53 73 54 38 55 39 56
REMARK SMILES IDX 53 58 74 59 41 60 25 61 26 62 34 63 27 64 33 65 35 66 32 67
REMARK SMILES IDX 28 68 29 69 30 70 31 71 57 72 58 73 66 74 59 75 65 76 67 77
REMARK SMILES IDX 64 78 60 79 61 80 62 81 63 82 42 83 43 84 51 85 44 86 50 87
REMARK SMILES IDX 52 88 49 89 45 90 46 91 47 92 48 93
REMARK H PARENT 8 6 13 27 72 46 40 57
REMARK Flexibility Score: inf
ROOT
ATOM      1  C   UNL A   1      35.073  22.396  26.386  1.00  0.00     0.023 C 
ENDROOT
BRANCH   1   2
ATOM      2  C   UNL A   1      33.961  21.911  27.315  1.00  0.00     0.116 C 
BRANCH   2   3
ATOM      3  N   UNL A   1      32.861  22.835  27.473  1.00  0.00    -0.355 N 
ATOM      4  C   UNL A   1      31.707  22.971  26.762  1.00  0.00     0.239 C 
ATOM      5  O   UNL A   1      30.779  23.568  27.322  1.00  0.00    -0.273 OA
ATOM      6  H   UNL A   1      32.961  23.470  28.218  1.00  0.00     0.163 HD
BRANCH   4   7
ATOM      7  C   UNL A   1      31.474  22.355  25.365  1.00  0.00     0.222 C 
BRANCH   7   8
ATOM      8  N   UNL A   1      32.143  22.952  24.208  1.00  0.00    -0.304 N 
BRANCH   8   9
ATOM      9  C   UNL A   1      32.534  22.031  23.139  1.00  0.00     0.211 C 
BRANCH   9  10
ATOM     10  C   UNL A   1      32.536  20.576  23.579  1.00  0.00    -0.085 C 
ATOM     11  C   UNL A   1      32.539  19.328  23.956  1.00  0.00     0.006 C 
ENDBRANCH   9  10
ENDBRANCH   8   9
BRANCH   8  12
ATOM     12  C   UNL A   1      32.295  24.310  23.956  1.00  0.00     0.321 C 
ATOM     13  O   UNL A   1      33.312  24.912  24.314  1.00  0.00    -0.248 OA
ATOM     14  N   UNL A   1      31.349  24.967  23.191  1.00  0.00    -0.324 N 
ATOM     15  C   UNL A   1      31.821  26.037  22.315  1.00  0.00     0.124 C 
ATOM     16  C   UNL A   1      29.918  25.014  23.474  1.00  0.00     0.124 C 
ATOM     17  C   UNL A   1      31.518  27.408  22.908  1.00  0.00     0.053 C 
ATOM     18  C   UNL A   1      29.462  26.379  23.984  1.00  0.00     0.053 C 
ATOM     19  C   UNL A   1      30.016  27.541  23.162  1.00  0.00     0.121 C 
BRANCH  19  20
ATOM     20  O   UNL A   1      29.592  28.802  23.686  1.00  0.00    -0.378 OA
BRANCH  20  21
ATOM     21  C   UNL A   1      29.329  29.886  22.799  1.00  0.00     0.157 C 
ATOM     22  C   UNL A   1      29.060  31.214  23.482  1.00  0.00     0.035 C 
ENDBRANCH  20  21
ENDBRANCH  19  20
ENDBRANCH   8  12
ENDBRANCH   7   8
ENDBRANCH   4   7
ENDBRANCH   2   3
ENDBRANCH   1   2
BRANCH   1  23
ATOM     23  C   UNL A   1      35.690  21.351  25.459  1.00  0.00     0.023 C 
BRANCH  23  24
ATOM     24  C   UNL A   1      37.119  21.621  25.006  1.00  0.00     0.116 C 
BRANCH  24  25
ATOM     25  N   UNL A   1      38.068  20.591  25.401  1.00  0.00    -0.352 N 
ATOM     26  C   UNL A   1      39.251  20.727  26.092  1.00  0.00     0.251 C 
ATOM     27  H   UNL A   1      37.831  19.672  25.138  1.00  0.00     0.163 HD
ATOM     28  O   UNL A   1      39.958  19.746  26.284  1.00  0.00    -0.269 OA
BRANCH  26  29
ATOM     29  C   UNL A   1      39.684  22.069  26.544  1.00  0.00     0.039 A 
ATOM     30  C   UNL A   1      40.711  22.158  27.488  1.00  0.00     0.014 A 
ATOM     31  C   UNL A   1      39.113  23.231  26.018  1.00  0.00     0.014 A 
ATOM     32  C   UNL A   1      41.219  23.409  27.843  1.00  0.00     0.010 A 
ATOM     33  C   UNL A   1      39.669  24.472  26.317  1.00  0.00     0.010 A 
ATOM     34  C   UNL A   1      40.733  24.574  27.227  1.00  0.00    -0.014 A 
BRANCH  34  35
ATOM     35  C   UNL A   1      41.326  25.906  27.514  1.00  0.00     0.031 A 
ATOM     36  C   UNL A   1      42.730  26.215  27.074  1.00  0.00     0.074 A 
ATOM     37  C   UNL A   1      40.629  26.804  28.236  1.00  0.00     0.049 A 
ATOM     38  N   UNL A   1      43.457  27.278  27.307  1.00  0.00    -0.248 NA
ATOM     39  C   UNL A   1      43.417  25.175  26.294  1.00  0.00     0.031 C 
ATOM     40  C   UNL A   1      39.275  26.602  28.759  1.00  0.00     0.029 A 
ATOM     41  N   UNL A   1      40.965  28.063  28.669  1.00  0.00    -0.354 N 
ATOM     42  C   UNL A   1      44.692  27.028  26.718  1.00  0.00     0.074 A 
ATOM     43  C   UNL A   1      44.631  25.689  26.171  1.00  0.00     0.031 C 
ATOM     44  C   UNL A   1      38.891  27.704  29.423  1.00  0.00     0.029 A 
ATOM     45  C   UNL A   1      39.982  28.673  29.413  1.00  0.00     0.049 A 
ATOM     46  H   UNL A   1      41.829  28.489  28.465  1.00  0.00     0.167 HD
ATOM     47  C   UNL A   1      45.768  27.850  26.624  1.00  0.00     0.034 A 
ATOM     48  C   UNL A   1      39.966  29.872  30.029  1.00  0.00     0.034 A 
ATOM     49  C   UNL A   1      45.806  29.187  27.163  1.00  0.00     0.049 A 
ATOM     50  C   UNL A   1      41.177  30.762  29.922  1.00  0.00     0.074 A 
ATOM     51  C   UNL A   1      46.820  30.126  27.075  1.00  0.00     0.029 A 
ATOM     52  N   UNL A   1      44.788  29.777  27.903  1.00  0.00    -0.354 N 
ATOM     53  N   UNL A   1      42.320  30.533  29.317  1.00  0.00    -0.248 NA
ATOM     54  C   UNL A   1      41.091  32.077  30.572  1.00  0.00     0.031 C 
ATOM     55  C   UNL A   1      46.441  31.254  27.810  1.00  0.00     0.029 A 
ATOM     56  C   UNL A   1      45.161  31.052  28.298  1.00  0.00     0.049 A 
ATOM     57  H   UNL A   1      43.925  29.350  28.113  1.00  0.00     0.167 HD
ATOM     58  C   UNL A   1      43.078  31.688  29.490  1.00  0.00     0.074 A 
ATOM     59  C   UNL A   1      42.256  32.614  30.243  1.00  0.00     0.031 C 
ATOM     60  C   UNL A   1      44.336  31.960  29.061  1.00  0.00     0.034 A 
BRANCH  47  61
ATOM     61  C   UNL A   1      46.995  27.305  25.930  1.00  0.00     0.023 A 
ATOM     62  C   UNL A   1      47.990  26.605  26.635  1.00  0.00     0.031 A 
ATOM     63  C   UNL A   1      47.190  27.517  24.554  1.00  0.00     0.131 A 
ATOM     64  C   UNL A   1      49.171  26.220  25.982  1.00  0.00     0.055 A 
ATOM     65  C   UNL A   1      48.331  27.056  23.892  1.00  0.00     0.041 A 
ATOM     66  F   UNL A   1      46.285  28.196  23.832  1.00  0.00    -0.206 F 
ATOM     67  C   UNL A   1      49.338  26.417  24.610  1.00  0.00     0.022 A 
BRANCH  64  68
ATOM     68  S   UNL A   1      50.549  25.598  26.984  1.00  0.00     0.124 S 
ATOM     69  O   UNL A   1      51.564  25.343  25.965  1.00  0.00    -0.237 OA
ATOM     70  O   UNL A   1      50.814  26.714  27.885  1.00  0.00    -0.237 OA
ATOM     71  O   UNL A   1      50.000  24.401  27.618  1.00  0.00    -0.744 OA
ENDBRANCH  64  68
ENDBRANCH  47  61
BRANCH  48  72
ATOM     72  C   UNL A   1      38.770  30.303  30.809  1.00  0.00     0.023 A 
ATOM     73  C   UNL A   1      37.861  31.232  30.282  1.00  0.00     0.031 A 
ATOM     74  C   UNL A   1      38.541  29.816  32.108  1.00  0.00     0.131 A 
ATOM     75  C   UNL A   1      36.786  31.680  31.066  1.00  0.00     0.055 A 
ATOM     76  C   UNL A   1      37.442  30.228  32.865  1.00  0.00     0.041 A 
ATOM     77  F   UNL A   1      39.376  28.919  32.655  1.00  0.00    -0.206 F 
ATOM     78  C   UNL A   1      36.565  31.176  32.349  1.00  0.00     0.022 A 
BRANCH  75  79
ATOM     79  S   UNL A   1      35.720  32.993  30.408  1.00  0.00     0.124 S 
ATOM     80  O   UNL A   1      36.205  33.112  29.039  1.00  0.00    -0.237 OA
ATOM     81  O   UNL A   1      34.391  32.412  30.570  1.00  0.00    -0.237 OA
ATOM     82  O   UNL A   1      36.010  34.132  31.276  1.00  0.00    -0.744 OA
ENDBRANCH  75  79
ENDBRANCH  48  72
BRANCH  60  83
ATOM     83  C   UNL A   1      44.878  33.337  29.361  1.00  0.00     0.023 A 
ATOM     84  C   UNL A   1      44.565  34.447  28.559  1.00  0.00     0.031 A 
ATOM     85  C   UNL A   1      45.732  33.532  30.461  1.00  0.00     0.131 A 
ATOM     86  C   UNL A   1      45.144  35.694  28.838  1.00  0.00     0.055 A 
ATOM     87  C   UNL A   1      46.260  34.787  30.768  1.00  0.00     0.041 A 
ATOM     88  F   UNL A   1      46.065  32.506  31.259  1.00  0.00    -0.206 F 
ATOM     89  C   UNL A   1      45.977  35.875  29.946  1.00  0.00     0.022 A 
BRANCH  86  90
ATOM     90  S   UNL A   1      44.865  37.064  27.681  1.00  0.00     0.124 S 
ATOM     91  O   UNL A   1      44.473  38.145  28.579  1.00  0.00    -0.237 OA
ATOM     92  O   UNL A   1      46.171  37.205  27.044  1.00  0.00    -0.237 OA
ATOM     93  O   UNL A   1      43.803  36.565  26.809  1.00  0.00    -0.744 OA
ENDBRANCH  86  90
ENDBRANCH  60  83
ENDBRANCH  34  35
ENDBRANCH  26  29
ENDBRANCH  24  25
ENDBRANCH  23  24
ENDBRANCH   1  23
TORSDOF 20
ENDMDL
