MODEL 1
REMARK VINA RESULT:     -11.5      0.000      0.000
REMARK SMILES [NH3+][C@]1(C(=O)NCCCCNC(=O)c2ccc(-c3c4nc(c(-c5cc(S(=O)(=O)[O-])ccc5F)c5ccc([nH]5)c(-c5cc(S(=O)(=O)[O-])ccc5F)c5nc(c(-c6cc(S(=O)(=O)[O-])ccc6F)c6ccc3[nH]6)C=C5)C=C4)cc2)CC[C@@H](Sc2ccc(Cl)c(Cl)c2)C1
REMARK SMILES IDX 8 1 7 2 6 3 5 4 3 5 4 6 2 8 76 9 88 10 77 11 78 12 1 13
REMARK SMILES IDX 79 17 80 18 81 19 87 20 82 21 85 22 83 23 86 24 84 25 9 26
REMARK SMILES IDX 10 27 11 28 12 30 13 31 14 32 75 33 15 34 74 35 16 36 17 37
REMARK SMILES IDX 18 38 68 39 19 40 73 41 67 42 69 43 20 44 72 45 66 46 65 47
REMARK SMILES IDX 21 49 53 50 33 51 52 52 34 53 37 54 51 55 70 56 35 57 36 58
REMARK SMILES IDX 50 60 71 61 38 62 22 63 23 64 31 65 24 66 30 67 32 68 29 69
REMARK SMILES IDX 25 70 26 71 27 72 28 73 54 74 55 75 63 76 56 77 62 78 64 79
REMARK SMILES IDX 61 80 57 81 58 82 59 83 60 84 39 85 40 86 48 87 41 88 47 89
REMARK SMILES IDX 49 90 46 91 42 92 43 93 44 94 45 95
REMARK H PARENT 5 7 1 14 1 15 1 16 10 29 69 48 37 59
REMARK Flexibility Score: inf
ROOT
ATOM      1  C   UNL A   1      32.797  28.498  27.183  1.00  0.00     0.023 C 
ENDROOT
BRANCH   1   2
ATOM      2  C   UNL A   1      32.065  27.536  26.246  1.00  0.00     0.023 C 
BRANCH   2   3
ATOM      3  C   UNL A   1      32.464  26.062  26.389  1.00  0.00     0.116 C 
BRANCH   3   4
ATOM      4  N   UNL A   1      31.344  25.216  26.761  1.00  0.00    -0.351 N 
ATOM      5  C   UNL A   1      31.160  23.871  26.774  1.00  0.00     0.281 C 
ATOM      6  O   UNL A   1      30.079  23.477  27.229  1.00  0.00    -0.268 OA
ATOM      7  H   UNL A   1      30.556  25.722  27.066  1.00  0.00     0.163 HD
BRANCH   5   8
ATOM      8  C   UNL A   1      32.253  22.830  26.370  1.00  0.00     0.175 C 
ATOM      9  C   UNL A   1      31.589  21.782  25.442  1.00  0.00     0.080 C 
ATOM     10  C   UNL A   1      33.477  23.306  25.570  1.00  0.00     0.094 C 
ATOM     11  C   UNL A   1      32.705  21.187  24.604  1.00  0.00     0.022 C 
ATOM     12  C   UNL A   1      33.701  22.319  24.423  1.00  0.00     0.058 C 
BRANCH   8  13
ATOM     13  N   UNL A   1      32.715  22.142  27.602  1.00  0.00    -0.345 N 
ATOM     14  H   UNL A   1      32.800  22.821  28.358  1.00  0.00     0.345 HD
ATOM     15  H   UNL A   1      33.623  21.709  27.429  1.00  0.00     0.345 HD
ATOM     16  H   UNL A   1      32.040  21.424  27.863  1.00  0.00     0.345 HD
ENDBRANCH   8  13
BRANCH  12  17
ATOM     17  S   UNL A   1      33.773  23.085  22.740  1.00  0.00    -0.122 SA
BRANCH  17  18
ATOM     18  C   UNL A   1      33.055  24.718  22.824  1.00  0.00     0.009 A 
ATOM     19  C   UNL A   1      31.659  24.798  22.873  1.00  0.00     0.017 A 
ATOM     20  C   UNL A   1      33.764  25.913  22.705  1.00  0.00     0.037 A 
ATOM     21  C   UNL A   1      30.999  26.033  22.832  1.00  0.00     0.023 A 
ATOM     22  C   UNL A   1      33.118  27.156  22.667  1.00  0.00     0.060 A 
ATOM     23  C   UNL A   1      31.728  27.218  22.732  1.00  0.00     0.059 A 
ATOM     24  Cl  UNL A   1      34.108  28.566  22.518  1.00  0.00    -0.083 Cl
ATOM     25  Cl  UNL A   1      30.860  28.707  22.674  1.00  0.00    -0.083 Cl
ENDBRANCH  17  18
ENDBRANCH  12  17
ENDBRANCH   5   8
ENDBRANCH   3   4
ENDBRANCH   2   3
ENDBRANCH   1   2
BRANCH   1  26
ATOM     26  C   UNL A   1      33.644  29.539  26.470  1.00  0.00     0.116 C 
BRANCH  26  27
ATOM     27  N   UNL A   1      33.539  30.858  27.075  1.00  0.00    -0.352 N 
ATOM     28  C   UNL A   1      34.363  31.446  28.007  1.00  0.00     0.251 C 
ATOM     29  H   UNL A   1      32.775  31.403  26.778  1.00  0.00     0.163 HD
ATOM     30  O   UNL A   1      34.052  32.513  28.513  1.00  0.00    -0.269 OA
BRANCH  28  31
ATOM     31  C   UNL A   1      35.604  30.748  28.409  1.00  0.00     0.039 A 
ATOM     32  C   UNL A   1      36.789  31.033  27.728  1.00  0.00     0.014 A 
ATOM     33  C   UNL A   1      35.599  29.846  29.475  1.00  0.00     0.014 A 
ATOM     34  C   UNL A   1      37.984  30.456  28.158  1.00  0.00     0.010 A 
ATOM     35  C   UNL A   1      36.801  29.338  29.952  1.00  0.00     0.010 A 
ATOM     36  C   UNL A   1      38.005  29.630  29.293  1.00  0.00    -0.014 A 
BRANCH  36  37
ATOM     37  C   UNL A   1      39.272  29.042  29.798  1.00  0.00     0.031 A 
ATOM     38  C   UNL A   1      39.978  29.686  30.961  1.00  0.00     0.074 A 
ATOM     39  C   UNL A   1      39.817  27.985  29.162  1.00  0.00     0.049 A 
ATOM     40  N   UNL A   1      41.134  29.388  31.495  1.00  0.00    -0.248 NA
ATOM     41  C   UNL A   1      39.314  30.844  31.582  1.00  0.00     0.031 C 
ATOM     42  C   UNL A   1      39.248  27.318  27.988  1.00  0.00     0.029 A 
ATOM     43  N   UNL A   1      40.978  27.293  29.402  1.00  0.00    -0.354 N 
ATOM     44  C   UNL A   1      41.349  30.339  32.487  1.00  0.00     0.074 A 
ATOM     45  C   UNL A   1      40.228  31.251  32.449  1.00  0.00     0.031 C 
ATOM     46  C   UNL A   1      40.052  26.305  27.624  1.00  0.00     0.029 A 
ATOM     47  C   UNL A   1      41.212  26.275  28.507  1.00  0.00     0.049 A 
ATOM     48  H   UNL A   1      41.587  27.506  30.146  1.00  0.00     0.167 HD
ATOM     49  C   UNL A   1      42.381  30.427  33.363  1.00  0.00     0.034 A 
ATOM     50  C   UNL A   1      42.253  25.424  28.403  1.00  0.00     0.034 A 
ATOM     51  C   UNL A   1      43.464  29.478  33.415  1.00  0.00     0.049 A 
ATOM     52  C   UNL A   1      43.372  25.528  29.412  1.00  0.00     0.074 A 
ATOM     53  C   UNL A   1      44.505  29.411  34.323  1.00  0.00     0.029 A 
ATOM     54  N   UNL A   1      43.648  28.434  32.518  1.00  0.00    -0.354 N 
ATOM     55  N   UNL A   1      43.516  26.381  30.400  1.00  0.00    -0.248 NA
ATOM     56  C   UNL A   1      44.458  24.546  29.302  1.00  0.00     0.031 C 
ATOM     57  C   UNL A   1      45.355  28.369  33.937  1.00  0.00     0.029 A 
ATOM     58  C   UNL A   1      44.804  27.738  32.833  1.00  0.00     0.049 A 
ATOM     59  H   UNL A   1      43.047  28.219  31.769  1.00  0.00     0.167 HD
ATOM     60  C   UNL A   1      44.692  26.014  31.049  1.00  0.00     0.074 A 
ATOM     61  C   UNL A   1      45.206  24.852  30.351  1.00  0.00     0.031 C 
ATOM     62  C   UNL A   1      45.297  26.581  32.123  1.00  0.00     0.034 A 
BRANCH  49  63
ATOM     63  C   UNL A   1      42.397  31.597  34.316  1.00  0.00     0.023 A 
ATOM     64  C   UNL A   1      41.672  31.589  35.520  1.00  0.00     0.031 A 
ATOM     65  C   UNL A   1      43.155  32.743  34.013  1.00  0.00     0.131 A 
ATOM     66  C   UNL A   1      41.670  32.724  36.345  1.00  0.00     0.055 A 
ATOM     67  C   UNL A   1      43.210  33.840  34.874  1.00  0.00     0.041 A 
ATOM     68  F   UNL A   1      43.851  32.817  32.866  1.00  0.00    -0.206 F 
ATOM     69  C   UNL A   1      42.455  33.839  36.043  1.00  0.00     0.022 A 
BRANCH  66  70
ATOM     70  S   UNL A   1      40.538  32.768  37.760  1.00  0.00     0.124 S 
ATOM     71  O   UNL A   1      41.377  32.225  38.825  1.00  0.00    -0.237 OA
ATOM     72  O   UNL A   1      40.214  34.186  37.863  1.00  0.00    -0.237 OA
ATOM     73  O   UNL A   1      39.434  31.905  37.345  1.00  0.00    -0.744 OA
ENDBRANCH  66  70
ENDBRANCH  49  63
BRANCH  50  74
ATOM     74  C   UNL A   1      42.307  24.409  27.309  1.00  0.00     0.023 A 
ATOM     75  C   UNL A   1      41.557  23.225  27.381  1.00  0.00     0.031 A 
ATOM     76  C   UNL A   1      43.166  24.577  26.208  1.00  0.00     0.131 A 
ATOM     77  C   UNL A   1      41.726  22.227  26.408  1.00  0.00     0.055 A 
ATOM     78  C   UNL A   1      43.285  23.608  25.209  1.00  0.00     0.041 A 
ATOM     79  F   UNL A   1      43.904  25.692  26.084  1.00  0.00    -0.206 F 
ATOM     80  C   UNL A   1      42.575  22.415  25.316  1.00  0.00     0.022 A 
BRANCH  77  81
ATOM     81  S   UNL A   1      40.907  20.628  26.656  1.00  0.00     0.124 S 
ATOM     82  O   UNL A   1      39.618  20.850  26.012  1.00  0.00    -0.237 OA
ATOM     83  O   UNL A   1      41.817  19.714  25.973  1.00  0.00    -0.237 OA
ATOM     84  O   UNL A   1      40.863  20.489  28.110  1.00  0.00    -0.744 OA
ENDBRANCH  77  81
ENDBRANCH  50  74
BRANCH  62  85
ATOM     85  C   UNL A   1      46.549  25.916  32.635  1.00  0.00     0.023 A 
ATOM     86  C   UNL A   1      46.504  24.902  33.606  1.00  0.00     0.031 A 
ATOM     87  C   UNL A   1      47.808  26.312  32.148  1.00  0.00     0.131 A 
ATOM     88  C   UNL A   1      47.697  24.356  34.101  1.00  0.00     0.055 A 
ATOM     89  C   UNL A   1      48.988  25.721  32.599  1.00  0.00     0.041 A 
ATOM     90  F   UNL A   1      47.908  27.278  31.221  1.00  0.00    -0.206 F 
ATOM     91  C   UNL A   1      48.937  24.747  33.591  1.00  0.00     0.022 A 
BRANCH  88  92
ATOM     92  S   UNL A   1      47.611  23.190  35.486  1.00  0.00     0.124 S 
ATOM     93  O   UNL A   1      46.221  22.750  35.428  1.00  0.00    -0.237 OA
ATOM     94  O   UNL A   1      48.611  22.192  35.118  1.00  0.00    -0.237 OA
ATOM     95  O   UNL A   1      47.953  24.009  36.647  1.00  0.00    -0.744 OA
ENDBRANCH  88  92
ENDBRANCH  62  85
ENDBRANCH  36  37
ENDBRANCH  28  31
ENDBRANCH  26  27
ENDBRANCH   1  26
TORSDOF 17
ENDMDL
MODEL 2
REMARK VINA RESULT:     -11.5      3.648      8.896
REMARK SMILES [NH3+][C@]1(C(=O)NCCCCNC(=O)c2ccc(-c3c4nc(c(-c5cc(S(=O)(=O)[O-])ccc5F)c5ccc([nH]5)c(-c5cc(S(=O)(=O)[O-])ccc5F)c5nc(c(-c6cc(S(=O)(=O)[O-])ccc6F)c6ccc3[nH]6)C=C5)C=C4)cc2)CC[C@@H](Sc2ccc(Cl)c(Cl)c2)C1
REMARK SMILES IDX 8 1 7 2 6 3 5 4 3 5 4 6 2 8 76 9 88 10 77 11 78 12 1 13
REMARK SMILES IDX 79 17 80 18 81 19 87 20 82 21 85 22 83 23 86 24 84 25 9 26
REMARK SMILES IDX 10 27 11 28 12 30 13 31 14 32 75 33 15 34 74 35 16 36 17 37
REMARK SMILES IDX 18 38 68 39 19 40 73 41 67 42 69 43 20 44 72 45 66 46 65 47
REMARK SMILES IDX 21 49 53 50 33 51 52 52 34 53 37 54 51 55 70 56 35 57 36 58
REMARK SMILES IDX 50 60 71 61 38 62 22 63 23 64 31 65 24 66 30 67 32 68 29 69
REMARK SMILES IDX 25 70 26 71 27 72 28 73 54 74 55 75 63 76 56 77 62 78 64 79
REMARK SMILES IDX 61 80 57 81 58 82 59 83 60 84 39 85 40 86 48 87 41 88 47 89
REMARK SMILES IDX 49 90 46 91 42 92 43 93 44 94 45 95
REMARK H PARENT 5 7 1 14 1 15 1 16 10 29 69 48 37 59
REMARK Flexibility Score: inf
ROOT
ATOM      1  C   UNL A   1      31.820  31.702  26.668  1.00  0.00     0.023 C 
ENDROOT
BRANCH   1   2
ATOM      2  C   UNL A   1      32.064  30.209  26.444  1.00  0.00     0.023 C 
BRANCH   2   3
ATOM      3  C   UNL A   1      31.738  29.704  25.033  1.00  0.00     0.116 C 
BRANCH   3   4
ATOM      4  N   UNL A   1      32.929  29.516  24.222  1.00  0.00    -0.351 N 
ATOM      5  C   UNL A   1      33.337  28.526  23.388  1.00  0.00     0.281 C 
ATOM      6  O   UNL A   1      34.400  28.728  22.788  1.00  0.00    -0.268 OA
ATOM      7  H   UNL A   1      33.570  30.259  24.291  1.00  0.00     0.163 HD
BRANCH   5   8
ATOM      8  C   UNL A   1      32.502  27.244  23.068  1.00  0.00     0.175 C 
ATOM      9  C   UNL A   1      33.468  26.183  22.484  1.00  0.00     0.080 C 
ATOM     10  C   UNL A   1      31.798  26.506  24.220  1.00  0.00     0.094 C 
ATOM     11  C   UNL A   1      32.829  24.833  22.752  1.00  0.00     0.022 C 
ATOM     12  C   UNL A   1      32.076  25.012  24.058  1.00  0.00     0.058 C 
BRANCH   8  13
ATOM     13  N   UNL A   1      31.501  27.592  22.029  1.00  0.00    -0.345 N 
ATOM     14  H   UNL A   1      30.573  27.307  22.342  1.00  0.00     0.345 HD
ATOM     15  H   UNL A   1      31.731  27.107  21.161  1.00  0.00     0.345 HD
ATOM     16  H   UNL A   1      31.512  28.598  21.869  1.00  0.00     0.345 HD
ENDBRANCH   8  13
BRANCH  12  17
ATOM     17  S   UNL A   1      32.811  24.191  25.545  1.00  0.00    -0.122 SA
BRANCH  17  18
ATOM     18  C   UNL A   1      33.324  22.541  25.092  1.00  0.00     0.009 A 
ATOM     19  C   UNL A   1      32.314  21.630  24.764  1.00  0.00     0.017 A 
ATOM     20  C   UNL A   1      34.628  22.056  25.173  1.00  0.00     0.037 A 
ATOM     21  C   UNL A   1      32.607  20.284  24.501  1.00  0.00     0.023 A 
ATOM     22  C   UNL A   1      34.936  20.714  24.908  1.00  0.00     0.060 A 
ATOM     23  C   UNL A   1      33.921  19.823  24.569  1.00  0.00     0.059 A 
ATOM     24  Cl  UNL A   1      36.592  20.234  25.042  1.00  0.00    -0.083 Cl
ATOM     25  Cl  UNL A   1      34.217  18.155  24.246  1.00  0.00    -0.083 Cl
ENDBRANCH  17  18
ENDBRANCH  12  17
ENDBRANCH   5   8
ENDBRANCH   3   4
ENDBRANCH   2   3
ENDBRANCH   1   2
BRANCH   1  26
ATOM     26  C   UNL A   1      32.967  32.425  27.356  1.00  0.00     0.116 C 
BRANCH  26  27
ATOM     27  N   UNL A   1      32.652  33.813  27.662  1.00  0.00    -0.352 N 
ATOM     28  C   UNL A   1      33.212  34.632  28.616  1.00  0.00     0.251 C 
ATOM     29  H   UNL A   1      31.943  34.220  27.113  1.00  0.00     0.163 HD
ATOM     30  O   UNL A   1      32.733  35.734  28.832  1.00  0.00    -0.269 OA
BRANCH  28  31
ATOM     31  C   UNL A   1      34.369  34.140  29.394  1.00  0.00     0.039 A 
ATOM     32  C   UNL A   1      34.139  33.302  30.487  1.00  0.00     0.014 A 
ATOM     33  C   UNL A   1      35.673  34.476  29.021  1.00  0.00     0.014 A 
ATOM     34  C   UNL A   1      35.224  32.753  31.171  1.00  0.00     0.010 A 
ATOM     35  C   UNL A   1      36.749  33.863  29.651  1.00  0.00     0.010 A 
ATOM     36  C   UNL A   1      36.536  33.001  30.739  1.00  0.00    -0.014 A 
BRANCH  36  37
ATOM     37  C   UNL A   1      37.705  32.390  31.422  1.00  0.00     0.031 A 
ATOM     38  C   UNL A   1      38.451  31.266  30.753  1.00  0.00     0.074 A 
ATOM     39  C   UNL A   1      38.038  32.794  32.664  1.00  0.00     0.049 A 
ATOM     40  N   UNL A   1      39.434  30.537  31.213  1.00  0.00    -0.248 NA
ATOM     41  C   UNL A   1      38.004  30.884  29.403  1.00  0.00     0.031 C 
ATOM     42  C   UNL A   1      37.347  33.835  33.429  1.00  0.00     0.029 A 
ATOM     43  N   UNL A   1      39.032  32.370  33.510  1.00  0.00    -0.354 N 
ATOM     44  C   UNL A   1      39.701  29.594  30.226  1.00  0.00     0.074 A 
ATOM     45  C   UNL A   1      38.743  29.812  29.164  1.00  0.00     0.031 C 
ATOM     46  C   UNL A   1      37.950  33.978  34.622  1.00  0.00     0.029 A 
ATOM     47  C   UNL A   1      39.040  33.015  34.725  1.00  0.00     0.049 A 
ATOM     48  H   UNL A   1      39.680  31.668  33.269  1.00  0.00     0.167 HD
ATOM     49  C   UNL A   1      40.671  28.647  30.203  1.00  0.00     0.034 A 
ATOM     50  C   UNL A   1      39.828  32.837  35.804  1.00  0.00     0.034 A 
ATOM     51  C   UNL A   1      41.645  28.480  31.252  1.00  0.00     0.049 A 
ATOM     52  C   UNL A   1      40.918  31.796  35.737  1.00  0.00     0.074 A 
ATOM     53  C   UNL A   1      42.731  27.624  31.288  1.00  0.00     0.029 A 
ATOM     54  N   UNL A   1      41.648  29.180  32.451  1.00  0.00    -0.354 N 
ATOM     55  N   UNL A   1      41.212  30.970  34.758  1.00  0.00    -0.248 NA
ATOM     56  C   UNL A   1      41.794  31.673  36.909  1.00  0.00     0.031 C 
ATOM     57  C   UNL A   1      43.351  27.757  32.534  1.00  0.00     0.029 A 
ATOM     58  C   UNL A   1      42.698  28.749  33.247  1.00  0.00     0.049 A 
ATOM     59  H   UNL A   1      41.000  29.877  32.700  1.00  0.00     0.167 HD
ATOM     60  C   UNL A   1      42.327  30.255  35.187  1.00  0.00     0.074 A 
ATOM     61  C   UNL A   1      42.663  30.761  36.503  1.00  0.00     0.031 C 
ATOM     62  C   UNL A   1      43.014  29.270  34.556  1.00  0.00     0.034 A 
BRANCH  49  63
ATOM     63  C   UNL A   1      40.711  27.709  29.022  1.00  0.00     0.023 A 
ATOM     64  C   UNL A   1      41.665  27.839  27.997  1.00  0.00     0.031 A 
ATOM     65  C   UNL A   1      39.776  26.663  28.920  1.00  0.00     0.131 A 
ATOM     66  C   UNL A   1      41.624  26.980  26.889  1.00  0.00     0.055 A 
ATOM     67  C   UNL A   1      39.788  25.763  27.853  1.00  0.00     0.041 A 
ATOM     68  F   UNL A   1      38.827  26.502  29.857  1.00  0.00    -0.206 F 
ATOM     69  C   UNL A   1      40.709  25.927  26.822  1.00  0.00     0.022 A 
BRANCH  66  70
ATOM     70  S   UNL A   1      42.710  27.328  25.479  1.00  0.00     0.124 S 
ATOM     71  O   UNL A   1      42.041  28.473  24.868  1.00  0.00    -0.237 OA
ATOM     72  O   UNL A   1      43.988  27.606  26.125  1.00  0.00    -0.237 OA
ATOM     73  O   UNL A   1      42.662  26.095  24.696  1.00  0.00    -0.744 OA
ENDBRANCH  66  70
ENDBRANCH  49  63
BRANCH  50  74
ATOM     74  C   UNL A   1      39.621  33.642  37.045  1.00  0.00     0.023 A 
ATOM     75  C   UNL A   1      38.937  33.109  38.149  1.00  0.00     0.031 A 
ATOM     76  C   UNL A   1      40.044  34.982  37.119  1.00  0.00     0.131 A 
ATOM     77  C   UNL A   1      38.637  33.927  39.250  1.00  0.00     0.055 A 
ATOM     78  C   UNL A   1      39.797  35.774  38.242  1.00  0.00     0.041 A 
ATOM     79  F   UNL A   1      40.707  35.543  36.095  1.00  0.00    -0.206 F 
ATOM     80  C   UNL A   1      39.073  35.252  39.310  1.00  0.00     0.022 A 
BRANCH  77  81
ATOM     81  S   UNL A   1      37.563  33.265  40.554  1.00  0.00     0.124 S 
ATOM     82  O   UNL A   1      37.338  34.444  41.381  1.00  0.00    -0.237 OA
ATOM     83  O   UNL A   1      36.416  32.791  39.787  1.00  0.00    -0.237 OA
ATOM     84  O   UNL A   1      38.377  32.218  41.166  1.00  0.00    -0.744 OA
ENDBRANCH  77  81
ENDBRANCH  50  74
BRANCH  62  85
ATOM     85  C   UNL A   1      44.227  28.719  35.263  1.00  0.00     0.023 A 
ATOM     86  C   UNL A   1      44.127  27.677  36.200  1.00  0.00     0.031 A 
ATOM     87  C   UNL A   1      45.501  29.253  34.998  1.00  0.00     0.131 A 
ATOM     88  C   UNL A   1      45.272  27.239  36.882  1.00  0.00     0.055 A 
ATOM     89  C   UNL A   1      46.645  28.770  35.633  1.00  0.00     0.041 A 
ATOM     90  F   UNL A   1      45.653  30.250  34.112  1.00  0.00    -0.206 F 
ATOM     91  C   UNL A   1      46.532  27.767  36.591  1.00  0.00     0.022 A 
BRANCH  88  92
ATOM     92  S   UNL A   1      45.079  26.031  38.219  1.00  0.00     0.124 S 
ATOM     93  O   UNL A   1      46.442  25.925  38.731  1.00  0.00    -0.237 OA
ATOM     94  O   UNL A   1      44.118  26.688  39.099  1.00  0.00    -0.237 OA
ATOM     95  O   UNL A   1      44.579  24.840  37.536  1.00  0.00    -0.744 OA
ENDBRANCH  88  92
ENDBRANCH  62  85
ENDBRANCH  36  37
ENDBRANCH  28  31
ENDBRANCH  26  27
ENDBRANCH   1  26
TORSDOF 17
ENDMDL
MODEL 3
REMARK VINA RESULT:     -11.5      4.223      9.245
REMARK SMILES [NH3+][C@]1(C(=O)NCCCCNC(=O)c2ccc(-c3c4nc(c(-c5cc(S(=O)(=O)[O-])ccc5F)c5ccc([nH]5)c(-c5cc(S(=O)(=O)[O-])ccc5F)c5nc(c(-c6cc(S(=O)(=O)[O-])ccc6F)c6ccc3[nH]6)C=C5)C=C4)cc2)CC[C@@H](Sc2ccc(Cl)c(Cl)c2)C1
REMARK SMILES IDX 8 1 7 2 6 3 5 4 3 5 4 6 2 8 76 9 88 10 77 11 78 12 1 13
REMARK SMILES IDX 79 17 80 18 81 19 87 20 82 21 85 22 83 23 86 24 84 25 9 26
REMARK SMILES IDX 10 27 11 28 12 30 13 31 14 32 75 33 15 34 74 35 16 36 17 37
REMARK SMILES IDX 18 38 68 39 19 40 73 41 67 42 69 43 20 44 72 45 66 46 65 47
REMARK SMILES IDX 21 49 53 50 33 51 52 52 34 53 37 54 51 55 70 56 35 57 36 58
REMARK SMILES IDX 50 60 71 61 38 62 22 63 23 64 31 65 24 66 30 67 32 68 29 69
REMARK SMILES IDX 25 70 26 71 27 72 28 73 54 74 55 75 63 76 56 77 62 78 64 79
REMARK SMILES IDX 61 80 57 81 58 82 59 83 60 84 39 85 40 86 48 87 41 88 47 89
REMARK SMILES IDX 49 90 46 91 42 92 43 93 44 94 45 95
REMARK H PARENT 5 7 1 14 1 15 1 16 10 29 69 48 37 59
REMARK Flexibility Score: inf
ROOT
ATOM      1  C   UNL A   1      35.608  22.688  25.025  1.00  0.00     0.023 C 
ENDROOT
BRANCH   1   2
ATOM      2  C   UNL A   1      35.070  23.484  23.835  1.00  0.00     0.023 C 
BRANCH   2   3
ATOM      3  C   UNL A   1      33.704  23.024  23.311  1.00  0.00     0.116 C 
BRANCH   3   4
ATOM      4  N   UNL A   1      33.191  21.874  24.035  1.00  0.00    -0.351 N 
ATOM      5  C   UNL A   1      32.188  21.718  24.938  1.00  0.00     0.281 C 
ATOM      6  O   UNL A   1      31.971  20.558  25.309  1.00  0.00    -0.268 OA
ATOM      7  H   UNL A   1      33.666  21.037  23.830  1.00  0.00     0.163 HD
BRANCH   5   8
ATOM      8  C   UNL A   1      31.251  22.872  25.421  1.00  0.00     0.175 C 
ATOM      9  C   UNL A   1      32.072  23.783  26.368  1.00  0.00     0.080 C 
ATOM     10  C   UNL A   1      30.673  23.848  24.383  1.00  0.00     0.094 C 
ATOM     11  C   UNL A   1      31.406  25.145  26.331  1.00  0.00     0.022 C 
ATOM     12  C   UNL A   1      30.848  25.267  24.924  1.00  0.00     0.058 C 
BRANCH   8  13
ATOM     13  N   UNL A   1      30.138  22.270  26.196  1.00  0.00    -0.345 N 
ATOM     14  H   UNL A   1      29.558  23.011  26.590  1.00  0.00     0.345 HD
ATOM     15  H   UNL A   1      30.520  21.699  26.951  1.00  0.00     0.345 HD
ATOM     16  H   UNL A   1      29.573  21.686  25.581  1.00  0.00     0.345 HD
ENDBRANCH   8  13
BRANCH  12  17
ATOM     17  S   UNL A   1      31.735  26.429  23.789  1.00  0.00    -0.122 SA
BRANCH  17  18
ATOM     18  C   UNL A   1      32.408  27.771  24.758  1.00  0.00     0.009 A 
ATOM     19  C   UNL A   1      33.641  27.548  25.381  1.00  0.00     0.017 A 
ATOM     20  C   UNL A   1      31.742  28.959  25.054  1.00  0.00     0.037 A 
ATOM     21  C   UNL A   1      34.198  28.497  26.249  1.00  0.00     0.023 A 
ATOM     22  C   UNL A   1      32.289  29.919  25.916  1.00  0.00     0.060 A 
ATOM     23  C   UNL A   1      33.524  29.688  26.517  1.00  0.00     0.059 A 
ATOM     24  Cl  UNL A   1      31.367  31.352  26.204  1.00  0.00    -0.083 Cl
ATOM     25  Cl  UNL A   1      34.256  30.812  27.602  1.00  0.00    -0.083 Cl
ENDBRANCH  17  18
ENDBRANCH  12  17
ENDBRANCH   5   8
ENDBRANCH   3   4
ENDBRANCH   2   3
ENDBRANCH   1   2
BRANCH   1  26
ATOM     26  C   UNL A   1      36.760  23.360  25.755  1.00  0.00     0.116 C 
BRANCH  26  27
ATOM     27  N   UNL A   1      37.871  22.454  26.002  1.00  0.00    -0.352 N 
ATOM     28  C   UNL A   1      39.130  22.745  26.478  1.00  0.00     0.251 C 
ATOM     29  H   UNL A   1      37.700  21.505  25.803  1.00  0.00     0.163 HD
ATOM     30  O   UNL A   1      39.992  21.881  26.497  1.00  0.00    -0.269 OA
BRANCH  28  31
ATOM     31  C   UNL A   1      39.426  24.124  26.924  1.00  0.00     0.039 A 
ATOM     32  C   UNL A   1      39.176  24.471  28.253  1.00  0.00     0.014 A 
ATOM     33  C   UNL A   1      39.981  25.054  26.042  1.00  0.00     0.014 A 
ATOM     34  C   UNL A   1      39.540  25.736  28.713  1.00  0.00     0.010 A 
ATOM     35  C   UNL A   1      40.418  26.282  26.521  1.00  0.00     0.010 A 
ATOM     36  C   UNL A   1      40.194  26.640  27.860  1.00  0.00    -0.014 A 
BRANCH  36  37
ATOM     37  C   UNL A   1      40.633  27.976  28.339  1.00  0.00     0.031 A 
ATOM     38  C   UNL A   1      42.103  28.264  28.490  1.00  0.00     0.074 A 
ATOM     39  C   UNL A   1      39.712  28.889  28.706  1.00  0.00     0.049 A 
ATOM     40  N   UNL A   1      42.692  29.325  28.976  1.00  0.00    -0.248 NA
ATOM     41  C   UNL A   1      43.033  27.200  28.077  1.00  0.00     0.031 C 
ATOM     42  C   UNL A   1      38.261  28.695  28.657  1.00  0.00     0.029 A 
ATOM     43  N   UNL A   1      39.857  30.158  29.208  1.00  0.00    -0.354 N 
ATOM     44  C   UNL A   1      44.055  29.044  28.957  1.00  0.00     0.074 A 
ATOM     45  C   UNL A   1      44.201  27.694  28.458  1.00  0.00     0.031 C 
ATOM     46  C   UNL A   1      37.652  29.810  29.093  1.00  0.00     0.029 A 
ATOM     47  C   UNL A   1      38.663  30.782  29.493  1.00  0.00     0.049 A 
ATOM     48  H   UNL A   1      40.733  30.584  29.352  1.00  0.00     0.167 HD
ATOM     49  C   UNL A   1      45.089  29.849  29.306  1.00  0.00     0.034 A 
ATOM     50  C   UNL A   1      38.416  31.994  30.028  1.00  0.00     0.034 A 
ATOM     51  C   UNL A   1      44.921  31.208  29.755  1.00  0.00     0.049 A 
ATOM     52  C   UNL A   1      39.587  32.880  30.379  1.00  0.00     0.074 A 
ATOM     53  C   UNL A   1      45.898  32.146  30.038  1.00  0.00     0.029 A 
ATOM     54  N   UNL A   1      43.698  31.821  29.992  1.00  0.00    -0.354 N 
ATOM     55  N   UNL A   1      40.872  32.630  30.272  1.00  0.00    -0.248 NA
ATOM     56  C   UNL A   1      39.276  34.215  30.904  1.00  0.00     0.031 C 
ATOM     57  C   UNL A   1      45.269  33.303  30.509  1.00  0.00     0.029 A 
ATOM     58  C   UNL A   1      43.898  33.114  30.449  1.00  0.00     0.049 A 
ATOM     59  H   UNL A   1      42.819  31.401  29.856  1.00  0.00     0.167 HD
ATOM     60  C   UNL A   1      41.520  33.791  30.686  1.00  0.00     0.074 A 
ATOM     61  C   UNL A   1      40.483  34.745  31.025  1.00  0.00     0.031 C 
ATOM     62  C   UNL A   1      42.849  34.049  30.780  1.00  0.00     0.034 A 
BRANCH  49  63
ATOM     63  C   UNL A   1      46.482  29.275  29.238  1.00  0.00     0.023 A 
ATOM     64  C   UNL A   1      47.287  29.403  28.092  1.00  0.00     0.031 A 
ATOM     65  C   UNL A   1      47.017  28.588  30.342  1.00  0.00     0.131 A 
ATOM     66  C   UNL A   1      48.553  28.801  28.054  1.00  0.00     0.055 A 
ATOM     67  C   UNL A   1      48.307  28.056  30.326  1.00  0.00     0.041 A 
ATOM     68  F   UNL A   1      46.287  28.415  31.457  1.00  0.00    -0.206 F 
ATOM     69  C   UNL A   1      49.079  28.151  29.173  1.00  0.00     0.022 A 
BRANCH  66  70
ATOM     70  S   UNL A   1      49.458  28.779  26.483  1.00  0.00     0.124 S 
ATOM     71  O   UNL A   1      50.429  27.713  26.718  1.00  0.00    -0.237 OA
ATOM     72  O   UNL A   1      48.407  28.483  25.516  1.00  0.00    -0.237 OA
ATOM     73  O   UNL A   1      50.026  30.122  26.395  1.00  0.00    -0.744 OA
ENDBRANCH  66  70
ENDBRANCH  49  63
BRANCH  50  74
ATOM     74  C   UNL A   1      37.016  32.448  30.283  1.00  0.00     0.023 A 
ATOM     75  C   UNL A   1      36.269  33.090  29.283  1.00  0.00     0.031 A 
ATOM     76  C   UNL A   1      36.429  32.309  31.554  1.00  0.00     0.131 A 
ATOM     77  C   UNL A   1      35.008  33.628  29.585  1.00  0.00     0.055 A 
ATOM     78  C   UNL A   1      35.149  32.791  31.833  1.00  0.00     0.041 A 
ATOM     79  F   UNL A   1      37.095  31.699  32.547  1.00  0.00    -0.206 F 
ATOM     80  C   UNL A   1      34.437  33.472  30.850  1.00  0.00     0.022 A 
BRANCH  77  81
ATOM     81  S   UNL A   1      34.174  34.640  28.331  1.00  0.00     0.124 S 
ATOM     82  O   UNL A   1      35.063  34.487  27.186  1.00  0.00    -0.237 OA
ATOM     83  O   UNL A   1      32.876  33.982  28.228  1.00  0.00    -0.237 OA
ATOM     84  O   UNL A   1      34.150  35.972  28.930  1.00  0.00    -0.744 OA
ENDBRANCH  77  81
ENDBRANCH  50  74
BRANCH  62  85
ATOM     85  C   UNL A   1      43.248  35.437  31.216  1.00  0.00     0.023 A 
ATOM     86  C   UNL A   1      43.287  35.803  32.571  1.00  0.00     0.031 A 
ATOM     87  C   UNL A   1      43.585  36.408  30.256  1.00  0.00     0.131 A 
ATOM     88  C   UNL A   1      43.601  37.122  32.929  1.00  0.00     0.055 A 
ATOM     89  C   UNL A   1      43.957  37.701  30.621  1.00  0.00     0.041 A 
ATOM     90  F   UNL A   1      43.563  36.111  28.947  1.00  0.00    -0.206 F 
ATOM     91  C   UNL A   1      43.953  38.068  31.963  1.00  0.00     0.022 A 
BRANCH  88  92
ATOM     92  S   UNL A   1      43.456  37.610  34.669  1.00  0.00     0.124 S 
ATOM     93  O   UNL A   1      42.091  37.204  34.985  1.00  0.00    -0.237 OA
ATOM     94  O   UNL A   1      44.516  36.831  35.301  1.00  0.00    -0.237 OA
ATOM     95  O   UNL A   1      43.683  39.054  34.640  1.00  0.00    -0.744 OA
ENDBRANCH  88  92
ENDBRANCH  62  85
ENDBRANCH  36  37
ENDBRANCH  28  31
ENDBRANCH  26  27
ENDBRANCH   1  26
TORSDOF 17
ENDMDL
