MODEL 1
REMARK VINA RESULT:     -12.1      0.000      0.000
REMARK SMILES C[C@@H](C(=O)NCCCCNC(=O)c1ccc(-c2c3nc(c(-c4cc(S(=O)(=O)[O-])ccc4F)c4ccc([nH]4)c(-c4cc(S(=O)(=O)[O-])ccc4F)c4nc(c(-c5cc(S(=O)(=O)[O-])ccc5F)c5ccc2[nH]5)C=C4)C=C3)cc1)[N@@H+](C)Cc1ccc(-c2ccccc2)cc1
REMARK SMILES IDX 7 1 6 2 5 3 3 4 4 5 2 7 1 8 76 9 77 10 78 12 79 13 80 14
REMARK SMILES IDX 90 15 81 16 89 17 82 18 83 19 84 20 88 21 85 22 87 23 86 24
REMARK SMILES IDX 8 25 9 26 10 27 11 28 12 30 13 31 14 32 75 33 15 34 74 35
REMARK SMILES IDX 16 36 17 37 18 38 68 39 19 40 73 41 67 42 69 43 20 44 72 45
REMARK SMILES IDX 66 46 65 47 21 49 53 50 33 51 52 52 34 53 37 54 51 55 70 56
REMARK SMILES IDX 35 57 36 58 50 60 71 61 38 62 22 63 23 64 31 65 24 66 30 67
REMARK SMILES IDX 32 68 29 69 25 70 26 71 27 72 28 73 54 74 55 75 63 76 56 77
REMARK SMILES IDX 62 78 64 79 61 80 57 81 58 82 59 83 60 84 39 85 40 86 48 87
REMARK SMILES IDX 41 88 47 89 49 90 46 91 42 92 43 93 44 94 45 95
REMARK H PARENT 5 6 76 11 10 29 69 48 37 59
REMARK Flexibility Score: inf
ROOT
ATOM      1  C   UNL A   1      31.944  27.386  26.971  1.00  0.00     0.023 C 
ENDROOT
BRANCH   1   2
ATOM      2  C   UNL A   1      32.198  26.033  26.318  1.00  0.00     0.116 C 
BRANCH   2   3
ATOM      3  N   UNL A   1      31.393  24.966  26.875  1.00  0.00    -0.351 N 
ATOM      4  C   UNL A   1      31.645  23.642  26.642  1.00  0.00     0.278 C 
ATOM      5  O   UNL A   1      31.970  22.965  27.624  1.00  0.00    -0.268 OA
ATOM      6  H   UNL A   1      30.629  25.205  27.448  1.00  0.00     0.163 HD
BRANCH   4   7
ATOM      7  C   UNL A   1      31.523  23.033  25.212  1.00  0.00     0.271 C 
ATOM      8  C   UNL A   1      31.779  21.529  25.100  1.00  0.00     0.086 C 
BRANCH   7   9
ATOM      9  N   UNL A   1      32.313  23.779  24.195  1.00  0.00    -0.324 N 
ATOM     10  C   UNL A   1      33.683  23.339  23.987  1.00  0.00     0.333 C 
ATOM     11  H   UNL A   1      32.372  24.632  24.750  1.00  0.00     0.348 HD
BRANCH   9  12
ATOM     12  C   UNL A   1      31.666  24.356  23.012  1.00  0.00     0.299 C 
BRANCH  12  13
ATOM     13  C   UNL A   1      30.986  25.710  23.060  1.00  0.00     0.006 A 
ATOM     14  C   UNL A   1      31.610  26.795  22.410  1.00  0.00     0.010 A 
ATOM     15  C   UNL A   1      29.746  25.953  23.647  1.00  0.00     0.010 A 
ATOM     16  C   UNL A   1      31.021  28.068  22.377  1.00  0.00     0.009 A 
ATOM     17  C   UNL A   1      29.175  27.224  23.652  1.00  0.00     0.009 A 
ATOM     18  C   UNL A   1      29.797  28.298  23.011  1.00  0.00    -0.018 A 
BRANCH  18  19
ATOM     19  C   UNL A   1      29.108  29.589  22.980  1.00  0.00    -0.018 A 
ATOM     20  C   UNL A   1      29.474  30.606  23.874  1.00  0.00     0.009 A 
ATOM     21  C   UNL A   1      28.179  29.882  21.970  1.00  0.00     0.009 A 
ATOM     22  C   UNL A   1      28.954  31.895  23.738  1.00  0.00     0.001 A 
ATOM     23  C   UNL A   1      27.656  31.169  21.837  1.00  0.00     0.001 A 
ATOM     24  C   UNL A   1      28.052  32.177  22.714  1.00  0.00     0.000 A 
ENDBRANCH  18  19
ENDBRANCH  12  13
ENDBRANCH   9  12
ENDBRANCH   7   9
ENDBRANCH   4   7
ENDBRANCH   2   3
ENDBRANCH   1   2
BRANCH   1  25
ATOM     25  C   UNL A   1      31.666  28.546  26.008  1.00  0.00     0.023 C 
BRANCH  25  26
ATOM     26  C   UNL A   1      32.791  29.564  25.828  1.00  0.00     0.116 C 
BRANCH  26  27
ATOM     27  N   UNL A   1      32.467  30.883  26.351  1.00  0.00    -0.352 N 
ATOM     28  C   UNL A   1      33.161  31.680  27.233  1.00  0.00     0.251 C 
ATOM     29  H   UNL A   1      31.619  31.263  26.025  1.00  0.00     0.163 HD
ATOM     30  O   UNL A   1      32.658  32.725  27.625  1.00  0.00    -0.269 OA
BRANCH  28  31
ATOM     31  C   UNL A   1      34.486  31.255  27.738  1.00  0.00     0.039 A 
ATOM     32  C   UNL A   1      35.487  32.220  27.880  1.00  0.00     0.014 A 
ATOM     33  C   UNL A   1      34.739  29.926  28.087  1.00  0.00     0.014 A 
ATOM     34  C   UNL A   1      36.706  31.875  28.469  1.00  0.00     0.010 A 
ATOM     35  C   UNL A   1      35.935  29.596  28.726  1.00  0.00     0.010 A 
ATOM     36  C   UNL A   1      36.918  30.572  28.948  1.00  0.00    -0.014 A 
BRANCH  36  37
ATOM     37  C   UNL A   1      38.125  30.235  29.751  1.00  0.00     0.031 A 
ATOM     38  C   UNL A   1      39.123  29.229  29.248  1.00  0.00     0.074 A 
ATOM     39  C   UNL A   1      38.269  30.780  30.977  1.00  0.00     0.049 A 
ATOM     40  N   UNL A   1      40.174  28.738  29.853  1.00  0.00    -0.248 NA
ATOM     41  C   UNL A   1      38.898  28.689  27.898  1.00  0.00     0.031 C 
ATOM     42  C   UNL A   1      37.344  31.740  31.588  1.00  0.00     0.029 A 
ATOM     43  N   UNL A   1      39.229  30.592  31.941  1.00  0.00    -0.354 N 
ATOM     44  C   UNL A   1      40.731  27.823  28.967  1.00  0.00     0.074 A 
ATOM     45  C   UNL A   1      39.878  27.802  27.797  1.00  0.00     0.031 C 
ATOM     46  C   UNL A   1      37.786  32.060  32.814  1.00  0.00     0.029 A 
ATOM     47  C   UNL A   1      38.993  31.294  33.103  1.00  0.00     0.049 A 
ATOM     48  H   UNL A   1      40.013  30.012  31.813  1.00  0.00     0.167 HD
ATOM     49  C   UNL A   1      41.856  27.080  29.116  1.00  0.00     0.034 A 
ATOM     50  C   UNL A   1      39.654  31.297  34.279  1.00  0.00     0.034 A 
ATOM     51  C   UNL A   1      42.704  27.126  30.282  1.00  0.00     0.049 A 
ATOM     52  C   UNL A   1      40.880  30.431  34.425  1.00  0.00     0.074 A 
ATOM     53  C   UNL A   1      43.911  26.482  30.492  1.00  0.00     0.029 A 
ATOM     54  N   UNL A   1      42.430  27.840  31.441  1.00  0.00    -0.354 N 
ATOM     55  N   UNL A   1      41.434  29.630  33.545  1.00  0.00    -0.248 NA
ATOM     56  C   UNL A   1      41.572  30.472  35.721  1.00  0.00     0.031 C 
ATOM     57  C   UNL A   1      44.327  26.743  31.801  1.00  0.00     0.029 A 
ATOM     58  C   UNL A   1      43.420  27.611  32.385  1.00  0.00     0.049 A 
ATOM     59  H   UNL A   1      41.647  28.422  31.572  1.00  0.00     0.167 HD
ATOM     60  C   UNL A   1      42.551  29.090  34.176  1.00  0.00     0.074 A 
ATOM     61  C   UNL A   1      42.607  29.676  35.499  1.00  0.00     0.031 C 
ATOM     62  C   UNL A   1      43.451  28.188  33.708  1.00  0.00     0.034 A 
BRANCH  49  63
ATOM     63  C   UNL A   1      42.226  26.132  28.003  1.00  0.00     0.023 A 
ATOM     64  C   UNL A   1      41.766  24.805  27.975  1.00  0.00     0.031 A 
ATOM     65  C   UNL A   1      43.029  26.575  26.936  1.00  0.00     0.131 A 
ATOM     66  C   UNL A   1      42.148  23.954  26.926  1.00  0.00     0.055 A 
ATOM     67  C   UNL A   1      43.351  25.743  25.862  1.00  0.00     0.041 A 
ATOM     68  F   UNL A   1      43.511  27.828  26.920  1.00  0.00    -0.206 F 
ATOM     69  C   UNL A   1      42.916  24.422  25.857  1.00  0.00     0.022 A 
BRANCH  66  70
ATOM     70  S   UNL A   1      41.700  22.200  27.023  1.00  0.00     0.124 S 
ATOM     71  O   UNL A   1      40.707  22.090  25.956  1.00  0.00    -0.237 OA
ATOM     72  O   UNL A   1      42.973  21.533  26.781  1.00  0.00    -0.237 OA
ATOM     73  O   UNL A   1      41.167  22.056  28.376  1.00  0.00    -0.744 OA
ENDBRANCH  66  70
ENDBRANCH  49  63
BRANCH  50  74
ATOM     74  C   UNL A   1      39.158  32.106  35.431  1.00  0.00     0.023 A 
ATOM     75  C   UNL A   1      39.586  33.429  35.624  1.00  0.00     0.031 A 
ATOM     76  C   UNL A   1      38.310  31.542  36.402  1.00  0.00     0.131 A 
ATOM     77  C   UNL A   1      39.217  34.123  36.787  1.00  0.00     0.055 A 
ATOM     78  C   UNL A   1      37.894  32.257  37.526  1.00  0.00     0.041 A 
ATOM     79  F   UNL A   1      37.870  30.280  36.268  1.00  0.00    -0.206 F 
ATOM     80  C   UNL A   1      38.363  33.550  37.733  1.00  0.00     0.022 A 
BRANCH  77  81
ATOM     81  S   UNL A   1      39.969  35.742  37.106  1.00  0.00     0.124 S 
ATOM     82  O   UNL A   1      41.371  35.385  37.300  1.00  0.00    -0.237 OA
ATOM     83  O   UNL A   1      39.655  36.467  35.880  1.00  0.00    -0.237 OA
ATOM     84  O   UNL A   1      39.273  36.210  38.303  1.00  0.00    -0.744 OA
ENDBRANCH  77  81
ENDBRANCH  50  74
BRANCH  62  85
ATOM     85  C   UNL A   1      44.581  27.807  34.631  1.00  0.00     0.023 A 
ATOM     86  C   UNL A   1      44.436  26.783  35.583  1.00  0.00     0.031 A 
ATOM     87  C   UNL A   1      45.811  28.484  34.567  1.00  0.00     0.131 A 
ATOM     88  C   UNL A   1      45.487  26.500  36.470  1.00  0.00     0.055 A 
ATOM     89  C   UNL A   1      46.874  28.157  35.411  1.00  0.00     0.041 A 
ATOM     90  F   UNL A   1      46.002  29.473  33.679  1.00  0.00    -0.206 F 
ATOM     91  C   UNL A   1      46.710  27.170  36.377  1.00  0.00     0.022 A 
BRANCH  88  92
ATOM     92  S   UNL A   1      45.204  25.300  37.800  1.00  0.00     0.124 S 
ATOM     93  O   UNL A   1      44.154  24.461  37.231  1.00  0.00    -0.237 OA
ATOM     94  O   UNL A   1      46.515  24.673  37.941  1.00  0.00    -0.237 OA
ATOM     95  O   UNL A   1      44.792  26.131  38.929  1.00  0.00    -0.744 OA
ENDBRANCH  88  92
ENDBRANCH  62  85
ENDBRANCH  36  37
ENDBRANCH  28  31
ENDBRANCH  26  27
ENDBRANCH  25  26
ENDBRANCH   1  25
TORSDOF 18
ENDMDL
MODEL 2
REMARK VINA RESULT:     -12.0      4.999     10.507
REMARK SMILES C[C@@H](C(=O)NCCCCNC(=O)c1ccc(-c2c3nc(c(-c4cc(S(=O)(=O)[O-])ccc4F)c4ccc([nH]4)c(-c4cc(S(=O)(=O)[O-])ccc4F)c4nc(c(-c5cc(S(=O)(=O)[O-])ccc5F)c5ccc2[nH]5)C=C4)C=C3)cc1)[N@@H+](C)Cc1ccc(-c2ccccc2)cc1
REMARK SMILES IDX 7 1 6 2 5 3 3 4 4 5 2 7 1 8 76 9 77 10 78 12 79 13 80 14
REMARK SMILES IDX 90 15 81 16 89 17 82 18 83 19 84 20 88 21 85 22 87 23 86 24
REMARK SMILES IDX 8 25 9 26 10 27 11 28 12 30 13 31 14 32 75 33 15 34 74 35
REMARK SMILES IDX 16 36 17 37 18 38 68 39 19 40 73 41 67 42 69 43 20 44 72 45
REMARK SMILES IDX 66 46 65 47 21 49 53 50 33 51 52 52 34 53 37 54 51 55 70 56
REMARK SMILES IDX 35 57 36 58 50 60 71 61 38 62 22 63 23 64 31 65 24 66 30 67
REMARK SMILES IDX 32 68 29 69 25 70 26 71 27 72 28 73 54 74 55 75 63 76 56 77
REMARK SMILES IDX 62 78 64 79 61 80 57 81 58 82 59 83 60 84 39 85 40 86 48 87
REMARK SMILES IDX 41 88 47 89 49 90 46 91 42 92 43 93 44 94 45 95
REMARK H PARENT 5 6 76 11 10 29 69 48 37 59
REMARK Flexibility Score: inf
ROOT
ATOM      1  C   UNL A   1      36.023  23.351  23.668  1.00  0.00     0.023 C 
ENDROOT
BRANCH   1   2
ATOM      2  C   UNL A   1      34.891  24.345  23.898  1.00  0.00     0.116 C 
BRANCH   2   3
ATOM      3  N   UNL A   1      34.029  24.509  22.746  1.00  0.00    -0.351 N 
ATOM      4  C   UNL A   1      33.371  25.677  22.467  1.00  0.00     0.278 C 
ATOM      5  O   UNL A   1      33.703  26.257  21.427  1.00  0.00    -0.268 OA
ATOM      6  H   UNL A   1      33.910  23.746  22.135  1.00  0.00     0.163 HD
BRANCH   4   7
ATOM      7  C   UNL A   1      32.266  26.231  23.416  1.00  0.00     0.271 C 
ATOM      8  C   UNL A   1      32.577  27.563  24.102  1.00  0.00     0.086 C 
BRANCH   7   9
ATOM      9  N   UNL A   1      31.796  25.225  24.407  1.00  0.00    -0.324 N 
ATOM     10  C   UNL A   1      31.402  25.734  25.711  1.00  0.00     0.333 C 
ATOM     11  H   UNL A   1      32.715  24.803  24.536  1.00  0.00     0.348 HD
BRANCH   9  12
ATOM     12  C   UNL A   1      31.081  24.019  23.977  1.00  0.00     0.299 C 
BRANCH  12  13
ATOM     13  C   UNL A   1      31.677  22.637  24.157  1.00  0.00     0.006 A 
ATOM     14  C   UNL A   1      32.018  22.221  25.461  1.00  0.00     0.010 A 
ATOM     15  C   UNL A   1      31.853  21.711  23.131  1.00  0.00     0.010 A 
ATOM     16  C   UNL A   1      32.536  20.941  25.711  1.00  0.00     0.009 A 
ATOM     17  C   UNL A   1      32.405  20.453  23.368  1.00  0.00     0.009 A 
ATOM     18  C   UNL A   1      32.746  20.045  24.659  1.00  0.00    -0.018 A 
BRANCH  18  19
ATOM     19  C   UNL A   1      33.243  18.682  24.853  1.00  0.00    -0.018 A 
ATOM     20  C   UNL A   1      32.382  17.676  25.316  1.00  0.00     0.009 A 
ATOM     21  C   UNL A   1      34.537  18.325  24.444  1.00  0.00     0.009 A 
ATOM     22  C   UNL A   1      32.791  16.341  25.335  1.00  0.00     0.001 A 
ATOM     23  C   UNL A   1      34.947  16.991  24.466  1.00  0.00     0.001 A 
ATOM     24  C   UNL A   1      34.070  15.999  24.901  1.00  0.00     0.000 A 
ENDBRANCH  18  19
ENDBRANCH  12  13
ENDBRANCH   9  12
ENDBRANCH   7   9
ENDBRANCH   4   7
ENDBRANCH   2   3
ENDBRANCH   1   2
BRANCH   1  25
ATOM     25  C   UNL A   1      35.821  21.961  24.282  1.00  0.00     0.023 C 
BRANCH  25  26
ATOM     26  C   UNL A   1      36.491  21.710  25.632  1.00  0.00     0.116 C 
BRANCH  26  27
ATOM     27  N   UNL A   1      37.570  20.736  25.570  1.00  0.00    -0.352 N 
ATOM     28  C   UNL A   1      38.899  20.864  25.905  1.00  0.00     0.251 C 
ATOM     29  H   UNL A   1      37.310  19.848  25.234  1.00  0.00     0.163 HD
ATOM     30  O   UNL A   1      39.669  19.940  25.681  1.00  0.00    -0.269 OA
BRANCH  28  31
ATOM     31  C   UNL A   1      39.400  22.128  26.493  1.00  0.00     0.039 A 
ATOM     32  C   UNL A   1      40.392  22.058  27.475  1.00  0.00     0.014 A 
ATOM     33  C   UNL A   1      38.917  23.368  26.071  1.00  0.00     0.014 A 
ATOM     34  C   UNL A   1      40.974  23.233  27.958  1.00  0.00     0.010 A 
ATOM     35  C   UNL A   1      39.536  24.537  26.513  1.00  0.00     0.010 A 
ATOM     36  C   UNL A   1      40.589  24.481  27.440  1.00  0.00    -0.014 A 
BRANCH  36  37
ATOM     37  C   UNL A   1      41.328  25.722  27.795  1.00  0.00     0.031 A 
ATOM     38  C   UNL A   1      40.624  26.865  28.472  1.00  0.00     0.074 A 
ATOM     39  C   UNL A   1      42.619  25.845  27.423  1.00  0.00     0.049 A 
ATOM     40  N   UNL A   1      41.079  28.057  28.763  1.00  0.00    -0.248 NA
ATOM     41  C   UNL A   1      39.219  26.648  28.852  1.00  0.00     0.031 C 
ATOM     42  C   UNL A   1      43.398  24.816  26.727  1.00  0.00     0.029 A 
ATOM     43  N   UNL A   1      43.501  26.889  27.557  1.00  0.00    -0.354 N 
ATOM     44  C   UNL A   1      40.017  28.738  29.349  1.00  0.00     0.074 A 
ATOM     45  C   UNL A   1      38.884  27.836  29.336  1.00  0.00     0.031 C 
ATOM     46  C   UNL A   1      44.638  25.278  26.502  1.00  0.00     0.029 A 
ATOM     47  C   UNL A   1      44.733  26.650  26.988  1.00  0.00     0.049 A 
ATOM     48  H   UNL A   1      43.275  27.729  28.016  1.00  0.00     0.167 HD
ATOM     49  C   UNL A   1      39.997  29.995  29.857  1.00  0.00     0.034 A 
ATOM     50  C   UNL A   1      45.807  27.453  26.845  1.00  0.00     0.034 A 
ATOM     51  C   UNL A   1      41.140  30.875  29.876  1.00  0.00     0.049 A 
ATOM     52  C   UNL A   1      45.741  28.859  27.388  1.00  0.00     0.074 A 
ATOM     53  C   UNL A   1      41.248  32.131  30.449  1.00  0.00     0.029 A 
ATOM     54  N   UNL A   1      42.367  30.603  29.285  1.00  0.00    -0.354 N 
ATOM     55  N   UNL A   1      44.750  29.457  28.008  1.00  0.00    -0.248 NA
ATOM     56  C   UNL A   1      46.936  29.695  27.216  1.00  0.00     0.031 C 
ATOM     57  C   UNL A   1      42.509  32.649  30.138  1.00  0.00     0.029 A 
ATOM     58  C   UNL A   1      43.218  31.688  29.437  1.00  0.00     0.049 A 
ATOM     59  H   UNL A   1      42.598  29.764  28.825  1.00  0.00     0.167 HD
ATOM     60  C   UNL A   1      45.214  30.733  28.318  1.00  0.00     0.074 A 
ATOM     61  C   UNL A   1      46.579  30.807  27.841  1.00  0.00     0.031 C 
ATOM     62  C   UNL A   1      44.571  31.754  28.938  1.00  0.00     0.034 A 
BRANCH  49  63
ATOM     63  C   UNL A   1      38.693  30.510  30.413  1.00  0.00     0.023 A 
ATOM     64  C   UNL A   1      37.775  31.215  29.619  1.00  0.00     0.031 A 
ATOM     65  C   UNL A   1      38.352  30.261  31.756  1.00  0.00     0.131 A 
ATOM     66  C   UNL A   1      36.579  31.687  30.183  1.00  0.00     0.055 A 
ATOM     67  C   UNL A   1      37.132  30.676  32.293  1.00  0.00     0.041 A 
ATOM     68  F   UNL A   1      39.199  29.607  32.565  1.00  0.00    -0.206 F 
ATOM     69  C   UNL A   1      36.241  31.400  31.508  1.00  0.00     0.022 A 
BRANCH  66  70
ATOM     70  S   UNL A   1      35.511  32.761  29.185  1.00  0.00     0.124 S 
ATOM     71  O   UNL A   1      36.286  33.999  29.153  1.00  0.00    -0.237 OA
ATOM     72  O   UNL A   1      35.418  32.033  27.926  1.00  0.00    -0.237 OA
ATOM     73  O   UNL A   1      34.273  32.828  29.960  1.00  0.00    -0.744 OA
ENDBRANCH  66  70
ENDBRANCH  49  63
BRANCH  50  74
ATOM     74  C   UNL A   1      47.024  26.979  26.123  1.00  0.00     0.023 A 
ATOM     75  C   UNL A   1      48.056  26.313  26.803  1.00  0.00     0.031 A 
ATOM     76  C   UNL A   1      47.210  27.256  24.756  1.00  0.00     0.131 A 
ATOM     77  C   UNL A   1      49.249  26.001  26.133  1.00  0.00     0.055 A 
ATOM     78  C   UNL A   1      48.373  26.887  24.078  1.00  0.00     0.041 A 
ATOM     79  F   UNL A   1      46.256  27.891  24.055  1.00  0.00    -0.206 F 
ATOM     80  C   UNL A   1      49.410  26.271  24.772  1.00  0.00     0.022 A 
BRANCH  77  81
ATOM     81  S   UNL A   1      50.639  25.346  27.098  1.00  0.00     0.124 S 
ATOM     82  O   UNL A   1      50.005  24.251  27.826  1.00  0.00    -0.237 OA
ATOM     83  O   UNL A   1      51.578  24.961  26.050  1.00  0.00    -0.237 OA
ATOM     84  O   UNL A   1      51.051  26.484  27.916  1.00  0.00    -0.744 OA
ENDBRANCH  77  81
ENDBRANCH  50  74
BRANCH  62  85
ATOM     85  C   UNL A   1      45.354  33.025  29.154  1.00  0.00     0.023 A 
ATOM     86  C   UNL A   1      45.410  34.028  28.170  1.00  0.00     0.031 A 
ATOM     87  C   UNL A   1      46.063  33.230  30.351  1.00  0.00     0.131 A 
ATOM     88  C   UNL A   1      46.202  35.167  28.378  1.00  0.00     0.055 A 
ATOM     89  C   UNL A   1      46.800  34.393  30.577  1.00  0.00     0.041 A 
ATOM     90  F   UNL A   1      46.047  32.303  31.322  1.00  0.00    -0.206 F 
ATOM     91  C   UNL A   1      46.883  35.364  29.583  1.00  0.00     0.022 A 
BRANCH  88  92
ATOM     92  S   UNL A   1      46.396  36.353  27.020  1.00  0.00     0.124 S 
ATOM     93  O   UNL A   1      47.755  36.841  27.237  1.00  0.00    -0.237 OA
ATOM     94  O   UNL A   1      46.200  35.515  25.841  1.00  0.00    -0.237 OA
ATOM     95  O   UNL A   1      45.339  37.332  27.265  1.00  0.00    -0.744 OA
ENDBRANCH  88  92
ENDBRANCH  62  85
ENDBRANCH  36  37
ENDBRANCH  28  31
ENDBRANCH  26  27
ENDBRANCH  25  26
ENDBRANCH   1  25
TORSDOF 18
ENDMDL
MODEL 3
REMARK VINA RESULT:     -11.6      2.098      4.579
REMARK SMILES C[C@@H](C(=O)NCCCCNC(=O)c1ccc(-c2c3nc(c(-c4cc(S(=O)(=O)[O-])ccc4F)c4ccc([nH]4)c(-c4cc(S(=O)(=O)[O-])ccc4F)c4nc(c(-c5cc(S(=O)(=O)[O-])ccc5F)c5ccc2[nH]5)C=C4)C=C3)cc1)[N@@H+](C)Cc1ccc(-c2ccccc2)cc1
REMARK SMILES IDX 7 1 6 2 5 3 3 4 4 5 2 7 1 8 76 9 77 10 78 12 79 13 80 14
REMARK SMILES IDX 90 15 81 16 89 17 82 18 83 19 84 20 88 21 85 22 87 23 86 24
REMARK SMILES IDX 8 25 9 26 10 27 11 28 12 30 13 31 14 32 75 33 15 34 74 35
REMARK SMILES IDX 16 36 17 37 18 38 68 39 19 40 73 41 67 42 69 43 20 44 72 45
REMARK SMILES IDX 66 46 65 47 21 49 53 50 33 51 52 52 34 53 37 54 51 55 70 56
REMARK SMILES IDX 35 57 36 58 50 60 71 61 38 62 22 63 23 64 31 65 24 66 30 67
REMARK SMILES IDX 32 68 29 69 25 70 26 71 27 72 28 73 54 74 55 75 63 76 56 77
REMARK SMILES IDX 62 78 64 79 61 80 57 81 58 82 59 83 60 84 39 85 40 86 48 87
REMARK SMILES IDX 41 88 47 89 49 90 46 91 42 92 43 93 44 94 45 95
REMARK H PARENT 5 6 76 11 10 29 69 48 37 59
REMARK Flexibility Score: inf
ROOT
ATOM      1  C   UNL A   1      32.994  28.856  25.341  1.00  0.00     0.023 C 
ENDROOT
BRANCH   1   2
ATOM      2  C   UNL A   1      33.530  28.538  23.950  1.00  0.00     0.116 C 
BRANCH   2   3
ATOM      3  N   UNL A   1      33.998  27.174  23.814  1.00  0.00    -0.351 N 
ATOM      4  C   UNL A   1      33.273  26.196  23.189  1.00  0.00     0.278 C 
ATOM      5  O   UNL A   1      33.763  25.728  22.154  1.00  0.00    -0.268 OA
ATOM      6  H   UNL A   1      34.878  26.940  24.188  1.00  0.00     0.163 HD
BRANCH   4   7
ATOM      7  C   UNL A   1      31.910  25.706  23.762  1.00  0.00     0.271 C 
ATOM      8  C   UNL A   1      30.659  26.355  23.165  1.00  0.00     0.086 C 
BRANCH   7   9
ATOM      9  N   UNL A   1      31.861  25.739  25.249  1.00  0.00    -0.324 N 
ATOM     10  C   UNL A   1      30.651  26.283  25.847  1.00  0.00     0.333 C 
ATOM     11  H   UNL A   1      32.570  26.467  25.337  1.00  0.00     0.348 HD
BRANCH   9  12
ATOM     12  C   UNL A   1      32.532  24.710  26.049  1.00  0.00     0.299 C 
BRANCH  12  13
ATOM     13  C   UNL A   1      32.765  23.312  25.511  1.00  0.00     0.006 A 
ATOM     14  C   UNL A   1      34.049  22.989  25.024  1.00  0.00     0.010 A 
ATOM     15  C   UNL A   1      31.817  22.292  25.521  1.00  0.00     0.010 A 
ATOM     16  C   UNL A   1      34.351  21.704  24.547  1.00  0.00     0.009 A 
ATOM     17  C   UNL A   1      32.099  21.026  25.011  1.00  0.00     0.009 A 
ATOM     18  C   UNL A   1      33.369  20.709  24.526  1.00  0.00    -0.018 A 
BRANCH  18  19
ATOM     19  C   UNL A   1      33.627  19.338  24.082  1.00  0.00    -0.018 A 
ATOM     20  C   UNL A   1      34.676  18.598  24.647  1.00  0.00     0.009 A 
ATOM     21  C   UNL A   1      32.747  18.693  23.199  1.00  0.00     0.009 A 
ATOM     22  C   UNL A   1      34.821  17.238  24.366  1.00  0.00     0.001 A 
ATOM     23  C   UNL A   1      32.894  17.334  22.915  1.00  0.00     0.001 A 
ATOM     24  C   UNL A   1      33.924  16.606  23.508  1.00  0.00     0.000 A 
ENDBRANCH  18  19
ENDBRANCH  12  13
ENDBRANCH   9  12
ENDBRANCH   7   9
ENDBRANCH   4   7
ENDBRANCH   2   3
ENDBRANCH   1   2
BRANCH   1  25
ATOM     25  C   UNL A   1      32.393  30.255  25.517  1.00  0.00     0.023 C 
BRANCH  25  26
ATOM     26  C   UNL A   1      32.165  30.721  26.954  1.00  0.00     0.116 C 
BRANCH  26  27
ATOM     27  N   UNL A   1      32.234  32.166  27.110  1.00  0.00    -0.352 N 
ATOM     28  C   UNL A   1      33.237  32.954  27.629  1.00  0.00     0.251 C 
ATOM     29  H   UNL A   1      31.440  32.658  26.797  1.00  0.00     0.163 HD
ATOM     30  O   UNL A   1      33.052  34.156  27.762  1.00  0.00    -0.269 OA
BRANCH  28  31
ATOM     31  C   UNL A   1      34.514  32.343  28.065  1.00  0.00     0.039 A 
ATOM     32  C   UNL A   1      35.667  33.133  28.060  1.00  0.00     0.014 A 
ATOM     33  C   UNL A   1      34.576  31.014  28.491  1.00  0.00     0.014 A 
ATOM     34  C   UNL A   1      36.859  32.624  28.582  1.00  0.00     0.010 A 
ATOM     35  C   UNL A   1      35.752  30.526  29.063  1.00  0.00     0.010 A 
ATOM     36  C   UNL A   1      36.896  31.335  29.139  1.00  0.00    -0.014 A 
BRANCH  36  37
ATOM     37  C   UNL A   1      38.096  30.849  29.873  1.00  0.00     0.031 A 
ATOM     38  C   UNL A   1      39.004  29.820  29.260  1.00  0.00     0.074 A 
ATOM     39  C   UNL A   1      38.312  31.280  31.133  1.00  0.00     0.049 A 
ATOM     40  N   UNL A   1      40.032  29.207  29.790  1.00  0.00    -0.248 NA
ATOM     41  C   UNL A   1      38.705  29.409  27.879  1.00  0.00     0.031 C 
ATOM     42  C   UNL A   1      37.476  32.251  31.847  1.00  0.00     0.029 A 
ATOM     43  N   UNL A   1      39.281  30.948  32.047  1.00  0.00    -0.354 N 
ATOM     44  C   UNL A   1      40.497  28.330  28.816  1.00  0.00     0.074 A 
ATOM     45  C   UNL A   1      39.613  28.465  27.676  1.00  0.00     0.031 C 
ATOM     46  C   UNL A   1      37.973  32.438  33.080  1.00  0.00     0.029 A 
ATOM     47  C   UNL A   1      39.128  31.567  33.268  1.00  0.00     0.049 A 
ATOM     48  H   UNL A   1      40.017  30.325  31.848  1.00  0.00     0.167 HD
ATOM     49  C   UNL A   1      41.568  27.500  28.868  1.00  0.00     0.034 A 
ATOM     50  C   UNL A   1      39.819  31.428  34.418  1.00  0.00     0.034 A 
ATOM     51  C   UNL A   1      42.447  27.390  30.007  1.00  0.00     0.049 A 
ATOM     52  C   UNL A   1      40.982  30.468  34.456  1.00  0.00     0.074 A 
ATOM     53  C   UNL A   1      43.609  26.647  30.125  1.00  0.00     0.029 A 
ATOM     54  N   UNL A   1      42.257  28.025  31.227  1.00  0.00    -0.354 N 
ATOM     55  N   UNL A   1      41.452  29.704  33.497  1.00  0.00    -0.248 NA
ATOM     56  C   UNL A   1      41.709  30.354  35.727  1.00  0.00     0.031 C 
ATOM     57  C   UNL A   1      44.078  26.771  31.437  1.00  0.00     0.029 A 
ATOM     58  C   UNL A   1      43.253  27.651  32.117  1.00  0.00     0.049 A 
ATOM     59  H   UNL A   1      41.523  28.649  31.430  1.00  0.00     0.167 HD
ATOM     60  C   UNL A   1      42.542  29.036  34.047  1.00  0.00     0.074 A 
ATOM     61  C   UNL A   1      42.676  29.507  35.410  1.00  0.00     0.031 C 
ATOM     62  C   UNL A   1      43.361  28.115  33.480  1.00  0.00     0.034 A 
BRANCH  49  63
ATOM     63  C   UNL A   1      41.838  26.621  27.673  1.00  0.00     0.023 A 
ATOM     64  C   UNL A   1      41.436  25.276  27.634  1.00  0.00     0.031 A 
ATOM     65  C   UNL A   1      42.482  27.151  26.539  1.00  0.00     0.131 A 
ATOM     66  C   UNL A   1      41.721  24.493  26.505  1.00  0.00     0.055 A 
ATOM     67  C   UNL A   1      42.704  26.384  25.394  1.00  0.00     0.041 A 
ATOM     68  F   UNL A   1      42.903  28.425  26.528  1.00  0.00    -0.206 F 
ATOM     69  C   UNL A   1      42.329  25.045  25.375  1.00  0.00     0.022 A 
BRANCH  66  70
ATOM     70  S   UNL A   1      41.365  22.716  26.568  1.00  0.00     0.124 S 
ATOM     71  O   UNL A   1      41.675  22.402  27.960  1.00  0.00    -0.237 OA
ATOM     72  O   UNL A   1      39.956  22.661  26.199  1.00  0.00    -0.237 OA
ATOM     73  O   UNL A   1      42.289  22.147  25.588  1.00  0.00    -0.744 OA
ENDBRANCH  66  70
ENDBRANCH  49  63
BRANCH  50  74
ATOM     74  C   UNL A   1      39.414  32.173  35.647  1.00  0.00     0.023 A 
ATOM     75  C   UNL A   1      38.661  31.551  36.655  1.00  0.00     0.031 A 
ATOM     76  C   UNL A   1      39.707  33.542  35.794  1.00  0.00     0.131 A 
ATOM     77  C   UNL A   1      38.174  32.308  37.733  1.00  0.00     0.055 A 
ATOM     78  C   UNL A   1      39.274  34.275  36.900  1.00  0.00     0.041 A 
ATOM     79  F   UNL A   1      40.424  34.188  34.860  1.00  0.00    -0.206 F 
ATOM     80  C   UNL A   1      38.487  33.662  37.869  1.00  0.00     0.022 A 
BRANCH  77  81
ATOM     81  S   UNL A   1      37.022  31.522  38.892  1.00  0.00     0.124 S 
ATOM     82  O   UNL A   1      37.764  31.598  40.147  1.00  0.00    -0.237 OA
ATOM     83  O   UNL A   1      35.851  32.386  38.786  1.00  0.00    -0.237 OA
ATOM     84  O   UNL A   1      36.854  30.177  38.347  1.00  0.00    -0.744 OA
ENDBRANCH  77  81
ENDBRANCH  50  74
BRANCH  62  85
ATOM     85  C   UNL A   1      44.485  27.580  34.333  1.00  0.00     0.023 A 
ATOM     86  C   UNL A   1      44.352  26.379  35.051  1.00  0.00     0.031 A 
ATOM     87  C   UNL A   1      45.695  28.286  34.439  1.00  0.00     0.131 A 
ATOM     88  C   UNL A   1      45.394  25.946  35.886  1.00  0.00     0.055 A 
ATOM     89  C   UNL A   1      46.751  27.820  35.224  1.00  0.00     0.041 A 
ATOM     90  F   UNL A   1      45.874  29.441  33.777  1.00  0.00    -0.206 F 
ATOM     91  C   UNL A   1      46.599  26.651  35.963  1.00  0.00     0.022 A 
BRANCH  88  92
ATOM     92  S   UNL A   1      45.122  24.493  36.935  1.00  0.00     0.124 S 
ATOM     93  O   UNL A   1      46.470  23.945  37.049  1.00  0.00    -0.237 OA
ATOM     94  O   UNL A   1      44.569  25.081  38.151  1.00  0.00    -0.237 OA
ATOM     95  O   UNL A   1      44.185  23.681  36.161  1.00  0.00    -0.744 OA
ENDBRANCH  88  92
ENDBRANCH  62  85
ENDBRANCH  36  37
ENDBRANCH  28  31
ENDBRANCH  26  27
ENDBRANCH  25  26
ENDBRANCH   1  25
TORSDOF 18
ENDMDL
