MODEL 1
REMARK VINA RESULT:     -12.3      0.000      0.000
REMARK SMILES O=C(NCCCCNC(=O)c1nn2cc(Br)cnc2c1Br)c1ccc(-c2c3nc(c(-c4cc(S(=O)(=O)[O-])ccc4F)c4ccc([nH]4)c(-c4cc(S(=O)(=O)[O-])ccc4F)c4nc(c(-c5cc(S(=O)(=O)[O-])ccc5F)c5ccc2[nH]5)C=C4)C=C3)cc1
REMARK SMILES IDX 4 1 3 2 1 3 2 4 22 6 23 7 84 8 24 9 83 10 25 11 26 12 27 13
REMARK SMILES IDX 77 14 28 15 82 16 76 17 78 18 29 19 81 20 75 21 74 22 30 24
REMARK SMILES IDX 62 25 42 26 61 27 43 28 46 29 60 30 79 31 44 32 45 33 59 35
REMARK SMILES IDX 80 36 47 37 31 38 32 39 40 40 33 41 39 42 41 43 38 44 34 45
REMARK SMILES IDX 35 46 36 47 37 48 63 49 64 50 72 51 65 52 71 53 73 54 70 55
REMARK SMILES IDX 66 56 67 57 68 58 69 59 48 60 49 61 57 62 50 63 56 64 58 65
REMARK SMILES IDX 55 66 51 67 52 68 53 69 54 70 5 71 6 72 7 73 8 74 9 75 10 77
REMARK SMILES IDX 11 78 12 79 20 80 13 81 19 82 21 83 14 84 18 85 15 86 17 87
REMARK SMILES IDX 16 88
REMARK H PARENT 3 5 78 23 46 34 8 76
REMARK Flexibility Score: inf
ROOT
ATOM      1  C   UNL A   1      33.931  30.349  27.078  1.00  0.00     0.116 C 
ENDROOT
BRANCH   1   2
ATOM      2  N   UNL A   1      34.121  31.321  28.137  1.00  0.00    -0.352 N 
ATOM      3  O   UNL A   1      35.042  32.666  29.639  1.00  0.00    -0.269 OA
ATOM      4  C   UNL A   1      35.191  31.680  28.913  1.00  0.00     0.251 C 
ATOM      5  H   UNL A   1      33.305  31.831  28.344  1.00  0.00     0.163 HD
BRANCH   4   6
ATOM      6  C   UNL A   1      36.463  30.915  28.987  1.00  0.00     0.039 A 
ATOM      7  C   UNL A   1      36.569  29.525  28.916  1.00  0.00     0.014 A 
ATOM      8  C   UNL A   1      37.631  31.677  29.164  1.00  0.00     0.014 A 
ATOM      9  C   UNL A   1      37.788  28.900  29.155  1.00  0.00     0.010 A 
ATOM     10  C   UNL A   1      38.859  31.057  29.363  1.00  0.00     0.010 A 
ATOM     11  C   UNL A   1      38.925  29.666  29.412  1.00  0.00    -0.014 A 
BRANCH  11  12
ATOM     12  C   UNL A   1      40.190  28.966  29.621  1.00  0.00     0.031 A 
ATOM     13  C   UNL A   1      40.613  28.802  31.046  1.00  0.00     0.074 A 
ATOM     14  C   UNL A   1      40.852  28.356  28.616  1.00  0.00     0.049 A 
ATOM     15  N   UNL A   1      41.734  29.126  31.606  1.00  0.00    -0.248 NA
ATOM     16  C   UNL A   1      39.614  28.269  31.989  1.00  0.00     0.031 C 
ATOM     17  C   UNL A   1      40.416  28.186  27.229  1.00  0.00     0.029 A 
ATOM     18  N   UNL A   1      42.004  27.631  28.667  1.00  0.00    -0.354 N 
ATOM     19  C   UNL A   1      41.657  28.677  32.925  1.00  0.00     0.074 A 
ATOM     20  C   UNL A   1      40.291  28.273  33.136  1.00  0.00     0.031 C 
ATOM     21  C   UNL A   1      41.147  27.207  26.653  1.00  0.00     0.029 A 
ATOM     22  C   UNL A   1      42.175  26.774  27.584  1.00  0.00     0.049 A 
ATOM     23  H   UNL A   1      42.654  27.705  29.403  1.00  0.00     0.167 HD
ATOM     24  C   UNL A   1      42.756  28.495  33.710  1.00  0.00     0.034 A 
ATOM     25  C   UNL A   1      43.029  25.719  27.510  1.00  0.00     0.034 A 
ATOM     26  C   UNL A   1      43.898  29.219  33.221  1.00  0.00     0.049 A 
ATOM     27  C   UNL A   1      44.089  25.947  28.525  1.00  0.00     0.074 A 
ATOM     28  C   UNL A   1      44.172  30.554  32.990  1.00  0.00     0.029 A 
ATOM     29  N   UNL A   1      44.876  28.528  32.548  1.00  0.00    -0.354 N 
ATOM     30  N   UNL A   1      44.935  26.938  28.480  1.00  0.00    -0.248 NA
ATOM     31  C   UNL A   1      43.915  25.339  29.836  1.00  0.00     0.031 C 
ATOM     32  C   UNL A   1      44.937  30.565  31.787  1.00  0.00     0.029 A 
ATOM     33  C   UNL A   1      45.127  29.239  31.398  1.00  0.00     0.049 A 
ATOM     34  H   UNL A   1      45.310  27.690  32.831  1.00  0.00     0.167 HD
ATOM     35  C   UNL A   1      45.081  27.347  29.796  1.00  0.00     0.074 A 
ATOM     36  C   UNL A   1      44.499  26.271  30.594  1.00  0.00     0.031 C 
ATOM     37  C   UNL A   1      45.408  28.634  30.114  1.00  0.00     0.034 A 
BRANCH  24  38
ATOM     38  C   UNL A   1      42.870  27.432  34.773  1.00  0.00     0.023 A 
ATOM     39  C   UNL A   1      43.546  26.234  34.474  1.00  0.00     0.031 A 
ATOM     40  C   UNL A   1      42.110  27.435  35.965  1.00  0.00     0.131 A 
ATOM     41  C   UNL A   1      43.421  25.108  35.311  1.00  0.00     0.055 A 
ATOM     42  C   UNL A   1      42.039  26.337  36.825  1.00  0.00     0.041 A 
ATOM     43  F   UNL A   1      41.322  28.464  36.305  1.00  0.00    -0.206 F 
ATOM     44  C   UNL A   1      42.679  25.156  36.490  1.00  0.00     0.022 A 
BRANCH  41  45
ATOM     45  S   UNL A   1      44.118  23.526  34.763  1.00  0.00     0.124 S 
ATOM     46  O   UNL A   1      44.520  22.919  36.026  1.00  0.00    -0.237 OA
ATOM     47  O   UNL A   1      42.980  22.913  34.086  1.00  0.00    -0.237 OA
ATOM     48  O   UNL A   1      45.219  23.924  33.887  1.00  0.00    -0.744 OA
ENDBRANCH  41  45
ENDBRANCH  24  38
BRANCH  25  49
ATOM     49  C   UNL A   1      42.757  24.390  26.893  1.00  0.00     0.023 A 
ATOM     50  C   UNL A   1      43.673  23.766  26.020  1.00  0.00     0.031 A 
ATOM     51  C   UNL A   1      41.682  23.593  27.350  1.00  0.00     0.131 A 
ATOM     52  C   UNL A   1      43.492  22.415  25.640  1.00  0.00     0.055 A 
ATOM     53  C   UNL A   1      41.501  22.265  26.963  1.00  0.00     0.041 A 
ATOM     54  F   UNL A   1      40.815  24.049  28.267  1.00  0.00    -0.206 F 
ATOM     55  C   UNL A   1      42.413  21.665  26.113  1.00  0.00     0.022 A 
BRANCH  52  56
ATOM     56  S   UNL A   1      44.738  21.567  24.618  1.00  0.00     0.124 S 
ATOM     57  O   UNL A   1      44.654  22.302  23.362  1.00  0.00    -0.237 OA
ATOM     58  O   UNL A   1      45.962  21.745  25.393  1.00  0.00    -0.237 OA
ATOM     59  O   UNL A   1      44.247  20.189  24.561  1.00  0.00    -0.744 OA
ENDBRANCH  52  56
ENDBRANCH  25  49
BRANCH  37  60
ATOM     60  C   UNL A   1      45.866  29.565  29.013  1.00  0.00     0.023 A 
ATOM     61  C   UNL A   1      45.016  30.442  28.300  1.00  0.00     0.031 A 
ATOM     62  C   UNL A   1      47.251  29.676  28.799  1.00  0.00     0.131 A 
ATOM     63  C   UNL A   1      45.567  31.384  27.408  1.00  0.00     0.055 A 
ATOM     64  C   UNL A   1      47.792  30.619  27.926  1.00  0.00     0.041 A 
ATOM     65  F   UNL A   1      48.108  28.895  29.477  1.00  0.00    -0.206 F 
ATOM     66  C   UNL A   1      46.951  31.476  27.226  1.00  0.00     0.022 A 
BRANCH  63  67
ATOM     67  S   UNL A   1      44.489  32.531  26.487  1.00  0.00     0.124 S 
ATOM     68  O   UNL A   1      43.582  31.640  25.772  1.00  0.00    -0.237 OA
ATOM     69  O   UNL A   1      43.895  33.337  27.549  1.00  0.00    -0.237 OA
ATOM     70  O   UNL A   1      45.423  33.261  25.626  1.00  0.00    -0.744 OA
ENDBRANCH  63  67
ENDBRANCH  37  60
ENDBRANCH  11  12
ENDBRANCH   4   6
ENDBRANCH   1   2
BRANCH   1  71
ATOM     71  C   UNL A   1      32.894  29.264  27.365  1.00  0.00     0.023 C 
BRANCH  71  72
ATOM     72  C   UNL A   1      33.021  27.991  26.522  1.00  0.00     0.023 C 
BRANCH  72  73
ATOM     73  C   UNL A   1      33.751  28.143  25.192  1.00  0.00     0.116 C 
BRANCH  73  74
ATOM     74  N   UNL A   1      33.764  26.927  24.396  1.00  0.00    -0.351 N 
ATOM     75  C   UNL A   1      32.847  26.502  23.457  1.00  0.00     0.273 C 
ATOM     76  H   UNL A   1      34.530  26.327  24.548  1.00  0.00     0.163 HD
ATOM     77  O   UNL A   1      33.038  25.447  22.869  1.00  0.00    -0.267 OA
BRANCH  75  78
ATOM     78  C   UNL A   1      31.667  27.337  23.214  1.00  0.00     0.167 A 
ATOM     79  N   UNL A   1      31.746  28.420  22.417  1.00  0.00    -0.160 NA
ATOM     80  C   UNL A   1      30.360  27.191  23.724  1.00  0.00     0.095 A 
ATOM     81  N   UNL A   1      30.493  28.920  22.372  1.00  0.00    -0.219 N 
ATOM     82  C   UNL A   1      29.596  28.169  23.137  1.00  0.00     0.170 A 
ATOM     83  Br  UNL A   1      29.778  25.908  24.961  1.00  0.00    -0.044 Br
ATOM     84  C   UNL A   1      30.066  30.045  21.679  1.00  0.00     0.132 A 
ATOM     85  N   UNL A   1      28.261  28.473  23.199  1.00  0.00    -0.235 NA
ATOM     86  C   UNL A   1      28.777  30.407  21.711  1.00  0.00     0.054 A 
ATOM     87  C   UNL A   1      27.888  29.515  22.516  1.00  0.00     0.131 A 
ATOM     88  Br  UNL A   1      28.062  31.883  20.861  1.00  0.00    -0.047 Br
ENDBRANCH  75  78
ENDBRANCH  73  74
ENDBRANCH  72  73
ENDBRANCH  71  72
ENDBRANCH   1  71
TORSDOF 14
ENDMDL
MODEL 2
REMARK VINA RESULT:     -12.3      1.474      2.667
REMARK SMILES O=C(NCCCCNC(=O)c1nn2cc(Br)cnc2c1Br)c1ccc(-c2c3nc(c(-c4cc(S(=O)(=O)[O-])ccc4F)c4ccc([nH]4)c(-c4cc(S(=O)(=O)[O-])ccc4F)c4nc(c(-c5cc(S(=O)(=O)[O-])ccc5F)c5ccc2[nH]5)C=C4)C=C3)cc1
REMARK SMILES IDX 4 1 3 2 1 3 2 4 22 6 23 7 84 8 24 9 83 10 25 11 26 12 27 13
REMARK SMILES IDX 77 14 28 15 82 16 76 17 78 18 29 19 81 20 75 21 74 22 30 24
REMARK SMILES IDX 62 25 42 26 61 27 43 28 46 29 60 30 79 31 44 32 45 33 59 35
REMARK SMILES IDX 80 36 47 37 31 38 32 39 40 40 33 41 39 42 41 43 38 44 34 45
REMARK SMILES IDX 35 46 36 47 37 48 63 49 64 50 72 51 65 52 71 53 73 54 70 55
REMARK SMILES IDX 66 56 67 57 68 58 69 59 48 60 49 61 57 62 50 63 56 64 58 65
REMARK SMILES IDX 55 66 51 67 52 68 53 69 54 70 5 71 6 72 7 73 8 74 9 75 10 77
REMARK SMILES IDX 11 78 12 79 20 80 13 81 19 82 21 83 14 84 18 85 15 86 17 87
REMARK SMILES IDX 16 88
REMARK H PARENT 3 5 78 23 46 34 8 76
REMARK Flexibility Score: inf
ROOT
ATOM      1  C   UNL A   1      34.079  30.806  27.178  1.00  0.00     0.116 C 
ENDROOT
BRANCH   1   2
ATOM      2  N   UNL A   1      34.202  31.595  28.388  1.00  0.00    -0.352 N 
ATOM      3  O   UNL A   1      35.028  32.688  30.130  1.00  0.00    -0.269 OA
ATOM      4  C   UNL A   1      35.227  31.833  29.264  1.00  0.00     0.251 C 
ATOM      5  H   UNL A   1      33.370  32.060  28.632  1.00  0.00     0.163 HD
BRANCH   4   6
ATOM      6  C   UNL A   1      36.506  31.076  29.279  1.00  0.00     0.039 A 
ATOM      7  C   UNL A   1      36.616  29.686  29.216  1.00  0.00     0.014 A 
ATOM      8  C   UNL A   1      37.677  31.846  29.387  1.00  0.00     0.014 A 
ATOM      9  C   UNL A   1      37.849  29.070  29.398  1.00  0.00     0.010 A 
ATOM     10  C   UNL A   1      38.918  31.234  29.528  1.00  0.00     0.010 A 
ATOM     11  C   UNL A   1      38.994  29.844  29.588  1.00  0.00    -0.014 A 
BRANCH  11  12
ATOM     12  C   UNL A   1      40.273  29.154  29.736  1.00  0.00     0.031 A 
ATOM     13  C   UNL A   1      40.690  28.858  31.142  1.00  0.00     0.074 A 
ATOM     14  C   UNL A   1      40.954  28.660  28.682  1.00  0.00     0.049 A 
ATOM     15  N   UNL A   1      41.800  29.147  31.741  1.00  0.00    -0.248 NA
ATOM     16  C   UNL A   1      39.696  28.213  32.019  1.00  0.00     0.031 C 
ATOM     17  C   UNL A   1      40.530  28.619  27.281  1.00  0.00     0.029 A 
ATOM     18  N   UNL A   1      42.120  27.956  28.671  1.00  0.00    -0.354 N 
ATOM     19  C   UNL A   1      41.724  28.567  33.008  1.00  0.00     0.074 A 
ATOM     20  C   UNL A   1      40.365  28.117  33.167  1.00  0.00     0.031 C 
ATOM     21  C   UNL A   1      41.285  27.717  26.617  1.00  0.00     0.029 A 
ATOM     22  C   UNL A   1      42.317  27.215  27.510  1.00  0.00     0.049 A 
ATOM     23  H   UNL A   1      42.764  27.970  29.415  1.00  0.00     0.167 HD
ATOM     24  C   UNL A   1      42.821  28.332  33.781  1.00  0.00     0.034 A 
ATOM     25  C   UNL A   1      43.193  26.191  27.339  1.00  0.00     0.034 A 
ATOM     26  C   UNL A   1      43.951  29.123  33.376  1.00  0.00     0.049 A 
ATOM     27  C   UNL A   1      44.241  26.338  28.380  1.00  0.00     0.074 A 
ATOM     28  C   UNL A   1      44.197  30.480  33.280  1.00  0.00     0.029 A 
ATOM     29  N   UNL A   1      44.948  28.523  32.645  1.00  0.00    -0.354 N 
ATOM     30  N   UNL A   1      45.067  27.346  28.440  1.00  0.00    -0.248 NA
ATOM     31  C   UNL A   1      44.072  25.600  29.623  1.00  0.00     0.031 C 
ATOM     32  C   UNL A   1      44.970  30.626  32.091  1.00  0.00     0.029 A 
ATOM     33  C   UNL A   1      45.191  29.349  31.574  1.00  0.00     0.049 A 
ATOM     34  H   UNL A   1      45.398  27.670  32.848  1.00  0.00     0.167 HD
ATOM     35  C   UNL A   1      45.196  27.626  29.791  1.00  0.00     0.074 A 
ATOM     36  C   UNL A   1      44.631  26.463  30.474  1.00  0.00     0.031 C 
ATOM     37  C   UNL A   1      45.493  28.881  30.238  1.00  0.00     0.034 A 
BRANCH  24  38
ATOM     38  C   UNL A   1      42.951  27.170  34.734  1.00  0.00     0.023 A 
ATOM     39  C   UNL A   1      43.657  26.023  34.324  1.00  0.00     0.031 A 
ATOM     40  C   UNL A   1      42.182  27.038  35.913  1.00  0.00     0.131 A 
ATOM     41  C   UNL A   1      43.551  24.818  35.044  1.00  0.00     0.055 A 
ATOM     42  C   UNL A   1      42.129  25.859  36.659  1.00  0.00     0.041 A 
ATOM     43  F   UNL A   1      41.368  28.011  36.345  1.00  0.00    -0.206 F 
ATOM     44  C   UNL A   1      42.799  24.732  36.215  1.00  0.00     0.022 A 
BRANCH  41  45
ATOM     45  S   UNL A   1      44.288  23.313  34.349  1.00  0.00     0.124 S 
ATOM     46  O   UNL A   1      45.463  23.841  33.665  1.00  0.00    -0.237 OA
ATOM     47  O   UNL A   1      44.542  22.519  35.547  1.00  0.00    -0.237 OA
ATOM     48  O   UNL A   1      43.240  22.794  33.472  1.00  0.00    -0.744 OA
ENDBRANCH  41  45
ENDBRANCH  24  38
BRANCH  25  49
ATOM     49  C   UNL A   1      42.953  24.924  26.590  1.00  0.00     0.023 A 
ATOM     50  C   UNL A   1      43.863  24.438  25.628  1.00  0.00     0.031 A 
ATOM     51  C   UNL A   1      41.929  24.037  26.992  1.00  0.00     0.131 A 
ATOM     52  C   UNL A   1      43.723  23.128  25.110  1.00  0.00     0.055 A 
ATOM     53  C   UNL A   1      41.787  22.750  26.470  1.00  0.00     0.041 A 
ATOM     54  F   UNL A   1      41.076  24.354  27.979  1.00  0.00    -0.206 F 
ATOM     55  C   UNL A   1      42.693  22.285  25.532  1.00  0.00     0.022 A 
BRANCH  52  56
ATOM     56  S   UNL A   1      44.966  22.449  23.964  1.00  0.00     0.124 S 
ATOM     57  O   UNL A   1      45.393  21.241  24.659  1.00  0.00    -0.237 OA
ATOM     58  O   UNL A   1      44.198  22.255  22.739  1.00  0.00    -0.237 OA
ATOM     59  O   UNL A   1      45.973  23.509  23.893  1.00  0.00    -0.744 OA
ENDBRANCH  52  56
ENDBRANCH  25  49
BRANCH  37  60
ATOM     60  C   UNL A   1      45.938  29.926  29.239  1.00  0.00     0.023 A 
ATOM     61  C   UNL A   1      45.063  30.660  28.405  1.00  0.00     0.031 A 
ATOM     62  C   UNL A   1      47.293  30.298  29.259  1.00  0.00     0.131 A 
ATOM     63  C   UNL A   1      45.563  31.725  27.628  1.00  0.00     0.055 A 
ATOM     64  C   UNL A   1      47.780  31.361  28.498  1.00  0.00     0.041 A 
ATOM     65  F   UNL A   1      48.162  29.660  30.060  1.00  0.00    -0.206 F 
ATOM     66  C   UNL A   1      46.916  32.077  27.678  1.00  0.00     0.022 A 
BRANCH  63  67
ATOM     67  S   UNL A   1      44.451  32.691  26.554  1.00  0.00     0.124 S 
ATOM     68  O   UNL A   1      43.748  33.560  27.491  1.00  0.00    -0.237 OA
ATOM     69  O   UNL A   1      45.380  33.351  25.640  1.00  0.00    -0.237 OA
ATOM     70  O   UNL A   1      43.610  31.670  25.925  1.00  0.00    -0.744 OA
ENDBRANCH  63  67
ENDBRANCH  37  60
ENDBRANCH  11  12
ENDBRANCH   4   6
ENDBRANCH   1   2
BRANCH   1  71
ATOM     71  C   UNL A   1      32.670  30.301  26.868  1.00  0.00     0.023 C 
BRANCH  71  72
ATOM     72  C   UNL A   1      32.471  29.724  25.463  1.00  0.00     0.023 C 
BRANCH  72  73
ATOM     73  C   UNL A   1      31.177  28.950  25.238  1.00  0.00     0.116 C 
BRANCH  73  74
ATOM     74  N   UNL A   1      30.569  29.201  23.943  1.00  0.00    -0.351 N 
ATOM     75  C   UNL A   1      30.580  28.403  22.817  1.00  0.00     0.273 C 
ATOM     76  H   UNL A   1      30.085  30.054  23.857  1.00  0.00     0.163 HD
ATOM     77  O   UNL A   1      29.991  28.779  21.812  1.00  0.00    -0.267 OA
BRANCH  75  78
ATOM     78  C   UNL A   1      31.316  27.137  22.872  1.00  0.00     0.167 A 
ATOM     79  N   UNL A   1      30.680  25.987  23.168  1.00  0.00    -0.160 NA
ATOM     80  C   UNL A   1      32.691  26.904  22.660  1.00  0.00     0.095 A 
ATOM     81  N   UNL A   1      31.626  25.027  23.086  1.00  0.00    -0.219 N 
ATOM     82  C   UNL A   1      32.876  25.546  22.738  1.00  0.00     0.170 A 
ATOM     83  Br  UNL A   1      34.008  28.196  22.332  1.00  0.00    -0.044 Br
ATOM     84  C   UNL A   1      31.458  23.667  23.311  1.00  0.00     0.132 A 
ATOM     85  N   UNL A   1      33.971  24.741  22.557  1.00  0.00    -0.235 NA
ATOM     86  C   UNL A   1      32.491  22.828  23.167  1.00  0.00     0.054 A 
ATOM     87  C   UNL A   1      33.775  23.470  22.747  1.00  0.00     0.131 A 
ATOM     88  Br  UNL A   1      32.433  21.004  23.450  1.00  0.00    -0.047 Br
ENDBRANCH  75  78
ENDBRANCH  73  74
ENDBRANCH  72  73
ENDBRANCH  71  72
ENDBRANCH   1  71
TORSDOF 14
ENDMDL
MODEL 3
REMARK VINA RESULT:     -12.2      2.035      3.274
REMARK SMILES O=C(NCCCCNC(=O)c1nn2cc(Br)cnc2c1Br)c1ccc(-c2c3nc(c(-c4cc(S(=O)(=O)[O-])ccc4F)c4ccc([nH]4)c(-c4cc(S(=O)(=O)[O-])ccc4F)c4nc(c(-c5cc(S(=O)(=O)[O-])ccc5F)c5ccc2[nH]5)C=C4)C=C3)cc1
REMARK SMILES IDX 4 1 3 2 1 3 2 4 22 6 23 7 84 8 24 9 83 10 25 11 26 12 27 13
REMARK SMILES IDX 77 14 28 15 82 16 76 17 78 18 29 19 81 20 75 21 74 22 30 24
REMARK SMILES IDX 62 25 42 26 61 27 43 28 46 29 60 30 79 31 44 32 45 33 59 35
REMARK SMILES IDX 80 36 47 37 31 38 32 39 40 40 33 41 39 42 41 43 38 44 34 45
REMARK SMILES IDX 35 46 36 47 37 48 63 49 64 50 72 51 65 52 71 53 73 54 70 55
REMARK SMILES IDX 66 56 67 57 68 58 69 59 48 60 49 61 57 62 50 63 56 64 58 65
REMARK SMILES IDX 55 66 51 67 52 68 53 69 54 70 5 71 6 72 7 73 8 74 9 75 10 77
REMARK SMILES IDX 11 78 12 79 20 80 13 81 19 82 21 83 14 84 18 85 15 86 17 87
REMARK SMILES IDX 16 88
REMARK H PARENT 3 5 78 23 46 34 8 76
REMARK Flexibility Score: inf
ROOT
ATOM      1  C   UNL A   1      33.758  29.781  27.268  1.00  0.00     0.116 C 
ENDROOT
BRANCH   1   2
ATOM      2  N   UNL A   1      34.028  31.019  27.972  1.00  0.00    -0.352 N 
ATOM      3  O   UNL A   1      35.058  32.750  28.896  1.00  0.00    -0.269 OA
ATOM      4  C   UNL A   1      35.165  31.598  28.472  1.00  0.00     0.251 C 
ATOM      5  H   UNL A   1      33.221  31.561  28.123  1.00  0.00     0.163 HD
BRANCH   4   6
ATOM      6  C   UNL A   1      36.469  30.898  28.602  1.00  0.00     0.039 A 
ATOM      7  C   UNL A   1      36.696  29.557  28.288  1.00  0.00     0.014 A 
ATOM      8  C   UNL A   1      37.533  31.667  29.104  1.00  0.00     0.014 A 
ATOM      9  C   UNL A   1      37.912  28.959  28.597  1.00  0.00     0.010 A 
ATOM     10  C   UNL A   1      38.765  31.082  29.377  1.00  0.00     0.010 A 
ATOM     11  C   UNL A   1      38.934  29.714  29.173  1.00  0.00    -0.014 A 
BRANCH  11  12
ATOM     12  C   UNL A   1      40.207  29.051  29.445  1.00  0.00     0.031 A 
ATOM     13  C   UNL A   1      40.562  28.899  30.890  1.00  0.00     0.074 A 
ATOM     14  C   UNL A   1      40.936  28.461  28.476  1.00  0.00     0.049 A 
ATOM     15  N   UNL A   1      41.644  29.255  31.505  1.00  0.00    -0.248 NA
ATOM     16  C   UNL A   1      39.533  28.337  31.782  1.00  0.00     0.031 C 
ATOM     17  C   UNL A   1      40.575  28.279  27.068  1.00  0.00     0.029 A 
ATOM     18  N   UNL A   1      42.104  27.768  28.586  1.00  0.00    -0.354 N 
ATOM     19  C   UNL A   1      41.514  28.803  32.819  1.00  0.00     0.074 A 
ATOM     20  C   UNL A   1      40.151  28.360  32.962  1.00  0.00     0.031 C 
ATOM     21  C   UNL A   1      41.362  27.321  26.531  1.00  0.00     0.029 A 
ATOM     22  C   UNL A   1      42.354  26.918  27.513  1.00  0.00     0.049 A 
ATOM     23  H   UNL A   1      42.714  27.861  29.352  1.00  0.00     0.167 HD
ATOM     24  C   UNL A   1      42.576  28.653  33.659  1.00  0.00     0.034 A 
ATOM     25  C   UNL A   1      43.240  25.888  27.483  1.00  0.00     0.034 A 
ATOM     26  C   UNL A   1      43.720  29.409  33.227  1.00  0.00     0.049 A 
ATOM     27  C   UNL A   1      44.241  26.146  28.550  1.00  0.00     0.074 A 
ATOM     28  C   UNL A   1      43.967  30.752  33.008  1.00  0.00     0.029 A 
ATOM     29  N   UNL A   1      44.751  28.747  32.604  1.00  0.00    -0.354 N 
ATOM     30  N   UNL A   1      45.060  27.160  28.546  1.00  0.00    -0.248 NA
ATOM     31  C   UNL A   1      44.019  25.533  29.851  1.00  0.00     0.031 C 
ATOM     32  C   UNL A   1      44.791  30.786  31.845  1.00  0.00     0.029 A 
ATOM     33  C   UNL A   1      45.038  29.465  31.468  1.00  0.00     0.049 A 
ATOM     34  H   UNL A   1      45.194  27.922  32.910  1.00  0.00     0.167 HD
ATOM     35  C   UNL A   1      45.128  27.574  29.867  1.00  0.00     0.074 A 
ATOM     36  C   UNL A   1      44.537  26.481  30.636  1.00  0.00     0.031 C 
ATOM     37  C   UNL A   1      45.401  28.869  30.199  1.00  0.00     0.034 A 
BRANCH  24  38
ATOM     38  C   UNL A   1      42.667  27.593  34.727  1.00  0.00     0.023 A 
ATOM     39  C   UNL A   1      43.354  26.396  34.448  1.00  0.00     0.031 A 
ATOM     40  C   UNL A   1      41.879  27.598  35.901  1.00  0.00     0.131 A 
ATOM     41  C   UNL A   1      43.212  25.273  35.285  1.00  0.00     0.055 A 
ATOM     42  C   UNL A   1      41.791  26.502  36.762  1.00  0.00     0.041 A 
ATOM     43  F   UNL A   1      41.081  28.626  36.219  1.00  0.00    -0.206 F 
ATOM     44  C   UNL A   1      42.442  25.322  36.446  1.00  0.00     0.022 A 
BRANCH  41  45
ATOM     45  S   UNL A   1      43.926  23.691  34.759  1.00  0.00     0.124 S 
ATOM     46  O   UNL A   1      42.769  23.013  34.187  1.00  0.00    -0.237 OA
ATOM     47  O   UNL A   1      44.952  24.122  33.814  1.00  0.00    -0.237 OA
ATOM     48  O   UNL A   1      44.432  23.114  36.003  1.00  0.00    -0.744 OA
ENDBRANCH  41  45
ENDBRANCH  24  38
BRANCH  25  49
ATOM     49  C   UNL A   1      43.038  24.552  26.855  1.00  0.00     0.023 A 
ATOM     50  C   UNL A   1      43.965  24.002  25.945  1.00  0.00     0.031 A 
ATOM     51  C   UNL A   1      42.034  23.679  27.333  1.00  0.00     0.131 A 
ATOM     52  C   UNL A   1      43.863  22.647  25.550  1.00  0.00     0.055 A 
ATOM     53  C   UNL A   1      41.929  22.346  26.932  1.00  0.00     0.041 A 
ATOM     54  F   UNL A   1      41.168  24.063  28.283  1.00  0.00    -0.206 F 
ATOM     55  C   UNL A   1      42.852  21.820  26.045  1.00  0.00     0.022 A 
BRANCH  52  56
ATOM     56  S   UNL A   1      45.130  21.898  24.477  1.00  0.00     0.124 S 
ATOM     57  O   UNL A   1      44.419  20.754  23.919  1.00  0.00    -0.237 OA
ATOM     58  O   UNL A   1      45.445  22.981  23.551  1.00  0.00    -0.237 OA
ATOM     59  O   UNL A   1      46.206  21.560  25.410  1.00  0.00    -0.744 OA
ENDBRANCH  52  56
ENDBRANCH  25  49
BRANCH  37  60
ATOM     60  C   UNL A   1      45.887  29.813  29.122  1.00  0.00     0.023 A 
ATOM     61  C   UNL A   1      45.043  30.628  28.332  1.00  0.00     0.031 A 
ATOM     62  C   UNL A   1      47.274  30.006  29.013  1.00  0.00     0.131 A 
ATOM     63  C   UNL A   1      45.605  31.592  27.470  1.00  0.00     0.055 A 
ATOM     64  C   UNL A   1      47.824  30.970  28.169  1.00  0.00     0.041 A 
ATOM     65  F   UNL A   1      48.121  29.286  29.767  1.00  0.00    -0.206 F 
ATOM     66  C   UNL A   1      46.991  31.766  27.393  1.00  0.00     0.022 A 
BRANCH  63  67
ATOM     67  S   UNL A   1      44.535  32.660  26.449  1.00  0.00     0.124 S 
ATOM     68  O   UNL A   1      43.675  31.709  25.754  1.00  0.00    -0.237 OA
ATOM     69  O   UNL A   1      43.884  33.508  27.444  1.00  0.00    -0.237 OA
ATOM     70  O   UNL A   1      45.483  33.365  25.583  1.00  0.00    -0.744 OA
ENDBRANCH  63  67
ENDBRANCH  37  60
ENDBRANCH  11  12
ENDBRANCH   4   6
ENDBRANCH   1   2
BRANCH   1  71
ATOM     71  C   UNL A   1      32.281  29.416  27.130  1.00  0.00     0.023 C 
BRANCH  71  72
ATOM     72  C   UNL A   1      31.932  27.953  27.425  1.00  0.00     0.023 C 
BRANCH  72  73
ATOM     73  C   UNL A   1      31.472  27.125  26.230  1.00  0.00     0.116 C 
BRANCH  73  74
ATOM     74  N   UNL A   1      30.621  26.005  26.595  1.00  0.00    -0.351 N 
ATOM     75  C   UNL A   1      30.877  24.654  26.478  1.00  0.00     0.273 C 
ATOM     76  H   UNL A   1      29.745  26.242  26.977  1.00  0.00     0.163 HD
ATOM     77  O   UNL A   1      30.037  23.851  26.859  1.00  0.00    -0.267 OA
BRANCH  75  78
ATOM     78  C   UNL A   1      32.151  24.240  25.884  1.00  0.00     0.167 A 
ATOM     79  N   UNL A   1      33.169  23.828  26.664  1.00  0.00    -0.160 NA
ATOM     80  C   UNL A   1      32.523  24.208  24.524  1.00  0.00     0.095 A 
ATOM     81  N   UNL A   1      34.154  23.480  25.808  1.00  0.00    -0.219 N 
ATOM     82  C   UNL A   1      33.783  23.665  24.472  1.00  0.00     0.170 A 
ATOM     83  Br  UNL A   1      31.496  24.789  23.068  1.00  0.00    -0.044 Br
ATOM     84  C   UNL A   1      35.414  22.996  26.135  1.00  0.00     0.132 A 
ATOM     85  N   UNL A   1      34.616  23.334  23.435  1.00  0.00    -0.235 NA
ATOM     86  C   UNL A   1      36.282  22.670  25.169  1.00  0.00     0.054 A 
ATOM     87  C   UNL A   1      35.777  22.857  23.774  1.00  0.00     0.131 A 
ATOM     88  Br  UNL A   1      37.995  22.035  25.442  1.00  0.00    -0.047 Br
ENDBRANCH  75  78
ENDBRANCH  73  74
ENDBRANCH  72  73
ENDBRANCH  71  72
ENDBRANCH   1  71
TORSDOF 14
ENDMDL
