MODEL 1
REMARK VINA RESULT:     -11.7      0.000      0.000
REMARK SMILES C[C@@](O)(c1cccc(O)c1)[C@@H](F)C(=O)NCCCCNC(=O)c1ccc(-c2c3nc(c(-c4cc(S(=O)(=O)[O-])ccc4F)c4ccc([nH]4)c(-c4cc(S(=O)(=O)[O-])ccc4F)c4nc(c(-c5cc(S(=O)(=O)[O-])ccc5F)c5ccc2[nH]5)C=C4)C=C3)cc1
REMARK SMILES IDX 17 1 16 2 15 3 13 4 14 5 11 7 12 8 2 9 1 10 3 11 4 13 5 14
REMARK SMILES IDX 10 15 6 16 8 17 7 18 9 19 18 21 19 22 20 23 21 24 22 26
REMARK SMILES IDX 23 27 24 28 85 29 25 30 84 31 26 32 27 33 28 34 78 35 29 36
REMARK SMILES IDX 83 37 77 38 79 39 30 40 82 41 76 42 75 43 31 45 63 46 43 47
REMARK SMILES IDX 62 48 44 49 47 50 61 51 80 52 45 53 46 54 60 56 81 57 48 58
REMARK SMILES IDX 32 59 33 60 41 61 34 62 40 63 42 64 39 65 35 66 36 67 37 68
REMARK SMILES IDX 38 69 64 70 65 71 73 72 66 73 72 74 74 75 71 76 67 77 68 78
REMARK SMILES IDX 69 79 70 80 49 81 50 82 58 83 51 84 57 85 59 86 56 87 52 88
REMARK SMILES IDX 53 89 54 90 55 91
REMARK H PARENT 15 6 3 12 9 20 20 25 79 44 47 55
REMARK Flexibility Score: inf
ROOT
ATOM      1  C   UNL A   1      37.604  20.421  24.694  1.00  0.00     0.023 C 
ENDROOT
BRANCH   1   2
ATOM      2  C   UNL A   1      37.767  21.850  25.216  1.00  0.00     0.116 C 
BRANCH   2   3
ATOM      3  N   UNL A   1      36.762  22.168  26.216  1.00  0.00    -0.353 N 
ATOM      4  C   UNL A   1      35.400  22.159  26.120  1.00  0.00     0.257 C 
ATOM      5  O   UNL A   1      34.760  22.652  27.056  1.00  0.00    -0.272 OA
ATOM      6  H   UNL A   1      37.116  22.428  27.096  1.00  0.00     0.163 HD
BRANCH   4   7
ATOM      7  C   UNL A   1      34.668  21.641  24.882  1.00  0.00     0.291 C 
ATOM      8  F   UNL A   1      34.255  22.633  24.041  1.00  0.00    -0.233 F 
BRANCH   7   9
ATOM      9  C   UNL A   1      33.481  20.694  25.241  1.00  0.00     0.127 C 
ATOM     10  C   UNL A   1      32.134  21.415  25.106  1.00  0.00     0.051 C 
BRANCH   9  11
ATOM     11  O   UNL A   1      33.587  20.270  26.615  1.00  0.00    -0.382 OA
ATOM     12  H   UNL A   1      34.180  20.871  27.094  1.00  0.00     0.212 HD
ENDBRANCH   9  11
BRANCH   9  13
ATOM     13  C   UNL A   1      33.530  19.389  24.427  1.00  0.00    -0.010 A 
ATOM     14  C   UNL A   1      34.527  18.427  24.680  1.00  0.00     0.007 A 
ATOM     15  C   UNL A   1      32.576  19.075  23.440  1.00  0.00     0.053 A 
ATOM     16  C   UNL A   1      34.585  17.227  23.963  1.00  0.00     0.004 A 
ATOM     17  C   UNL A   1      32.630  17.871  22.741  1.00  0.00     0.115 A 
ATOM     18  C   UNL A   1      33.632  16.945  22.990  1.00  0.00     0.046 A 
BRANCH  17  19
ATOM     19  O   UNL A   1      31.658  17.638  21.812  1.00  0.00    -0.508 OA
ATOM     20  H   UNL A   1      31.868  17.660  20.899  1.00  0.00     0.293 HD
ENDBRANCH  17  19
ENDBRANCH   9  13
ENDBRANCH   7   9
ENDBRANCH   4   7
ENDBRANCH   2   3
ENDBRANCH   1   2
BRANCH   1  21
ATOM     21  C   UNL A   1      38.456  19.382  25.410  1.00  0.00     0.023 C 
BRANCH  21  22
ATOM     22  C   UNL A   1      39.649  19.961  26.154  1.00  0.00     0.116 C 
BRANCH  22  23
ATOM     23  N   UNL A   1      40.863  19.173  25.979  1.00  0.00    -0.352 N 
ATOM     24  C   UNL A   1      42.170  19.599  25.969  1.00  0.00     0.251 C 
ATOM     25  H   UNL A   1      40.728  18.207  25.849  1.00  0.00     0.163 HD
ATOM     26  O   UNL A   1      43.069  18.827  25.654  1.00  0.00    -0.269 OA
BRANCH  24  27
ATOM     27  C   UNL A   1      42.459  21.005  26.309  1.00  0.00     0.039 A 
ATOM     28  C   UNL A   1      42.636  21.364  27.646  1.00  0.00     0.014 A 
ATOM     29  C   UNL A   1      42.630  21.946  25.290  1.00  0.00     0.014 A 
ATOM     30  C   UNL A   1      43.063  22.656  27.955  1.00  0.00     0.010 A 
ATOM     31  C   UNL A   1      43.154  23.193  25.593  1.00  0.00     0.010 A 
ATOM     32  C   UNL A   1      43.366  23.566  26.928  1.00  0.00    -0.014 A 
BRANCH  32  33
ATOM     33  C   UNL A   1      43.876  24.929  27.220  1.00  0.00     0.031 A 
ATOM     34  C   UNL A   1      42.942  25.956  27.799  1.00  0.00     0.074 A 
ATOM     35  C   UNL A   1      45.138  25.260  26.886  1.00  0.00     0.049 A 
ATOM     36  N   UNL A   1      43.141  27.230  28.018  1.00  0.00    -0.248 NA
ATOM     37  C   UNL A   1      41.584  25.495  28.131  1.00  0.00     0.031 C 
ATOM     38  C   UNL A   1      46.115  24.363  26.263  1.00  0.00     0.029 A 
ATOM     39  N   UNL A   1      45.815  26.446  27.013  1.00  0.00    -0.354 N 
ATOM     40  C   UNL A   1      41.928  27.725  28.485  1.00  0.00     0.074 A 
ATOM     41  C   UNL A   1      40.983  26.631  28.441  1.00  0.00     0.031 C 
ATOM     42  C   UNL A   1      47.272  25.022  26.089  1.00  0.00     0.029 A 
ATOM     43  C   UNL A   1      47.109  26.398  26.547  1.00  0.00     0.049 A 
ATOM     44  H   UNL A   1      45.412  27.257  27.400  1.00  0.00     0.167 HD
ATOM     45  C   UNL A   1      41.639  28.970  28.938  1.00  0.00     0.034 A 
ATOM     46  C   UNL A   1      48.052  27.359  26.491  1.00  0.00     0.034 A 
ATOM     47  C   UNL A   1      42.607  30.035  29.003  1.00  0.00     0.049 A 
ATOM     48  C   UNL A   1      47.716  28.731  27.015  1.00  0.00     0.074 A 
ATOM     49  C   UNL A   1      42.451  31.315  29.502  1.00  0.00     0.029 A 
ATOM     50  N   UNL A   1      43.919  29.940  28.554  1.00  0.00    -0.354 N 
ATOM     51  N   UNL A   1      46.578  29.174  27.503  1.00  0.00    -0.248 NA
ATOM     52  C   UNL A   1      48.791  29.730  26.994  1.00  0.00     0.031 C 
ATOM     53  C   UNL A   1      43.650  32.011  29.304  1.00  0.00     0.029 A 
ATOM     54  C   UNL A   1      44.576  31.145  28.745  1.00  0.00     0.049 A 
ATOM     55  H   UNL A   1      44.323  29.134  28.158  1.00  0.00     0.167 HD
ATOM     56  C   UNL A   1      46.813  30.494  27.873  1.00  0.00     0.074 A 
ATOM     57  C   UNL A   1      48.201  30.770  27.565  1.00  0.00     0.031 C 
ATOM     58  C   UNL A   1      45.961  31.398  28.421  1.00  0.00     0.034 A 
BRANCH  45  59
ATOM     59  C   UNL A   1      40.217  29.231  29.378  1.00  0.00     0.023 A 
ATOM     60  C   UNL A   1      39.842  29.180  30.732  1.00  0.00     0.031 A 
ATOM     61  C   UNL A   1      39.210  29.481  28.428  1.00  0.00     0.131 A 
ATOM     62  C   UNL A   1      38.490  29.277  31.091  1.00  0.00     0.055 A 
ATOM     63  C   UNL A   1      37.877  29.669  28.802  1.00  0.00     0.041 A 
ATOM     64  F   UNL A   1      39.500  29.521  27.118  1.00  0.00    -0.206 F 
ATOM     65  C   UNL A   1      37.508  29.549  30.138  1.00  0.00     0.022 A 
BRANCH  62  66
ATOM     66  S   UNL A   1      38.020  28.879  32.797  1.00  0.00     0.124 S 
ATOM     67  O   UNL A   1      36.649  29.383  32.849  1.00  0.00    -0.237 OA
ATOM     68  O   UNL A   1      38.169  27.429  32.836  1.00  0.00    -0.237 OA
ATOM     69  O   UNL A   1      38.983  29.629  33.602  1.00  0.00    -0.744 OA
ENDBRANCH  62  66
ENDBRANCH  45  59
BRANCH  46  70
ATOM     70  C   UNL A   1      49.400  27.064  25.927  1.00  0.00     0.023 A 
ATOM     71  C   UNL A   1      49.782  27.563  24.672  1.00  0.00     0.031 A 
ATOM     72  C   UNL A   1      50.316  26.255  26.622  1.00  0.00     0.131 A 
ATOM     73  C   UNL A   1      51.028  27.212  24.128  1.00  0.00     0.055 A 
ATOM     74  C   UNL A   1      51.573  25.947  26.098  1.00  0.00     0.041 A 
ATOM     75  F   UNL A   1      50.004  25.760  27.831  1.00  0.00    -0.206 F 
ATOM     76  C   UNL A   1      51.930  26.417  24.838  1.00  0.00     0.022 A 
BRANCH  73  77
ATOM     77  S   UNL A   1      51.422  27.753  22.443  1.00  0.00     0.124 S 
ATOM     78  O   UNL A   1      51.171  26.540  21.673  1.00  0.00    -0.237 OA
ATOM     79  O   UNL A   1      50.475  28.845  22.246  1.00  0.00    -0.237 OA
ATOM     80  O   UNL A   1      52.824  28.156  22.534  1.00  0.00    -0.744 OA
ENDBRANCH  73  77
ENDBRANCH  46  70
BRANCH  58  81
ATOM     81  C   UNL A   1      46.530  32.753  28.758  1.00  0.00     0.023 A 
ATOM     82  C   UNL A   1      46.546  33.802  27.823  1.00  0.00     0.031 A 
ATOM     83  C   UNL A   1      47.070  32.992  30.035  1.00  0.00     0.131 A 
ATOM     84  C   UNL A   1      47.141  35.026  28.160  1.00  0.00     0.055 A 
ATOM     85  C   UNL A   1      47.607  34.231  30.384  1.00  0.00     0.041 A 
ATOM     86  F   UNL A   1      47.080  32.023  30.965  1.00  0.00    -0.206 F 
ATOM     87  C   UNL A   1      47.656  35.253  29.439  1.00  0.00     0.022 A 
BRANCH  84  88
ATOM     88  S   UNL A   1      47.307  36.295  26.875  1.00  0.00     0.124 S 
ATOM     89  O   UNL A   1      46.304  35.875  25.903  1.00  0.00    -0.237 OA
ATOM     90  O   UNL A   1      47.011  37.522  27.607  1.00  0.00    -0.237 OA
ATOM     91  O   UNL A   1      48.694  36.156  26.434  1.00  0.00    -0.744 OA
ENDBRANCH  84  88
ENDBRANCH  58  81
ENDBRANCH  32  33
ENDBRANCH  24  27
ENDBRANCH  22  23
ENDBRANCH  21  22
ENDBRANCH   1  21
TORSDOF 18
ENDMDL
MODEL 2
REMARK VINA RESULT:     -11.5      4.452      9.715
REMARK SMILES C[C@@](O)(c1cccc(O)c1)[C@@H](F)C(=O)NCCCCNC(=O)c1ccc(-c2c3nc(c(-c4cc(S(=O)(=O)[O-])ccc4F)c4ccc([nH]4)c(-c4cc(S(=O)(=O)[O-])ccc4F)c4nc(c(-c5cc(S(=O)(=O)[O-])ccc5F)c5ccc2[nH]5)C=C4)C=C3)cc1
REMARK SMILES IDX 17 1 16 2 15 3 13 4 14 5 11 7 12 8 2 9 1 10 3 11 4 13 5 14
REMARK SMILES IDX 10 15 6 16 8 17 7 18 9 19 18 21 19 22 20 23 21 24 22 26
REMARK SMILES IDX 23 27 24 28 85 29 25 30 84 31 26 32 27 33 28 34 78 35 29 36
REMARK SMILES IDX 83 37 77 38 79 39 30 40 82 41 76 42 75 43 31 45 63 46 43 47
REMARK SMILES IDX 62 48 44 49 47 50 61 51 80 52 45 53 46 54 60 56 81 57 48 58
REMARK SMILES IDX 32 59 33 60 41 61 34 62 40 63 42 64 39 65 35 66 36 67 37 68
REMARK SMILES IDX 38 69 64 70 65 71 73 72 66 73 72 74 74 75 71 76 67 77 68 78
REMARK SMILES IDX 69 79 70 80 49 81 50 82 58 83 51 84 57 85 59 86 56 87 52 88
REMARK SMILES IDX 53 89 54 90 55 91
REMARK H PARENT 15 6 3 12 9 20 20 25 79 44 47 55
REMARK Flexibility Score: inf
ROOT
ATOM      1  C   UNL A   1      34.130  24.442  25.512  1.00  0.00     0.023 C 
ENDROOT
BRANCH   1   2
ATOM      2  C   UNL A   1      33.201  24.710  24.327  1.00  0.00     0.116 C 
BRANCH   2   3
ATOM      3  N   UNL A   1      33.802  25.633  23.380  1.00  0.00    -0.353 N 
ATOM      4  C   UNL A   1      33.210  26.522  22.530  1.00  0.00     0.257 C 
ATOM      5  O   UNL A   1      33.929  27.065  21.683  1.00  0.00    -0.272 OA
ATOM      6  H   UNL A   1      34.785  25.617  23.347  1.00  0.00     0.163 HD
BRANCH   4   7
ATOM      7  C   UNL A   1      31.706  26.794  22.545  1.00  0.00     0.291 C 
ATOM      8  F   UNL A   1      31.102  26.571  21.342  1.00  0.00    -0.233 F 
BRANCH   7   9
ATOM      9  C   UNL A   1      31.362  28.220  23.078  1.00  0.00     0.127 C 
ATOM     10  C   UNL A   1      29.875  28.543  22.883  1.00  0.00     0.051 C 
BRANCH   9  11
ATOM     11  O   UNL A   1      32.100  29.213  22.339  1.00  0.00    -0.382 OA
ATOM     12  H   UNL A   1      32.433  29.890  22.949  1.00  0.00     0.212 HD
ENDBRANCH   9  11
BRANCH   9  13
ATOM     13  C   UNL A   1      31.815  28.405  24.537  1.00  0.00    -0.010 A 
ATOM     14  C   UNL A   1      31.259  27.614  25.562  1.00  0.00     0.007 A 
ATOM     15  C   UNL A   1      32.817  29.320  24.910  1.00  0.00     0.053 A 
ATOM     16  C   UNL A   1      31.663  27.753  26.894  1.00  0.00     0.004 A 
ATOM     17  C   UNL A   1      33.226  29.441  26.236  1.00  0.00     0.115 A 
ATOM     18  C   UNL A   1      32.653  28.669  27.234  1.00  0.00     0.046 A 
BRANCH  17  19
ATOM     19  O   UNL A   1      34.215  30.341  26.510  1.00  0.00    -0.508 OA
ATOM     20  H   UNL A   1      34.797  30.620  25.831  1.00  0.00     0.293 HD
ENDBRANCH  17  19
ENDBRANCH   9  13
ENDBRANCH   7   9
ENDBRANCH   4   7
ENDBRANCH   2   3
ENDBRANCH   1   2
BRANCH   1  21
ATOM     21  C   UNL A   1      35.391  23.661  25.168  1.00  0.00     0.023 C 
BRANCH  21  22
ATOM     22  C   UNL A   1      36.493  23.767  26.209  1.00  0.00     0.116 C 
BRANCH  22  23
ATOM     23  N   UNL A   1      37.438  22.659  26.150  1.00  0.00    -0.352 N 
ATOM     24  C   UNL A   1      38.799  22.678  26.342  1.00  0.00     0.251 C 
ATOM     25  H   UNL A   1      37.049  21.779  25.944  1.00  0.00     0.163 HD
ATOM     26  O   UNL A   1      39.472  21.681  26.104  1.00  0.00    -0.269 OA
BRANCH  24  27
ATOM     27  C   UNL A   1      39.431  23.929  26.804  1.00  0.00     0.039 A 
ATOM     28  C   UNL A   1      39.980  24.805  25.866  1.00  0.00     0.014 A 
ATOM     29  C   UNL A   1      39.406  24.261  28.161  1.00  0.00     0.014 A 
ATOM     30  C   UNL A   1      40.436  26.055  26.285  1.00  0.00     0.010 A 
ATOM     31  C   UNL A   1      39.761  25.542  28.557  1.00  0.00     0.010 A 
ATOM     32  C   UNL A   1      40.290  26.449  27.626  1.00  0.00    -0.014 A 
BRANCH  32  33
ATOM     33  C   UNL A   1      40.711  27.793  28.094  1.00  0.00     0.031 A 
ATOM     34  C   UNL A   1      42.176  28.136  28.122  1.00  0.00     0.074 A 
ATOM     35  C   UNL A   1      39.795  28.657  28.570  1.00  0.00     0.049 A 
ATOM     36  N   UNL A   1      42.771  29.197  28.603  1.00  0.00    -0.248 NA
ATOM     37  C   UNL A   1      43.097  27.125  27.581  1.00  0.00     0.031 C 
ATOM     38  C   UNL A   1      38.352  28.408  28.648  1.00  0.00     0.029 A 
ATOM     39  N   UNL A   1      39.939  29.918  29.089  1.00  0.00    -0.354 N 
ATOM     40  C   UNL A   1      44.133  28.967  28.445  1.00  0.00     0.074 A 
ATOM     41  C   UNL A   1      44.275  27.636  27.899  1.00  0.00     0.031 C 
ATOM     42  C   UNL A   1      37.744  29.492  29.156  1.00  0.00     0.029 A 
ATOM     43  C   UNL A   1      38.753  30.496  29.480  1.00  0.00     0.049 A 
ATOM     44  H   UNL A   1      40.810  30.368  29.176  1.00  0.00     0.167 HD
ATOM     45  C   UNL A   1      45.169  29.804  28.702  1.00  0.00     0.034 A 
ATOM     46  C   UNL A   1      38.510  31.696  30.042  1.00  0.00     0.034 A 
ATOM     47  C   UNL A   1      45.001  31.140  29.216  1.00  0.00     0.049 A 
ATOM     48  C   UNL A   1      39.674  32.617  30.305  1.00  0.00     0.074 A 
ATOM     49  C   UNL A   1      45.965  32.102  29.455  1.00  0.00     0.029 A 
ATOM     50  N   UNL A   1      43.780  31.705  29.568  1.00  0.00    -0.354 N 
ATOM     51  N   UNL A   1      40.955  32.409  30.103  1.00  0.00    -0.248 NA
ATOM     52  C   UNL A   1      39.359  33.940  30.858  1.00  0.00     0.031 C 
ATOM     53  C   UNL A   1      45.336  33.225  30.003  1.00  0.00     0.029 A 
ATOM     54  C   UNL A   1      43.970  32.992  30.042  1.00  0.00     0.049 A 
ATOM     55  H   UNL A   1      42.907  31.255  29.491  1.00  0.00     0.167 HD
ATOM     56  C   UNL A   1      41.595  33.585  30.479  1.00  0.00     0.074 A 
ATOM     57  C   UNL A   1      40.558  34.503  30.905  1.00  0.00     0.031 C 
ATOM     58  C   UNL A   1      42.919  33.885  30.470  1.00  0.00     0.034 A 
BRANCH  45  59
ATOM     59  C   UNL A   1      46.561  29.278  28.444  1.00  0.00     0.023 A 
ATOM     60  C   UNL A   1      47.032  29.047  27.139  1.00  0.00     0.031 A 
ATOM     61  C   UNL A   1      47.412  28.950  29.514  1.00  0.00     0.131 A 
ATOM     62  C   UNL A   1      48.270  28.419  26.939  1.00  0.00     0.055 A 
ATOM     63  C   UNL A   1      48.683  28.408  29.306  1.00  0.00     0.041 A 
ATOM     64  F   UNL A   1      47.013  29.127  30.784  1.00  0.00    -0.206 F 
ATOM     65  C   UNL A   1      49.110  28.122  28.013  1.00  0.00     0.022 A 
BRANCH  62  66
ATOM     66  S   UNL A   1      48.687  27.846  25.269  1.00  0.00     0.124 S 
ATOM     67  O   UNL A   1      47.519  28.284  24.508  1.00  0.00    -0.237 OA
ATOM     68  O   UNL A   1      49.931  28.554  24.994  1.00  0.00    -0.237 OA
ATOM     69  O   UNL A   1      48.813  26.398  25.425  1.00  0.00    -0.744 OA
ENDBRANCH  62  66
ENDBRANCH  45  59
BRANCH  46  70
ATOM     70  C   UNL A   1      37.119  32.102  30.389  1.00  0.00     0.023 A 
ATOM     71  C   UNL A   1      36.254  32.622  29.413  1.00  0.00     0.031 A 
ATOM     72  C   UNL A   1      36.642  32.005  31.708  1.00  0.00     0.131 A 
ATOM     73  C   UNL A   1      34.973  33.066  29.777  1.00  0.00     0.055 A 
ATOM     74  C   UNL A   1      35.350  32.403  32.056  1.00  0.00     0.041 A 
ATOM     75  F   UNL A   1      37.425  31.504  32.678  1.00  0.00    -0.206 F 
ATOM     76  C   UNL A   1      34.511  32.950  31.090  1.00  0.00     0.022 A 
BRANCH  73  77
ATOM     77  S   UNL A   1      33.943  33.868  28.519  1.00  0.00     0.124 S 
ATOM     78  O   UNL A   1      34.900  34.756  27.870  1.00  0.00    -0.237 OA
ATOM     79  O   UNL A   1      33.487  32.729  27.729  1.00  0.00    -0.237 OA
ATOM     80  O   UNL A   1      32.904  34.534  29.303  1.00  0.00    -0.744 OA
ENDBRANCH  73  77
ENDBRANCH  46  70
BRANCH  58  81
ATOM     81  C   UNL A   1      43.304  35.280  30.896  1.00  0.00     0.023 A 
ATOM     82  C   UNL A   1      43.408  35.636  32.251  1.00  0.00     0.031 A 
ATOM     83  C   UNL A   1      43.565  36.266  29.928  1.00  0.00     0.131 A 
ATOM     84  C   UNL A   1      43.709  36.960  32.602  1.00  0.00     0.055 A 
ATOM     85  C   UNL A   1      43.921  37.566  30.282  1.00  0.00     0.041 A 
ATOM     86  F   UNL A   1      43.479  35.977  28.618  1.00  0.00    -0.206 F 
ATOM     87  C   UNL A   1      43.983  37.923  31.626  1.00  0.00     0.022 A 
BRANCH  84  88
ATOM     88  S   UNL A   1      43.657  37.429  34.353  1.00  0.00     0.124 S 
ATOM     89  O   UNL A   1      42.800  38.609  34.325  1.00  0.00    -0.237 OA
ATOM     90  O   UNL A   1      43.085  36.241  34.978  1.00  0.00    -0.237 OA
ATOM     91  O   UNL A   1      45.058  37.687  34.681  1.00  0.00    -0.744 OA
ENDBRANCH  84  88
ENDBRANCH  58  81
ENDBRANCH  32  33
ENDBRANCH  24  27
ENDBRANCH  22  23
ENDBRANCH  21  22
ENDBRANCH   1  21
TORSDOF 18
ENDMDL
MODEL 3
REMARK VINA RESULT:     -11.4      6.456     11.151
REMARK SMILES C[C@@](O)(c1cccc(O)c1)[C@@H](F)C(=O)NCCCCNC(=O)c1ccc(-c2c3nc(c(-c4cc(S(=O)(=O)[O-])ccc4F)c4ccc([nH]4)c(-c4cc(S(=O)(=O)[O-])ccc4F)c4nc(c(-c5cc(S(=O)(=O)[O-])ccc5F)c5ccc2[nH]5)C=C4)C=C3)cc1
REMARK SMILES IDX 17 1 16 2 15 3 13 4 14 5 11 7 12 8 2 9 1 10 3 11 4 13 5 14
REMARK SMILES IDX 10 15 6 16 8 17 7 18 9 19 18 21 19 22 20 23 21 24 22 26
REMARK SMILES IDX 23 27 24 28 85 29 25 30 84 31 26 32 27 33 28 34 78 35 29 36
REMARK SMILES IDX 83 37 77 38 79 39 30 40 82 41 76 42 75 43 31 45 63 46 43 47
REMARK SMILES IDX 62 48 44 49 47 50 61 51 80 52 45 53 46 54 60 56 81 57 48 58
REMARK SMILES IDX 32 59 33 60 41 61 34 62 40 63 42 64 39 65 35 66 36 67 37 68
REMARK SMILES IDX 38 69 64 70 65 71 73 72 66 73 72 74 74 75 71 76 67 77 68 78
REMARK SMILES IDX 69 79 70 80 49 81 50 82 58 83 51 84 57 85 59 86 56 87 52 88
REMARK SMILES IDX 53 89 54 90 55 91
REMARK H PARENT 15 6 3 12 9 20 20 25 79 44 47 55
REMARK Flexibility Score: inf
ROOT
ATOM      1  C   UNL A   1      32.985  34.874  29.206  1.00  0.00     0.023 C 
ENDROOT
BRANCH   1   2
ATOM      2  C   UNL A   1      33.626  35.451  30.470  1.00  0.00     0.116 C 
BRANCH   2   3
ATOM      3  N   UNL A   1      33.246  34.694  31.650  1.00  0.00    -0.353 N 
ATOM      4  C   UNL A   1      33.923  33.713  32.316  1.00  0.00     0.257 C 
ATOM      5  O   UNL A   1      33.308  33.085  33.186  1.00  0.00    -0.272 OA
ATOM      6  H   UNL A   1      32.367  34.924  32.029  1.00  0.00     0.163 HD
BRANCH   4   7
ATOM      7  C   UNL A   1      35.360  33.326  31.965  1.00  0.00     0.291 C 
ATOM      8  F   UNL A   1      35.605  31.989  32.078  1.00  0.00    -0.233 F 
BRANCH   7   9
ATOM      9  C   UNL A   1      36.413  34.148  32.771  1.00  0.00     0.127 C 
ATOM     10  C   UNL A   1      36.615  33.567  34.177  1.00  0.00     0.051 C 
BRANCH   9  11
ATOM     11  O   UNL A   1      35.952  35.503  32.946  1.00  0.00    -0.382 OA
ATOM     12  H   UNL A   1      35.766  35.896  32.079  1.00  0.00     0.212 HD
ENDBRANCH   9  11
BRANCH   9  13
ATOM     13  C   UNL A   1      37.738  34.284  31.999  1.00  0.00    -0.010 A 
ATOM     14  C   UNL A   1      38.964  34.345  32.690  1.00  0.00     0.007 A 
ATOM     15  C   UNL A   1      37.796  34.309  30.593  1.00  0.00     0.053 A 
ATOM     16  C   UNL A   1      40.182  34.454  32.011  1.00  0.00     0.004 A 
ATOM     17  C   UNL A   1      39.014  34.402  29.923  1.00  0.00     0.115 A 
ATOM     18  C   UNL A   1      40.210  34.482  30.621  1.00  0.00     0.046 A 
BRANCH  17  19
ATOM     19  O   UNL A   1      38.984  34.405  28.558  1.00  0.00    -0.508 OA
ATOM     20  H   UNL A   1      38.244  34.759  28.107  1.00  0.00     0.293 HD
ENDBRANCH  17  19
ENDBRANCH   9  13
ENDBRANCH   7   9
ENDBRANCH   4   7
ENDBRANCH   2   3
ENDBRANCH   1   2
BRANCH   1  21
ATOM     21  C   UNL A   1      33.974  34.356  28.172  1.00  0.00     0.023 C 
BRANCH  21  22
ATOM     22  C   UNL A   1      34.608  33.021  28.530  1.00  0.00     0.116 C 
BRANCH  22  23
ATOM     23  N   UNL A   1      33.987  31.896  27.842  1.00  0.00    -0.352 N 
ATOM     24  C   UNL A   1      34.504  30.645  27.601  1.00  0.00     0.251 C 
ATOM     25  H   UNL A   1      33.076  32.053  27.505  1.00  0.00     0.163 HD
ATOM     26  O   UNL A   1      33.908  29.861  26.870  1.00  0.00    -0.269 OA
BRANCH  24  27
ATOM     27  C   UNL A   1      35.799  30.285  28.207  1.00  0.00     0.039 A 
ATOM     28  C   UNL A   1      35.821  29.660  29.454  1.00  0.00     0.014 A 
ATOM     29  C   UNL A   1      36.983  30.500  27.497  1.00  0.00     0.014 A 
ATOM     30  C   UNL A   1      37.031  29.179  29.956  1.00  0.00     0.010 A 
ATOM     31  C   UNL A   1      38.164  29.929  27.948  1.00  0.00     0.010 A 
ATOM     32  C   UNL A   1      38.203  29.272  29.187  1.00  0.00    -0.014 A 
BRANCH  32  33
ATOM     33  C   UNL A   1      39.495  28.721  29.665  1.00  0.00     0.031 A 
ATOM     34  C   UNL A   1      40.229  29.422  30.775  1.00  0.00     0.074 A 
ATOM     35  C   UNL A   1      40.041  27.655  29.048  1.00  0.00     0.049 A 
ATOM     36  N   UNL A   1      41.419  29.187  31.263  1.00  0.00    -0.248 NA
ATOM     37  C   UNL A   1      39.549  30.576  31.384  1.00  0.00     0.031 C 
ATOM     38  C   UNL A   1      39.448  26.931  27.920  1.00  0.00     0.029 A 
ATOM     39  N   UNL A   1      41.224  26.999  29.274  1.00  0.00    -0.354 N 
ATOM     40  C   UNL A   1      41.639  30.178  32.213  1.00  0.00     0.074 A 
ATOM     41  C   UNL A   1      40.494  31.059  32.174  1.00  0.00     0.031 C 
ATOM     42  C   UNL A   1      40.256  25.916  27.574  1.00  0.00     0.029 A 
ATOM     43  C   UNL A   1      41.443  25.941  28.423  1.00  0.00     0.049 A 
ATOM     44  H   UNL A   1      41.859  27.262  29.980  1.00  0.00     0.167 HD
ATOM     45  C   UNL A   1      42.687  30.320  33.063  1.00  0.00     0.034 A 
ATOM     46  C   UNL A   1      42.486  25.093  28.335  1.00  0.00     0.034 A 
ATOM     47  C   UNL A   1      43.802  29.409  33.105  1.00  0.00     0.049 A 
ATOM     48  C   UNL A   1      43.633  25.258  29.299  1.00  0.00     0.074 A 
ATOM     49  C   UNL A   1      44.888  29.411  33.962  1.00  0.00     0.029 A 
ATOM     50  N   UNL A   1      43.974  28.327  32.250  1.00  0.00    -0.354 N 
ATOM     51  N   UNL A   1      43.805  26.170  30.229  1.00  0.00    -0.248 NA
ATOM     52  C   UNL A   1      44.718  24.275  29.211  1.00  0.00     0.031 C 
ATOM     53  C   UNL A   1      45.741  28.367  33.590  1.00  0.00     0.029 A 
ATOM     54  C   UNL A   1      45.156  27.668  32.546  1.00  0.00     0.049 A 
ATOM     55  H   UNL A   1      43.346  28.066  31.537  1.00  0.00     0.167 HD
ATOM     56  C   UNL A   1      45.006  25.850  30.855  1.00  0.00     0.074 A 
ATOM     57  C   UNL A   1      45.506  24.655  30.206  1.00  0.00     0.031 C 
ATOM     58  C   UNL A   1      45.639  26.483  31.877  1.00  0.00     0.034 A 
BRANCH  45  59
ATOM     59  C   UNL A   1      42.666  31.512  33.991  1.00  0.00     0.023 A 
ATOM     60  C   UNL A   1      42.152  31.421  35.297  1.00  0.00     0.031 A 
ATOM     61  C   UNL A   1      43.112  32.770  33.549  1.00  0.00     0.131 A 
ATOM     62  C   UNL A   1      42.009  32.577  36.077  1.00  0.00     0.055 A 
ATOM     63  C   UNL A   1      43.052  33.901  34.366  1.00  0.00     0.041 A 
ATOM     64  F   UNL A   1      43.594  32.927  32.305  1.00  0.00    -0.206 F 
ATOM     65  C   UNL A   1      42.479  33.813  35.631  1.00  0.00     0.022 A 
BRANCH  62  66
ATOM     66  S   UNL A   1      41.048  32.468  37.612  1.00  0.00     0.124 S 
ATOM     67  O   UNL A   1      39.874  31.717  37.171  1.00  0.00    -0.237 OA
ATOM     68  O   UNL A   1      41.959  31.762  38.505  1.00  0.00    -0.237 OA
ATOM     69  O   UNL A   1      40.792  33.865  37.956  1.00  0.00    -0.744 OA
ENDBRANCH  62  66
ENDBRANCH  45  59
BRANCH  46  70
ATOM     70  C   UNL A   1      42.499  24.012  27.309  1.00  0.00     0.023 A 
ATOM     71  C   UNL A   1      41.892  22.771  27.559  1.00  0.00     0.031 A 
ATOM     72  C   UNL A   1      43.143  24.193  26.072  1.00  0.00     0.131 A 
ATOM     73  C   UNL A   1      41.980  21.744  26.607  1.00  0.00     0.055 A 
ATOM     74  C   UNL A   1      43.187  23.184  25.108  1.00  0.00     0.041 A 
ATOM     75  F   UNL A   1      43.730  25.365  25.778  1.00  0.00    -0.206 F 
ATOM     76  C   UNL A   1      42.614  21.946  25.379  1.00  0.00     0.022 A 
BRANCH  73  77
ATOM     77  S   UNL A   1      41.315  20.110  27.029  1.00  0.00     0.124 S 
ATOM     78  O   UNL A   1      40.278  19.939  26.018  1.00  0.00    -0.237 OA
ATOM     79  O   UNL A   1      42.493  19.260  26.891  1.00  0.00    -0.237 OA
ATOM     80  O   UNL A   1      40.831  20.283  28.398  1.00  0.00    -0.744 OA
ENDBRANCH  73  77
ENDBRANCH  46  70
BRANCH  58  81
ATOM     81  C   UNL A   1      46.918  25.860  32.375  1.00  0.00     0.023 A 
ATOM     82  C   UNL A   1      46.932  24.975  33.467  1.00  0.00     0.031 A 
ATOM     83  C   UNL A   1      48.140  26.162  31.749  1.00  0.00     0.131 A 
ATOM     84  C   UNL A   1      48.152  24.467  33.935  1.00  0.00     0.055 A 
ATOM     85  C   UNL A   1      49.344  25.608  32.182  1.00  0.00     0.041 A 
ATOM     86  F   UNL A   1      48.181  27.002  30.702  1.00  0.00    -0.206 F 
ATOM     87  C   UNL A   1      49.356  24.764  33.290  1.00  0.00     0.022 A 
BRANCH  84  88
ATOM     88  S   UNL A   1      48.156  23.476  35.455  1.00  0.00     0.124 S 
ATOM     89  O   UNL A   1      49.509  23.691  35.953  1.00  0.00    -0.237 OA
ATOM     90  O   UNL A   1      47.085  24.091  36.232  1.00  0.00    -0.237 OA
ATOM     91  O   UNL A   1      47.876  22.122  34.981  1.00  0.00    -0.744 OA
ENDBRANCH  84  88
ENDBRANCH  58  81
ENDBRANCH  32  33
ENDBRANCH  24  27
ENDBRANCH  22  23
ENDBRANCH  21  22
ENDBRANCH   1  21
TORSDOF 18
ENDMDL
