MODEL 1
REMARK VINA RESULT:     -11.8      0.000      0.000
REMARK SMILES O=C(CCC(=O)N1N=C(c2ccccc2)C[C@@H]1c1ccc2c(c1)OCO2)NCCCCNC(=O)c1ccc(-c2c3nc(c(-c4cc(S(=O)(=O)[O-])ccc4F)c4ccc([nH]4)c(-c4cc(S(=O)(=O)[O-])ccc4F)c4nc(c(-c5cc(S(=O)(=O)[O-])ccc5F)c5ccc2[nH]5)C=C4)C=C3)cc1
REMARK SMILES IDX 29 1 28 2 27 3 1 4 2 5 3 7 4 8 5 9 6 10 7 11 8 12 17 13 9 14
REMARK SMILES IDX 16 15 18 16 19 17 23 18 20 19 22 20 21 21 24 22 26 23 25 24
REMARK SMILES IDX 10 25 11 26 15 27 12 28 14 29 13 30 30 31 31 32 32 33 33 34
REMARK SMILES IDX 34 36 35 37 36 38 97 39 37 40 96 41 38 42 39 43 40 44 90 45
REMARK SMILES IDX 41 46 95 47 89 48 91 49 42 50 94 51 88 52 87 53 43 55 75 56
REMARK SMILES IDX 55 57 74 58 56 59 59 60 73 61 92 62 57 63 58 64 72 66 93 67
REMARK SMILES IDX 60 68 44 69 45 70 53 71 46 72 52 73 54 74 51 75 47 76 48 77
REMARK SMILES IDX 49 78 50 79 76 80 77 81 85 82 78 83 84 84 86 85 83 86 79 87
REMARK SMILES IDX 80 88 81 89 82 90 61 91 62 92 70 93 63 94 69 95 71 96 68 97
REMARK SMILES IDX 64 98 65 99 66 100 67 101
REMARK H PARENT 27 6 32 35 91 54 59 65
REMARK Flexibility Score: inf
ROOT
ATOM      1  C   UNL A   1      40.968  21.373  26.239  1.00  0.00     0.023 C 
ENDROOT
BRANCH   1   2
ATOM      2  C   UNL A   1      39.734  22.208  26.707  1.00  0.00     0.116 C 
BRANCH   2   3
ATOM      3  N   UNL A   1      38.932  23.010  25.784  1.00  0.00    -0.356 N 
ATOM      4  O   UNL A   1      37.747  21.213  24.970  1.00  0.00    -0.275 OA
ATOM      5  C   UNL A   1      37.857  22.417  25.091  1.00  0.00     0.220 C 
ATOM      6  H   UNL A   1      39.141  23.962  25.647  1.00  0.00     0.163 HD
BRANCH   5   7
ATOM      7  C   UNL A   1      36.736  23.395  24.653  1.00  0.00     0.110 C 
BRANCH   7   8
ATOM      8  C   UNL A   1      35.754  23.758  25.796  1.00  0.00     0.112 C 
BRANCH   8   9
ATOM      9  C   UNL A   1      34.663  22.843  26.435  1.00  0.00     0.243 C 
ATOM     10  O   UNL A   1      34.301  23.108  27.589  1.00  0.00    -0.273 OA
BRANCH   9  11
ATOM     11  N   UNL A   1      33.987  21.922  25.657  1.00  0.00    -0.225 N 
ATOM     12  N   UNL A   1      34.518  20.638  25.432  1.00  0.00    -0.174 NA
ATOM     13  C   UNL A   1      32.609  21.995  25.256  1.00  0.00     0.147 C 
ATOM     14  C   UNL A   1      33.500  19.867  25.165  1.00  0.00     0.071 C 
ATOM     15  C   UNL A   1      32.183  20.559  25.248  1.00  0.00     0.091 C 
BRANCH  13  16
ATOM     16  C   UNL A   1      32.287  22.996  24.155  1.00  0.00    -0.019 A 
ATOM     17  C   UNL A   1      31.030  23.658  24.211  1.00  0.00     0.010 A 
ATOM     18  C   UNL A   1      33.204  23.444  23.201  1.00  0.00     0.056 A 
ATOM     19  C   UNL A   1      30.685  24.752  23.423  1.00  0.00     0.051 A 
ATOM     20  C   UNL A   1      32.855  24.554  22.436  1.00  0.00     0.166 A 
ATOM     21  C   UNL A   1      31.641  25.192  22.556  1.00  0.00     0.165 A 
ATOM     22  O   UNL A   1      33.659  25.191  21.541  1.00  0.00    -0.454 OA
ATOM     23  O   UNL A   1      31.529  26.296  21.776  1.00  0.00    -0.454 OA
ATOM     24  C   UNL A   1      32.855  26.346  21.213  1.00  0.00     0.468 C 
ENDBRANCH  13  16
BRANCH  14  25
ATOM     25  C   UNL A   1      33.490  18.390  24.984  1.00  0.00    -0.002 A 
ATOM     26  C   UNL A   1      32.647  17.589  25.747  1.00  0.00     0.010 A 
ATOM     27  C   UNL A   1      34.238  17.794  23.951  1.00  0.00     0.010 A 
ATOM     28  C   UNL A   1      32.567  16.214  25.481  1.00  0.00     0.001 A 
ATOM     29  C   UNL A   1      34.176  16.426  23.701  1.00  0.00     0.001 A 
ATOM     30  C   UNL A   1      33.335  15.633  24.467  1.00  0.00     0.000 A 
ENDBRANCH  14  25
ENDBRANCH   9  11
ENDBRANCH   8   9
ENDBRANCH   7   8
ENDBRANCH   5   7
ENDBRANCH   2   3
ENDBRANCH   1   2
BRANCH   1  31
ATOM     31  C   UNL A   1      41.178  19.831  26.113  1.00  0.00     0.023 C 
BRANCH  31  32
ATOM     32  C   UNL A   1      42.466  19.020  26.439  1.00  0.00     0.116 C 
BRANCH  32  33
ATOM     33  N   UNL A   1      43.395  18.851  25.336  1.00  0.00    -0.352 N 
ATOM     34  C   UNL A   1      44.126  19.773  24.605  1.00  0.00     0.251 C 
ATOM     35  H   UNL A   1      43.531  17.915  25.059  1.00  0.00     0.163 HD
ATOM     36  O   UNL A   1      44.616  19.373  23.545  1.00  0.00    -0.269 OA
BRANCH  34  37
ATOM     37  C   UNL A   1      44.388  21.192  25.004  1.00  0.00     0.039 A 
ATOM     38  C   UNL A   1      44.737  21.445  26.344  1.00  0.00     0.014 A 
ATOM     39  C   UNL A   1      44.109  22.289  24.183  1.00  0.00     0.014 A 
ATOM     40  C   UNL A   1      44.842  22.761  26.839  1.00  0.00     0.010 A 
ATOM     41  C   UNL A   1      44.201  23.608  24.683  1.00  0.00     0.010 A 
ATOM     42  C   UNL A   1      44.580  23.862  26.012  1.00  0.00    -0.014 A 
BRANCH  42  43
ATOM     43  C   UNL A   1      44.839  25.258  26.486  1.00  0.00     0.031 A 
ATOM     44  C   UNL A   1      43.752  26.150  27.033  1.00  0.00     0.074 A 
ATOM     45  C   UNL A   1      46.091  25.747  26.374  1.00  0.00     0.049 A 
ATOM     46  N   UNL A   1      43.837  27.381  27.479  1.00  0.00    -0.248 NA
ATOM     47  C   UNL A   1      42.395  25.591  27.075  1.00  0.00     0.031 C 
ATOM     48  C   UNL A   1      47.232  25.000  25.845  1.00  0.00     0.029 A 
ATOM     49  N   UNL A   1      46.614  26.981  26.680  1.00  0.00    -0.354 N 
ATOM     50  C   UNL A   1      42.549  27.749  27.861  1.00  0.00     0.074 A 
ATOM     51  C   UNL A   1      41.697  26.612  27.558  1.00  0.00     0.031 C 
ATOM     52  C   UNL A   1      48.317  25.790  25.856  1.00  0.00     0.029 A 
ATOM     53  C   UNL A   1      47.948  27.107  26.367  1.00  0.00     0.049 A 
ATOM     54  H   UNL A   1      46.084  27.705  27.085  1.00  0.00     0.167 HD
ATOM     55  C   UNL A   1      42.119  28.916  28.413  1.00  0.00     0.034 A 
ATOM     56  C   UNL A   1      48.784  28.160  26.466  1.00  0.00     0.034 A 
ATOM     57  C   UNL A   1      42.974  30.054  28.688  1.00  0.00     0.049 A 
ATOM     58  C   UNL A   1      48.278  29.455  27.041  1.00  0.00     0.074 A 
ATOM     59  C   UNL A   1      42.646  31.254  29.302  1.00  0.00     0.029 A 
ATOM     60  N   UNL A   1      44.317  30.150  28.342  1.00  0.00    -0.354 N 
ATOM     61  N   UNL A   1      47.073  29.755  27.469  1.00  0.00    -0.248 NA
ATOM     62  C   UNL A   1      49.250  30.550  27.164  1.00  0.00     0.031 C 
ATOM     63  C   UNL A   1      43.765  32.096  29.261  1.00  0.00     0.029 A 
ATOM     64  C   UNL A   1      44.816  31.399  28.692  1.00  0.00     0.049 A 
ATOM     65  H   UNL A   1      44.838  29.436  27.911  1.00  0.00     0.167 HD
ATOM     66  C   UNL A   1      47.153  31.062  27.941  1.00  0.00     0.074 A 
ATOM     67  C   UNL A   1      48.525  31.489  27.756  1.00  0.00     0.031 C 
ATOM     68  C   UNL A   1      46.179  31.834  28.487  1.00  0.00     0.034 A 
BRANCH  55  69
ATOM     69  C   UNL A   1      40.643  29.044  28.732  1.00  0.00     0.023 A 
ATOM     70  C   UNL A   1      40.161  28.979  30.051  1.00  0.00     0.031 A 
ATOM     71  C   UNL A   1      39.704  29.248  27.702  1.00  0.00     0.131 A 
ATOM     72  C   UNL A   1      38.781  29.050  30.301  1.00  0.00     0.055 A 
ATOM     73  C   UNL A   1      38.338  29.389  27.964  1.00  0.00     0.041 A 
ATOM     74  F   UNL A   1      40.098  29.312  26.421  1.00  0.00    -0.206 F 
ATOM     75  C   UNL A   1      37.868  29.276  29.268  1.00  0.00     0.022 A 
BRANCH  72  76
ATOM     76  S   UNL A   1      38.183  28.720  31.982  1.00  0.00     0.124 S 
ATOM     77  O   UNL A   1      39.029  29.606  32.778  1.00  0.00    -0.237 OA
ATOM     78  O   UNL A   1      36.775  29.088  31.895  1.00  0.00    -0.237 OA
ATOM     79  O   UNL A   1      38.444  27.292  32.167  1.00  0.00    -0.744 OA
ENDBRANCH  72  76
ENDBRANCH  55  69
BRANCH  56  80
ATOM     80  C   UNL A   1      50.196  28.035  26.005  1.00  0.00     0.023 A 
ATOM     81  C   UNL A   1      50.529  28.168  24.649  1.00  0.00     0.031 A 
ATOM     82  C   UNL A   1      51.230  27.756  26.917  1.00  0.00     0.131 A 
ATOM     83  C   UNL A   1      51.857  27.988  24.235  1.00  0.00     0.055 A 
ATOM     84  C   UNL A   1      52.558  27.624  26.506  1.00  0.00     0.041 A 
ATOM     85  F   UNL A   1      50.966  27.626  28.227  1.00  0.00    -0.206 F 
ATOM     86  C   UNL A   1      52.876  27.728  25.156  1.00  0.00     0.022 A 
BRANCH  83  87
ATOM     87  S   UNL A   1      52.226  28.030  22.459  1.00  0.00     0.124 S 
ATOM     88  O   UNL A   1      51.216  27.127  21.923  1.00  0.00    -0.237 OA
ATOM     89  O   UNL A   1      52.052  29.445  22.150  1.00  0.00    -0.237 OA
ATOM     90  O   UNL A   1      53.602  27.544  22.388  1.00  0.00    -0.744 OA
ENDBRANCH  83  87
ENDBRANCH  56  80
BRANCH  68  91
ATOM     91  C   UNL A   1      46.583  33.211  28.961  1.00  0.00     0.023 A 
ATOM     92  C   UNL A   1      47.032  33.441  30.274  1.00  0.00     0.031 A 
ATOM     93  C   UNL A   1      46.485  34.315  28.096  1.00  0.00     0.131 A 
ATOM     94  C   UNL A   1      47.309  34.750  30.702  1.00  0.00     0.055 A 
ATOM     95  C   UNL A   1      46.816  35.607  28.509  1.00  0.00     0.041 A 
ATOM     96  F   UNL A   1      46.056  34.157  26.833  1.00  0.00    -0.206 F 
ATOM     97  C   UNL A   1      47.218  35.832  29.822  1.00  0.00     0.022 A 
BRANCH  94  98
ATOM     98  S   UNL A   1      47.696  35.036  32.452  1.00  0.00     0.124 S 
ATOM     99  O   UNL A   1      46.905  34.001  33.110  1.00  0.00    -0.237 OA
ATOM    100  O   UNL A   1      49.143  34.850  32.485  1.00  0.00    -0.237 OA
ATOM    101  O   UNL A   1      47.242  36.405  32.685  1.00  0.00    -0.744 OA
ENDBRANCH  94  98
ENDBRANCH  68  91
ENDBRANCH  42  43
ENDBRANCH  34  37
ENDBRANCH  32  33
ENDBRANCH  31  32
ENDBRANCH   1  31
TORSDOF 19
ENDMDL
MODEL 2
REMARK VINA RESULT:     -11.8      1.534      7.595
REMARK SMILES O=C(CCC(=O)N1N=C(c2ccccc2)C[C@@H]1c1ccc2c(c1)OCO2)NCCCCNC(=O)c1ccc(-c2c3nc(c(-c4cc(S(=O)(=O)[O-])ccc4F)c4ccc([nH]4)c(-c4cc(S(=O)(=O)[O-])ccc4F)c4nc(c(-c5cc(S(=O)(=O)[O-])ccc5F)c5ccc2[nH]5)C=C4)C=C3)cc1
REMARK SMILES IDX 29 1 28 2 27 3 1 4 2 5 3 7 4 8 5 9 6 10 7 11 8 12 17 13 9 14
REMARK SMILES IDX 16 15 18 16 19 17 23 18 20 19 22 20 21 21 24 22 26 23 25 24
REMARK SMILES IDX 10 25 11 26 15 27 12 28 14 29 13 30 30 31 31 32 32 33 33 34
REMARK SMILES IDX 34 36 35 37 36 38 97 39 37 40 96 41 38 42 39 43 40 44 90 45
REMARK SMILES IDX 41 46 95 47 89 48 91 49 42 50 94 51 88 52 87 53 43 55 75 56
REMARK SMILES IDX 55 57 74 58 56 59 59 60 73 61 92 62 57 63 58 64 72 66 93 67
REMARK SMILES IDX 60 68 44 69 45 70 53 71 46 72 52 73 54 74 51 75 47 76 48 77
REMARK SMILES IDX 49 78 50 79 76 80 77 81 85 82 78 83 84 84 86 85 83 86 79 87
REMARK SMILES IDX 80 88 81 89 82 90 61 91 62 92 70 93 63 94 69 95 71 96 68 97
REMARK SMILES IDX 64 98 65 99 66 100 67 101
REMARK H PARENT 27 6 32 35 91 54 59 65
REMARK Flexibility Score: inf
ROOT
ATOM      1  C   UNL A   1      40.903  21.577  26.571  1.00  0.00     0.023 C 
ENDROOT
BRANCH   1   2
ATOM      2  C   UNL A   1      39.659  22.463  26.893  1.00  0.00     0.116 C 
BRANCH   2   3
ATOM      3  N   UNL A   1      38.899  23.159  25.855  1.00  0.00    -0.356 N 
ATOM      4  O   UNL A   1      37.702  21.296  25.229  1.00  0.00    -0.275 OA
ATOM      5  C   UNL A   1      37.833  22.504  25.206  1.00  0.00     0.220 C 
ATOM      6  H   UNL A   1      39.132  24.084  25.609  1.00  0.00     0.163 HD
BRANCH   5   7
ATOM      7  C   UNL A   1      36.745  23.439  24.617  1.00  0.00     0.110 C 
BRANCH   7   8
ATOM      8  C   UNL A   1      35.645  23.824  25.639  1.00  0.00     0.112 C 
BRANCH   8   9
ATOM      9  C   UNL A   1      34.638  22.869  26.352  1.00  0.00     0.243 C 
ATOM     10  O   UNL A   1      34.343  23.126  27.527  1.00  0.00    -0.273 OA
BRANCH   9  11
ATOM     11  N   UNL A   1      33.949  21.918  25.624  1.00  0.00    -0.225 N 
ATOM     12  N   UNL A   1      34.496  20.640  25.405  1.00  0.00    -0.174 NA
ATOM     13  C   UNL A   1      32.554  21.954  25.280  1.00  0.00     0.147 C 
ATOM     14  C   UNL A   1      33.484  19.843  25.198  1.00  0.00     0.071 C 
ATOM     15  C   UNL A   1      32.158  20.511  25.322  1.00  0.00     0.091 C 
BRANCH  13  16
ATOM     16  C   UNL A   1      32.166  22.924  24.172  1.00  0.00    -0.019 A 
ATOM     17  C   UNL A   1      31.071  23.799  24.412  1.00  0.00     0.010 A 
ATOM     18  C   UNL A   1      32.916  23.142  23.014  1.00  0.00     0.056 A 
ATOM     19  C   UNL A   1      30.743  24.883  23.605  1.00  0.00     0.051 A 
ATOM     20  C   UNL A   1      32.592  24.245  22.227  1.00  0.00     0.166 A 
ATOM     21  C   UNL A   1      31.548  25.092  22.525  1.00  0.00     0.165 A 
ATOM     22  O   UNL A   1      33.276  24.672  21.131  1.00  0.00    -0.454 OA
ATOM     23  O   UNL A   1      31.447  26.146  21.677  1.00  0.00    -0.454 OA
ATOM     24  C   UNL A   1      32.613  25.926  20.857  1.00  0.00     0.468 C 
ENDBRANCH  13  16
BRANCH  14  25
ATOM     25  C   UNL A   1      33.497  18.363  25.051  1.00  0.00    -0.002 A 
ATOM     26  C   UNL A   1      32.584  17.574  25.742  1.00  0.00     0.010 A 
ATOM     27  C   UNL A   1      34.346  17.748  24.111  1.00  0.00     0.010 A 
ATOM     28  C   UNL A   1      32.536  16.193  25.501  1.00  0.00     0.001 A 
ATOM     29  C   UNL A   1      34.314  16.374  23.886  1.00  0.00     0.001 A 
ATOM     30  C   UNL A   1      33.403  15.594  24.582  1.00  0.00     0.000 A 
ENDBRANCH  14  25
ENDBRANCH   9  11
ENDBRANCH   8   9
ENDBRANCH   7   8
ENDBRANCH   5   7
ENDBRANCH   2   3
ENDBRANCH   1   2
BRANCH   1  31
ATOM     31  C   UNL A   1      41.033  20.042  26.314  1.00  0.00     0.023 C 
BRANCH  31  32
ATOM     32  C   UNL A   1      42.277  19.141  26.565  1.00  0.00     0.116 C 
BRANCH  32  33
ATOM     33  N   UNL A   1      43.257  19.113  25.494  1.00  0.00    -0.352 N 
ATOM     34  C   UNL A   1      43.958  20.131  24.868  1.00  0.00     0.251 C 
ATOM     35  H   UNL A   1      43.460  18.212  25.152  1.00  0.00     0.163 HD
ATOM     36  O   UNL A   1      44.512  19.845  23.804  1.00  0.00    -0.269 OA
BRANCH  34  37
ATOM     37  C   UNL A   1      44.118  21.527  25.386  1.00  0.00     0.039 A 
ATOM     38  C   UNL A   1      43.887  22.590  24.494  1.00  0.00     0.014 A 
ATOM     39  C   UNL A   1      44.675  21.829  26.632  1.00  0.00     0.014 A 
ATOM     40  C   UNL A   1      44.170  23.924  24.852  1.00  0.00     0.010 A 
ATOM     41  C   UNL A   1      44.972  23.164  26.987  1.00  0.00     0.010 A 
ATOM     42  C   UNL A   1      44.713  24.229  26.108  1.00  0.00    -0.014 A 
BRANCH  42  43
ATOM     43  C   UNL A   1      44.870  25.650  26.552  1.00  0.00     0.031 A 
ATOM     44  C   UNL A   1      46.196  26.372  26.526  1.00  0.00     0.074 A 
ATOM     45  C   UNL A   1      43.787  26.292  27.035  1.00  0.00     0.049 A 
ATOM     46  N   UNL A   1      46.475  27.604  26.883  1.00  0.00    -0.248 NA
ATOM     47  C   UNL A   1      47.356  25.609  26.051  1.00  0.00     0.031 C 
ATOM     48  C   UNL A   1      42.450  25.707  27.134  1.00  0.00     0.029 A 
ATOM     49  N   UNL A   1      43.634  27.559  27.545  1.00  0.00    -0.354 N 
ATOM     50  C   UNL A   1      47.841  27.772  26.671  1.00  0.00     0.074 A 
ATOM     51  C   UNL A   1      48.335  26.496  26.186  1.00  0.00     0.031 C 
ATOM     52  C   UNL A   1      41.616  26.607  27.677  1.00  0.00     0.029 A 
ATOM     53  C   UNL A   1      42.360  27.824  27.989  1.00  0.00     0.049 A 
ATOM     54  H   UNL A   1      44.368  28.214  27.588  1.00  0.00     0.167 HD
ATOM     55  C   UNL A   1      48.607  28.881  26.859  1.00  0.00     0.034 A 
ATOM     56  C   UNL A   1      41.841  28.914  28.591  1.00  0.00     0.034 A 
ATOM     57  C   UNL A   1      48.108  30.143  27.367  1.00  0.00     0.049 A 
ATOM     58  C   UNL A   1      42.716  30.116  28.827  1.00  0.00     0.074 A 
ATOM     59  C   UNL A   1      48.790  31.339  27.533  1.00  0.00     0.029 A 
ATOM     60  N   UNL A   1      46.814  30.368  27.822  1.00  0.00    -0.354 N 
ATOM     61  N   UNL A   1      43.988  30.279  28.547  1.00  0.00    -0.248 NA
ATOM     62  C   UNL A   1      42.080  31.286  29.445  1.00  0.00     0.031 C 
ATOM     63  C   UNL A   1      47.933  32.260  28.151  1.00  0.00     0.029 A 
ATOM     64  C   UNL A   1      46.692  31.667  28.303  1.00  0.00     0.049 A 
ATOM     65  H   UNL A   1      46.089  29.704  27.806  1.00  0.00     0.167 HD
ATOM     66  C   UNL A   1      44.294  31.584  28.925  1.00  0.00     0.074 A 
ATOM     67  C   UNL A   1      43.073  32.165  29.442  1.00  0.00     0.031 C 
ATOM     68  C   UNL A   1      45.479  32.240  28.841  1.00  0.00     0.034 A 
BRANCH  55  69
ATOM     69  C   UNL A   1      50.086  28.778  26.544  1.00  0.00     0.023 A 
ATOM     70  C   UNL A   1      50.599  29.111  25.278  1.00  0.00     0.031 A 
ATOM     71  C   UNL A   1      50.999  28.353  27.528  1.00  0.00     0.131 A 
ATOM     72  C   UNL A   1      51.969  28.953  25.010  1.00  0.00     0.055 A 
ATOM     73  C   UNL A   1      52.371  28.265  27.276  1.00  0.00     0.041 A 
ATOM     74  F   UNL A   1      50.573  28.013  28.755  1.00  0.00    -0.206 F 
ATOM     75  C   UNL A   1      52.861  28.553  26.007  1.00  0.00     0.022 A 
BRANCH  72  76
ATOM     76  S   UNL A   1      52.550  29.161  23.303  1.00  0.00     0.124 S 
ATOM     77  O   UNL A   1      51.290  29.261  22.570  1.00  0.00    -0.237 OA
ATOM     78  O   UNL A   1      53.341  30.382  23.385  1.00  0.00    -0.237 OA
ATOM     79  O   UNL A   1      53.313  27.939  23.048  1.00  0.00    -0.744 OA
ENDBRANCH  72  76
ENDBRANCH  55  69
BRANCH  56  80
ATOM     80  C   UNL A   1      40.413  28.920  29.017  1.00  0.00     0.023 A 
ATOM     81  C   UNL A   1      40.062  28.831  30.372  1.00  0.00     0.031 A 
ATOM     82  C   UNL A   1      39.377  28.992  28.068  1.00  0.00     0.131 A 
ATOM     83  C   UNL A   1      38.710  28.780  30.742  1.00  0.00     0.055 A 
ATOM     84  C   UNL A   1      38.032  28.988  28.444  1.00  0.00     0.041 A 
ATOM     85  F   UNL A   1      39.659  29.086  26.759  1.00  0.00    -0.206 F 
ATOM     86  C   UNL A   1      37.693  28.870  29.788  1.00  0.00     0.022 A 
BRANCH  83  87
ATOM     87  S   UNL A   1      38.296  28.525  32.490  1.00  0.00     0.124 S 
ATOM     88  O   UNL A   1      39.435  29.142  33.159  1.00  0.00    -0.237 OA
ATOM     89  O   UNL A   1      37.024  29.230  32.604  1.00  0.00    -0.237 OA
ATOM     90  O   UNL A   1      38.212  27.071  32.609  1.00  0.00    -0.744 OA
ENDBRANCH  83  87
ENDBRANCH  56  80
BRANCH  68  91
ATOM     91  C   UNL A   1      45.492  33.685  29.286  1.00  0.00     0.023 A 
ATOM     92  C   UNL A   1      45.082  34.727  28.435  1.00  0.00     0.031 A 
ATOM     93  C   UNL A   1      45.956  34.026  30.569  1.00  0.00     0.131 A 
ATOM     94  C   UNL A   1      45.198  36.062  28.856  1.00  0.00     0.055 A 
ATOM     95  C   UNL A   1      46.016  35.352  31.003  1.00  0.00     0.041 A 
ATOM     96  F   UNL A   1      46.368  33.074  31.422  1.00  0.00    -0.206 F 
ATOM     97  C   UNL A   1      45.648  36.380  30.140  1.00  0.00     0.022 A 
BRANCH  94  98
ATOM     98  S   UNL A   1      44.844  37.388  27.667  1.00  0.00     0.124 S 
ATOM     99  O   UNL A   1      46.000  37.315  26.779  1.00  0.00    -0.237 OA
ATOM    100  O   UNL A   1      43.571  36.962  27.094  1.00  0.00    -0.237 OA
ATOM    101  O   UNL A   1      44.777  38.588  28.500  1.00  0.00    -0.744 OA
ENDBRANCH  94  98
ENDBRANCH  68  91
ENDBRANCH  42  43
ENDBRANCH  34  37
ENDBRANCH  32  33
ENDBRANCH  31  32
ENDBRANCH   1  31
TORSDOF 19
ENDMDL
MODEL 3
REMARK VINA RESULT:     -11.8      2.916      5.210
REMARK SMILES O=C(CCC(=O)N1N=C(c2ccccc2)C[C@@H]1c1ccc2c(c1)OCO2)NCCCCNC(=O)c1ccc(-c2c3nc(c(-c4cc(S(=O)(=O)[O-])ccc4F)c4ccc([nH]4)c(-c4cc(S(=O)(=O)[O-])ccc4F)c4nc(c(-c5cc(S(=O)(=O)[O-])ccc5F)c5ccc2[nH]5)C=C4)C=C3)cc1
REMARK SMILES IDX 29 1 28 2 27 3 1 4 2 5 3 7 4 8 5 9 6 10 7 11 8 12 17 13 9 14
REMARK SMILES IDX 16 15 18 16 19 17 23 18 20 19 22 20 21 21 24 22 26 23 25 24
REMARK SMILES IDX 10 25 11 26 15 27 12 28 14 29 13 30 30 31 31 32 32 33 33 34
REMARK SMILES IDX 34 36 35 37 36 38 97 39 37 40 96 41 38 42 39 43 40 44 90 45
REMARK SMILES IDX 41 46 95 47 89 48 91 49 42 50 94 51 88 52 87 53 43 55 75 56
REMARK SMILES IDX 55 57 74 58 56 59 59 60 73 61 92 62 57 63 58 64 72 66 93 67
REMARK SMILES IDX 60 68 44 69 45 70 53 71 46 72 52 73 54 74 51 75 47 76 48 77
REMARK SMILES IDX 49 78 50 79 76 80 77 81 85 82 78 83 84 84 86 85 83 86 79 87
REMARK SMILES IDX 80 88 81 89 82 90 61 91 62 92 70 93 63 94 69 95 71 96 68 97
REMARK SMILES IDX 64 98 65 99 66 100 67 101
REMARK H PARENT 27 6 32 35 91 54 59 65
REMARK Flexibility Score: inf
ROOT
ATOM      1  C   UNL A   1      37.775  22.226  25.202  1.00  0.00     0.023 C 
ENDROOT
BRANCH   1   2
ATOM      2  C   UNL A   1      36.360  22.568  25.767  1.00  0.00     0.116 C 
BRANCH   2   3
ATOM      3  N   UNL A   1      35.876  23.943  25.897  1.00  0.00    -0.356 N 
ATOM      4  O   UNL A   1      34.568  23.852  24.007  1.00  0.00    -0.275 OA
ATOM      5  C   UNL A   1      34.856  24.412  25.047  1.00  0.00     0.220 C 
ATOM      6  H   UNL A   1      36.263  24.540  26.578  1.00  0.00     0.163 HD
BRANCH   5   7
ATOM      7  C   UNL A   1      34.007  25.579  25.615  1.00  0.00     0.110 C 
BRANCH   7   8
ATOM      8  C   UNL A   1      34.042  26.852  24.732  1.00  0.00     0.112 C 
BRANCH   8   9
ATOM      9  C   UNL A   1      33.158  28.130  24.876  1.00  0.00     0.243 C 
ATOM     10  O   UNL A   1      33.695  29.145  25.339  1.00  0.00    -0.273 OA
BRANCH   9  11
ATOM     11  N   UNL A   1      31.901  28.172  24.305  1.00  0.00    -0.225 N 
ATOM     12  N   UNL A   1      31.135  29.352  24.331  1.00  0.00    -0.174 NA
ATOM     13  C   UNL A   1      31.349  27.211  23.390  1.00  0.00     0.147 C 
ATOM     14  C   UNL A   1      30.315  29.274  23.319  1.00  0.00     0.071 C 
ATOM     15  C   UNL A   1      30.503  28.054  22.485  1.00  0.00     0.091 C 
BRANCH  13  16
ATOM     16  C   UNL A   1      30.907  25.888  23.998  1.00  0.00    -0.019 A 
ATOM     17  C   UNL A   1      31.205  24.697  23.280  1.00  0.00     0.010 A 
ATOM     18  C   UNL A   1      30.395  25.743  25.290  1.00  0.00     0.056 A 
ATOM     19  C   UNL A   1      31.076  23.414  23.802  1.00  0.00     0.051 A 
ATOM     20  C   UNL A   1      30.293  24.455  25.809  1.00  0.00     0.166 A 
ATOM     21  C   UNL A   1      30.637  23.332  25.090  1.00  0.00     0.165 A 
ATOM     22  O   UNL A   1      29.921  24.133  27.077  1.00  0.00    -0.454 OA
ATOM     23  O   UNL A   1      30.537  22.182  25.802  1.00  0.00    -0.454 OA
ATOM     24  C   UNL A   1      30.181  22.712  27.094  1.00  0.00     0.468 C 
ENDBRANCH  13  16
BRANCH  14  25
ATOM     25  C   UNL A   1      29.383  30.317  22.810  1.00  0.00    -0.002 A 
ATOM     26  C   UNL A   1      29.033  31.403  23.605  1.00  0.00     0.010 A 
ATOM     27  C   UNL A   1      28.944  30.288  21.473  1.00  0.00     0.010 A 
ATOM     28  C   UNL A   1      28.248  32.433  23.068  1.00  0.00     0.001 A 
ATOM     29  C   UNL A   1      28.146  31.299  20.944  1.00  0.00     0.001 A 
ATOM     30  C   UNL A   1      27.799  32.378  21.744  1.00  0.00     0.000 A 
ENDBRANCH  14  25
ENDBRANCH   9  11
ENDBRANCH   8   9
ENDBRANCH   7   8
ENDBRANCH   5   7
ENDBRANCH   2   3
ENDBRANCH   1   2
BRANCH   1  31
ATOM     31  C   UNL A   1      38.836  21.176  25.657  1.00  0.00     0.023 C 
BRANCH  31  32
ATOM     32  C   UNL A   1      38.797  19.634  25.440  1.00  0.00     0.116 C 
BRANCH  32  33
ATOM     33  N   UNL A   1      39.999  18.917  25.827  1.00  0.00    -0.352 N 
ATOM     34  C   UNL A   1      41.264  19.366  26.165  1.00  0.00     0.251 C 
ATOM     35  H   UNL A   1      39.896  17.938  25.855  1.00  0.00     0.163 HD
ATOM     36  O   UNL A   1      42.164  18.523  26.177  1.00  0.00    -0.269 OA
BRANCH  34  37
ATOM     37  C   UNL A   1      41.619  20.773  26.539  1.00  0.00     0.039 A 
ATOM     38  C   UNL A   1      41.896  21.680  25.500  1.00  0.00     0.014 A 
ATOM     39  C   UNL A   1      41.890  21.178  27.849  1.00  0.00     0.014 A 
ATOM     40  C   UNL A   1      42.393  22.972  25.765  1.00  0.00     0.010 A 
ATOM     41  C   UNL A   1      42.401  22.468  28.116  1.00  0.00     0.010 A 
ATOM     42  C   UNL A   1      42.648  23.386  27.080  1.00  0.00    -0.014 A 
BRANCH  42  43
ATOM     43  C   UNL A   1      43.026  24.803  27.380  1.00  0.00     0.031 A 
ATOM     44  C   UNL A   1      42.073  25.786  28.013  1.00  0.00     0.074 A 
ATOM     45  C   UNL A   1      44.258  25.223  27.026  1.00  0.00     0.049 A 
ATOM     46  N   UNL A   1      42.270  27.045  28.328  1.00  0.00    -0.248 NA
ATOM     47  C   UNL A   1      40.724  25.297  28.321  1.00  0.00     0.031 C 
ATOM     48  C   UNL A   1      45.272  24.382  26.390  1.00  0.00     0.029 A 
ATOM     49  N   UNL A   1      44.864  26.451  27.133  1.00  0.00    -0.354 N 
ATOM     50  C   UNL A   1      41.075  27.503  28.877  1.00  0.00     0.074 A 
ATOM     51  C   UNL A   1      40.149  26.386  28.817  1.00  0.00     0.031 C 
ATOM     52  C   UNL A   1      46.369  25.119  26.156  1.00  0.00     0.029 A 
ATOM     53  C   UNL A   1      46.132  26.489  26.601  1.00  0.00     0.049 A 
ATOM     54  H   UNL A   1      44.432  27.231  27.551  1.00  0.00     0.167 HD
ATOM     55  C   UNL A   1      40.779  28.730  29.385  1.00  0.00     0.034 A 
ATOM     56  C   UNL A   1      47.007  27.506  26.470  1.00  0.00     0.034 A 
ATOM     57  C   UNL A   1      41.704  29.846  29.417  1.00  0.00     0.049 A 
ATOM     58  C   UNL A   1      46.645  28.867  27.001  1.00  0.00     0.074 A 
ATOM     59  C   UNL A   1      41.521  31.106  29.966  1.00  0.00     0.029 A 
ATOM     60  N   UNL A   1      42.974  29.850  28.853  1.00  0.00    -0.354 N 
ATOM     61  N   UNL A   1      45.537  29.256  27.588  1.00  0.00    -0.248 NA
ATOM     62  C   UNL A   1      47.659  29.921  26.868  1.00  0.00     0.031 C 
ATOM     63  C   UNL A   1      42.644  31.890  29.672  1.00  0.00     0.029 A 
ATOM     64  C   UNL A   1      43.565  31.099  29.006  1.00  0.00     0.049 A 
ATOM     65  H   UNL A   1      43.395  29.079  28.409  1.00  0.00     0.167 HD
ATOM     66  C   UNL A   1      45.735  30.593  27.923  1.00  0.00     0.074 A 
ATOM     67  C   UNL A   1      47.071  30.939  27.483  1.00  0.00     0.031 C 
ATOM     68  C   UNL A   1      44.889  31.452  28.546  1.00  0.00     0.034 A 
BRANCH  55  69
ATOM     69  C   UNL A   1      39.381  28.952  29.924  1.00  0.00     0.023 A 
ATOM     70  C   UNL A   1      38.353  29.483  29.124  1.00  0.00     0.031 A 
ATOM     71  C   UNL A   1      39.065  28.614  31.254  1.00  0.00     0.131 A 
ATOM     72  C   UNL A   1      37.084  29.722  29.675  1.00  0.00     0.055 A 
ATOM     73  C   UNL A   1      37.780  28.789  31.776  1.00  0.00     0.041 A 
ATOM     74  F   UNL A   1      40.001  28.110  32.072  1.00  0.00    -0.206 F 
ATOM     75  C   UNL A   1      36.784  29.358  30.990  1.00  0.00     0.022 A 
BRANCH  72  76
ATOM     76  S   UNL A   1      35.862  30.628  28.685  1.00  0.00     0.124 S 
ATOM     77  O   UNL A   1      34.965  29.555  28.265  1.00  0.00    -0.237 OA
ATOM     78  O   UNL A   1      35.317  31.577  29.648  1.00  0.00    -0.237 OA
ATOM     79  O   UNL A   1      36.659  31.219  27.610  1.00  0.00    -0.744 OA
ENDBRANCH  72  76
ENDBRANCH  55  69
BRANCH  56  80
ATOM     80  C   UNL A   1      48.320  27.278  25.802  1.00  0.00     0.023 A 
ATOM     81  C   UNL A   1      48.467  27.453  24.418  1.00  0.00     0.031 A 
ATOM     82  C   UNL A   1      49.441  26.857  26.539  1.00  0.00     0.131 A 
ATOM     83  C   UNL A   1      49.699  27.176  23.806  1.00  0.00     0.055 A 
ATOM     84  C   UNL A   1      50.677  26.626  25.933  1.00  0.00     0.041 A 
ATOM     85  F   UNL A   1      49.355  26.681  27.867  1.00  0.00    -0.206 F 
ATOM     86  C   UNL A   1      50.808  26.774  24.556  1.00  0.00     0.022 A 
BRANCH  83  87
ATOM     87  S   UNL A   1      49.813  27.280  21.998  1.00  0.00     0.124 S 
ATOM     88  O   UNL A   1      51.196  26.882  21.764  1.00  0.00    -0.237 OA
ATOM     89  O   UNL A   1      48.790  26.329  21.577  1.00  0.00    -0.237 OA
ATOM     90  O   UNL A   1      49.510  28.682  21.720  1.00  0.00    -0.744 OA
ENDBRANCH  83  87
ENDBRANCH  56  80
BRANCH  68  91
ATOM     91  C   UNL A   1      45.410  32.843  28.825  1.00  0.00     0.023 A 
ATOM     92  C   UNL A   1      46.114  33.149  30.005  1.00  0.00     0.031 A 
ATOM     93  C   UNL A   1      45.168  33.886  27.913  1.00  0.00     0.131 A 
ATOM     94  C   UNL A   1      46.499  34.474  30.267  1.00  0.00     0.055 A 
ATOM     95  C   UNL A   1      45.604  35.191  28.153  1.00  0.00     0.041 A 
ATOM     96  F   UNL A   1      44.496  33.654  26.774  1.00  0.00    -0.206 F 
ATOM     97  C   UNL A   1      46.262  35.494  29.342  1.00  0.00     0.022 A 
BRANCH  94  98
ATOM     98  S   UNL A   1      47.231  34.869  31.881  1.00  0.00     0.124 S 
ATOM     99  O   UNL A   1      47.736  36.220  31.662  1.00  0.00    -0.237 OA
ATOM    100  O   UNL A   1      46.086  34.753  32.779  1.00  0.00    -0.237 OA
ATOM    101  O   UNL A   1      48.259  33.843  32.052  1.00  0.00    -0.744 OA
ENDBRANCH  94  98
ENDBRANCH  68  91
ENDBRANCH  42  43
ENDBRANCH  34  37
ENDBRANCH  32  33
ENDBRANCH  31  32
ENDBRANCH   1  31
TORSDOF 19
ENDMDL
