MODEL 1
REMARK VINA RESULT:     -11.8      0.000      0.000
REMARK SMILES O=C(CSc1nc(-c2cccc(F)c2)n[nH]1)NCCCCNC(=O)c1ccc(-c2c3nc(c(-c4cc(S(=O)(=O)[O-])ccc4F)c4ccc([nH]4)c(-c4cc(S(=O)(=O)[O-])ccc4F)c4nc(c(-c5cc(S(=O)(=O)[O-])ccc5F)c5ccc2[nH]5)C=C4)C=C3)cc1
REMARK SMILES IDX 19 1 18 2 17 3 1 4 2 5 3 7 4 8 5 9 6 10 16 11 7 12 15 13
REMARK SMILES IDX 8 15 9 16 14 17 10 18 12 19 11 20 13 21 20 22 21 23 22 24
REMARK SMILES IDX 23 25 24 27 25 28 26 29 87 30 27 31 86 32 28 33 29 34 30 35
REMARK SMILES IDX 80 36 31 37 85 38 79 39 81 40 32 41 84 42 78 43 77 44 33 46
REMARK SMILES IDX 65 47 45 48 64 49 46 50 49 51 63 52 82 53 47 54 48 55 62 57
REMARK SMILES IDX 83 58 50 59 34 60 35 61 43 62 36 63 42 64 44 65 41 66 37 67
REMARK SMILES IDX 38 68 39 69 40 70 66 71 67 72 75 73 68 74 74 75 76 76 73 77
REMARK SMILES IDX 69 78 70 79 71 80 72 81 51 82 52 83 60 84 53 85 59 86 61 87
REMARK SMILES IDX 58 88 54 89 55 90 56 91 57 92
REMARK H PARENT 17 6 16 14 22 26 81 45 49 56
REMARK Flexibility Score: inf
ROOT
ATOM      1  C   UNL A   1      35.356  23.049  23.082  1.00  0.00     0.023 C 
ENDROOT
BRANCH   1   2
ATOM      2  C   UNL A   1      34.129  22.860  23.974  1.00  0.00     0.116 C 
BRANCH   2   3
ATOM      3  N   UNL A   1      32.931  23.415  23.374  1.00  0.00    -0.355 N 
ATOM      4  O   UNL A   1      32.148  24.464  25.269  1.00  0.00    -0.274 OA
ATOM      5  C   UNL A   1      32.023  24.165  24.082  1.00  0.00     0.230 C 
ATOM      6  H   UNL A   1      32.760  23.248  22.419  1.00  0.00     0.163 HD
BRANCH   5   7
ATOM      7  C   UNL A   1      30.837  24.668  23.288  1.00  0.00     0.178 C 
BRANCH   7   8
ATOM      8  S   UNL A   1      29.707  25.632  24.310  1.00  0.00    -0.077 SA
BRANCH   8   9
ATOM      9  C   UNL A   1      30.009  27.289  23.934  1.00  0.00     0.184 A 
ATOM     10  N   UNL A   1      29.093  28.130  23.521  1.00  0.00    -0.201 NA
ATOM     11  N   UNL A   1      31.219  27.917  23.964  1.00  0.00    -0.254 N 
ATOM     12  C   UNL A   1      29.811  29.265  23.228  1.00  0.00     0.182 A 
ATOM     13  N   UNL A   1      31.120  29.178  23.507  1.00  0.00    -0.153 NA
ATOM     14  H   UNL A   1      32.053  27.501  24.280  1.00  0.00     0.192 HD
BRANCH  12  15
ATOM     15  C   UNL A   1      29.192  30.428  22.618  1.00  0.00     0.024 A 
ATOM     16  C   UNL A   1      28.587  30.331  21.357  1.00  0.00     0.012 A 
ATOM     17  C   UNL A   1      29.225  31.666  23.271  1.00  0.00     0.051 A 
ATOM     18  C   UNL A   1      28.009  31.455  20.760  1.00  0.00     0.004 A 
ATOM     19  C   UNL A   1      28.662  32.780  22.660  1.00  0.00     0.123 A 
ATOM     20  C   UNL A   1      28.052  32.686  21.414  1.00  0.00     0.039 A 
ATOM     21  F   UNL A   1      28.713  33.967  23.279  1.00  0.00    -0.207 F 
ENDBRANCH  12  15
ENDBRANCH   8   9
ENDBRANCH   7   8
ENDBRANCH   5   7
ENDBRANCH   2   3
ENDBRANCH   1   2
BRANCH   1  22
ATOM     22  C   UNL A   1      36.670  22.515  23.662  1.00  0.00     0.023 C 
BRANCH  22  23
ATOM     23  C   UNL A   1      36.598  22.012  25.100  1.00  0.00     0.116 C 
BRANCH  23  24
ATOM     24  N   UNL A   1      37.521  20.919  25.361  1.00  0.00    -0.352 N 
ATOM     25  C   UNL A   1      38.805  20.957  25.854  1.00  0.00     0.251 C 
ATOM     26  H   UNL A   1      37.176  20.020  25.154  1.00  0.00     0.163 HD
ATOM     27  O   UNL A   1      39.480  19.930  25.854  1.00  0.00    -0.269 OA
BRANCH  25  28
ATOM     28  C   UNL A   1      39.385  22.228  26.347  1.00  0.00     0.039 A 
ATOM     29  C   UNL A   1      40.499  22.178  27.191  1.00  0.00     0.014 A 
ATOM     30  C   UNL A   1      38.842  23.465  25.988  1.00  0.00     0.014 A 
ATOM     31  C   UNL A   1      41.111  23.363  27.608  1.00  0.00     0.010 A 
ATOM     32  C   UNL A   1      39.496  24.644  26.344  1.00  0.00     0.010 A 
ATOM     33  C   UNL A   1      40.643  24.607  27.152  1.00  0.00    -0.014 A 
BRANCH  33  34
ATOM     34  C   UNL A   1      41.349  25.872  27.499  1.00  0.00     0.031 A 
ATOM     35  C   UNL A   1      40.662  26.925  28.326  1.00  0.00     0.074 A 
ATOM     36  C   UNL A   1      42.594  26.093  27.029  1.00  0.00     0.049 A 
ATOM     37  N   UNL A   1      41.088  28.117  28.660  1.00  0.00    -0.248 NA
ATOM     38  C   UNL A   1      39.317  26.607  28.828  1.00  0.00     0.031 C 
ATOM     39  C   UNL A   1      43.361  25.160  26.199  1.00  0.00     0.029 A 
ATOM     40  N   UNL A   1      43.435  27.168  27.178  1.00  0.00    -0.354 N 
ATOM     41  C   UNL A   1      40.063  28.692  29.405  1.00  0.00     0.074 A 
ATOM     42  C   UNL A   1      38.975  27.738  29.428  1.00  0.00     0.031 C 
ATOM     43  C   UNL A   1      44.570  25.685  25.949  1.00  0.00     0.029 A 
ATOM     44  C   UNL A   1      44.650  27.014  26.548  1.00  0.00     0.049 A 
ATOM     45  H   UNL A   1      43.193  27.974  27.689  1.00  0.00     0.167 HD
ATOM     46  C   UNL A   1      40.041  29.894  30.029  1.00  0.00     0.034 A 
ATOM     47  C   UNL A   1      45.705  27.849  26.451  1.00  0.00     0.034 A 
ATOM     48  C   UNL A   1      41.137  30.830  30.017  1.00  0.00     0.049 A 
ATOM     49  C   UNL A   1      45.637  29.199  27.114  1.00  0.00     0.074 A 
ATOM     50  C   UNL A   1      41.223  32.055  30.656  1.00  0.00     0.029 A 
ATOM     51  N   UNL A   1      42.332  30.652  29.336  1.00  0.00    -0.354 N 
ATOM     52  N   UNL A   1      44.660  29.722  27.814  1.00  0.00    -0.248 NA
ATOM     53  C   UNL A   1      46.811  30.072  26.971  1.00  0.00     0.031 C 
ATOM     54  C   UNL A   1      42.441  32.646  30.309  1.00  0.00     0.029 A 
ATOM     55  C   UNL A   1      43.148  31.758  29.514  1.00  0.00     0.049 A 
ATOM     56  H   UNL A   1      42.566  29.857  28.805  1.00  0.00     0.167 HD
ATOM     57  C   UNL A   1      45.111  30.976  28.217  1.00  0.00     0.074 A 
ATOM     58  C   UNL A   1      46.448  31.130  27.683  1.00  0.00     0.031 C 
ATOM     59  C   UNL A   1      44.475  31.909  28.967  1.00  0.00     0.034 A 
BRANCH  46  60
ATOM     60  C   UNL A   1      38.789  30.278  30.774  1.00  0.00     0.023 A 
ATOM     61  C   UNL A   1      37.755  30.996  30.150  1.00  0.00     0.031 A 
ATOM     62  C   UNL A   1      38.608  29.881  32.111  1.00  0.00     0.131 A 
ATOM     63  C   UNL A   1      36.600  31.326  30.875  1.00  0.00     0.055 A 
ATOM     64  C   UNL A   1      37.430  30.158  32.807  1.00  0.00     0.041 A 
ATOM     65  F   UNL A   1      39.571  29.206  32.759  1.00  0.00    -0.206 F 
ATOM     66  C   UNL A   1      36.420  30.890  32.190  1.00  0.00     0.022 A 
BRANCH  63  67
ATOM     67  S   UNL A   1      35.361  32.395  30.094  1.00  0.00     0.124 S 
ATOM     68  O   UNL A   1      34.936  31.575  28.962  1.00  0.00    -0.237 OA
ATOM     69  O   UNL A   1      34.380  32.573  31.158  1.00  0.00    -0.237 OA
ATOM     70  O   UNL A   1      36.118  33.594  29.739  1.00  0.00    -0.744 OA
ENDBRANCH  63  67
ENDBRANCH  46  60
BRANCH  47  71
ATOM     71  C   UNL A   1      46.914  27.432  25.686  1.00  0.00     0.023 A 
ATOM     72  C   UNL A   1      47.059  27.762  24.330  1.00  0.00     0.031 A 
ATOM     73  C   UNL A   1      47.945  26.702  26.306  1.00  0.00     0.131 A 
ATOM     74  C   UNL A   1      48.202  27.346  23.629  1.00  0.00     0.055 A 
ATOM     75  C   UNL A   1      49.098  26.326  25.615  1.00  0.00     0.041 A 
ATOM     76  F   UNL A   1      47.856  26.369  27.603  1.00  0.00    -0.206 F 
ATOM     77  C   UNL A   1      49.229  26.643  24.266  1.00  0.00     0.022 A 
BRANCH  74  78
ATOM     78  S   UNL A   1      48.321  27.712  21.857  1.00  0.00     0.124 S 
ATOM     79  O   UNL A   1      48.491  26.379  21.289  1.00  0.00    -0.237 OA
ATOM     80  O   UNL A   1      47.042  28.365  21.594  1.00  0.00    -0.237 OA
ATOM     81  O   UNL A   1      49.490  28.584  21.768  1.00  0.00    -0.744 OA
ENDBRANCH  74  78
ENDBRANCH  47  71
BRANCH  59  82
ATOM     82  C   UNL A   1      45.222  33.177  29.292  1.00  0.00     0.023 A 
ATOM     83  C   UNL A   1      45.225  34.273  28.415  1.00  0.00     0.031 A 
ATOM     84  C   UNL A   1      45.889  33.306  30.523  1.00  0.00     0.131 A 
ATOM     85  C   UNL A   1      45.904  35.449  28.774  1.00  0.00     0.055 A 
ATOM     86  C   UNL A   1      46.520  34.492  30.895  1.00  0.00     0.041 A 
ATOM     87  F   UNL A   1      45.913  32.286  31.397  1.00  0.00    -0.206 F 
ATOM     88  C   UNL A   1      46.534  35.571  30.015  1.00  0.00     0.022 A 
BRANCH  85  89
ATOM     89  S   UNL A   1      45.977  36.813  27.581  1.00  0.00     0.124 S 
ATOM     90  O   UNL A   1      45.812  36.112  26.311  1.00  0.00    -0.237 OA
ATOM     91  O   UNL A   1      44.861  37.656  27.994  1.00  0.00    -0.237 OA
ATOM     92  O   UNL A   1      47.302  37.390  27.802  1.00  0.00    -0.744 OA
ENDBRANCH  85  89
ENDBRANCH  59  82
ENDBRANCH  33  34
ENDBRANCH  25  28
ENDBRANCH  23  24
ENDBRANCH  22  23
ENDBRANCH   1  22
TORSDOF 17
ENDMDL
MODEL 2
REMARK VINA RESULT:     -11.8      1.757      2.339
REMARK SMILES O=C(CSc1nc(-c2cccc(F)c2)n[nH]1)NCCCCNC(=O)c1ccc(-c2c3nc(c(-c4cc(S(=O)(=O)[O-])ccc4F)c4ccc([nH]4)c(-c4cc(S(=O)(=O)[O-])ccc4F)c4nc(c(-c5cc(S(=O)(=O)[O-])ccc5F)c5ccc2[nH]5)C=C4)C=C3)cc1
REMARK SMILES IDX 19 1 18 2 17 3 1 4 2 5 3 7 4 8 5 9 6 10 16 11 7 12 15 13
REMARK SMILES IDX 8 15 9 16 14 17 10 18 12 19 11 20 13 21 20 22 21 23 22 24
REMARK SMILES IDX 23 25 24 27 25 28 26 29 87 30 27 31 86 32 28 33 29 34 30 35
REMARK SMILES IDX 80 36 31 37 85 38 79 39 81 40 32 41 84 42 78 43 77 44 33 46
REMARK SMILES IDX 65 47 45 48 64 49 46 50 49 51 63 52 82 53 47 54 48 55 62 57
REMARK SMILES IDX 83 58 50 59 34 60 35 61 43 62 36 63 42 64 44 65 41 66 37 67
REMARK SMILES IDX 38 68 39 69 40 70 66 71 67 72 75 73 68 74 74 75 76 76 73 77
REMARK SMILES IDX 69 78 70 79 71 80 72 81 51 82 52 83 60 84 53 85 59 86 61 87
REMARK SMILES IDX 58 88 54 89 55 90 56 91 57 92
REMARK H PARENT 17 6 16 14 22 26 81 45 49 56
REMARK Flexibility Score: inf
ROOT
ATOM      1  C   UNL A   1      35.231  23.456  23.723  1.00  0.00     0.023 C 
ENDROOT
BRANCH   1   2
ATOM      2  C   UNL A   1      34.442  24.652  24.254  1.00  0.00     0.116 C 
BRANCH   2   3
ATOM      3  N   UNL A   1      33.119  24.736  23.665  1.00  0.00    -0.355 N 
ATOM      4  O   UNL A   1      31.993  23.716  25.395  1.00  0.00    -0.274 OA
ATOM      5  C   UNL A   1      31.997  24.242  24.283  1.00  0.00     0.230 C 
ATOM      6  H   UNL A   1      33.021  25.166  22.785  1.00  0.00     0.163 HD
BRANCH   5   7
ATOM      7  C   UNL A   1      30.701  24.428  23.522  1.00  0.00     0.178 C 
BRANCH   7   8
ATOM      8  S   UNL A   1      29.730  25.799  24.177  1.00  0.00    -0.077 SA
BRANCH   8   9
ATOM      9  C   UNL A   1      30.812  27.136  24.310  1.00  0.00     0.184 A 
ATOM     10  N   UNL A   1      31.651  27.312  25.302  1.00  0.00    -0.201 NA
ATOM     11  N   UNL A   1      30.902  28.192  23.452  1.00  0.00    -0.254 N 
ATOM     12  C   UNL A   1      32.191  28.550  25.049  1.00  0.00     0.182 A 
ATOM     13  N   UNL A   1      31.769  29.113  23.907  1.00  0.00    -0.153 NA
ATOM     14  H   UNL A   1      30.399  28.267  22.609  1.00  0.00     0.192 HD
BRANCH  12  15
ATOM     15  C   UNL A   1      33.099  29.196  25.981  1.00  0.00     0.024 A 
ATOM     16  C   UNL A   1      34.255  28.534  26.419  1.00  0.00     0.012 A 
ATOM     17  C   UNL A   1      32.807  30.472  26.475  1.00  0.00     0.051 A 
ATOM     18  C   UNL A   1      35.118  29.148  27.332  1.00  0.00     0.004 A 
ATOM     19  C   UNL A   1      33.664  31.064  27.395  1.00  0.00     0.123 A 
ATOM     20  C   UNL A   1      34.817  30.416  27.825  1.00  0.00     0.039 A 
ATOM     21  F   UNL A   1      33.371  32.278  27.882  1.00  0.00    -0.207 F 
ENDBRANCH  12  15
ENDBRANCH   8   9
ENDBRANCH   7   8
ENDBRANCH   5   7
ENDBRANCH   2   3
ENDBRANCH   1   2
BRANCH   1  22
ATOM     22  C   UNL A   1      35.062  22.159  24.521  1.00  0.00     0.023 C 
BRANCH  22  23
ATOM     23  C   UNL A   1      35.962  22.016  25.744  1.00  0.00     0.116 C 
BRANCH  23  24
ATOM     24  N   UNL A   1      36.975  20.987  25.580  1.00  0.00    -0.352 N 
ATOM     25  C   UNL A   1      38.342  21.077  25.705  1.00  0.00     0.251 C 
ATOM     26  H   UNL A   1      36.632  20.094  25.346  1.00  0.00     0.163 HD
ATOM     27  O   UNL A   1      39.040  20.122  25.370  1.00  0.00    -0.269 OA
BRANCH  25  28
ATOM     28  C   UNL A   1      38.973  22.322  26.202  1.00  0.00     0.039 A 
ATOM     29  C   UNL A   1      40.034  22.225  27.108  1.00  0.00     0.014 A 
ATOM     30  C   UNL A   1      38.528  23.580  25.785  1.00  0.00     0.014 A 
ATOM     31  C   UNL A   1      40.695  23.381  27.532  1.00  0.00     0.010 A 
ATOM     32  C   UNL A   1      39.235  24.726  26.151  1.00  0.00     0.010 A 
ATOM     33  C   UNL A   1      40.331  24.639  27.023  1.00  0.00    -0.014 A 
BRANCH  33  34
ATOM     34  C   UNL A   1      41.094  25.867  27.381  1.00  0.00     0.031 A 
ATOM     35  C   UNL A   1      40.469  26.927  28.247  1.00  0.00     0.074 A 
ATOM     36  C   UNL A   1      42.336  26.049  26.887  1.00  0.00     0.049 A 
ATOM     37  N   UNL A   1      40.949  28.094  28.597  1.00  0.00    -0.248 NA
ATOM     38  C   UNL A   1      39.124  26.651  28.773  1.00  0.00     0.031 C 
ATOM     39  C   UNL A   1      43.047  25.106  26.020  1.00  0.00     0.029 A 
ATOM     40  N   UNL A   1      43.223  27.086  27.040  1.00  0.00    -0.354 N 
ATOM     41  C   UNL A   1      39.965  28.691  29.377  1.00  0.00     0.074 A 
ATOM     42  C   UNL A   1      38.840  27.781  29.405  1.00  0.00     0.031 C 
ATOM     43  C   UNL A   1      44.270  25.589  25.753  1.00  0.00     0.029 A 
ATOM     44  C   UNL A   1      44.416  26.899  26.379  1.00  0.00     0.049 A 
ATOM     45  H   UNL A   1      43.025  27.889  27.575  1.00  0.00     0.167 HD
ATOM     46  C   UNL A   1      40.005  29.879  30.028  1.00  0.00     0.034 A 
ATOM     47  C   UNL A   1      45.502  27.693  26.276  1.00  0.00     0.034 A 
ATOM     48  C   UNL A   1      41.137  30.771  30.012  1.00  0.00     0.049 A 
ATOM     49  C   UNL A   1      45.503  29.029  26.970  1.00  0.00     0.074 A 
ATOM     50  C   UNL A   1      41.287  31.977  30.675  1.00  0.00     0.029 A 
ATOM     51  N   UNL A   1      42.309  30.562  29.299  1.00  0.00    -0.354 N 
ATOM     52  N   UNL A   1      44.563  29.575  27.704  1.00  0.00    -0.248 NA
ATOM     53  C   UNL A   1      46.707  29.858  26.818  1.00  0.00     0.031 C 
ATOM     54  C   UNL A   1      42.519  32.527  30.312  1.00  0.00     0.029 A 
ATOM     55  C   UNL A   1      43.172  31.630  29.482  1.00  0.00     0.049 A 
ATOM     56  H   UNL A   1      42.499  29.770  28.745  1.00  0.00     0.167 HD
ATOM     57  C   UNL A   1      45.072  30.801  28.123  1.00  0.00     0.074 A 
ATOM     58  C   UNL A   1      46.403  30.914  27.562  1.00  0.00     0.031 C 
ATOM     59  C   UNL A   1      44.491  31.741  28.908  1.00  0.00     0.034 A 
BRANCH  46  60
ATOM     60  C   UNL A   1      38.786  30.295  30.810  1.00  0.00     0.023 A 
ATOM     61  C   UNL A   1      37.920  31.297  30.342  1.00  0.00     0.031 A 
ATOM     62  C   UNL A   1      38.462  29.649  32.016  1.00  0.00     0.131 A 
ATOM     63  C   UNL A   1      36.790  31.650  31.093  1.00  0.00     0.055 A 
ATOM     64  C   UNL A   1      37.303  29.961  32.728  1.00  0.00     0.041 A 
ATOM     65  F   UNL A   1      39.264  28.695  32.517  1.00  0.00    -0.206 F 
ATOM     66  C   UNL A   1      36.462  30.971  32.270  1.00  0.00     0.022 A 
BRANCH  63  67
ATOM     67  S   UNL A   1      35.788  33.058  30.548  1.00  0.00     0.124 S 
ATOM     68  O   UNL A   1      34.433  32.550  30.746  1.00  0.00    -0.237 OA
ATOM     69  O   UNL A   1      36.211  34.119  31.454  1.00  0.00    -0.237 OA
ATOM     70  O   UNL A   1      36.182  33.239  29.151  1.00  0.00    -0.744 OA
ENDBRANCH  63  67
ENDBRANCH  46  60
BRANCH  47  71
ATOM     71  C   UNL A   1      46.676  27.246  25.475  1.00  0.00     0.023 A 
ATOM     72  C   UNL A   1      46.882  27.721  24.170  1.00  0.00     0.031 A 
ATOM     73  C   UNL A   1      47.613  26.343  26.007  1.00  0.00     0.131 A 
ATOM     74  C   UNL A   1      47.989  27.274  23.432  1.00  0.00     0.055 A 
ATOM     75  C   UNL A   1      48.734  25.933  25.284  1.00  0.00     0.041 A 
ATOM     76  F   UNL A   1      47.464  25.866  27.253  1.00  0.00    -0.206 F 
ATOM     77  C   UNL A   1      48.924  26.395  23.985  1.00  0.00     0.022 A 
BRANCH  74  78
ATOM     78  S   UNL A   1      48.180  27.838  21.718  1.00  0.00     0.124 S 
ATOM     79  O   UNL A   1      49.364  28.685  21.816  1.00  0.00    -0.237 OA
ATOM     80  O   UNL A   1      48.349  26.578  21.000  1.00  0.00    -0.237 OA
ATOM     81  O   UNL A   1      46.928  28.540  21.449  1.00  0.00    -0.744 OA
ENDBRANCH  74  78
ENDBRANCH  47  71
BRANCH  59  82
ATOM     82  C   UNL A   1      45.296  32.970  29.243  1.00  0.00     0.023 A 
ATOM     83  C   UNL A   1      45.161  34.160  28.508  1.00  0.00     0.031 A 
ATOM     84  C   UNL A   1      46.163  32.965  30.349  1.00  0.00     0.131 A 
ATOM     85  C   UNL A   1      45.903  35.293  28.878  1.00  0.00     0.055 A 
ATOM     86  C   UNL A   1      46.860  34.107  30.741  1.00  0.00     0.041 A 
ATOM     87  F   UNL A   1      46.324  31.852  31.085  1.00  0.00    -0.206 F 
ATOM     88  C   UNL A   1      46.736  35.279  30.000  1.00  0.00     0.022 A 
BRANCH  85  89
ATOM     89  S   UNL A   1      45.787  36.784  27.852  1.00  0.00     0.124 S 
ATOM     90  O   UNL A   1      44.529  36.566  27.145  1.00  0.00    -0.237 OA
ATOM     91  O   UNL A   1      45.784  37.853  28.845  1.00  0.00    -0.237 OA
ATOM     92  O   UNL A   1      46.987  36.720  27.018  1.00  0.00    -0.744 OA
ENDBRANCH  85  89
ENDBRANCH  59  82
ENDBRANCH  33  34
ENDBRANCH  25  28
ENDBRANCH  23  24
ENDBRANCH  22  23
ENDBRANCH   1  22
TORSDOF 17
ENDMDL
MODEL 3
REMARK VINA RESULT:     -11.8      5.895     11.392
REMARK SMILES O=C(CSc1nc(-c2cccc(F)c2)n[nH]1)NCCCCNC(=O)c1ccc(-c2c3nc(c(-c4cc(S(=O)(=O)[O-])ccc4F)c4ccc([nH]4)c(-c4cc(S(=O)(=O)[O-])ccc4F)c4nc(c(-c5cc(S(=O)(=O)[O-])ccc5F)c5ccc2[nH]5)C=C4)C=C3)cc1
REMARK SMILES IDX 19 1 18 2 17 3 1 4 2 5 3 7 4 8 5 9 6 10 16 11 7 12 15 13
REMARK SMILES IDX 8 15 9 16 14 17 10 18 12 19 11 20 13 21 20 22 21 23 22 24
REMARK SMILES IDX 23 25 24 27 25 28 26 29 87 30 27 31 86 32 28 33 29 34 30 35
REMARK SMILES IDX 80 36 31 37 85 38 79 39 81 40 32 41 84 42 78 43 77 44 33 46
REMARK SMILES IDX 65 47 45 48 64 49 46 50 49 51 63 52 82 53 47 54 48 55 62 57
REMARK SMILES IDX 83 58 50 59 34 60 35 61 43 62 36 63 42 64 44 65 41 66 37 67
REMARK SMILES IDX 38 68 39 69 40 70 66 71 67 72 75 73 68 74 74 75 76 76 73 77
REMARK SMILES IDX 69 78 70 79 71 80 72 81 51 82 52 83 60 84 53 85 59 86 61 87
REMARK SMILES IDX 58 88 54 89 55 90 56 91 57 92
REMARK H PARENT 17 6 16 14 22 26 81 45 49 56
REMARK Flexibility Score: inf
ROOT
ATOM      1  C   UNL A   1      31.779  30.132  26.740  1.00  0.00     0.023 C 
ENDROOT
BRANCH   1   2
ATOM      2  C   UNL A   1      32.667  29.525  25.655  1.00  0.00     0.116 C 
BRANCH   2   3
ATOM      3  N   UNL A   1      31.898  29.088  24.505  1.00  0.00    -0.355 N 
ATOM      4  O   UNL A   1      31.129  27.126  25.432  1.00  0.00    -0.274 OA
ATOM      5  C   UNL A   1      31.200  27.906  24.483  1.00  0.00     0.230 C 
ATOM      6  H   UNL A   1      31.876  29.663  23.706  1.00  0.00     0.163 HD
BRANCH   5   7
ATOM      7  C   UNL A   1      30.448  27.620  23.200  1.00  0.00     0.178 C 
BRANCH   7   8
ATOM      8  S   UNL A   1      31.447  26.674  22.035  1.00  0.00    -0.077 SA
BRANCH   8   9
ATOM      9  C   UNL A   1      31.707  25.131  22.765  1.00  0.00     0.184 A 
ATOM     10  N   UNL A   1      32.860  24.723  23.237  1.00  0.00    -0.201 NA
ATOM     11  N   UNL A   1      30.787  24.134  22.898  1.00  0.00    -0.254 N 
ATOM     12  C   UNL A   1      32.618  23.416  23.586  1.00  0.00     0.182 A 
ATOM     13  N   UNL A   1      31.347  23.024  23.410  1.00  0.00    -0.153 NA
ATOM     14  H   UNL A   1      29.837  24.218  22.652  1.00  0.00     0.192 HD
BRANCH  12  15
ATOM     15  C   UNL A   1      33.677  22.538  24.052  1.00  0.00     0.024 A 
ATOM     16  C   UNL A   1      34.983  23.023  24.209  1.00  0.00     0.012 A 
ATOM     17  C   UNL A   1      33.406  21.190  24.315  1.00  0.00     0.051 A 
ATOM     18  C   UNL A   1      36.006  22.172  24.637  1.00  0.00     0.004 A 
ATOM     19  C   UNL A   1      34.436  20.351  24.724  1.00  0.00     0.123 A 
ATOM     20  C   UNL A   1      35.731  20.830  24.891  1.00  0.00     0.039 A 
ATOM     21  F   UNL A   1      34.178  19.057  24.956  1.00  0.00    -0.207 F 
ENDBRANCH  12  15
ENDBRANCH   8   9
ENDBRANCH   7   8
ENDBRANCH   5   7
ENDBRANCH   2   3
ENDBRANCH   1   2
BRANCH   1  22
ATOM     22  C   UNL A   1      31.646  31.658  26.694  1.00  0.00     0.023 C 
BRANCH  22  23
ATOM     23  C   UNL A   1      32.863  32.439  27.179  1.00  0.00     0.116 C 
BRANCH  23  24
ATOM     24  N   UNL A   1      32.552  33.822  27.503  1.00  0.00    -0.352 N 
ATOM     25  C   UNL A   1      33.077  34.630  28.485  1.00  0.00     0.251 C 
ATOM     26  H   UNL A   1      31.865  34.242  26.936  1.00  0.00     0.163 HD
ATOM     27  O   UNL A   1      32.565  35.727  28.699  1.00  0.00    -0.269 OA
BRANCH  25  28
ATOM     28  C   UNL A   1      34.223  34.171  29.306  1.00  0.00     0.039 A 
ATOM     29  C   UNL A   1      33.986  33.276  30.353  1.00  0.00     0.014 A 
ATOM     30  C   UNL A   1      35.523  34.617  29.053  1.00  0.00     0.014 A 
ATOM     31  C   UNL A   1      35.058  32.771  31.093  1.00  0.00     0.010 A 
ATOM     32  C   UNL A   1      36.598  34.056  29.743  1.00  0.00     0.010 A 
ATOM     33  C   UNL A   1      36.380  33.121  30.766  1.00  0.00    -0.014 A 
BRANCH  33  34
ATOM     34  C   UNL A   1      37.538  32.508  31.473  1.00  0.00     0.031 A 
ATOM     35  C   UNL A   1      38.283  31.355  30.857  1.00  0.00     0.074 A 
ATOM     36  C   UNL A   1      37.892  32.962  32.693  1.00  0.00     0.049 A 
ATOM     37  N   UNL A   1      39.263  30.645  31.357  1.00  0.00    -0.248 NA
ATOM     38  C   UNL A   1      37.862  30.929  29.514  1.00  0.00     0.031 C 
ATOM     39  C   UNL A   1      37.238  34.061  33.408  1.00  0.00     0.029 A 
ATOM     40  N   UNL A   1      38.886  32.558  33.550  1.00  0.00    -0.354 N 
ATOM     41  C   UNL A   1      39.571  29.690  30.395  1.00  0.00     0.074 A 
ATOM     42  C   UNL A   1      38.638  29.876  29.304  1.00  0.00     0.031 C 
ATOM     43  C   UNL A   1      37.872  34.269  34.572  1.00  0.00     0.029 A 
ATOM     44  C   UNL A   1      38.942  33.286  34.718  1.00  0.00     0.049 A 
ATOM     45  H   UNL A   1      39.504  31.819  33.348  1.00  0.00     0.167 HD
ATOM     46  C   UNL A   1      40.554  28.758  30.412  1.00  0.00     0.034 A 
ATOM     47  C   UNL A   1      39.751  33.171  35.791  1.00  0.00     0.034 A 
ATOM     48  C   UNL A   1      41.492  28.591  31.493  1.00  0.00     0.049 A 
ATOM     49  C   UNL A   1      40.805  32.096  35.805  1.00  0.00     0.074 A 
ATOM     50  C   UNL A   1      42.549  27.702  31.581  1.00  0.00     0.029 A 
ATOM     51  N   UNL A   1      41.488  29.322  32.673  1.00  0.00    -0.354 N 
ATOM     52  N   UNL A   1      41.080  31.203  34.884  1.00  0.00    -0.248 NA
ATOM     53  C   UNL A   1      41.654  32.010  37.001  1.00  0.00     0.031 C 
ATOM     54  C   UNL A   1      43.143  27.849  32.837  1.00  0.00     0.029 A 
ATOM     55  C   UNL A   1      42.505  28.882  33.505  1.00  0.00     0.049 A 
ATOM     56  H   UNL A   1      40.856  30.046  32.886  1.00  0.00     0.167 HD
ATOM     57  C   UNL A   1      42.151  30.465  35.380  1.00  0.00     0.074 A 
ATOM     58  C   UNL A   1      42.474  31.018  36.680  1.00  0.00     0.031 C 
ATOM     59  C   UNL A   1      42.811  29.429  34.805  1.00  0.00     0.034 A 
BRANCH  46  60
ATOM     60  C   UNL A   1      40.667  27.833  29.227  1.00  0.00     0.023 A 
ATOM     61  C   UNL A   1      41.610  28.055  28.210  1.00  0.00     0.031 A 
ATOM     62  C   UNL A   1      39.851  26.691  29.137  1.00  0.00     0.131 A 
ATOM     63  C   UNL A   1      41.691  27.166  27.128  1.00  0.00     0.055 A 
ATOM     64  C   UNL A   1      39.979  25.777  28.090  1.00  0.00     0.041 A 
ATOM     65  F   UNL A   1      38.922  26.441  30.073  1.00  0.00    -0.206 F 
ATOM     66  C   UNL A   1      40.900  26.016  27.074  1.00  0.00     0.022 A 
BRANCH  63  67
ATOM     67  S   UNL A   1      42.800  27.571  25.752  1.00  0.00     0.124 S 
ATOM     68  O   UNL A   1      42.325  26.661  24.713  1.00  0.00    -0.237 OA
ATOM     69  O   UNL A   1      42.530  28.988  25.533  1.00  0.00    -0.237 OA
ATOM     70  O   UNL A   1      44.129  27.266  26.281  1.00  0.00    -0.744 OA
ENDBRANCH  63  67
ENDBRANCH  46  60
BRANCH  47  71
ATOM     71  C   UNL A   1      39.587  34.097  36.947  1.00  0.00     0.023 A 
ATOM     72  C   UNL A   1      39.008  33.657  38.148  1.00  0.00     0.031 A 
ATOM     73  C   UNL A   1      40.016  35.434  36.869  1.00  0.00     0.131 A 
ATOM     74  C   UNL A   1      38.853  34.553  39.217  1.00  0.00     0.055 A 
ATOM     75  C   UNL A   1      39.897  36.310  37.949  1.00  0.00     0.041 A 
ATOM     76  F   UNL A   1      40.583  35.900  35.745  1.00  0.00    -0.206 F 
ATOM     77  C   UNL A   1      39.307  35.872  39.131  1.00  0.00     0.022 A 
BRANCH  74  78
ATOM     78  S   UNL A   1      38.023  33.979  40.724  1.00  0.00     0.124 S 
ATOM     79  O   UNL A   1      37.628  35.239  41.343  1.00  0.00    -0.237 OA
ATOM     80  O   UNL A   1      36.941  33.161  40.183  1.00  0.00    -0.237 OA
ATOM     81  O   UNL A   1      39.067  33.236  41.426  1.00  0.00    -0.744 OA
ENDBRANCH  74  78
ENDBRANCH  47  71
BRANCH  59  82
ATOM     82  C   UNL A   1      43.975  28.836  35.555  1.00  0.00     0.023 A 
ATOM     83  C   UNL A   1      43.804  27.767  36.450  1.00  0.00     0.031 A 
ATOM     84  C   UNL A   1      45.278  29.309  35.322  1.00  0.00     0.131 A 
ATOM     85  C   UNL A   1      44.921  27.219  37.100  1.00  0.00     0.055 A 
ATOM     86  C   UNL A   1      46.389  28.729  35.933  1.00  0.00     0.041 A 
ATOM     87  F   UNL A   1      45.493  30.327  34.473  1.00  0.00    -0.206 F 
ATOM     88  C   UNL A   1      46.213  27.681  36.832  1.00  0.00     0.022 A 
BRANCH  85  89
ATOM     89  S   UNL A   1      44.662  25.909  38.326  1.00  0.00     0.124 S 
ATOM     90  O   UNL A   1      44.016  26.638  39.414  1.00  0.00    -0.237 OA
ATOM     91  O   UNL A   1      43.819  24.962  37.605  1.00  0.00    -0.237 OA
ATOM     92  O   UNL A   1      46.015  25.436  38.614  1.00  0.00    -0.744 OA
ENDBRANCH  85  89
ENDBRANCH  59  82
ENDBRANCH  33  34
ENDBRANCH  25  28
ENDBRANCH  23  24
ENDBRANCH  22  23
ENDBRANCH   1  22
TORSDOF 17
ENDMDL
