MODEL 1
REMARK VINA RESULT:      -8.9      0.000      0.000
REMARK SMILES COc1cc(NC(=O)C2CCN(S(=O)(=O)c3cccs3)CC2)c(Cl)cc1C(=O)NCCCCNC(=O)c1ccc(-c2c3nc(c(-c4cc(S(=O)(=O)[O-])ccc4F)c4ccc([nH]4)c(-c4cc(S(=O)(=O)[O-])ccc4F)c4nc(c(-c5cc(S(=O)(=O)[O-])ccc5F)c5ccc2[nH]5)C=C4)C=C3)cc1
REMARK SMILES IDX 31 1 30 2 29 3 27 4 28 5 26 7 3 8 4 9 5 10 25 11 23 12 24 13
REMARK SMILES IDX 2 14 1 15 6 16 7 17 8 19 9 20 10 21 22 22 11 23 21 24 12 25
REMARK SMILES IDX 13 26 14 27 15 28 16 29 17 30 20 31 18 32 19 33 32 34 33 35
REMARK SMILES IDX 34 36 35 37 36 39 37 40 38 41 99 42 39 43 98 44 40 45 41 46
REMARK SMILES IDX 42 47 92 48 43 49 97 50 91 51 93 52 44 53 96 54 90 55 89 56
REMARK SMILES IDX 45 58 77 59 57 60 76 61 58 62 61 63 75 64 94 65 59 66 60 67
REMARK SMILES IDX 74 69 95 70 62 71 46 72 47 73 55 74 48 75 54 76 56 77 53 78
REMARK SMILES IDX 49 79 50 80 51 81 52 82 78 83 79 84 87 85 80 86 86 87 88 88
REMARK SMILES IDX 85 89 81 90 82 91 83 92 84 93 63 94 64 95 72 96 65 97 71 98
REMARK SMILES IDX 73 99 70 100 66 101 67 102 68 103 69 104
REMARK H PARENT 29 6 6 18 34 38 93 57 61 68
REMARK Flexibility Score: inf
ROOT
ATOM      1  C   UNL A   1      34.379  33.273  30.681  1.00  0.00     0.023 C 
ENDROOT
BRANCH   1   2
ATOM      2  C   UNL A   1      34.296  34.284  31.829  1.00  0.00     0.116 C 
BRANCH   2   3
ATOM      3  N   UNL A   1      34.874  33.727  33.033  1.00  0.00    -0.352 N 
ATOM      4  C   UNL A   1      36.139  33.443  33.468  1.00  0.00     0.255 C 
ATOM      5  O   UNL A   1      36.182  32.863  34.560  1.00  0.00    -0.269 OA
ATOM      6  H   UNL A   1      34.190  33.496  33.703  1.00  0.00     0.163 HD
BRANCH   4   7
ATOM      7  C   UNL A   1      37.448  33.770  32.810  1.00  0.00     0.083 A 
ATOM      8  C   UNL A   1      38.562  34.441  33.315  1.00  0.00     0.133 A 
ATOM      9  C   UNL A   1      39.733  34.565  32.542  1.00  0.00     0.075 A 
ATOM     10  C   UNL A   1      39.751  34.307  31.180  1.00  0.00     0.063 A 
ATOM     11  C   UNL A   1      37.535  33.350  31.457  1.00  0.00     0.040 A 
ATOM     12  C   UNL A   1      38.650  33.631  30.652  1.00  0.00     0.065 A 
ATOM     13  Cl  UNL A   1      38.589  33.194  28.980  1.00  0.00    -0.082 Cl
BRANCH   8  14
ATOM     14  O   UNL A   1      38.592  35.045  34.541  1.00  0.00    -0.496 OA
ATOM     15  C   UNL A   1      39.931  35.168  35.046  1.00  0.00     0.278 C 
ENDBRANCH   8  14
BRANCH  10  16
ATOM     16  N   UNL A   1      40.782  34.757  30.321  1.00  0.00    -0.324 N 
ATOM     17  C   UNL A   1      41.986  34.207  29.948  1.00  0.00     0.227 C 
ATOM     18  H   UNL A   1      40.602  35.634  29.910  1.00  0.00     0.169 HD
ATOM     19  O   UNL A   1      42.698  34.850  29.171  1.00  0.00    -0.274 OA
BRANCH  17  20
ATOM     20  C   UNL A   1      42.477  32.879  30.530  1.00  0.00     0.081 C 
ATOM     21  C   UNL A   1      43.829  33.035  31.239  1.00  0.00     0.030 C 
ATOM     22  C   UNL A   1      42.516  31.722  29.514  1.00  0.00     0.030 C 
ATOM     23  C   UNL A   1      45.002  33.022  30.278  1.00  0.00     0.103 C 
ATOM     24  C   UNL A   1      43.799  31.639  28.689  1.00  0.00     0.103 C 
ATOM     25  N   UNL A   1      44.976  31.712  29.592  1.00  0.00    -0.197 NA
BRANCH  25  26
ATOM     26  S   UNL A   1      46.488  31.289  28.920  1.00  0.00     0.252 S 
ATOM     27  O   UNL A   1      46.507  31.779  27.559  1.00  0.00    -0.206 OA
ATOM     28  O   UNL A   1      47.513  31.674  29.869  1.00  0.00    -0.206 OA
BRANCH  26  29
ATOM     29  C   UNL A   1      46.560  29.513  28.767  1.00  0.00     0.135 A 
ATOM     30  C   UNL A   1      45.805  28.627  28.018  1.00  0.00     0.033 A 
ATOM     31  S   UNL A   1      47.777  28.692  29.648  1.00  0.00    -0.131 S 
ATOM     32  C   UNL A   1      46.225  27.276  28.176  1.00  0.00     0.013 A 
ATOM     33  C   UNL A   1      47.306  27.173  29.021  1.00  0.00     0.066 A 
ENDBRANCH  26  29
ENDBRANCH  25  26
ENDBRANCH  17  20
ENDBRANCH  10  16
ENDBRANCH   4   7
ENDBRANCH   2   3
ENDBRANCH   1   2
BRANCH   1  34
ATOM     34  C   UNL A   1      34.055  33.840  29.304  1.00  0.00     0.023 C 
BRANCH  34  35
ATOM     35  C   UNL A   1      34.804  33.135  28.179  1.00  0.00     0.116 C 
BRANCH  35  36
ATOM     36  N   UNL A   1      34.129  31.948  27.663  1.00  0.00    -0.352 N 
ATOM     37  C   UNL A   1      34.574  30.645  27.716  1.00  0.00     0.251 C 
ATOM     38  H   UNL A   1      33.258  32.094  27.227  1.00  0.00     0.163 HD
ATOM     39  O   UNL A   1      33.939  29.737  27.194  1.00  0.00    -0.269 OA
BRANCH  37  40
ATOM     40  C   UNL A   1      35.873  30.395  28.370  1.00  0.00     0.039 A 
ATOM     41  C   UNL A   1      35.891  29.969  29.698  1.00  0.00     0.014 A 
ATOM     42  C   UNL A   1      37.042  30.418  27.607  1.00  0.00     0.014 A 
ATOM     43  C   UNL A   1      37.078  29.474  30.237  1.00  0.00     0.010 A 
ATOM     44  C   UNL A   1      38.194  29.833  28.114  1.00  0.00     0.010 A 
ATOM     45  C   UNL A   1      38.223  29.351  29.432  1.00  0.00    -0.014 A 
BRANCH  45  46
ATOM     46  C   UNL A   1      39.468  28.723  29.945  1.00  0.00     0.031 A 
ATOM     47  C   UNL A   1      40.145  29.308  31.155  1.00  0.00     0.074 A 
ATOM     48  C   UNL A   1      40.026  27.691  29.280  1.00  0.00     0.049 A 
ATOM     49  N   UNL A   1      41.288  28.984  31.702  1.00  0.00    -0.248 NA
ATOM     50  C   UNL A   1      39.463  30.436  31.810  1.00  0.00     0.031 C 
ATOM     51  C   UNL A   1      39.489  27.076  28.063  1.00  0.00     0.029 A 
ATOM     52  N   UNL A   1      41.174  26.979  29.527  1.00  0.00    -0.354 N 
ATOM     53  C   UNL A   1      41.470  29.880  32.750  1.00  0.00     0.074 A 
ATOM     54  C   UNL A   1      40.357  30.802  32.716  1.00  0.00     0.031 C 
ATOM     55  C   UNL A   1      40.290  26.064  27.688  1.00  0.00     0.029 A 
ATOM     56  C   UNL A   1      41.421  25.985  28.606  1.00  0.00     0.049 A 
ATOM     57  H   UNL A   1      41.766  27.163  30.291  1.00  0.00     0.167 HD
ATOM     58  C   UNL A   1      42.461  29.910  33.673  1.00  0.00     0.034 A 
ATOM     59  C   UNL A   1      42.448  25.117  28.510  1.00  0.00     0.034 A 
ATOM     60  C   UNL A   1      43.545  28.962  33.710  1.00  0.00     0.049 A 
ATOM     61  C   UNL A   1      43.539  25.172  29.552  1.00  0.00     0.074 A 
ATOM     62  C   UNL A   1      44.566  28.857  34.637  1.00  0.00     0.029 A 
ATOM     63  N   UNL A   1      43.749  27.954  32.777  1.00  0.00    -0.354 N 
ATOM     64  N   UNL A   1      43.666  25.989  30.575  1.00  0.00    -0.248 NA
ATOM     65  C   UNL A   1      44.618  24.184  29.437  1.00  0.00     0.031 C 
ATOM     66  C   UNL A   1      45.421  27.828  34.230  1.00  0.00     0.029 A 
ATOM     67  C   UNL A   1      44.894  27.240  33.092  1.00  0.00     0.049 A 
ATOM     68  H   UNL A   1      43.166  27.773  32.005  1.00  0.00     0.167 HD
ATOM     69  C   UNL A   1      44.819  25.584  31.242  1.00  0.00     0.074 A 
ATOM     70  C   UNL A   1      45.340  24.445  30.516  1.00  0.00     0.031 C 
ATOM     71  C   UNL A   1      45.396  26.105  32.355  1.00  0.00     0.034 A 
BRANCH  58  72
ATOM     72  C   UNL A   1      42.418  31.012  34.704  1.00  0.00     0.023 A 
ATOM     73  C   UNL A   1      42.950  32.287  34.445  1.00  0.00     0.031 A 
ATOM     74  C   UNL A   1      41.855  30.779  35.972  1.00  0.00     0.131 A 
ATOM     75  C   UNL A   1      42.977  33.255  35.458  1.00  0.00     0.055 A 
ATOM     76  C   UNL A   1      41.809  31.775  36.950  1.00  0.00     0.041 A 
ATOM     77  F   UNL A   1      41.352  29.575  36.285  1.00  0.00    -0.206 F 
ATOM     78  C   UNL A   1      42.385  33.017  36.701  1.00  0.00     0.022 A 
BRANCH  75  79
ATOM     79  S   UNL A   1      43.915  34.781  35.175  1.00  0.00     0.124 S 
ATOM     80  O   UNL A   1      43.291  35.287  33.955  1.00  0.00    -0.237 OA
ATOM     81  O   UNL A   1      43.653  35.543  36.390  1.00  0.00    -0.237 OA
ATOM     82  O   UNL A   1      45.290  34.313  35.015  1.00  0.00    -0.744 OA
ENDBRANCH  75  79
ENDBRANCH  58  72
BRANCH  59  83
ATOM     83  C   UNL A   1      42.513  24.126  27.396  1.00  0.00     0.023 A 
ATOM     84  C   UNL A   1      41.746  22.951  27.429  1.00  0.00     0.031 A 
ATOM     85  C   UNL A   1      43.394  24.305  26.313  1.00  0.00     0.131 A 
ATOM     86  C   UNL A   1      41.916  21.972  26.436  1.00  0.00     0.055 A 
ATOM     87  C   UNL A   1      43.515  23.356  25.296  1.00  0.00     0.041 A 
ATOM     88  F   UNL A   1      44.148  25.412  26.227  1.00  0.00    -0.206 F 
ATOM     89  C   UNL A   1      42.787  22.173  25.363  1.00  0.00     0.022 A 
BRANCH  86  90
ATOM     90  S   UNL A   1      41.063  20.383  26.630  1.00  0.00     0.124 S 
ATOM     91  O   UNL A   1      40.935  20.289  28.079  1.00  0.00    -0.237 OA
ATOM     92  O   UNL A   1      39.827  20.612  25.889  1.00  0.00    -0.237 OA
ATOM     93  O   UNL A   1      41.985  19.426  26.019  1.00  0.00    -0.744 OA
ENDBRANCH  86  90
ENDBRANCH  59  83
BRANCH  71  94
ATOM     94  C   UNL A   1      46.622  25.405  32.883  1.00  0.00     0.023 A 
ATOM     95  C   UNL A   1      47.898  25.634  32.339  1.00  0.00     0.031 A 
ATOM     96  C   UNL A   1      46.509  24.492  33.947  1.00  0.00     0.131 A 
ATOM     97  C   UNL A   1      49.002  24.918  32.824  1.00  0.00     0.055 A 
ATOM     98  C   UNL A   1      47.621  23.829  34.467  1.00  0.00     0.041 A 
ATOM     99  F   UNL A   1      45.315  24.236  34.504  1.00  0.00    -0.206 F 
ATOM    100  C   UNL A   1      48.875  24.030  33.896  1.00  0.00     0.022 A 
BRANCH  97 101
ATOM    101  S   UNL A   1      50.594  25.095  31.976  1.00  0.00     0.124 S 
ATOM    102  O   UNL A   1      51.001  23.705  31.799  1.00  0.00    -0.237 OA
ATOM    103  O   UNL A   1      50.223  25.810  30.759  1.00  0.00    -0.237 OA
ATOM    104  O   UNL A   1      51.404  25.862  32.922  1.00  0.00    -0.744 OA
ENDBRANCH  97 101
ENDBRANCH  71  94
ENDBRANCH  45  46
ENDBRANCH  37  40
ENDBRANCH  35  36
ENDBRANCH  34  35
ENDBRANCH   1  34
TORSDOF 19
ENDMDL
MODEL 2
REMARK VINA RESULT:      -8.7      4.995     11.745
REMARK SMILES COc1cc(NC(=O)C2CCN(S(=O)(=O)c3cccs3)CC2)c(Cl)cc1C(=O)NCCCCNC(=O)c1ccc(-c2c3nc(c(-c4cc(S(=O)(=O)[O-])ccc4F)c4ccc([nH]4)c(-c4cc(S(=O)(=O)[O-])ccc4F)c4nc(c(-c5cc(S(=O)(=O)[O-])ccc5F)c5ccc2[nH]5)C=C4)C=C3)cc1
REMARK SMILES IDX 31 1 30 2 29 3 27 4 28 5 26 7 3 8 4 9 5 10 25 11 23 12 24 13
REMARK SMILES IDX 2 14 1 15 6 16 7 17 8 19 9 20 10 21 22 22 11 23 21 24 12 25
REMARK SMILES IDX 13 26 14 27 15 28 16 29 17 30 20 31 18 32 19 33 32 34 33 35
REMARK SMILES IDX 34 36 35 37 36 39 37 40 38 41 99 42 39 43 98 44 40 45 41 46
REMARK SMILES IDX 42 47 92 48 43 49 97 50 91 51 93 52 44 53 96 54 90 55 89 56
REMARK SMILES IDX 45 58 77 59 57 60 76 61 58 62 61 63 75 64 94 65 59 66 60 67
REMARK SMILES IDX 74 69 95 70 62 71 46 72 47 73 55 74 48 75 54 76 56 77 53 78
REMARK SMILES IDX 49 79 50 80 51 81 52 82 78 83 79 84 87 85 80 86 86 87 88 88
REMARK SMILES IDX 85 89 81 90 82 91 83 92 84 93 63 94 64 95 72 96 65 97 71 98
REMARK SMILES IDX 73 99 70 100 66 101 67 102 68 103 69 104
REMARK H PARENT 29 6 6 18 34 38 93 57 61 68
REMARK Flexibility Score: inf
ROOT
ATOM      1  C   UNL A   1      43.996  34.186  25.104  1.00  0.00     0.023 C 
ENDROOT
BRANCH   1   2
ATOM      2  C   UNL A   1      43.863  32.736  25.579  1.00  0.00     0.116 C 
BRANCH   2   3
ATOM      3  N   UNL A   1      45.163  32.099  25.621  1.00  0.00    -0.352 N 
ATOM      4  C   UNL A   1      45.776  31.186  26.432  1.00  0.00     0.255 C 
ATOM      5  O   UNL A   1      46.967  30.984  26.160  1.00  0.00    -0.269 OA
ATOM      6  H   UNL A   1      45.747  32.397  24.887  1.00  0.00     0.163 HD
BRANCH   4   7
ATOM      7  C   UNL A   1      45.186  30.398  27.565  1.00  0.00     0.083 A 
ATOM      8  C   UNL A   1      44.347  29.283  27.539  1.00  0.00     0.133 A 
ATOM      9  C   UNL A   1      43.976  28.640  28.736  1.00  0.00     0.075 A 
ATOM     10  C   UNL A   1      44.162  29.226  29.979  1.00  0.00     0.063 A 
ATOM     11  C   UNL A   1      45.518  30.896  28.851  1.00  0.00     0.040 A 
ATOM     12  C   UNL A   1      45.001  30.340  30.031  1.00  0.00     0.065 A 
ATOM     13  Cl  UNL A   1      45.362  31.115  31.534  1.00  0.00    -0.082 Cl
BRANCH   8  14
ATOM     14  O   UNL A   1      43.807  28.766  26.394  1.00  0.00    -0.496 OA
ATOM     15  C   UNL A   1      42.432  29.146  26.230  1.00  0.00     0.278 C 
ENDBRANCH   8  14
BRANCH  10  16
ATOM     16  N   UNL A   1      43.491  28.792  31.147  1.00  0.00    -0.324 N 
ATOM     17  C   UNL A   1      42.349  29.229  31.779  1.00  0.00     0.227 C 
ATOM     18  H   UNL A   1      43.924  28.029  31.594  1.00  0.00     0.169 HD
ATOM     19  O   UNL A   1      42.003  28.648  32.811  1.00  0.00    -0.274 OA
BRANCH  17  20
ATOM     20  C   UNL A   1      41.569  30.446  31.276  1.00  0.00     0.081 C 
ATOM     21  C   UNL A   1      40.280  30.666  32.080  1.00  0.00     0.030 C 
ATOM     22  C   UNL A   1      41.281  30.429  29.763  1.00  0.00     0.030 C 
ATOM     23  C   UNL A   1      39.142  29.775  31.621  1.00  0.00     0.103 C 
ATOM     24  C   UNL A   1      40.019  29.668  29.362  1.00  0.00     0.103 C 
ATOM     25  N   UNL A   1      38.881  30.114  30.205  1.00  0.00    -0.197 NA
BRANCH  25  26
ATOM     26  S   UNL A   1      37.318  29.651  29.694  1.00  0.00     0.252 S 
ATOM     27  O   UNL A   1      37.481  28.714  28.603  1.00  0.00    -0.206 OA
ATOM     28  O   UNL A   1      36.556  29.301  30.876  1.00  0.00    -0.206 OA
BRANCH  26  29
ATOM     29  C   UNL A   1      36.522  31.070  28.962  1.00  0.00     0.135 A 
ATOM     30  C   UNL A   1      35.249  31.242  28.446  1.00  0.00     0.033 A 
ATOM     31  S   UNL A   1      37.419  32.526  28.883  1.00  0.00    -0.131 S 
ATOM     32  C   UNL A   1      35.018  32.567  27.980  1.00  0.00     0.013 A 
ATOM     33  C   UNL A   1      36.114  33.376  28.179  1.00  0.00     0.066 A 
ENDBRANCH  26  29
ENDBRANCH  25  26
ENDBRANCH  17  20
ENDBRANCH  10  16
ENDBRANCH   4   7
ENDBRANCH   2   3
ENDBRANCH   1   2
BRANCH   1  34
ATOM     34  C   UNL A   1      43.018  35.162  25.748  1.00  0.00     0.023 C 
BRANCH  34  35
ATOM     35  C   UNL A   1      43.708  36.225  26.594  1.00  0.00     0.116 C 
BRANCH  35  36
ATOM     36  N   UNL A   1      45.058  35.867  27.020  1.00  0.00    -0.352 N 
ATOM     37  C   UNL A   1      45.443  35.370  28.246  1.00  0.00     0.251 C 
ATOM     38  H   UNL A   1      45.775  35.995  26.357  1.00  0.00     0.163 HD
ATOM     39  O   UNL A   1      46.622  35.160  28.503  1.00  0.00    -0.269 OA
BRANCH  37  40
ATOM     40  C   UNL A   1      44.388  35.160  29.257  1.00  0.00     0.039 A 
ATOM     41  C   UNL A   1      43.852  33.883  29.420  1.00  0.00     0.014 A 
ATOM     42  C   UNL A   1      44.072  36.191  30.145  1.00  0.00     0.014 A 
ATOM     43  C   UNL A   1      43.064  33.615  30.539  1.00  0.00     0.010 A 
ATOM     44  C   UNL A   1      43.372  35.895  31.305  1.00  0.00     0.010 A 
ATOM     45  C   UNL A   1      42.865  34.603  31.518  1.00  0.00    -0.014 A 
BRANCH  45  46
ATOM     46  C   UNL A   1      42.126  34.314  32.774  1.00  0.00     0.031 A 
ATOM     47  C   UNL A   1      40.621  34.301  32.758  1.00  0.00     0.074 A 
ATOM     48  C   UNL A   1      42.800  34.148  33.929  1.00  0.00     0.049 A 
ATOM     49  N   UNL A   1      39.783  34.177  33.754  1.00  0.00    -0.248 NA
ATOM     50  C   UNL A   1      39.974  34.498  31.450  1.00  0.00     0.031 C 
ATOM     51  C   UNL A   1      44.257  34.194  34.076  1.00  0.00     0.029 A 
ATOM     52  N   UNL A   1      42.350  33.913  35.206  1.00  0.00    -0.354 N 
ATOM     53  C   UNL A   1      38.515  34.300  33.197  1.00  0.00     0.074 A 
ATOM     54  C   UNL A   1      38.697  34.580  31.791  1.00  0.00     0.031 C 
ATOM     55  C   UNL A   1      44.580  33.967  35.361  1.00  0.00     0.029 A 
ATOM     56  C   UNL A   1      43.357  33.804  36.139  1.00  0.00     0.049 A 
ATOM     57  H   UNL A   1      41.396  33.831  35.432  1.00  0.00     0.167 HD
ATOM     58  C   UNL A   1      37.310  34.163  33.800  1.00  0.00     0.034 A 
ATOM     59  C   UNL A   1      43.297  33.607  37.472  1.00  0.00     0.034 A 
ATOM     60  C   UNL A   1      37.150  33.852  35.197  1.00  0.00     0.049 A 
ATOM     61  C   UNL A   1      41.941  33.457  38.118  1.00  0.00     0.074 A 
ATOM     62  C   UNL A   1      35.979  33.624  35.901  1.00  0.00     0.029 A 
ATOM     63  N   UNL A   1      38.191  33.725  36.107  1.00  0.00    -0.354 N 
ATOM     64  N   UNL A   1      40.750  33.516  37.566  1.00  0.00    -0.248 NA
ATOM     65  C   UNL A   1      41.920  33.202  39.564  1.00  0.00     0.031 C 
ATOM     66  C   UNL A   1      36.309  33.423  37.244  1.00  0.00     0.029 A 
ATOM     67  C   UNL A   1      37.689  33.448  37.368  1.00  0.00     0.049 A 
ATOM     68  H   UNL A   1      39.146  33.817  35.888  1.00  0.00     0.167 HD
ATOM     69  C   UNL A   1      39.843  33.268  38.593  1.00  0.00     0.074 A 
ATOM     70  C   UNL A   1      40.624  33.044  39.791  1.00  0.00     0.031 C 
ATOM     71  C   UNL A   1      38.487  33.226  38.551  1.00  0.00     0.034 A 
BRANCH  58  72
ATOM     72  C   UNL A   1      36.079  34.363  32.949  1.00  0.00     0.023 A 
ATOM     73  C   UNL A   1      35.404  35.595  32.905  1.00  0.00     0.031 A 
ATOM     74  C   UNL A   1      35.561  33.301  32.187  1.00  0.00     0.131 A 
ATOM     75  C   UNL A   1      34.212  35.716  32.177  1.00  0.00     0.055 A 
ATOM     76  C   UNL A   1      34.418  33.452  31.398  1.00  0.00     0.041 A 
ATOM     77  F   UNL A   1      36.149  32.095  32.207  1.00  0.00    -0.206 F 
ATOM     78  C   UNL A   1      33.729  34.661  31.401  1.00  0.00     0.022 A 
BRANCH  75  79
ATOM     79  S   UNL A   1      33.231  37.229  32.368  1.00  0.00     0.124 S 
ATOM     80  O   UNL A   1      34.047  37.993  33.309  1.00  0.00    -0.237 OA
ATOM     81  O   UNL A   1      33.175  37.744  31.005  1.00  0.00    -0.237 OA
ATOM     82  O   UNL A   1      31.960  36.747  32.906  1.00  0.00    -0.744 OA
ENDBRANCH  75  79
ENDBRANCH  58  72
BRANCH  59  83
ATOM     83  C   UNL A   1      44.541  33.543  38.294  1.00  0.00     0.023 A 
ATOM     84  C   UNL A   1      45.091  32.310  38.679  1.00  0.00     0.031 A 
ATOM     85  C   UNL A   1      45.162  34.714  38.765  1.00  0.00     0.131 A 
ATOM     86  C   UNL A   1      46.186  32.273  39.558  1.00  0.00     0.055 A 
ATOM     87  C   UNL A   1      46.288  34.672  39.590  1.00  0.00     0.041 A 
ATOM     88  F   UNL A   1      44.683  35.922  38.425  1.00  0.00    -0.206 F 
ATOM     89  C   UNL A   1      46.795  33.445  40.006  1.00  0.00     0.022 A 
BRANCH  86  90
ATOM     90  S   UNL A   1      46.731  30.663  40.195  1.00  0.00     0.124 S 
ATOM     91  O   UNL A   1      45.551  30.218  40.925  1.00  0.00    -0.237 OA
ATOM     92  O   UNL A   1      47.036  29.940  38.965  1.00  0.00    -0.237 OA
ATOM     93  O   UNL A   1      47.888  31.001  41.021  1.00  0.00    -0.744 OA
ENDBRANCH  86  90
ENDBRANCH  59  83
BRANCH  71  94
ATOM     94  C   UNL A   1      37.772  32.869  39.830  1.00  0.00     0.023 A 
ATOM     95  C   UNL A   1      37.710  33.758  40.916  1.00  0.00     0.031 A 
ATOM     96  C   UNL A   1      37.146  31.616  39.960  1.00  0.00     0.131 A 
ATOM     97  C   UNL A   1      37.083  33.361  42.107  1.00  0.00     0.055 A 
ATOM     98  C   UNL A   1      36.470  31.251  41.124  1.00  0.00     0.041 A 
ATOM     99  F   UNL A   1      37.176  30.729  38.953  1.00  0.00    -0.206 F 
ATOM    100  C   UNL A   1      36.448  32.120  42.212  1.00  0.00     0.022 A 
BRANCH  97 101
ATOM    101  S   UNL A   1      37.185  34.453  43.550  1.00  0.00     0.124 S 
ATOM    102  O   UNL A   1      37.978  33.656  44.479  1.00  0.00    -0.237 OA
ATOM    103  O   UNL A   1      37.843  35.634  43.002  1.00  0.00    -0.237 OA
ATOM    104  O   UNL A   1      35.787  34.646  43.934  1.00  0.00    -0.744 OA
ENDBRANCH  97 101
ENDBRANCH  71  94
ENDBRANCH  45  46
ENDBRANCH  37  40
ENDBRANCH  35  36
ENDBRANCH  34  35
ENDBRANCH   1  34
TORSDOF 19
ENDMDL
MODEL 3
REMARK VINA RESULT:      -8.5      5.090     11.344
REMARK SMILES COc1cc(NC(=O)C2CCN(S(=O)(=O)c3cccs3)CC2)c(Cl)cc1C(=O)NCCCCNC(=O)c1ccc(-c2c3nc(c(-c4cc(S(=O)(=O)[O-])ccc4F)c4ccc([nH]4)c(-c4cc(S(=O)(=O)[O-])ccc4F)c4nc(c(-c5cc(S(=O)(=O)[O-])ccc5F)c5ccc2[nH]5)C=C4)C=C3)cc1
REMARK SMILES IDX 31 1 30 2 29 3 27 4 28 5 26 7 3 8 4 9 5 10 25 11 23 12 24 13
REMARK SMILES IDX 2 14 1 15 6 16 7 17 8 19 9 20 10 21 22 22 11 23 21 24 12 25
REMARK SMILES IDX 13 26 14 27 15 28 16 29 17 30 20 31 18 32 19 33 32 34 33 35
REMARK SMILES IDX 34 36 35 37 36 39 37 40 38 41 99 42 39 43 98 44 40 45 41 46
REMARK SMILES IDX 42 47 92 48 43 49 97 50 91 51 93 52 44 53 96 54 90 55 89 56
REMARK SMILES IDX 45 58 77 59 57 60 76 61 58 62 61 63 75 64 94 65 59 66 60 67
REMARK SMILES IDX 74 69 95 70 62 71 46 72 47 73 55 74 48 75 54 76 56 77 53 78
REMARK SMILES IDX 49 79 50 80 51 81 52 82 78 83 79 84 87 85 80 86 86 87 88 88
REMARK SMILES IDX 85 89 81 90 82 91 83 92 84 93 63 94 64 95 72 96 65 97 71 98
REMARK SMILES IDX 73 99 70 100 66 101 67 102 68 103 69 104
REMARK H PARENT 29 6 6 18 34 38 93 57 61 68
REMARK Flexibility Score: inf
ROOT
ATOM      1  C   UNL A   1      35.073  30.936  27.514  1.00  0.00     0.023 C 
ENDROOT
BRANCH   1   2
ATOM      2  C   UNL A   1      34.132  29.927  26.849  1.00  0.00     0.116 C 
BRANCH   2   3
ATOM      3  N   UNL A   1      32.876  30.559  26.507  1.00  0.00    -0.352 N 
ATOM      4  C   UNL A   1      31.791  30.225  25.746  1.00  0.00     0.255 C 
ATOM      5  O   UNL A   1      30.949  31.125  25.639  1.00  0.00    -0.269 OA
ATOM      6  H   UNL A   1      32.779  31.445  26.925  1.00  0.00     0.163 HD
BRANCH   4   7
ATOM      7  C   UNL A   1      31.493  28.920  25.067  1.00  0.00     0.083 A 
ATOM      8  C   UNL A   1      31.197  28.652  23.729  1.00  0.00     0.133 A 
ATOM      9  C   UNL A   1      31.032  27.327  23.285  1.00  0.00     0.075 A 
ATOM     10  C   UNL A   1      30.858  26.268  24.164  1.00  0.00     0.063 A 
ATOM     11  C   UNL A   1      31.484  27.802  25.941  1.00  0.00     0.040 A 
ATOM     12  C   UNL A   1      31.153  26.509  25.507  1.00  0.00     0.065 A 
ATOM     13  Cl  UNL A   1      31.038  25.249  26.685  1.00  0.00    -0.082 Cl
BRANCH   8  14
ATOM     14  O   UNL A   1      31.014  29.623  22.784  1.00  0.00    -0.496 OA
ATOM     15  C   UNL A   1      29.625  29.807  22.466  1.00  0.00     0.278 C 
ENDBRANCH   8  14
BRANCH  10  16
ATOM     16  N   UNL A   1      30.337  25.012  23.769  1.00  0.00    -0.324 N 
ATOM     17  C   UNL A   1      30.926  23.890  23.234  1.00  0.00     0.227 C 
ATOM     18  H   UNL A   1      29.366  24.925  23.905  1.00  0.00     0.169 HD
ATOM     19  O   UNL A   1      30.200  22.925  22.977  1.00  0.00    -0.274 OA
BRANCH  17  20
ATOM     20  C   UNL A   1      32.417  23.852  22.888  1.00  0.00     0.081 C 
ATOM     21  C   UNL A   1      32.848  22.467  22.387  1.00  0.00     0.030 C 
ATOM     22  C   UNL A   1      33.339  24.344  24.019  1.00  0.00     0.030 C 
ATOM     23  C   UNL A   1      33.109  21.490  23.517  1.00  0.00     0.103 C 
ATOM     24  C   UNL A   1      33.724  23.275  25.039  1.00  0.00     0.103 C 
ATOM     25  N   UNL A   1      34.204  22.061  24.331  1.00  0.00    -0.197 NA
BRANCH  25  26
ATOM     26  S   UNL A   1      35.006  20.886  25.276  1.00  0.00     0.252 S 
ATOM     27  O   UNL A   1      36.365  20.794  24.787  1.00  0.00    -0.206 OA
ATOM     28  O   UNL A   1      34.728  21.178  26.667  1.00  0.00    -0.206 OA
BRANCH  26  29
ATOM     29  C   UNL A   1      34.285  19.292  24.923  1.00  0.00     0.135 A 
ATOM     30  C   UNL A   1      34.762  18.209  24.208  1.00  0.00     0.033 A 
ATOM     31  S   UNL A   1      32.742  18.960  25.587  1.00  0.00    -0.131 S 
ATOM     32  C   UNL A   1      33.856  17.112  24.199  1.00  0.00     0.013 A 
ATOM     33  C   UNL A   1      32.723  17.380  24.933  1.00  0.00     0.066 A 
ENDBRANCH  26  29
ENDBRANCH  25  26
ENDBRANCH  17  20
ENDBRANCH  10  16
ENDBRANCH   4   7
ENDBRANCH   2   3
ENDBRANCH   1   2
BRANCH   1  34
ATOM     34  C   UNL A   1      34.401  31.885  28.499  1.00  0.00     0.023 C 
BRANCH  34  35
ATOM     35  C   UNL A   1      34.402  33.334  28.027  1.00  0.00     0.116 C 
BRANCH  35  36
ATOM     36  N   UNL A   1      33.432  34.187  28.708  1.00  0.00    -0.352 N 
ATOM     37  C   UNL A   1      33.472  34.615  30.017  1.00  0.00     0.251 C 
ATOM     38  H   UNL A   1      32.663  34.489  28.173  1.00  0.00     0.163 HD
ATOM     39  O   UNL A   1      32.563  35.285  30.492  1.00  0.00    -0.269 OA
BRANCH  37  40
ATOM     40  C   UNL A   1      34.618  34.184  30.841  1.00  0.00     0.039 A 
ATOM     41  C   UNL A   1      34.461  33.096  31.700  1.00  0.00     0.014 A 
ATOM     42  C   UNL A   1      35.875  34.752  30.623  1.00  0.00     0.014 A 
ATOM     43  C   UNL A   1      35.592  32.514  32.272  1.00  0.00     0.010 A 
ATOM     44  C   UNL A   1      37.003  34.111  31.113  1.00  0.00     0.010 A 
ATOM     45  C   UNL A   1      36.875  32.982  31.939  1.00  0.00    -0.014 A 
BRANCH  45  46
ATOM     46  C   UNL A   1      38.101  32.312  32.443  1.00  0.00     0.031 A 
ATOM     47  C   UNL A   1      38.742  31.229  31.618  1.00  0.00     0.074 A 
ATOM     48  C   UNL A   1      38.582  32.618  33.665  1.00  0.00     0.049 A 
ATOM     49  N   UNL A   1      39.748  30.448  31.914  1.00  0.00    -0.248 NA
ATOM     50  C   UNL A   1      38.142  30.962  30.300  1.00  0.00     0.031 C 
ATOM     51  C   UNL A   1      38.011  33.612  34.578  1.00  0.00     0.029 A 
ATOM     52  N   UNL A   1      39.658  32.119  34.357  1.00  0.00    -0.354 N 
ATOM     53  C   UNL A   1      39.887  29.587  30.832  1.00  0.00     0.074 A 
ATOM     54  C   UNL A   1      38.820  29.895  29.907  1.00  0.00     0.031 C 
ATOM     55  C   UNL A   1      38.758  33.669  35.694  1.00  0.00     0.029 A 
ATOM     56  C   UNL A   1      39.832  32.686  35.600  1.00  0.00     0.049 A 
ATOM     57  H   UNL A   1      40.251  31.420  33.997  1.00  0.00     0.167 HD
ATOM     58  C   UNL A   1      40.837  28.645  30.617  1.00  0.00     0.034 A 
ATOM     59  C   UNL A   1      40.747  32.433  36.557  1.00  0.00     0.034 A 
ATOM     60  C   UNL A   1      41.913  28.375  31.537  1.00  0.00     0.049 A 
ATOM     61  C   UNL A   1      41.796  31.379  36.292  1.00  0.00     0.074 A 
ATOM     62  C   UNL A   1      42.968  27.491  31.393  1.00  0.00     0.029 A 
ATOM     63  N   UNL A   1      42.071  28.985  32.774  1.00  0.00    -0.354 N 
ATOM     64  N   UNL A   1      41.950  30.613  35.235  1.00  0.00    -0.248 NA
ATOM     65  C   UNL A   1      42.799  31.162  37.341  1.00  0.00     0.031 C 
ATOM     66  C   UNL A   1      43.726  27.521  32.567  1.00  0.00     0.029 A 
ATOM     67  C   UNL A   1      43.191  28.478  33.413  1.00  0.00     0.049 A 
ATOM     68  H   UNL A   1      41.475  29.677  33.143  1.00  0.00     0.167 HD
ATOM     69  C   UNL A   1      43.090  29.853  35.481  1.00  0.00     0.074 A 
ATOM     70  C   UNL A   1      43.590  30.262  36.776  1.00  0.00     0.031 C 
ATOM     71  C   UNL A   1      43.674  28.903  34.706  1.00  0.00     0.034 A 
BRANCH  58  72
ATOM     72  C   UNL A   1      40.741  27.836  29.346  1.00  0.00     0.023 A 
ATOM     73  C   UNL A   1      41.639  28.023  28.281  1.00  0.00     0.031 A 
ATOM     74  C   UNL A   1      39.723  26.879  29.188  1.00  0.00     0.131 A 
ATOM     75  C   UNL A   1      41.461  27.320  27.082  1.00  0.00     0.055 A 
ATOM     76  C   UNL A   1      39.601  26.121  28.021  1.00  0.00     0.041 A 
ATOM     77  F   UNL A   1      38.822  26.673  30.161  1.00  0.00    -0.206 F 
ATOM     78  C   UNL A   1      40.465  26.350  26.954  1.00  0.00     0.022 A 
BRANCH  75  79
ATOM     79  S   UNL A   1      42.465  27.789  25.646  1.00  0.00     0.124 S 
ATOM     80  O   UNL A   1      43.767  28.030  26.263  1.00  0.00    -0.237 OA
ATOM     81  O   UNL A   1      42.370  26.608  24.795  1.00  0.00    -0.237 OA
ATOM     82  O   UNL A   1      41.795  28.982  25.135  1.00  0.00    -0.744 OA
ENDBRANCH  75  79
ENDBRANCH  58  72
BRANCH  59  83
ATOM     83  C   UNL A   1      40.726  33.171  37.854  1.00  0.00     0.023 A 
ATOM     84  C   UNL A   1      39.967  32.704  38.939  1.00  0.00     0.031 A 
ATOM     85  C   UNL A   1      41.409  34.391  38.007  1.00  0.00     0.131 A 
ATOM     86  C   UNL A   1      39.858  33.479  40.105  1.00  0.00     0.055 A 
ATOM     87  C   UNL A   1      41.346  35.128  39.192  1.00  0.00     0.041 A 
ATOM     88  F   UNL A   1      42.155  34.883  37.005  1.00  0.00    -0.206 F 
ATOM     89  C   UNL A   1      40.552  34.682  40.243  1.00  0.00     0.022 A 
BRANCH  86  90
ATOM     90  S   UNL A   1      38.702  32.942  41.397  1.00  0.00     0.124 S 
ATOM     91  O   UNL A   1      37.447  33.519  40.931  1.00  0.00    -0.237 OA
ATOM     92  O   UNL A   1      38.812  31.490  41.315  1.00  0.00    -0.237 OA
ATOM     93  O   UNL A   1      39.253  33.540  42.613  1.00  0.00    -0.744 OA
ENDBRANCH  86  90
ENDBRANCH  59  83
BRANCH  71  94
ATOM     94  C   UNL A   1      44.951  28.288  35.221  1.00  0.00     0.023 A 
ATOM     95  C   UNL A   1      44.950  27.113  35.992  1.00  0.00     0.031 A 
ATOM     96  C   UNL A   1      46.188  28.893  34.935  1.00  0.00     0.131 A 
ATOM     97  C   UNL A   1      46.157  26.610  36.497  1.00  0.00     0.055 A 
ATOM     98  C   UNL A   1      47.392  28.353  35.388  1.00  0.00     0.041 A 
ATOM     99  F   UNL A   1      46.247  30.017  34.203  1.00  0.00    -0.206 F 
ATOM    100  C   UNL A   1      47.380  27.212  36.185  1.00  0.00     0.022 A 
BRANCH  97 101
ATOM    101  S   UNL A   1      46.103  25.205  37.642  1.00  0.00     0.124 S 
ATOM    102  O   UNL A   1      46.606  24.116  36.811  1.00  0.00    -0.237 OA
ATOM    103  O   UNL A   1      46.985  25.644  38.718  1.00  0.00    -0.237 OA
ATOM    104  O   UNL A   1      44.689  25.109  38.001  1.00  0.00    -0.744 OA
ENDBRANCH  97 101
ENDBRANCH  71  94
ENDBRANCH  45  46
ENDBRANCH  37  40
ENDBRANCH  35  36
ENDBRANCH  34  35
ENDBRANCH   1  34
TORSDOF 19
ENDMDL
