MODEL 1
REMARK VINA RESULT:     -13.5      0.000      0.000
REMARK SMILES O=C(Cc1c(C(=O)c2cc3c(cn2)CCCC3)[nH]c2cc(Cl)ccc12)NCCCCNC(=O)c1ccc(-c2c3nc(c(-c4cc(S(=O)(=O)[O-])ccc4F)c4ccc([nH]4)c(-c4cc(S(=O)(=O)[O-])ccc4F)c4nc(c(-c5cc(S(=O)(=O)[O-])ccc5F)c5ccc2[nH]5)C=C4)C=C3)cc1
REMARK SMILES IDX 28 1 27 2 26 3 1 4 2 5 3 7 4 8 5 9 25 10 18 11 19 12 24 13
REMARK SMILES IDX 20 15 23 16 21 17 22 18 6 19 7 20 8 21 9 22 13 23 10 24
REMARK SMILES IDX 12 25 11 26 17 27 14 28 16 29 15 30 29 31 30 32 31 33 32 34
REMARK SMILES IDX 33 36 34 37 35 38 96 39 36 40 95 41 37 42 38 43 39 44 89 45
REMARK SMILES IDX 40 46 94 47 88 48 90 49 41 50 93 51 87 52 86 53 42 55 74 56
REMARK SMILES IDX 54 57 73 58 55 59 58 60 72 61 91 62 56 63 57 64 71 66 92 67
REMARK SMILES IDX 59 68 43 69 44 70 52 71 45 72 51 73 53 74 50 75 46 76 47 77
REMARK SMILES IDX 48 78 49 79 75 80 76 81 84 82 77 83 83 84 85 85 82 86 78 87
REMARK SMILES IDX 79 88 80 89 81 90 60 91 61 92 69 93 62 94 68 95 70 96 67 97
REMARK SMILES IDX 63 98 64 99 65 100 66 101
REMARK H PARENT 26 6 18 14 31 35 90 54 58 65
REMARK Flexibility Score: inf
ROOT
ATOM      1  C   UNL A   1      31.453  28.320  27.255  1.00  0.00     0.023 C 
ENDROOT
BRANCH   1   2
ATOM      2  C   UNL A   1      31.062  26.886  26.901  1.00  0.00     0.116 C 
BRANCH   2   3
ATOM      3  N   UNL A   1      32.114  26.181  26.199  1.00  0.00    -0.356 N 
ATOM      4  O   UNL A   1      31.740  24.136  27.178  1.00  0.00    -0.275 OA
ATOM      5  C   UNL A   1      32.357  24.835  26.376  1.00  0.00     0.224 C 
ATOM      6  H   UNL A   1      32.679  26.682  25.568  1.00  0.00     0.163 HD
BRANCH   5   7
ATOM      7  C   UNL A   1      33.479  24.276  25.516  1.00  0.00     0.138 C 
BRANCH   7   8
ATOM      8  C   UNL A   1      32.985  23.593  24.267  1.00  0.00    -0.002 A 
ATOM      9  C   UNL A   1      32.624  24.190  23.053  1.00  0.00     0.093 A 
ATOM     10  C   UNL A   1      32.833  22.172  24.109  1.00  0.00     0.004 A 
ATOM     11  N   UNL A   1      32.334  23.159  22.181  1.00  0.00    -0.351 N 
ATOM     12  C   UNL A   1      32.409  21.939  22.805  1.00  0.00     0.048 A 
ATOM     13  C   UNL A   1      33.022  21.063  24.961  1.00  0.00     0.012 A 
ATOM     14  H   UNL A   1      32.102  23.285  21.233  1.00  0.00     0.167 HD
ATOM     15  C   UNL A   1      32.151  20.655  22.306  1.00  0.00     0.047 A 
ATOM     16  C   UNL A   1      32.761  19.772  24.486  1.00  0.00     0.021 A 
ATOM     17  C   UNL A   1      32.332  19.578  23.178  1.00  0.00     0.043 A 
ATOM     18  Cl  UNL A   1      32.022  17.980  22.617  1.00  0.00    -0.084 Cl
BRANCH   9  19
ATOM     19  C   UNL A   1      32.586  25.610  22.703  1.00  0.00     0.227 C 
ATOM     20  O   UNL A   1      33.566  26.226  22.292  1.00  0.00    -0.285 OA
BRANCH  19  21
ATOM     21  C   UNL A   1      31.313  26.367  22.885  1.00  0.00     0.113 A 
ATOM     22  C   UNL A   1      31.200  27.666  22.396  1.00  0.00     0.036 A 
ATOM     23  N   UNL A   1      30.322  25.714  23.535  1.00  0.00    -0.252 NA
ATOM     24  C   UNL A   1      29.989  28.342  22.573  1.00  0.00    -0.041 A 
ATOM     25  C   UNL A   1      29.152  26.378  23.668  1.00  0.00     0.115 A 
ATOM     26  C   UNL A   1      28.938  27.684  23.229  1.00  0.00    -0.026 A 
ATOM     27  C   UNL A   1      29.849  29.769  22.103  1.00  0.00     0.036 C 
ATOM     28  C   UNL A   1      27.578  28.315  23.386  1.00  0.00     0.037 C 
ATOM     29  C   UNL A   1      28.398  30.234  21.997  1.00  0.00     0.005 C 
ATOM     30  C   UNL A   1      27.611  29.835  23.240  1.00  0.00     0.005 C 
ENDBRANCH  19  21
ENDBRANCH   9  19
ENDBRANCH   7   8
ENDBRANCH   5   7
ENDBRANCH   2   3
ENDBRANCH   1   2
BRANCH   1  31
ATOM     31  C   UNL A   1      31.541  29.282  26.067  1.00  0.00     0.023 C 
BRANCH  31  32
ATOM     32  C   UNL A   1      32.773  30.179  26.034  1.00  0.00     0.116 C 
BRANCH  32  33
ATOM     33  N   UNL A   1      32.530  31.518  26.551  1.00  0.00    -0.352 N 
ATOM     34  C   UNL A   1      33.304  32.273  27.406  1.00  0.00     0.251 C 
ATOM     35  H   UNL A   1      31.697  31.944  26.246  1.00  0.00     0.163 HD
ATOM     36  O   UNL A   1      32.884  33.349  27.823  1.00  0.00    -0.269 OA
BRANCH  34  37
ATOM     37  C   UNL A   1      34.618  31.758  27.857  1.00  0.00     0.039 A 
ATOM     38  C   UNL A   1      34.777  30.420  28.223  1.00  0.00     0.014 A 
ATOM     39  C   UNL A   1      35.698  32.642  27.955  1.00  0.00     0.014 A 
ATOM     40  C   UNL A   1      35.947  30.013  28.857  1.00  0.00     0.010 A 
ATOM     41  C   UNL A   1      36.903  32.209  28.518  1.00  0.00     0.010 A 
ATOM     42  C   UNL A   1      37.018  30.908  29.032  1.00  0.00    -0.014 A 
BRANCH  42  43
ATOM     43  C   UNL A   1      38.231  30.462  29.769  1.00  0.00     0.031 A 
ATOM     44  C   UNL A   1      38.468  30.888  31.195  1.00  0.00     0.074 A 
ATOM     45  C   UNL A   1      39.093  29.616  29.172  1.00  0.00     0.049 A 
ATOM     46  N   UNL A   1      39.435  30.542  32.007  1.00  0.00    -0.248 NA
ATOM     47  C   UNL A   1      37.497  31.822  31.788  1.00  0.00     0.031 C 
ATOM     48  C   UNL A   1      38.969  29.134  27.797  1.00  0.00     0.029 A 
ATOM     49  N   UNL A   1      40.223  28.993  29.643  1.00  0.00    -0.354 N 
ATOM     50  C   UNL A   1      39.199  31.222  33.197  1.00  0.00     0.074 A 
ATOM     51  C   UNL A   1      38.017  32.029  32.991  1.00  0.00     0.031 C 
ATOM     52  C   UNL A   1      39.948  28.252  27.551  1.00  0.00     0.029 A 
ATOM     53  C   UNL A   1      40.810  28.151  28.728  1.00  0.00     0.049 A 
ATOM     54  H   UNL A   1      40.579  29.137  30.549  1.00  0.00     0.167 HD
ATOM     55  C   UNL A   1      39.894  31.164  34.359  1.00  0.00     0.034 A 
ATOM     56  C   UNL A   1      41.918  27.386  28.816  1.00  0.00     0.034 A 
ATOM     57  C   UNL A   1      41.059  30.342  34.561  1.00  0.00     0.049 A 
ATOM     58  C   UNL A   1      42.689  27.362  30.109  1.00  0.00     0.074 A 
ATOM     59  C   UNL A   1      41.807  30.192  35.716  1.00  0.00     0.029 A 
ATOM     60  N   UNL A   1      41.645  29.534  33.599  1.00  0.00    -0.354 N 
ATOM     61  N   UNL A   1      42.417  27.967  31.241  1.00  0.00    -0.248 NA
ATOM     62  C   UNL A   1      43.917  26.554  30.143  1.00  0.00     0.031 C 
ATOM     63  C   UNL A   1      42.873  29.336  35.438  1.00  0.00     0.029 A 
ATOM     64  C   UNL A   1      42.759  28.901  34.127  1.00  0.00     0.049 A 
ATOM     65  H   UNL A   1      41.318  29.426  32.676  1.00  0.00     0.167 HD
ATOM     66  C   UNL A   1      43.429  27.603  32.124  1.00  0.00     0.074 A 
ATOM     67  C   UNL A   1      44.303  26.701  31.405  1.00  0.00     0.031 C 
ATOM     68  C   UNL A   1      43.620  27.990  33.411  1.00  0.00     0.034 A 
BRANCH  55  69
ATOM     69  C   UNL A   1      39.416  31.991  35.527  1.00  0.00     0.023 A 
ATOM     70  C   UNL A   1      38.675  31.390  36.562  1.00  0.00     0.031 A 
ATOM     71  C   UNL A   1      39.581  33.387  35.549  1.00  0.00     0.131 A 
ATOM     72  C   UNL A   1      38.101  32.188  37.559  1.00  0.00     0.055 A 
ATOM     73  C   UNL A   1      39.036  34.174  36.565  1.00  0.00     0.041 A 
ATOM     74  F   UNL A   1      40.278  34.006  34.582  1.00  0.00    -0.206 F 
ATOM     75  C   UNL A   1      38.283  33.575  37.570  1.00  0.00     0.022 A 
BRANCH  72  76
ATOM     76  S   UNL A   1      37.048  31.468  38.849  1.00  0.00     0.124 S 
ATOM     77  O   UNL A   1      35.874  32.337  38.796  1.00  0.00    -0.237 OA
ATOM     78  O   UNL A   1      36.843  30.110  38.352  1.00  0.00    -0.237 OA
ATOM     79  O   UNL A   1      37.850  31.582  40.062  1.00  0.00    -0.744 OA
ENDBRANCH  72  76
ENDBRANCH  55  69
BRANCH  56  80
ATOM     80  C   UNL A   1      42.315  26.549  27.646  1.00  0.00     0.023 A 
ATOM     81  C   UNL A   1      41.828  25.238  27.499  1.00  0.00     0.031 A 
ATOM     82  C   UNL A   1      43.274  27.006  26.728  1.00  0.00     0.131 A 
ATOM     83  C   UNL A   1      42.360  24.404  26.507  1.00  0.00     0.055 A 
ATOM     84  C   UNL A   1      43.748  26.197  25.695  1.00  0.00     0.041 A 
ATOM     85  F   UNL A   1      43.779  28.245  26.838  1.00  0.00    -0.206 F 
ATOM     86  C   UNL A   1      43.305  24.881  25.593  1.00  0.00     0.022 A 
BRANCH  83  87
ATOM     87  S   UNL A   1      41.959  22.635  26.470  1.00  0.00     0.124 S 
ATOM     88  O   UNL A   1      42.478  22.235  25.166  1.00  0.00    -0.237 OA
ATOM     89  O   UNL A   1      42.703  22.138  27.626  1.00  0.00    -0.237 OA
ATOM     90  O   UNL A   1      40.507  22.609  26.609  1.00  0.00    -0.744 OA
ENDBRANCH  83  87
ENDBRANCH  56  80
BRANCH  68  91
ATOM     91  C   UNL A   1      44.815  27.453  34.157  1.00  0.00     0.023 A 
ATOM     92  C   UNL A   1      44.729  26.222  34.834  1.00  0.00     0.031 A 
ATOM     93  C   UNL A   1      45.977  28.225  34.324  1.00  0.00     0.131 A 
ATOM     94  C   UNL A   1      45.770  25.816  35.678  1.00  0.00     0.055 A 
ATOM     95  C   UNL A   1      47.031  27.797  35.134  1.00  0.00     0.041 A 
ATOM     96  F   UNL A   1      46.103  29.410  33.706  1.00  0.00    -0.206 F 
ATOM     97  C   UNL A   1      46.923  26.594  35.828  1.00  0.00     0.022 A 
BRANCH  94  98
ATOM     98  S   UNL A   1      45.629  24.309  36.678  1.00  0.00     0.124 S 
ATOM     99  O   UNL A   1      44.922  24.797  37.860  1.00  0.00    -0.237 OA
ATOM    100  O   UNL A   1      44.855  23.431  35.806  1.00  0.00    -0.237 OA
ATOM    101  O   UNL A   1      47.013  23.907  36.906  1.00  0.00    -0.744 OA
ENDBRANCH  94  98
ENDBRANCH  68  91
ENDBRANCH  42  43
ENDBRANCH  34  37
ENDBRANCH  32  33
ENDBRANCH  31  32
ENDBRANCH   1  31
TORSDOF 17
ENDMDL
MODEL 2
REMARK VINA RESULT:     -13.2      1.756      3.896
REMARK SMILES O=C(Cc1c(C(=O)c2cc3c(cn2)CCCC3)[nH]c2cc(Cl)ccc12)NCCCCNC(=O)c1ccc(-c2c3nc(c(-c4cc(S(=O)(=O)[O-])ccc4F)c4ccc([nH]4)c(-c4cc(S(=O)(=O)[O-])ccc4F)c4nc(c(-c5cc(S(=O)(=O)[O-])ccc5F)c5ccc2[nH]5)C=C4)C=C3)cc1
REMARK SMILES IDX 28 1 27 2 26 3 1 4 2 5 3 7 4 8 5 9 25 10 18 11 19 12 24 13
REMARK SMILES IDX 20 15 23 16 21 17 22 18 6 19 7 20 8 21 9 22 13 23 10 24
REMARK SMILES IDX 12 25 11 26 17 27 14 28 16 29 15 30 29 31 30 32 31 33 32 34
REMARK SMILES IDX 33 36 34 37 35 38 96 39 36 40 95 41 37 42 38 43 39 44 89 45
REMARK SMILES IDX 40 46 94 47 88 48 90 49 41 50 93 51 87 52 86 53 42 55 74 56
REMARK SMILES IDX 54 57 73 58 55 59 58 60 72 61 91 62 56 63 57 64 71 66 92 67
REMARK SMILES IDX 59 68 43 69 44 70 52 71 45 72 51 73 53 74 50 75 46 76 47 77
REMARK SMILES IDX 48 78 49 79 75 80 76 81 84 82 77 83 83 84 85 85 82 86 78 87
REMARK SMILES IDX 79 88 80 89 81 90 60 91 61 92 69 93 62 94 68 95 70 96 67 97
REMARK SMILES IDX 63 98 64 99 65 100 66 101
REMARK H PARENT 26 6 18 14 31 35 90 54 58 65
REMARK Flexibility Score: inf
ROOT
ATOM      1  C   UNL A   1      32.260  28.562  27.375  1.00  0.00     0.023 C 
ENDROOT
BRANCH   1   2
ATOM      2  C   UNL A   1      31.396  27.306  27.283  1.00  0.00     0.116 C 
BRANCH   2   3
ATOM      3  N   UNL A   1      31.133  26.912  25.914  1.00  0.00    -0.356 N 
ATOM      4  O   UNL A   1      29.828  25.091  26.425  1.00  0.00    -0.275 OA
ATOM      5  C   UNL A   1      30.336  25.835  25.588  1.00  0.00     0.224 C 
ATOM      6  H   UNL A   1      31.540  27.435  25.186  1.00  0.00     0.163 HD
BRANCH   5   7
ATOM      7  C   UNL A   1      30.155  25.612  24.095  1.00  0.00     0.138 C 
BRANCH   7   8
ATOM      8  C   UNL A   1      30.539  26.811  23.266  1.00  0.00    -0.002 A 
ATOM      9  C   UNL A   1      31.722  27.006  22.544  1.00  0.00     0.093 A 
ATOM     10  C   UNL A   1      29.710  27.966  23.053  1.00  0.00     0.004 A 
ATOM     11  N   UNL A   1      31.577  28.202  21.869  1.00  0.00    -0.351 N 
ATOM     12  C   UNL A   1      30.395  28.819  22.194  1.00  0.00     0.048 A 
ATOM     13  C   UNL A   1      28.436  28.361  23.514  1.00  0.00     0.012 A 
ATOM     14  H   UNL A   1      32.237  28.565  21.236  1.00  0.00     0.167 HD
ATOM     15  C   UNL A   1      29.880  30.055  21.776  1.00  0.00     0.047 A 
ATOM     16  C   UNL A   1      27.906  29.594  23.118  1.00  0.00     0.021 A 
ATOM     17  C   UNL A   1      28.623  30.424  22.263  1.00  0.00     0.043 A 
ATOM     18  Cl  UNL A   1      27.947  31.935  21.786  1.00  0.00    -0.084 Cl
BRANCH   9  19
ATOM     19  C   UNL A   1      32.894  26.134  22.446  1.00  0.00     0.227 C 
ATOM     20  O   UNL A   1      33.568  26.029  21.425  1.00  0.00    -0.285 OA
BRANCH  19  21
ATOM     21  C   UNL A   1      33.276  25.301  23.623  1.00  0.00     0.113 A 
ATOM     22  C   UNL A   1      33.171  23.914  23.558  1.00  0.00     0.036 A 
ATOM     23  N   UNL A   1      33.715  25.976  24.712  1.00  0.00    -0.252 NA
ATOM     24  C   UNL A   1      33.549  23.163  24.675  1.00  0.00    -0.041 A 
ATOM     25  C   UNL A   1      34.101  25.226  25.768  1.00  0.00     0.115 A 
ATOM     26  C   UNL A   1      34.023  23.835  25.812  1.00  0.00    -0.026 A 
ATOM     27  C   UNL A   1      33.398  21.662  24.656  1.00  0.00     0.036 C 
ATOM     28  C   UNL A   1      34.525  23.092  27.023  1.00  0.00     0.037 C 
ATOM     29  C   UNL A   1      34.200  20.958  25.749  1.00  0.00     0.005 C 
ATOM     30  C   UNL A   1      34.012  21.655  27.092  1.00  0.00     0.005 C 
ENDBRANCH  19  21
ENDBRANCH   9  19
ENDBRANCH   7   8
ENDBRANCH   5   7
ENDBRANCH   2   3
ENDBRANCH   1   2
BRANCH   1  31
ATOM     31  C   UNL A   1      31.736  29.771  26.596  1.00  0.00     0.023 C 
BRANCH  31  32
ATOM     32  C   UNL A   1      32.787  30.791  26.174  1.00  0.00     0.116 C 
BRANCH  32  33
ATOM     33  N   UNL A   1      32.607  32.099  26.787  1.00  0.00    -0.352 N 
ATOM     34  C   UNL A   1      33.427  32.764  27.673  1.00  0.00     0.251 C 
ATOM     35  H   UNL A   1      31.783  32.575  26.533  1.00  0.00     0.163 HD
ATOM     36  O   UNL A   1      33.058  33.822  28.173  1.00  0.00    -0.269 OA
BRANCH  34  37
ATOM     37  C   UNL A   1      34.731  32.172  28.054  1.00  0.00     0.039 A 
ATOM     38  C   UNL A   1      34.828  30.830  28.428  1.00  0.00     0.014 A 
ATOM     39  C   UNL A   1      35.867  32.987  28.080  1.00  0.00     0.014 A 
ATOM     40  C   UNL A   1      36.005  30.357  28.999  1.00  0.00     0.010 A 
ATOM     41  C   UNL A   1      37.073  32.485  28.579  1.00  0.00     0.010 A 
ATOM     42  C   UNL A   1      37.137  31.184  29.101  1.00  0.00    -0.014 A 
BRANCH  42  43
ATOM     43  C   UNL A   1      38.361  30.670  29.773  1.00  0.00     0.031 A 
ATOM     44  C   UNL A   1      38.693  31.075  31.187  1.00  0.00     0.074 A 
ATOM     45  C   UNL A   1      39.144  29.782  29.131  1.00  0.00     0.049 A 
ATOM     46  N   UNL A   1      39.680  30.673  31.947  1.00  0.00    -0.248 NA
ATOM     47  C   UNL A   1      37.806  32.056  31.832  1.00  0.00     0.031 C 
ATOM     48  C   UNL A   1      38.924  29.315  27.763  1.00  0.00     0.029 A 
ATOM     49  N   UNL A   1      40.262  29.097  29.542  1.00  0.00    -0.354 N 
ATOM     50  C   UNL A   1      39.543  31.358  33.149  1.00  0.00     0.074 A 
ATOM     51  C   UNL A   1      38.397  32.229  33.007  1.00  0.00     0.031 C 
ATOM     52  C   UNL A   1      39.841  28.383  27.465  1.00  0.00     0.029 A 
ATOM     53  C   UNL A   1      40.755  28.229  28.595  1.00  0.00     0.049 A 
ATOM     54  H   UNL A   1      40.671  29.217  30.429  1.00  0.00     0.167 HD
ATOM     55  C   UNL A   1      40.292  31.256  34.274  1.00  0.00     0.034 A 
ATOM     56  C   UNL A   1      41.823  27.406  28.624  1.00  0.00     0.034 A 
ATOM     57  C   UNL A   1      41.420  30.372  34.413  1.00  0.00     0.049 A 
ATOM     58  C   UNL A   1      42.657  27.333  29.875  1.00  0.00     0.074 A 
ATOM     59  C   UNL A   1      42.218  30.176  35.527  1.00  0.00     0.029 A 
ATOM     60  N   UNL A   1      41.912  29.539  33.420  1.00  0.00    -0.354 N 
ATOM     61  N   UNL A   1      42.476  27.946  31.021  1.00  0.00    -0.248 NA
ATOM     62  C   UNL A   1      43.840  26.460  29.844  1.00  0.00     0.031 C 
ATOM     63  C   UNL A   1      43.221  29.266  35.193  1.00  0.00     0.029 A 
ATOM     64  C   UNL A   1      43.015  28.844  33.889  1.00  0.00     0.049 A 
ATOM     65  H   UNL A   1      41.533  29.454  32.515  1.00  0.00     0.167 HD
ATOM     66  C   UNL A   1      43.511  27.523  31.851  1.00  0.00     0.074 A 
ATOM     67  C   UNL A   1      44.298  26.579  31.084  1.00  0.00     0.031 C 
ATOM     68  C   UNL A   1      43.788  27.893  33.126  1.00  0.00     0.034 A 
BRANCH  55  69
ATOM     69  C   UNL A   1      39.920  32.102  35.467  1.00  0.00     0.023 A 
ATOM     70  C   UNL A   1      39.021  31.606  36.430  1.00  0.00     0.031 A 
ATOM     71  C   UNL A   1      40.351  33.435  35.580  1.00  0.00     0.131 A 
ATOM     72  C   UNL A   1      38.559  32.451  37.448  1.00  0.00     0.055 A 
ATOM     73  C   UNL A   1      39.914  34.261  36.617  1.00  0.00     0.041 A 
ATOM     74  F   UNL A   1      41.207  33.953  34.684  1.00  0.00    -0.206 F 
ATOM     75  C   UNL A   1      39.004  33.773  37.550  1.00  0.00     0.022 A 
BRANCH  72  76
ATOM     76  S   UNL A   1      37.316  31.888  38.644  1.00  0.00     0.124 S 
ATOM     77  O   UNL A   1      37.165  30.481  38.279  1.00  0.00    -0.237 OA
ATOM     78  O   UNL A   1      37.984  32.135  39.918  1.00  0.00    -0.237 OA
ATOM     79  O   UNL A   1      36.156  32.728  38.366  1.00  0.00    -0.744 OA
ENDBRANCH  72  76
ENDBRANCH  55  69
BRANCH  56  80
ATOM     80  C   UNL A   1      42.114  26.555  27.433  1.00  0.00     0.023 A 
ATOM     81  C   UNL A   1      41.667  25.223  27.371  1.00  0.00     0.031 A 
ATOM     82  C   UNL A   1      42.939  27.025  26.398  1.00  0.00     0.131 A 
ATOM     83  C   UNL A   1      42.113  24.385  26.340  1.00  0.00     0.055 A 
ATOM     84  C   UNL A   1      43.321  26.208  25.334  1.00  0.00     0.041 A 
ATOM     85  F   UNL A   1      43.402  28.284  26.423  1.00  0.00    -0.206 F 
ATOM     86  C   UNL A   1      42.924  24.874  25.312  1.00  0.00     0.022 A 
BRANCH  83  87
ATOM     87  S   UNL A   1      41.783  22.602  26.388  1.00  0.00     0.124 S 
ATOM     88  O   UNL A   1      42.392  22.216  27.657  1.00  0.00    -0.237 OA
ATOM     89  O   UNL A   1      40.321  22.569  26.352  1.00  0.00    -0.237 OA
ATOM     90  O   UNL A   1      42.442  22.098  25.188  1.00  0.00    -0.744 OA
ENDBRANCH  83  87
ENDBRANCH  56  80
BRANCH  68  91
ATOM     91  C   UNL A   1      44.990  27.289  33.809  1.00  0.00     0.023 A 
ATOM     92  C   UNL A   1      44.845  26.132  34.599  1.00  0.00     0.031 A 
ATOM     93  C   UNL A   1      46.236  27.937  33.801  1.00  0.00     0.131 A 
ATOM     94  C   UNL A   1      45.916  25.683  35.380  1.00  0.00     0.055 A 
ATOM     95  C   UNL A   1      47.314  27.462  34.549  1.00  0.00     0.041 A 
ATOM     96  F   UNL A   1      46.421  29.048  33.069  1.00  0.00    -0.206 F 
ATOM     97  C   UNL A   1      47.152  26.338  35.356  1.00  0.00     0.022 A 
BRANCH  94  98
ATOM     98  S   UNL A   1      45.721  24.286  36.521  1.00  0.00     0.124 S 
ATOM     99  O   UNL A   1      44.957  24.891  37.610  1.00  0.00    -0.237 OA
ATOM    100  O   UNL A   1      44.988  23.322  35.705  1.00  0.00    -0.237 OA
ATOM    101  O   UNL A   1      47.090  23.912  36.857  1.00  0.00    -0.744 OA
ENDBRANCH  94  98
ENDBRANCH  68  91
ENDBRANCH  42  43
ENDBRANCH  34  37
ENDBRANCH  32  33
ENDBRANCH  31  32
ENDBRANCH   1  31
TORSDOF 17
ENDMDL
MODEL 3
REMARK VINA RESULT:     -13.2      2.090      7.643
REMARK SMILES O=C(Cc1c(C(=O)c2cc3c(cn2)CCCC3)[nH]c2cc(Cl)ccc12)NCCCCNC(=O)c1ccc(-c2c3nc(c(-c4cc(S(=O)(=O)[O-])ccc4F)c4ccc([nH]4)c(-c4cc(S(=O)(=O)[O-])ccc4F)c4nc(c(-c5cc(S(=O)(=O)[O-])ccc5F)c5ccc2[nH]5)C=C4)C=C3)cc1
REMARK SMILES IDX 28 1 27 2 26 3 1 4 2 5 3 7 4 8 5 9 25 10 18 11 19 12 24 13
REMARK SMILES IDX 20 15 23 16 21 17 22 18 6 19 7 20 8 21 9 22 13 23 10 24
REMARK SMILES IDX 12 25 11 26 17 27 14 28 16 29 15 30 29 31 30 32 31 33 32 34
REMARK SMILES IDX 33 36 34 37 35 38 96 39 36 40 95 41 37 42 38 43 39 44 89 45
REMARK SMILES IDX 40 46 94 47 88 48 90 49 41 50 93 51 87 52 86 53 42 55 74 56
REMARK SMILES IDX 54 57 73 58 55 59 58 60 72 61 91 62 56 63 57 64 71 66 92 67
REMARK SMILES IDX 59 68 43 69 44 70 52 71 45 72 51 73 53 74 50 75 46 76 47 77
REMARK SMILES IDX 48 78 49 79 75 80 76 81 84 82 77 83 83 84 85 85 82 86 78 87
REMARK SMILES IDX 79 88 80 89 81 90 60 91 61 92 69 93 62 94 68 95 70 96 67 97
REMARK SMILES IDX 63 98 64 99 65 100 66 101
REMARK H PARENT 26 6 18 14 31 35 90 54 58 65
REMARK Flexibility Score: inf
ROOT
ATOM      1  C   UNL A   1      32.138  30.012  27.093  1.00  0.00     0.023 C 
ENDROOT
BRANCH   1   2
ATOM      2  C   UNL A   1      31.747  29.144  25.898  1.00  0.00     0.116 C 
BRANCH   2   3
ATOM      3  N   UNL A   1      32.720  28.107  25.623  1.00  0.00    -0.356 N 
ATOM      4  O   UNL A   1      31.676  26.458  26.836  1.00  0.00    -0.275 OA
ATOM      5  C   UNL A   1      32.592  26.819  26.100  1.00  0.00     0.224 C 
ATOM      6  H   UNL A   1      33.505  28.331  25.073  1.00  0.00     0.163 HD
BRANCH   5   7
ATOM      7  C   UNL A   1      33.700  25.872  25.666  1.00  0.00     0.138 C 
BRANCH   7   8
ATOM      8  C   UNL A   1      33.195  24.690  24.879  1.00  0.00    -0.002 A 
ATOM      9  C   UNL A   1      32.653  24.692  23.588  1.00  0.00     0.093 A 
ATOM     10  C   UNL A   1      33.220  23.326  25.332  1.00  0.00     0.004 A 
ATOM     11  N   UNL A   1      32.428  23.371  23.255  1.00  0.00    -0.351 N 
ATOM     12  C   UNL A   1      32.719  22.535  24.304  1.00  0.00     0.048 A 
ATOM     13  C   UNL A   1      33.628  22.695  26.526  1.00  0.00     0.012 A 
ATOM     14  H   UNL A   1      32.100  23.069  22.378  1.00  0.00     0.167 HD
ATOM     15  C   UNL A   1      32.592  21.143  24.406  1.00  0.00     0.047 A 
ATOM     16  C   UNL A   1      33.502  21.306  26.654  1.00  0.00     0.021 A 
ATOM     17  C   UNL A   1      32.990  20.548  25.607  1.00  0.00     0.043 A 
ATOM     18  Cl  UNL A   1      32.848  18.841  25.788  1.00  0.00    -0.084 Cl
BRANCH   9  19
ATOM     19  C   UNL A   1      32.396  25.828  22.701  1.00  0.00     0.227 C 
ATOM     20  O   UNL A   1      33.192  26.203  21.845  1.00  0.00    -0.285 OA
BRANCH  19  21
ATOM     21  C   UNL A   1      31.128  26.598  22.859  1.00  0.00     0.113 A 
ATOM     22  C   UNL A   1      31.018  27.877  22.322  1.00  0.00     0.036 A 
ATOM     23  N   UNL A   1      30.136  25.975  23.539  1.00  0.00    -0.252 NA
ATOM     24  C   UNL A   1      29.811  28.565  22.478  1.00  0.00    -0.041 A 
ATOM     25  C   UNL A   1      28.970  26.649  23.651  1.00  0.00     0.115 A 
ATOM     26  C   UNL A   1      28.760  27.938  23.164  1.00  0.00    -0.026 A 
ATOM     27  C   UNL A   1      29.677  29.974  21.954  1.00  0.00     0.036 C 
ATOM     28  C   UNL A   1      27.405  28.582  23.303  1.00  0.00     0.037 C 
ATOM     29  C   UNL A   1      28.227  30.442  21.837  1.00  0.00     0.005 C 
ATOM     30  C   UNL A   1      27.444  30.095  23.098  1.00  0.00     0.005 C 
ENDBRANCH  19  21
ENDBRANCH   9  19
ENDBRANCH   7   8
ENDBRANCH   5   7
ENDBRANCH   2   3
ENDBRANCH   1   2
BRANCH   1  31
ATOM     31  C   UNL A   1      31.946  31.517  26.893  1.00  0.00     0.023 C 
BRANCH  31  32
ATOM     32  C   UNL A   1      33.112  32.396  27.332  1.00  0.00     0.116 C 
BRANCH  32  33
ATOM     33  N   UNL A   1      32.726  33.765  27.640  1.00  0.00    -0.352 N 
ATOM     34  C   UNL A   1      33.204  34.602  28.624  1.00  0.00     0.251 C 
ATOM     35  H   UNL A   1      32.024  34.145  27.063  1.00  0.00     0.163 HD
ATOM     36  O   UNL A   1      32.678  35.697  28.805  1.00  0.00    -0.269 OA
BRANCH  34  37
ATOM     37  C   UNL A   1      34.319  34.157  29.492  1.00  0.00     0.039 A 
ATOM     38  C   UNL A   1      35.647  34.394  29.132  1.00  0.00     0.014 A 
ATOM     39  C   UNL A   1      34.029  33.451  30.664  1.00  0.00     0.014 A 
ATOM     40  C   UNL A   1      36.674  33.772  29.835  1.00  0.00     0.010 A 
ATOM     41  C   UNL A   1      35.069  32.895  31.417  1.00  0.00     0.010 A 
ATOM     42  C   UNL A   1      36.397  32.997  30.975  1.00  0.00    -0.014 A 
BRANCH  42  43
ATOM     43  C   UNL A   1      37.509  32.293  31.670  1.00  0.00     0.031 A 
ATOM     44  C   UNL A   1      38.245  31.163  30.998  1.00  0.00     0.074 A 
ATOM     45  C   UNL A   1      37.901  32.717  32.887  1.00  0.00     0.049 A 
ATOM     46  N   UNL A   1      39.278  30.484  31.429  1.00  0.00    -0.248 NA
ATOM     47  C   UNL A   1      37.764  30.738  29.674  1.00  0.00     0.031 C 
ATOM     48  C   UNL A   1      37.266  33.801  33.635  1.00  0.00     0.029 A 
ATOM     49  N   UNL A   1      38.933  32.311  33.697  1.00  0.00    -0.354 N 
ATOM     50  C   UNL A   1      39.561  29.547  30.441  1.00  0.00     0.074 A 
ATOM     51  C   UNL A   1      38.569  29.720  29.403  1.00  0.00     0.031 C 
ATOM     52  C   UNL A   1      37.951  34.011  34.768  1.00  0.00     0.029 A 
ATOM     53  C   UNL A   1      39.038  33.037  34.861  1.00  0.00     0.049 A 
ATOM     54  H   UNL A   1      39.540  31.572  33.467  1.00  0.00     0.167 HD
ATOM     55  C   UNL A   1      40.566  28.638  30.396  1.00  0.00     0.034 A 
ATOM     56  C   UNL A   1      39.901  32.933  35.892  1.00  0.00     0.034 A 
ATOM     57  C   UNL A   1      41.560  28.485  31.426  1.00  0.00     0.049 A 
ATOM     58  C   UNL A   1      40.990  31.895  35.831  1.00  0.00     0.074 A 
ATOM     59  C   UNL A   1      42.637  27.616  31.450  1.00  0.00     0.029 A 
ATOM     60  N   UNL A   1      41.609  29.212  32.606  1.00  0.00    -0.354 N 
ATOM     61  N   UNL A   1      41.276  31.058  34.862  1.00  0.00    -0.248 NA
ATOM     62  C   UNL A   1      41.877  31.784  36.999  1.00  0.00     0.031 C 
ATOM     63  C   UNL A   1      43.304  27.779  32.665  1.00  0.00     0.029 A 
ATOM     64  C   UNL A   1      42.683  28.794  33.375  1.00  0.00     0.049 A 
ATOM     65  H   UNL A   1      40.973  29.920  32.860  1.00  0.00     0.167 HD
ATOM     66  C   UNL A   1      42.381  30.331  35.296  1.00  0.00     0.074 A 
ATOM     67  C   UNL A   1      42.731  30.848  36.602  1.00  0.00     0.031 C 
ATOM     68  C   UNL A   1      43.038  29.322  34.671  1.00  0.00     0.034 A 
BRANCH  55  69
ATOM     69  C   UNL A   1      40.671  27.739  29.189  1.00  0.00     0.023 A 
ATOM     70  C   UNL A   1      41.585  28.041  28.162  1.00  0.00     0.031 A 
ATOM     71  C   UNL A   1      39.783  26.666  28.998  1.00  0.00     0.131 A 
ATOM     72  C   UNL A   1      41.568  27.296  26.976  1.00  0.00     0.055 A 
ATOM     73  C   UNL A   1      39.795  25.904  27.828  1.00  0.00     0.041 A 
ATOM     74  F   UNL A   1      38.893  26.341  29.949  1.00  0.00    -0.206 F 
ATOM     75  C   UNL A   1      40.683  26.225  26.806  1.00  0.00     0.022 A 
BRANCH  72  76
ATOM     76  S   UNL A   1      42.651  27.720  25.583  1.00  0.00     0.124 S 
ATOM     77  O   UNL A   1      42.001  28.916  25.053  1.00  0.00    -0.237 OA
ATOM     78  O   UNL A   1      43.930  27.947  26.250  1.00  0.00    -0.237 OA
ATOM     79  O   UNL A   1      42.589  26.545  24.720  1.00  0.00    -0.744 OA
ENDBRANCH  72  76
ENDBRANCH  55  69
BRANCH  56  80
ATOM     80  C   UNL A   1      39.780  33.882  37.037  1.00  0.00     0.023 A 
ATOM     81  C   UNL A   1      39.236  33.465  38.266  1.00  0.00     0.031 A 
ATOM     82  C   UNL A   1      40.098  35.241  36.881  1.00  0.00     0.131 A 
ATOM     83  C   UNL A   1      38.953  34.412  39.259  1.00  0.00     0.055 A 
ATOM     84  C   UNL A   1      39.882  36.169  37.901  1.00  0.00     0.041 A 
ATOM     85  F   UNL A   1      40.605  35.687  35.721  1.00  0.00    -0.206 F 
ATOM     86  C   UNL A   1      39.287  35.758  39.090  1.00  0.00     0.022 A 
BRANCH  83  87
ATOM     87  S   UNL A   1      38.000  33.950  40.732  1.00  0.00     0.124 S 
ATOM     88  O   UNL A   1      36.869  33.235  40.149  1.00  0.00    -0.237 OA
ATOM     89  O   UNL A   1      38.962  33.125  41.461  1.00  0.00    -0.237 OA
ATOM     90  O   UNL A   1      37.687  35.232  41.354  1.00  0.00    -0.744 OA
ENDBRANCH  83  87
ENDBRANCH  56  80
BRANCH  68  91
ATOM     91  C   UNL A   1      44.215  28.685  35.367  1.00  0.00     0.023 A 
ATOM     92  C   UNL A   1      44.006  27.652  36.301  1.00  0.00     0.031 A 
ATOM     93  C   UNL A   1      45.514  29.199  35.222  1.00  0.00     0.131 A 
ATOM     94  C   UNL A   1      45.073  27.193  37.083  1.00  0.00     0.055 A 
ATOM     95  C   UNL A   1      46.584  28.709  35.973  1.00  0.00     0.041 A 
ATOM     96  F   UNL A   1      45.761  30.190  34.350  1.00  0.00    -0.206 F 
ATOM     97  C   UNL A   1      46.362  27.712  36.920  1.00  0.00     0.022 A 
BRANCH  94  98
ATOM     98  S   UNL A   1      44.813  25.969  38.396  1.00  0.00     0.124 S 
ATOM     99  O   UNL A   1      44.186  26.777  39.440  1.00  0.00    -0.237 OA
ATOM    100  O   UNL A   1      43.935  25.000  37.745  1.00  0.00    -0.237 OA
ATOM    101  O   UNL A   1      46.156  25.491  38.704  1.00  0.00    -0.744 OA
ENDBRANCH  94  98
ENDBRANCH  68  91
ENDBRANCH  42  43
ENDBRANCH  34  37
ENDBRANCH  32  33
ENDBRANCH  31  32
ENDBRANCH   1  31
TORSDOF 17
ENDMDL
