MODEL 1
REMARK VINA RESULT:     -10.4      0.000      0.000
REMARK SMILES CSc1ncccc1C(=O)NCCCC(=O)NCCCCNC(=O)c1ccc(-c2c3nc(c(-c4cc(S(=O)(=O)[O-])ccc4F)c4ccc([nH]4)c(-c4cc(S(=O)(=O)[O-])ccc4F)c4nc(c(-c5cc(S(=O)(=O)[O-])ccc5F)c5ccc2[nH]5)C=C4)C=C3)cc1
REMARK SMILES IDX 18 1 17 2 15 3 16 4 14 6 13 7 12 8 11 9 9 10 10 11 8 13 3 14
REMARK SMILES IDX 4 15 5 16 7 17 6 18 2 19 1 20 19 21 20 22 21 23 22 24 23 25
REMARK SMILES IDX 24 27 25 28 26 29 87 30 27 31 86 32 28 33 29 34 30 35 80 36
REMARK SMILES IDX 31 37 85 38 79 39 81 40 32 41 84 42 78 43 77 44 33 46 65 47
REMARK SMILES IDX 45 48 64 49 46 50 49 51 63 52 82 53 47 54 48 55 62 57 83 58
REMARK SMILES IDX 50 59 34 60 35 61 43 62 36 63 42 64 44 65 41 66 37 67 38 68
REMARK SMILES IDX 39 69 40 70 66 71 67 72 75 73 68 74 74 75 76 76 73 77 69 78
REMARK SMILES IDX 70 79 71 80 72 81 51 82 52 83 60 84 53 85 59 86 61 87 58 88
REMARK SMILES IDX 54 89 55 90 56 91 57 92
REMARK H PARENT 17 5 11 12 22 26 81 45 49 56
REMARK Flexibility Score: inf
ROOT
ATOM      1  C   UNL A   1      34.102  24.843  24.605  1.00  0.00     0.116 C 
ENDROOT
BRANCH   1   2
ATOM      2  N   UNL A   1      33.025  24.849  23.632  1.00  0.00    -0.356 N 
ATOM      3  C   UNL A   1      32.820  25.661  22.559  1.00  0.00     0.220 C 
ATOM      4  O   UNL A   1      31.745  25.591  21.961  1.00  0.00    -0.275 OA
ATOM      5  H   UNL A   1      32.337  24.158  23.767  1.00  0.00     0.163 HD
BRANCH   3   6
ATOM      6  C   UNL A   1      33.901  26.614  22.093  1.00  0.00     0.102 C 
BRANCH   6   7
ATOM      7  C   UNL A   1      33.608  28.092  22.380  1.00  0.00     0.031 C 
BRANCH   7   8
ATOM      8  C   UNL A   1      34.141  28.647  23.704  1.00  0.00     0.116 C 
BRANCH   8   9
ATOM      9  N   UNL A   1      33.246  29.601  24.331  1.00  0.00    -0.352 N 
ATOM     10  C   UNL A   1      32.067  29.458  25.023  1.00  0.00     0.254 C 
ATOM     11  O   UNL A   1      31.704  30.424  25.690  1.00  0.00    -0.269 OA
ATOM     12  H   UNL A   1      33.541  30.537  24.244  1.00  0.00     0.163 HD
BRANCH  10  13
ATOM     13  C   UNL A   1      31.261  28.213  25.001  1.00  0.00     0.072 A 
ATOM     14  C   UNL A   1      30.270  28.000  24.029  1.00  0.00     0.108 A 
ATOM     15  N   UNL A   1      29.507  26.869  24.005  1.00  0.00    -0.249 NA
ATOM     16  C   UNL A   1      29.692  25.953  24.975  1.00  0.00     0.112 A 
ATOM     17  C   UNL A   1      31.400  27.248  26.007  1.00  0.00     0.018 A 
ATOM     18  C   UNL A   1      30.616  26.098  25.988  1.00  0.00     0.021 A 
BRANCH  14  19
ATOM     19  S   UNL A   1      29.931  29.116  22.669  1.00  0.00    -0.109 SA
ATOM     20  C   UNL A   1      28.119  29.156  22.751  1.00  0.00     0.092 C 
ENDBRANCH  14  19
ENDBRANCH  10  13
ENDBRANCH   8   9
ENDBRANCH   7   8
ENDBRANCH   6   7
ENDBRANCH   3   6
ENDBRANCH   1   2
BRANCH   1  21
ATOM     21  C   UNL A   1      34.687  23.438  24.744  1.00  0.00     0.023 C 
BRANCH  21  22
ATOM     22  C   UNL A   1      35.514  23.224  26.008  1.00  0.00     0.023 C 
BRANCH  22  23
ATOM     23  C   UNL A   1      36.995  23.534  25.845  1.00  0.00     0.116 C 
BRANCH  23  24
ATOM     24  N   UNL A   1      37.857  22.386  26.083  1.00  0.00    -0.352 N 
ATOM     25  C   UNL A   1      39.170  22.385  26.501  1.00  0.00     0.251 C 
ATOM     26  H   UNL A   1      37.454  21.503  25.924  1.00  0.00     0.163 HD
ATOM     27  O   UNL A   1      39.811  21.344  26.540  1.00  0.00    -0.269 OA
BRANCH  25  28
ATOM     28  C   UNL A   1      39.800  23.677  26.851  1.00  0.00     0.039 A 
ATOM     29  C   UNL A   1      39.966  24.644  25.857  1.00  0.00     0.014 A 
ATOM     30  C   UNL A   1      40.144  23.955  28.176  1.00  0.00     0.014 A 
ATOM     31  C   UNL A   1      40.402  25.922  26.210  1.00  0.00     0.010 A 
ATOM     32  C   UNL A   1      40.491  25.250  28.537  1.00  0.00     0.010 A 
ATOM     33  C   UNL A   1      40.624  26.247  27.558  1.00  0.00    -0.014 A 
BRANCH  33  34
ATOM     34  C   UNL A   1      41.017  27.618  27.973  1.00  0.00     0.031 A 
ATOM     35  C   UNL A   1      42.464  28.026  27.914  1.00  0.00     0.074 A 
ATOM     36  C   UNL A   1      40.094  28.459  28.478  1.00  0.00     0.049 A 
ATOM     37  N   UNL A   1      43.035  29.125  28.332  1.00  0.00    -0.248 NA
ATOM     38  C   UNL A   1      43.395  27.040  27.345  1.00  0.00     0.031 C 
ATOM     39  C   UNL A   1      38.668  28.162  28.628  1.00  0.00     0.029 A 
ATOM     40  N   UNL A   1      40.220  29.735  28.966  1.00  0.00    -0.354 N 
ATOM     41  C   UNL A   1      44.395  28.955  28.096  1.00  0.00     0.074 A 
ATOM     42  C   UNL A   1      44.563  27.615  27.575  1.00  0.00     0.031 C 
ATOM     43  C   UNL A   1      38.047  29.238  29.138  1.00  0.00     0.029 A 
ATOM     44  C   UNL A   1      39.033  30.284  29.394  1.00  0.00     0.049 A 
ATOM     45  H   UNL A   1      41.079  30.214  29.006  1.00  0.00     0.167 HD
ATOM     46  C   UNL A   1      45.406  29.844  28.264  1.00  0.00     0.034 A 
ATOM     47  C   UNL A   1      38.773  31.489  29.935  1.00  0.00     0.034 A 
ATOM     48  C   UNL A   1      45.216  31.181  28.771  1.00  0.00     0.049 A 
ATOM     49  C   UNL A   1      39.911  32.456  30.140  1.00  0.00     0.074 A 
ATOM     50  C   UNL A   1      46.153  32.184  28.944  1.00  0.00     0.029 A 
ATOM     51  N   UNL A   1      43.996  31.702  29.192  1.00  0.00    -0.354 N 
ATOM     52  N   UNL A   1      41.188  32.296  29.878  1.00  0.00    -0.248 NA
ATOM     53  C   UNL A   1      39.569  33.766  30.706  1.00  0.00     0.031 C 
ATOM     54  C   UNL A   1      45.514  33.289  29.521  1.00  0.00     0.029 A 
ATOM     55  C   UNL A   1      44.164  33.001  29.645  1.00  0.00     0.049 A 
ATOM     56  H   UNL A   1      43.140  31.217  29.173  1.00  0.00     0.167 HD
ATOM     57  C   UNL A   1      41.797  33.500  30.218  1.00  0.00     0.074 A 
ATOM     58  C   UNL A   1      40.746  34.376  30.697  1.00  0.00     0.031 C 
ATOM     59  C   UNL A   1      43.105  33.855  30.132  1.00  0.00     0.034 A 
BRANCH  46  60
ATOM     60  C   UNL A   1      46.799  29.371  27.914  1.00  0.00     0.023 A 
ATOM     61  C   UNL A   1      47.150  29.042  26.591  1.00  0.00     0.031 A 
ATOM     62  C   UNL A   1      47.761  29.168  28.916  1.00  0.00     0.131 A 
ATOM     63  C   UNL A   1      48.379  28.422  26.325  1.00  0.00     0.055 A 
ATOM     64  C   UNL A   1      49.025  28.643  28.629  1.00  0.00     0.041 A 
ATOM     65  F   UNL A   1      47.483  29.444  30.200  1.00  0.00    -0.206 F 
ATOM     66  C   UNL A   1      49.331  28.244  27.331  1.00  0.00     0.022 A 
BRANCH  63  67
ATOM     67  S   UNL A   1      48.631  27.677  24.690  1.00  0.00     0.124 S 
ATOM     68  O   UNL A   1      49.946  28.201  24.328  1.00  0.00    -0.237 OA
ATOM     69  O   UNL A   1      48.569  26.250  24.981  1.00  0.00    -0.237 OA
ATOM     70  O   UNL A   1      47.521  28.204  23.900  1.00  0.00    -0.744 OA
ENDBRANCH  63  67
ENDBRANCH  46  60
BRANCH  47  71
ATOM     71  C   UNL A   1      37.381  31.861  30.309  1.00  0.00     0.023 A 
ATOM     72  C   UNL A   1      36.489  32.359  29.346  1.00  0.00     0.031 A 
ATOM     73  C   UNL A   1      36.926  31.744  31.634  1.00  0.00     0.131 A 
ATOM     74  C   UNL A   1      35.198  32.757  29.727  1.00  0.00     0.055 A 
ATOM     75  C   UNL A   1      35.627  32.102  32.000  1.00  0.00     0.041 A 
ATOM     76  F   UNL A   1      37.737  31.263  32.589  1.00  0.00    -0.206 F 
ATOM     77  C   UNL A   1      34.757  32.621  31.046  1.00  0.00     0.022 A 
BRANCH  74  78
ATOM     78  S   UNL A   1      34.117  33.509  28.480  1.00  0.00     0.124 S 
ATOM     79  O   UNL A   1      33.259  34.355  29.301  1.00  0.00    -0.237 OA
ATOM     80  O   UNL A   1      35.076  34.203  27.626  1.00  0.00    -0.237 OA
ATOM     81  O   UNL A   1      33.459  32.359  27.864  1.00  0.00    -0.744 OA
ENDBRANCH  74  78
ENDBRANCH  47  71
BRANCH  59  82
ATOM     82  C   UNL A   1      43.455  35.269  30.523  1.00  0.00     0.023 A 
ATOM     83  C   UNL A   1      43.407  36.327  29.598  1.00  0.00     0.031 A 
ATOM     84  C   UNL A   1      43.850  35.558  31.842  1.00  0.00     0.131 A 
ATOM     85  C   UNL A   1      43.798  37.616  29.993  1.00  0.00     0.055 A 
ATOM     86  C   UNL A   1      44.184  36.851  32.242  1.00  0.00     0.041 A 
ATOM     87  F   UNL A   1      43.914  34.583  32.764  1.00  0.00    -0.206 F 
ATOM     88  C   UNL A   1      44.171  37.887  31.313  1.00  0.00     0.022 A 
BRANCH  85  89
ATOM     89  S   UNL A   1      43.888  38.922  28.738  1.00  0.00     0.124 S 
ATOM     90  O   UNL A   1      43.713  40.127  29.542  1.00  0.00    -0.237 OA
ATOM     91  O   UNL A   1      45.217  38.721  28.172  1.00  0.00    -0.237 OA
ATOM     92  O   UNL A   1      42.779  38.611  27.838  1.00  0.00    -0.744 OA
ENDBRANCH  85  89
ENDBRANCH  59  82
ENDBRANCH  33  34
ENDBRANCH  25  28
ENDBRANCH  23  24
ENDBRANCH  22  23
ENDBRANCH  21  22
ENDBRANCH   1  21
TORSDOF 19
ENDMDL
MODEL 2
REMARK VINA RESULT:     -10.4      1.652      2.043
REMARK SMILES CSc1ncccc1C(=O)NCCCC(=O)NCCCCNC(=O)c1ccc(-c2c3nc(c(-c4cc(S(=O)(=O)[O-])ccc4F)c4ccc([nH]4)c(-c4cc(S(=O)(=O)[O-])ccc4F)c4nc(c(-c5cc(S(=O)(=O)[O-])ccc5F)c5ccc2[nH]5)C=C4)C=C3)cc1
REMARK SMILES IDX 18 1 17 2 15 3 16 4 14 6 13 7 12 8 11 9 9 10 10 11 8 13 3 14
REMARK SMILES IDX 4 15 5 16 7 17 6 18 2 19 1 20 19 21 20 22 21 23 22 24 23 25
REMARK SMILES IDX 24 27 25 28 26 29 87 30 27 31 86 32 28 33 29 34 30 35 80 36
REMARK SMILES IDX 31 37 85 38 79 39 81 40 32 41 84 42 78 43 77 44 33 46 65 47
REMARK SMILES IDX 45 48 64 49 46 50 49 51 63 52 82 53 47 54 48 55 62 57 83 58
REMARK SMILES IDX 50 59 34 60 35 61 43 62 36 63 42 64 44 65 41 66 37 67 38 68
REMARK SMILES IDX 39 69 40 70 66 71 67 72 75 73 68 74 74 75 76 76 73 77 69 78
REMARK SMILES IDX 70 79 71 80 72 81 51 82 52 83 60 84 53 85 59 86 61 87 58 88
REMARK SMILES IDX 54 89 55 90 56 91 57 92
REMARK H PARENT 17 5 11 12 22 26 81 45 49 56
REMARK Flexibility Score: inf
ROOT
ATOM      1  C   UNL A   1      35.249  23.164  23.311  1.00  0.00     0.116 C 
ENDROOT
BRANCH   1   2
ATOM      2  N   UNL A   1      33.863  23.323  22.912  1.00  0.00    -0.356 N 
ATOM      3  C   UNL A   1      33.070  24.428  22.925  1.00  0.00     0.220 C 
ATOM      4  O   UNL A   1      31.867  24.296  22.695  1.00  0.00    -0.275 OA
ATOM      5  H   UNL A   1      33.429  22.504  22.578  1.00  0.00     0.163 HD
BRANCH   3   6
ATOM      6  C   UNL A   1      33.658  25.799  23.193  1.00  0.00     0.102 C 
BRANCH   6   7
ATOM      7  C   UNL A   1      33.450  26.810  22.059  1.00  0.00     0.031 C 
BRANCH   7   8
ATOM      8  C   UNL A   1      33.496  28.290  22.449  1.00  0.00     0.116 C 
BRANCH   8   9
ATOM      9  N   UNL A   1      32.218  28.963  22.310  1.00  0.00    -0.352 N 
ATOM     10  C   UNL A   1      31.086  28.984  23.088  1.00  0.00     0.254 C 
ATOM     11  O   UNL A   1      30.283  29.886  22.860  1.00  0.00    -0.269 OA
ATOM     12  H   UNL A   1      32.148  29.514  21.497  1.00  0.00     0.163 HD
BRANCH  10  13
ATOM     13  C   UNL A   1      30.825  27.998  24.165  1.00  0.00     0.072 A 
ATOM     14  C   UNL A   1      31.439  28.108  25.423  1.00  0.00     0.108 A 
ATOM     15  N   UNL A   1      31.225  27.200  26.419  1.00  0.00    -0.249 NA
ATOM     16  C   UNL A   1      30.429  26.145  26.161  1.00  0.00     0.112 A 
ATOM     17  C   UNL A   1      30.027  26.870  23.931  1.00  0.00     0.018 A 
ATOM     18  C   UNL A   1      29.815  25.938  24.943  1.00  0.00     0.021 A 
BRANCH  14  19
ATOM     19  S   UNL A   1      32.499  29.467  25.915  1.00  0.00    -0.109 SA
ATOM     20  C   UNL A   1      33.825  28.538  26.735  1.00  0.00     0.092 C 
ENDBRANCH  14  19
ENDBRANCH  10  13
ENDBRANCH   8   9
ENDBRANCH   7   8
ENDBRANCH   6   7
ENDBRANCH   3   6
ENDBRANCH   1   2
BRANCH   1  21
ATOM     21  C   UNL A   1      35.347  22.283  24.557  1.00  0.00     0.023 C 
BRANCH  21  22
ATOM     22  C   UNL A   1      35.542  23.056  25.858  1.00  0.00     0.023 C 
BRANCH  22  23
ATOM     23  C   UNL A   1      36.982  23.465  26.132  1.00  0.00     0.116 C 
BRANCH  23  24
ATOM     24  N   UNL A   1      37.902  22.338  26.198  1.00  0.00    -0.352 N 
ATOM     25  C   UNL A   1      39.251  22.362  26.475  1.00  0.00     0.251 C 
ATOM     26  H   UNL A   1      37.511  21.452  26.022  1.00  0.00     0.163 HD
ATOM     27  O   UNL A   1      39.926  21.346  26.375  1.00  0.00    -0.269 OA
BRANCH  25  28
ATOM     28  C   UNL A   1      39.873  23.651  26.845  1.00  0.00     0.039 A 
ATOM     29  C   UNL A   1      39.971  24.659  25.883  1.00  0.00     0.014 A 
ATOM     30  C   UNL A   1      40.276  23.885  28.162  1.00  0.00     0.014 A 
ATOM     31  C   UNL A   1      40.401  25.931  26.265  1.00  0.00     0.010 A 
ATOM     32  C   UNL A   1      40.616  25.172  28.556  1.00  0.00     0.010 A 
ATOM     33  C   UNL A   1      40.683  26.209  27.612  1.00  0.00    -0.014 A 
BRANCH  33  34
ATOM     34  C   UNL A   1      41.070  27.570  28.062  1.00  0.00     0.031 A 
ATOM     35  C   UNL A   1      42.522  27.964  28.073  1.00  0.00     0.074 A 
ATOM     36  C   UNL A   1      40.134  28.415  28.535  1.00  0.00     0.049 A 
ATOM     37  N   UNL A   1      43.085  29.052  28.530  1.00  0.00    -0.248 NA
ATOM     38  C   UNL A   1      43.468  26.975  27.534  1.00  0.00     0.031 C 
ATOM     39  C   UNL A   1      38.699  28.131  28.617  1.00  0.00     0.029 A 
ATOM     40  N   UNL A   1      40.249  29.683  29.043  1.00  0.00    -0.354 N 
ATOM     41  C   UNL A   1      44.452  28.871  28.353  1.00  0.00     0.074 A 
ATOM     42  C   UNL A   1      44.630  27.535  27.824  1.00  0.00     0.031 C 
ATOM     43  C   UNL A   1      38.066  29.208  29.111  1.00  0.00     0.029 A 
ATOM     44  C   UNL A   1      39.050  30.239  29.424  1.00  0.00     0.049 A 
ATOM     45  H   UNL A   1      41.111  30.153  29.129  1.00  0.00     0.167 HD
ATOM     46  C   UNL A   1      45.463  29.747  28.578  1.00  0.00     0.034 A 
ATOM     47  C   UNL A   1      38.778  31.441  29.968  1.00  0.00     0.034 A 
ATOM     48  C   UNL A   1      45.263  31.080  29.093  1.00  0.00     0.049 A 
ATOM     49  C   UNL A   1      39.915  32.393  30.236  1.00  0.00     0.074 A 
ATOM     50  C   UNL A   1      46.201  32.071  29.320  1.00  0.00     0.029 A 
ATOM     51  N   UNL A   1      44.031  31.608  29.465  1.00  0.00    -0.354 N 
ATOM     52  N   UNL A   1      41.200  32.224  30.030  1.00  0.00    -0.248 NA
ATOM     53  C   UNL A   1      39.560  33.700  30.802  1.00  0.00     0.031 C 
ATOM     54  C   UNL A   1      45.548  33.175  29.881  1.00  0.00     0.029 A 
ATOM     55  C   UNL A   1      44.191  32.900  29.941  1.00  0.00     0.049 A 
ATOM     56  H   UNL A   1      43.172  31.133  29.401  1.00  0.00     0.167 HD
ATOM     57  C   UNL A   1      41.805  33.417  30.412  1.00  0.00     0.074 A 
ATOM     58  C   UNL A   1      40.742  34.298  30.854  1.00  0.00     0.031 C 
ATOM     59  C   UNL A   1      43.119  33.759  30.390  1.00  0.00     0.034 A 
BRANCH  46  60
ATOM     60  C   UNL A   1      46.866  29.264  28.285  1.00  0.00     0.023 A 
ATOM     61  C   UNL A   1      47.295  29.017  26.968  1.00  0.00     0.031 A 
ATOM     62  C   UNL A   1      47.756  28.968  29.331  1.00  0.00     0.131 A 
ATOM     63  C   UNL A   1      48.526  28.386  26.738  1.00  0.00     0.055 A 
ATOM     64  C   UNL A   1      49.024  28.432  29.089  1.00  0.00     0.041 A 
ATOM     65  F   UNL A   1      47.400  29.164  30.610  1.00  0.00    -0.206 F 
ATOM     66  C   UNL A   1      49.406  28.115  27.788  1.00  0.00     0.022 A 
BRANCH  63  67
ATOM     67  S   UNL A   1      48.868  27.748  25.074  1.00  0.00     0.124 S 
ATOM     68  O   UNL A   1      47.695  28.210  24.337  1.00  0.00    -0.237 OA
ATOM     69  O   UNL A   1      50.130  28.398  24.742  1.00  0.00    -0.237 OA
ATOM     70  O   UNL A   1      48.941  26.302  25.270  1.00  0.00    -0.744 OA
ENDBRANCH  63  67
ENDBRANCH  46  60
BRANCH  47  71
ATOM     71  C   UNL A   1      37.373  31.823  30.284  1.00  0.00     0.023 A 
ATOM     72  C   UNL A   1      36.528  32.333  29.286  1.00  0.00     0.031 A 
ATOM     73  C   UNL A   1      36.861  31.704  31.587  1.00  0.00     0.131 A 
ATOM     74  C   UNL A   1      35.226  32.740  29.612  1.00  0.00     0.055 A 
ATOM     75  C   UNL A   1      35.550  32.071  31.899  1.00  0.00     0.041 A 
ATOM     76  F   UNL A   1      37.625  31.211  32.574  1.00  0.00    -0.206 F 
ATOM     77  C   UNL A   1      34.727  32.602  30.910  1.00  0.00     0.022 A 
BRANCH  74  78
ATOM     78  S   UNL A   1      34.206  33.507  28.323  1.00  0.00     0.124 S 
ATOM     79  O   UNL A   1      33.445  34.487  29.089  1.00  0.00    -0.237 OA
ATOM     80  O   UNL A   1      35.216  34.044  27.417  1.00  0.00    -0.237 OA
ATOM     81  O   UNL A   1      33.431  32.387  27.793  1.00  0.00    -0.744 OA
ENDBRANCH  74  78
ENDBRANCH  47  71
BRANCH  59  82
ATOM     82  C   UNL A   1      43.465  35.164  30.814  1.00  0.00     0.023 A 
ATOM     83  C   UNL A   1      43.589  35.522  32.168  1.00  0.00     0.031 A 
ATOM     84  C   UNL A   1      43.664  36.163  29.843  1.00  0.00     0.131 A 
ATOM     85  C   UNL A   1      43.854  36.855  32.516  1.00  0.00     0.055 A 
ATOM     86  C   UNL A   1      43.982  37.475  30.194  1.00  0.00     0.041 A 
ATOM     87  F   UNL A   1      43.556  35.875  28.536  1.00  0.00    -0.206 F 
ATOM     88  C   UNL A   1      44.067  37.830  31.536  1.00  0.00     0.022 A 
BRANCH  85  89
ATOM     89  S   UNL A   1      43.839  37.318  34.269  1.00  0.00     0.124 S 
ATOM     90  O   UNL A   1      42.665  38.182  34.344  1.00  0.00    -0.237 OA
ATOM     91  O   UNL A   1      43.723  36.025  34.934  1.00  0.00    -0.237 OA
ATOM     92  O   UNL A   1      45.121  37.997  34.456  1.00  0.00    -0.744 OA
ENDBRANCH  85  89
ENDBRANCH  59  82
ENDBRANCH  33  34
ENDBRANCH  25  28
ENDBRANCH  23  24
ENDBRANCH  22  23
ENDBRANCH  21  22
ENDBRANCH   1  21
TORSDOF 19
ENDMDL
MODEL 3
REMARK VINA RESULT:     -10.3      3.047      8.615
REMARK SMILES CSc1ncccc1C(=O)NCCCC(=O)NCCCCNC(=O)c1ccc(-c2c3nc(c(-c4cc(S(=O)(=O)[O-])ccc4F)c4ccc([nH]4)c(-c4cc(S(=O)(=O)[O-])ccc4F)c4nc(c(-c5cc(S(=O)(=O)[O-])ccc5F)c5ccc2[nH]5)C=C4)C=C3)cc1
REMARK SMILES IDX 18 1 17 2 15 3 16 4 14 6 13 7 12 8 11 9 9 10 10 11 8 13 3 14
REMARK SMILES IDX 4 15 5 16 7 17 6 18 2 19 1 20 19 21 20 22 21 23 22 24 23 25
REMARK SMILES IDX 24 27 25 28 26 29 87 30 27 31 86 32 28 33 29 34 30 35 80 36
REMARK SMILES IDX 31 37 85 38 79 39 81 40 32 41 84 42 78 43 77 44 33 46 65 47
REMARK SMILES IDX 45 48 64 49 46 50 49 51 63 52 82 53 47 54 48 55 62 57 83 58
REMARK SMILES IDX 50 59 34 60 35 61 43 62 36 63 42 64 44 65 41 66 37 67 38 68
REMARK SMILES IDX 39 69 40 70 66 71 67 72 75 73 68 74 74 75 76 76 73 77 69 78
REMARK SMILES IDX 70 79 71 80 72 81 51 82 52 83 60 84 53 85 59 86 61 87 58 88
REMARK SMILES IDX 54 89 55 90 56 91 57 92
REMARK H PARENT 17 5 11 12 22 26 81 45 49 56
REMARK Flexibility Score: inf
ROOT
ATOM      1  C   UNL A   1      38.266  23.903  26.326  1.00  0.00     0.116 C 
ENDROOT
BRANCH   1   2
ATOM      2  N   UNL A   1      37.116  23.036  26.502  1.00  0.00    -0.356 N 
ATOM      3  C   UNL A   1      35.893  23.072  25.905  1.00  0.00     0.220 C 
ATOM      4  O   UNL A   1      35.006  22.331  26.330  1.00  0.00    -0.275 OA
ATOM      5  H   UNL A   1      37.239  22.307  27.152  1.00  0.00     0.163 HD
BRANCH   3   6
ATOM      6  C   UNL A   1      35.635  23.988  24.727  1.00  0.00     0.102 C 
BRANCH   6   7
ATOM      7  C   UNL A   1      34.610  23.450  23.721  1.00  0.00     0.031 C 
BRANCH   7   8
ATOM      8  C   UNL A   1      33.208  24.064  23.782  1.00  0.00     0.116 C 
BRANCH   8   9
ATOM      9  N   UNL A   1      32.631  24.050  25.114  1.00  0.00    -0.352 N 
ATOM     10  C   UNL A   1      32.137  25.042  25.927  1.00  0.00     0.254 C 
ATOM     11  O   UNL A   1      31.441  24.678  26.871  1.00  0.00    -0.269 OA
ATOM     12  H   UNL A   1      32.583  23.151  25.514  1.00  0.00     0.163 HD
BRANCH  10  13
ATOM     13  C   UNL A   1      32.397  26.483  25.693  1.00  0.00     0.072 A 
ATOM     14  C   UNL A   1      31.506  27.278  24.953  1.00  0.00     0.108 A 
ATOM     15  N   UNL A   1      31.738  28.600  24.714  1.00  0.00    -0.249 NA
ATOM     16  C   UNL A   1      32.884  29.141  25.172  1.00  0.00     0.112 A 
ATOM     17  C   UNL A   1      33.589  27.079  26.126  1.00  0.00     0.018 A 
ATOM     18  C   UNL A   1      33.831  28.427  25.875  1.00  0.00     0.021 A 
BRANCH  14  19
ATOM     19  S   UNL A   1      29.937  26.703  24.307  1.00  0.00    -0.109 SA
ATOM     20  C   UNL A   1      29.619  28.001  23.079  1.00  0.00     0.092 C 
ENDBRANCH  14  19
ENDBRANCH  10  13
ENDBRANCH   8   9
ENDBRANCH   7   8
ENDBRANCH   6   7
ENDBRANCH   3   6
ENDBRANCH   1   2
BRANCH   1  21
ATOM     21  C   UNL A   1      39.562  23.111  26.498  1.00  0.00     0.023 C 
BRANCH  21  22
ATOM     22  C   UNL A   1      39.453  21.638  26.117  1.00  0.00     0.023 C 
BRANCH  22  23
ATOM     23  C   UNL A   1      40.249  20.701  27.014  1.00  0.00     0.116 C 
BRANCH  23  24
ATOM     24  N   UNL A   1      41.105  19.782  26.278  1.00  0.00    -0.352 N 
ATOM     25  C   UNL A   1      42.354  20.025  25.751  1.00  0.00     0.251 C 
ATOM     26  H   UNL A   1      40.746  18.876  26.138  1.00  0.00     0.163 HD
ATOM     27  O   UNL A   1      42.907  19.192  25.047  1.00  0.00    -0.269 OA
BRANCH  25  28
ATOM     28  C   UNL A   1      42.988  21.336  26.015  1.00  0.00     0.039 A 
ATOM     29  C   UNL A   1      43.026  22.289  24.995  1.00  0.00     0.014 A 
ATOM     30  C   UNL A   1      43.462  21.643  27.292  1.00  0.00     0.014 A 
ATOM     31  C   UNL A   1      43.469  23.582  25.281  1.00  0.00     0.010 A 
ATOM     32  C   UNL A   1      43.815  22.951  27.596  1.00  0.00     0.010 A 
ATOM     33  C   UNL A   1      43.823  23.935  26.594  1.00  0.00    -0.014 A 
BRANCH  33  34
ATOM     34  C   UNL A   1      44.226  25.320  26.945  1.00  0.00     0.031 A 
ATOM     35  C   UNL A   1      43.205  26.271  27.507  1.00  0.00     0.074 A 
ATOM     36  C   UNL A   1      45.477  25.744  26.684  1.00  0.00     0.049 A 
ATOM     37  N   UNL A   1      43.314  27.546  27.774  1.00  0.00    -0.248 NA
ATOM     38  C   UNL A   1      41.867  25.714  27.761  1.00  0.00     0.031 C 
ATOM     39  C   UNL A   1      46.544  24.929  26.098  1.00  0.00     0.029 A 
ATOM     40  N   UNL A   1      46.062  26.970  26.869  1.00  0.00    -0.354 N 
ATOM     41  C   UNL A   1      42.055  27.949  28.206  1.00  0.00     0.074 A 
ATOM     42  C   UNL A   1      41.185  26.799  28.085  1.00  0.00     0.031 C 
ATOM     43  C   UNL A   1      47.662  25.668  26.007  1.00  0.00     0.029 A 
ATOM     44  C   UNL A   1      47.381  27.019  26.482  1.00  0.00     0.049 A 
ATOM     45  H   UNL A   1      45.583  27.744  27.245  1.00  0.00     0.167 HD
ATOM     46  C   UNL A   1      41.668  29.155  28.691  1.00  0.00     0.034 A 
ATOM     47  C   UNL A   1      48.260  28.039  26.503  1.00  0.00     0.034 A 
ATOM     48  C   UNL A   1      42.555  30.286  28.817  1.00  0.00     0.049 A 
ATOM     49  C   UNL A   1      47.808  29.380  27.021  1.00  0.00     0.074 A 
ATOM     50  C   UNL A   1      42.291  31.542  29.334  1.00  0.00     0.029 A 
ATOM     51  N   UNL A   1      43.887  30.296  28.416  1.00  0.00    -0.354 N 
ATOM     52  N   UNL A   1      46.624  29.739  27.462  1.00  0.00    -0.248 NA
ATOM     53  C   UNL A   1      48.813  30.449  27.050  1.00  0.00     0.031 C 
ATOM     54  C   UNL A   1      43.442  32.328  29.193  1.00  0.00     0.029 A 
ATOM     55  C   UNL A   1      44.447  31.542  28.651  1.00  0.00     0.049 A 
ATOM     56  H   UNL A   1      44.362  29.530  28.020  1.00  0.00     0.167 HD
ATOM     57  C   UNL A   1      46.753  31.068  27.851  1.00  0.00     0.074 A 
ATOM     58  C   UNL A   1      48.129  31.443  27.598  1.00  0.00     0.031 C 
ATOM     59  C   UNL A   1      45.820  31.902  28.380  1.00  0.00     0.034 A 
BRANCH  46  60
ATOM     60  C   UNL A   1      40.217  29.298  29.092  1.00  0.00     0.023 A 
ATOM     61  C   UNL A   1      39.829  29.303  30.445  1.00  0.00     0.031 A 
ATOM     62  C   UNL A   1      39.205  29.348  28.120  1.00  0.00     0.131 A 
ATOM     63  C   UNL A   1      38.469  29.238  30.784  1.00  0.00     0.055 A 
ATOM     64  C   UNL A   1      37.852  29.385  28.467  1.00  0.00     0.041 A 
ATOM     65  F   UNL A   1      39.509  29.328  26.813  1.00  0.00    -0.206 F 
ATOM     66  C   UNL A   1      37.476  29.306  29.806  1.00  0.00     0.022 A 
BRANCH  63  67
ATOM     67  S   UNL A   1      38.029  28.864  32.505  1.00  0.00     0.124 S 
ATOM     68  O   UNL A   1      38.182  27.411  32.537  1.00  0.00    -0.237 OA
ATOM     69  O   UNL A   1      39.019  29.628  33.255  1.00  0.00    -0.237 OA
ATOM     70  O   UNL A   1      36.653  29.341  32.617  1.00  0.00    -0.744 OA
ENDBRANCH  63  67
ENDBRANCH  46  60
BRANCH  47  71
ATOM     71  C   UNL A   1      49.660  27.836  26.035  1.00  0.00     0.023 A 
ATOM     72  C   UNL A   1      50.016  28.106  24.704  1.00  0.00     0.031 A 
ATOM     73  C   UNL A   1      50.655  27.353  26.902  1.00  0.00     0.131 A 
ATOM     74  C   UNL A   1      51.326  27.858  24.266  1.00  0.00     0.055 A 
ATOM     75  C   UNL A   1      51.968  27.147  26.472  1.00  0.00     0.041 A 
ATOM     76  F   UNL A   1      50.368  27.091  28.186  1.00  0.00    -0.206 F 
ATOM     77  C   UNL A   1      52.307  27.391  25.144  1.00  0.00     0.022 A 
BRANCH  74  78
ATOM     78  S   UNL A   1      51.717  28.103  22.513  1.00  0.00     0.124 S 
ATOM     79  O   UNL A   1      51.795  26.729  22.030  1.00  0.00    -0.237 OA
ATOM     80  O   UNL A   1      50.570  28.881  22.052  1.00  0.00    -0.237 OA
ATOM     81  O   UNL A   1      52.985  28.829  22.545  1.00  0.00    -0.744 OA
ENDBRANCH  74  78
ENDBRANCH  47  71
BRANCH  59  82
ATOM     82  C   UNL A   1      46.281  33.285  28.763  1.00  0.00     0.023 A 
ATOM     83  C   UNL A   1      46.219  34.364  27.863  1.00  0.00     0.031 A 
ATOM     84  C   UNL A   1      46.799  33.524  30.049  1.00  0.00     0.131 A 
ATOM     85  C   UNL A   1      46.715  35.620  28.244  1.00  0.00     0.055 A 
ATOM     86  C   UNL A   1      47.239  34.788  30.440  1.00  0.00     0.041 A 
ATOM     87  F   UNL A   1      46.882  32.528  30.946  1.00  0.00    -0.206 F 
ATOM     88  C   UNL A   1      47.210  35.842  29.532  1.00  0.00     0.022 A 
BRANCH  85  89
ATOM     89  S   UNL A   1      46.778  36.944  27.006  1.00  0.00     0.124 S 
ATOM     90  O   UNL A   1      48.021  37.626  27.356  1.00  0.00    -0.237 OA
ATOM     91  O   UNL A   1      46.790  36.201  25.752  1.00  0.00    -0.237 OA
ATOM     92  O   UNL A   1      45.558  37.710  27.261  1.00  0.00    -0.744 OA
ENDBRANCH  85  89
ENDBRANCH  59  82
ENDBRANCH  33  34
ENDBRANCH  25  28
ENDBRANCH  23  24
ENDBRANCH  22  23
ENDBRANCH  21  22
ENDBRANCH   1  21
TORSDOF 19
ENDMDL
